2loz_ligand
  -I-interpret- 

219222  0  0  0  0  0  0  0  0999 V2000
    9.5950   -9.9120   -5.8710 N   0  3  0  0  0
    9.2350  -11.1290   -6.6250 C   0  0  0  0  0
    9.4920  -12.3800   -5.7920 C   0  0  0  0  0
    8.5620  -12.9610   -5.2440 O   0  0  0  0  0
   10.0140  -11.1850   -7.9350 C   0  0  0  0  0
    9.3550  -10.3940   -9.0510 C   0  0  0  0  0
    7.9820  -10.9330   -9.4050 C   0  0  0  0  0
    7.8340  -12.1710   -9.4820 O   0  0  0  0  0
    7.0470  -10.1270   -9.6090 O   0  0  0  0  0
   10.7480  -12.7910   -5.6800 N   0  0  0  0  0
   11.0770  -13.9810   -4.8970 C   0  0  0  0  0
   11.9060  -13.6180   -3.6750 C   0  0  0  0  0
   11.5910  -14.0190   -2.5520 O   0  0  0  0  0
   11.8320  -15.0050   -5.7470 C   0  0  0  0  0
   12.4360  -16.1120   -4.9040 C   0  0  0  0  0
   11.7010  -17.0490   -4.5250 O   0  0  0  0  0
   13.6490  -16.0480   -4.6120 O   0  0  0  0  0
   12.9700  -12.8680   -3.9040 N   0  0  0  0  0
   13.8540  -12.4440   -2.8290 C   0  0  0  0  0
   13.2680  -11.2500   -2.0940 C   0  0  0  0  0
   12.7480  -10.3240   -2.7210 O   0  0  0  0  0
   15.2320  -12.0790   -3.3870 C   0  0  0  0  0
   16.1950  -13.2270   -3.4380 C   0  0  0  0  0
   15.8940  -14.4750   -3.9430 N   0  0  0  0  0
   17.4900  -13.2920   -3.0360 C   0  0  0  0  0
   16.9900  -15.2370   -3.8380 C   0  0  0  0  0
   17.9860  -14.5680   -3.2940 N   0  0  0  0  0
   13.3360  -11.2760   -0.7700 N   0  0  0  0  0
   12.8240  -10.1750    0.0300 C   0  0  0  0  0
   13.9210   -9.1270    0.2070 C   0  0  0  0  0
   15.0170   -9.4420    0.6720 O   0  0  0  0  0
   12.3520  -10.6810    1.4000 C   0  0  0  0  0
   10.8370  -10.7880    1.5370 C   0  0  0  0  0
   10.4480  -11.4540    2.8530 C   0  0  0  0  0
    8.9700  -11.2760    3.1750 C   0  0  0  0  0
    8.6090  -11.8890    4.4840 N   0  3  0  0  0
   13.6470   -7.8710   -0.1710 N   0  0  0  0  0
   14.6050   -6.7690   -0.0540 C   0  0  0  0  0
   14.6790   -6.2030    1.3530 C   0  0  0  0  0
   14.0030   -6.6770    2.2700 O   0  0  0  0  0
   14.0590   -5.7050   -1.0270 C   0  0  0  0  0
   12.8510   -6.3050   -1.6730 C   0  0  0  0  0
   12.3970   -7.4220   -0.7810 C   0  0  0  0  0
   15.5120   -5.1940    1.5150 N   0  0  0  0  0
   15.6680   -4.5660    2.8020 C   0  0  0  0  0
   16.7470   -3.5140    2.7920 C   0  0  0  0  0
   17.7000   -3.5790    3.5680 O   0  0  0  0  0
   16.6020   -2.5410    1.9110 N   0  0  0  0  0
   17.5800   -1.4750    1.7970 C   0  0  0  0  0
   16.8830   -0.1330    1.5650 C   0  0  0  0  0
   16.4670    0.1690    0.4450 O   0  0  0  0  0
   18.5770   -1.7640    0.6420 C   0  0  0  0  0
   17.8950   -1.7590   -0.6190 O   0  0  0  0  0
   19.2500   -3.1200    0.8210 C   0  0  0  0  0
   16.7480    0.6660    2.6240 N   0  0  0  0  0
   16.0900    1.9730    2.5220 C   0  0  0  0  0
   16.0630    2.7220    3.8660 C   0  0  0  0  0
   16.5800    3.8360    3.9550 O   0  0  0  0  0
   14.6620    1.8250    1.9700 C   0  0  0  0  0
   13.9220    3.1250    1.8100 C   0  0  0  0  0
   14.5570    4.2470    1.2980 C   0  0  0  0  0
   12.5890    3.2220    2.1720 C   0  0  0  0  0
   13.8740    5.4410    1.1540 C   0  0  0  0  0
   11.9020    4.4110    2.0290 C   0  0  0  0  0
   12.5450    5.5220    1.5190 C   0  0  0  0  0
   15.4810    2.1380    4.9340 N   0  0  0  0  0
   15.3790    2.8050    6.2300 C   0  0  0  0  0
   16.6020    2.6090    7.1240 C   0  0  0  0  0
   17.7170    2.3800    6.6450 O   0  0  0  0  0
   14.1550    2.1360    6.8460 C   0  0  0  0  0
   14.1880    0.7420    6.3260 C   0  0  0  0  0
   14.8780    0.7930    4.9830 C   0  0  0  0  0
   16.3740    2.7060    8.4310 N   0  0  0  0  0
   17.4320    2.5620    9.4230 C   0  0  0  0  0
   17.0820    1.4850   10.4490 C   0  0  0  0  0
   17.4600    1.5950   11.6160 O   0  0  0  0  0
   17.6470    3.8950   10.1480 C   0  0  0  0  0
   17.9980    5.0510    9.2250 C   0  0  0  0  0
   19.3590    4.8540    8.5840 C   0  0  0  0  0
   19.7080    5.9930    7.6410 C   0  0  0  0  0
   21.0550    5.8110    7.0410 N   0  3  0  0  0
   16.3740    0.4430   10.0050 N   0  0  0  0  0
   15.9530   -0.6490   10.8880 C   0  0  0  0  0
   15.1230   -0.1080   12.0490 C   0  0  0  0  0
   15.6000   -0.0060   13.1820 O   0  0  0  0  0
   17.1610   -1.4300   11.4000 C   0  0  0  0  0
   13.8790    0.2430   11.7580 N   0  0  0  0  0
   12.9920    0.8040   12.7700 C   0  0  0  0  0
   11.9420   -0.2050   13.2000 C   0  0  0  0  0
   11.7510   -1.2370   12.5550 O   0  0  0  0  0
   12.2750    2.0610   12.2480 C   0  0  0  0  0
   13.1600    3.2030   11.7360 C   0  0  0  0  0
   14.3860    3.3870   12.6160 C   0  0  0  0  0
   13.5520    2.9630   10.2870 C   0  0  0  0  0
   11.2640    0.1180   14.2880 N   0  0  0  0  0
   10.2040   -0.7090   14.8290 C   0  0  0  0  0
    9.2960    0.1540   15.7180 C   0  0  0  0  0
    9.4280    0.1770   16.9450 O   0  0  0  0  0
   10.7610   -1.9350   15.6020 C   0  0  0  0  0
    9.7070   -2.6140   16.2970 O   0  0  0  0  0
   11.8570   -1.5360   16.5820 C   0  0  0  0  0
    8.4020    0.8960   15.0620 N   0  0  0  0  0
    7.4600    1.7970   15.7360 C   0  0  0  0  0
    8.2030    2.9470   16.4120 C   0  0  0  0  0
    8.6710    3.8550   15.6910 O   0  0  0  0  0
    6.5910    1.0480   16.7540 C   0  0  0  0  0
    5.3780    1.8560   17.1850 C   0  0  0  0  0
    5.1090    2.0050   18.3760 O   0  0  0  0  0
    4.6260    2.3600   16.2180 N   0  0  0  0  0
    8.3310    2.9400   17.6560 O   0  0  0  0  0
    9.0681   -9.8860   -4.9980 H   0  0  0  0  0
   10.5942   -9.9234   -5.6663 H   0  0  0  0  0
    9.3706   -9.0886   -6.4296 H   0  0  0  0  0
    8.1699  -11.0912   -6.8536 H   0  0  0  0  0
   10.0605  -12.2276   -8.2495 H   0  0  0  0  0
   10.9973  -10.7503   -7.7556 H   0  0  0  0  0
    9.9862  -10.4682   -9.9366 H   0  0  0  0  0
    9.2373   -9.3647   -8.7122 H   0  0  0  0  0
    7.3701   -9.2296   -9.5000 H   0  0  0  0  0
   11.4923  -12.2713   -6.1451 H   0  0  0  0  0
   10.1378  -14.4236   -4.5651 H   0  0  0  0  0
   12.6425  -14.4885   -6.2613 H   0  0  0  0  0
   11.1253  -15.4555   -6.4440 H   0  0  0  0  0
   10.8104  -16.9092   -4.8550 H   0  0  0  0  0
   13.1769  -12.5787   -4.8600 H   0  0  0  0  0
   13.9592  -13.2724   -2.1284 H   0  0  0  0  0
   15.6602  -11.3279   -2.7233 H   0  0  0  0  0
   15.0848  -11.7356   -4.4110 H   0  0  0  0  0
   18.0524  -12.4754   -2.5832 H   0  0  0  0  0
   17.0503  -16.2763   -4.1609 H   0  0  0  0  0
   13.7544  -12.0817   -0.3050 H   0  0  0  0  0
   11.9721   -9.7274   -0.4819 H   0  0  0  0  0
   12.6928   -9.9612    2.1442 H   0  0  0  0  0
   12.7589  -11.6837    1.5308 H   0  0  0  0  0
   10.4551  -11.3929    0.7146 H   0  0  0  0  0
   10.4140   -9.7836    1.5169 H   0  0  0  0  0
   11.0267  -10.9897    3.6515 H   0  0  0  0  0
   10.6490  -12.5216    2.7645 H   0  0  0  0  0
    8.3886  -11.7680    2.3952 H   0  0  0  0  0
    8.7578  -10.2081    3.2275 H   0  0  0  0  0
    7.6144  -11.7482    4.6613 H   0  0  0  0  0
    8.8128  -12.8881    4.4579 H   0  0  0  0  0
    9.1534  -11.4489    5.2258 H   0  0  0  0  0
   15.6191   -7.0973   -0.2820 H   0  0  0  0  0
   14.8076   -5.4347   -1.7717 H   0  0  0  0  0
   13.8048   -4.7857   -0.4993 H   0  0  0  0  0
   13.0870   -6.6754   -2.6706 H   0  0  0  0  0
   12.0645   -5.5601   -1.7945 H   0  0  0  0  0
   11.6542   -7.1070   -0.0481 H   0  0  0  0  0
   11.8776   -8.2139   -1.3206 H   0  0  0  0  0
   16.0524   -4.8540    0.7196 H   0  0  0  0  0
   15.9481   -5.3337    3.5233 H   0  0  0  0  0
   14.7255   -4.0840    3.0618 H   0  0  0  0  0
   15.7864   -2.5387    1.2985 H   0  0  0  0  0
   18.1380   -1.4252    2.7320 H   0  0  0  0  0
   19.3342   -0.9802    0.6626 H   0  0  0  0  0
   18.5234   -1.9388   -1.3221 H   0  0  0  0  0
   19.7966   -3.1312    1.7640 H   0  0  0  0  0
   18.4912   -3.9024    0.8301 H   0  0  0  0  0
   19.9418   -3.2925   -0.0035 H   0  0  0  0  0
   17.1111    0.3609    3.5270 H   0  0  0  0  0
   16.6819    2.5686    1.8270 H   0  0  0  0  0
   14.1022    1.2234    2.6861 H   0  0  0  0  0
   14.7460    1.3798    0.9786 H   0  0  0  0  0
   15.6055    4.1870    1.0060 H   0  0  0  0  0
   12.0757    2.3489    2.5748 H   0  0  0  0  0
   14.3842    6.3167    0.7529 H   0  0  0  0  0
   10.8529    4.4729    2.3184 H   0  0  0  0  0
   12.0039    6.4613    1.4049 H   0  0  0  0  0
   15.3074    3.8873    6.1219 H   0  0  0  0  0
   13.2316    2.6494    6.5779 H   0  0  0  0  0
   14.1793    2.1654    7.9353 H   0  0  0  0  0
   13.1792    0.3410    6.2283 H   0  0  0  0  0
   14.7232    0.0852    7.0118 H   0  0  0  0  0
   15.6232    0.0050    4.8743 H   0  0  0  0  0
   14.1850    0.6237    4.1589 H   0  0  0  0  0
   15.4228    2.8880    8.7510 H   0  0  0  0  0
   18.3438    2.2668    8.9038 H   0  0  0  0  0
   18.4858    3.7602   10.8309 H   0  0  0  0  0
   16.7095    4.1491   10.6425 H   0  0  0  0  0
   18.0218    5.9685    9.8130 H   0  0  0  0  0
   17.2480    5.1038    8.4358 H   0  0  0  0  0
   19.3366    3.9279    8.0095 H   0  0  0  0  0
   20.1088    4.8214    9.3745 H   0  0  0  0  0
   19.7060    6.9236    8.2085 H   0  0  0  0  0
   18.9721    6.0131    6.8371 H   0  0  0  0  0
   21.2556    6.5914    6.4155 H   0  0  0  0  0
   21.7547    5.7795    7.7825 H   0  0  0  0  0
   21.0762    4.9376    6.5145 H   0  0  0  0  0
   16.1176    0.4058    9.0184 H   0  0  0  0  0
   15.3301   -1.3340   10.3127 H   0  0  0  0  0
   17.7047   -1.8513   10.5544 H   0  0  0  0  0
   17.8158   -0.7599   11.9571 H   0  0  0  0  0
   16.8219   -2.2344   12.0527 H   0  0  0  0  0
   13.5346    0.1181   10.8060 H   0  0  0  0  0
   13.6167    1.0681   13.6233 H   0  0  0  0  0
   11.7273    2.4667   13.0986 H   0  0  0  0  0
   11.6853    1.7339   11.3916 H   0  0  0  0  0
   12.5844    4.1274   11.7837 H   0  0  0  0  0
   14.0701    3.6207   13.6327 H   0  0  0  0  0
   14.9713    2.4675   12.6183 H   0  0  0  0  0
   14.9925    4.2043   12.2257 H   0  0  0  0  0
   14.1031    2.0256   10.2115 H   0  0  0  0  0
   12.6530    2.9079    9.6731 H   0  0  0  0  0
   14.1800    3.7840    9.9411 H   0  0  0  0  0
   11.4972    0.9874   14.7677 H   0  0  0  0  0
    9.6178   -1.1117   14.0030 H   0  0  0  0  0
   11.1983   -2.6097   14.8661 H   0  0  0  0  0
   10.0696   -3.3677   16.7683 H   0  0  0  0  0
   12.6790   -1.0723   16.0367 H   0  0  0  0  0
   11.4547   -0.8279   17.3065 H   0  0  0  0  0
   12.2187   -2.4233   17.1015 H   0  0  0  0  0
    8.3719    0.8341   14.0443 H   0  0  0  0  0
    6.7982    2.2083   14.9738 H   0  0  0  0  0
    7.1984    0.8536   17.6379 H   0  0  0  0  0
    6.2359    0.1307   16.2844 H   0  0  0  0  0
    3.7886    2.8946   16.4492 H   0  0  0  0  0
    4.8843    2.2135   15.2422 H   0  0  0  0  0
    7.9018    2.1606   18.0163 H   0  0  0  0  0
  1  2  1  0  0  0
  2  3  1  0  0  0
  2  5  1  0  0  0
  3  4  2  0  0  0
  3 10  1  0  0  0
  5  6  1  0  0  0
  6  7  1  0  0  0
  7  8  2  0  0  0
  7  9  1  0  0  0
 10 11  1  0  0  0
 11 12  1  0  0  0
 11 14  1  0  0  0
 12 13  2  0  0  0
 12 18  1  0  0  0
 14 15  1  0  0  0
 15 16  1  0  0  0
 15 17  2  0  0  0
 18 19  1  0  0  0
 19 20  1  0  0  0
 19 22  1  0  0  0
 20 21  2  0  0  0
 20 28  1  0  0  0
 22 23  1  0  0  0
 23 24  4  0  0  0
 23 25  4  0  0  0
 24 26  4  0  0  0
 25 27  4  0  0  0
 26 27  4  0  0  0
 28 29  1  0  0  0
 29 30  1  0  0  0
 29 32  1  0  0  0
 30 31  2  0  0  0
 30 37  1  0  0  0
 32 33  1  0  0  0
 33 34  1  0  0  0
 34 35  1  0  0  0
 35 36  1  0  0  0
 37 38  1  0  0  0
 37 43  1  0  0  0
 38 39  1  0  0  0
 38 41  1  0  0  0
 39 40  2  0  0  0
 39 44  1  0  0  0
 41 42  1  0  0  0
 42 43  1  0  0  0
 44 45  1  0  0  0
 45 46  1  0  0  0
 46 47  2  0  0  0
 46 48  1  0  0  0
 48 49  1  0  0  0
 49 50  1  0  0  0
 49 52  1  0  0  0
 50 51  2  0  0  0
 50 55  1  0  0  0
 52 53  1  0  0  0
 52 54  1  0  0  0
 55 56  1  0  0  0
 56 57  1  0  0  0
 56 59  1  0  0  0
 57 58  2  0  0  0
 57 66  1  0  0  0
 59 60  1  0  0  0
 60 61  4  0  0  0
 60 62  4  0  0  0
 61 63  4  0  0  0
 62 64  4  0  0  0
 63 65  4  0  0  0
 64 65  4  0  0  0
 66 67  1  0  0  0
 66 72  1  0  0  0
 67 68  1  0  0  0
 67 70  1  0  0  0
 68 69  2  0  0  0
 68 73  1  0  0  0
 70 71  1  0  0  0
 71 72  1  0  0  0
 73 74  1  0  0  0
 74 75  1  0  0  0
 74 77  1  0  0  0
 75 76  2  0  0  0
 75 82  1  0  0  0
 77 78  1  0  0  0
 78 79  1  0  0  0
 79 80  1  0  0  0
 80 81  1  0  0  0
 82 83  1  0  0  0
 83 84  1  0  0  0
 83 86  1  0  0  0
 84 85  2  0  0  0
 84 87  1  0  0  0
 87 88  1  0  0  0
 88 89  1  0  0  0
 88 91  1  0  0  0
 89 90  2  0  0  0
 89 95  1  0  0  0
 91 92  1  0  0  0
 92 93  1  0  0  0
 92 94  1  0  0  0
 95 96  1  0  0  0
 96 97  1  0  0  0
 96 99  1  0  0  0
 97 98  2  0  0  0
 97102  1  0  0  0
 99100  1  0  0  0
 99101  1  0  0  0
102103  1  0  0  0
103104  1  0  0  0
103106  1  0  0  0
104105  2  0  0  0
104110  1  0  0  0
106107  1  0  0  0
107108  2  0  0  0
107109  1  0  0  0
  1111  1  0  0  0
  1112  1  0  0  0
  1113  1  0  0  0
  2114  1  0  0  0
  5115  1  0  0  0
  5116  1  0  0  0
  6117  1  0  0  0
  6118  1  0  0  0
  9119  1  0  0  0
 10120  1  0  0  0
 11121  1  0  0  0
 14122  1  0  0  0
 14123  1  0  0  0
 16124  1  0  0  0
 18125  1  0  0  0
 19126  1  0  0  0
 22127  1  0  0  0
 22128  1  0  0  0
 25129  1  0  0  0
 26130  1  0  0  0
 28131  1  0  0  0
 29132  1  0  0  0
 32133  1  0  0  0
 32134  1  0  0  0
 33135  1  0  0  0
 33136  1  0  0  0
 34137  1  0  0  0
 34138  1  0  0  0
 35139  1  0  0  0
 35140  1  0  0  0
 36141  1  0  0  0
 36142  1  0  0  0
 36143  1  0  0  0
 38144  1  0  0  0
 41145  1  0  0  0
 41146  1  0  0  0
 42147  1  0  0  0
 42148  1  0  0  0
 43149  1  0  0  0
 43150  1  0  0  0
 44151  1  0  0  0
 45152  1  0  0  0
 45153  1  0  0  0
 48154  1  0  0  0
 49155  1  0  0  0
 52156  1  0  0  0
 53157  1  0  0  0
 54158  1  0  0  0
 54159  1  0  0  0
 54160  1  0  0  0
 55161  1  0  0  0
 56162  1  0  0  0
 59163  1  0  0  0
 59164  1  0  0  0
 61165  1  0  0  0
 62166  1  0  0  0
 63167  1  0  0  0
 64168  1  0  0  0
 65169  1  0  0  0
 67170  1  0  0  0
 70171  1  0  0  0
 70172  1  0  0  0
 71173  1  0  0  0
 71174  1  0  0  0
 72175  1  0  0  0
 72176  1  0  0  0
 73177  1  0  0  0
 74178  1  0  0  0
 77179  1  0  0  0
 77180  1  0  0  0
 78181  1  0  0  0
 78182  1  0  0  0
 79183  1  0  0  0
 79184  1  0  0  0
 80185  1  0  0  0
 80186  1  0  0  0
 81187  1  0  0  0
 81188  1  0  0  0
 81189  1  0  0  0
 82190  1  0  0  0
 83191  1  0  0  0
 86192  1  0  0  0
 86193  1  0  0  0
 86194  1  0  0  0
 87195  1  0  0  0
 88196  1  0  0  0
 91197  1  0  0  0
 91198  1  0  0  0
 92199  1  0  0  0
 93200  1  0  0  0
 93201  1  0  0  0
 93202  1  0  0  0
 94203  1  0  0  0
 94204  1  0  0  0
 94205  1  0  0  0
 95206  1  0  0  0
 96207  1  0  0  0
 99208  1  0  0  0
100209  1  0  0  0
101210  1  0  0  0
101211  1  0  0  0
101212  1  0  0  0
102213  1  0  0  0
103214  1  0  0  0
106215  1  0  0  0
106216  1  0  0  0
109217  1  0  0  0
109218  1  0  0  0
110219  1  0  0  0
M  END
$$$$
