### 
### Created by X-TOOL on Mon Sep 10 21:13:12 2018
### 

@<TRIPOS>MOLECULE
2loz_ligand
  217   220     1     0     0
SMALL
GAST_HUCK


@<TRIPOS>ATOM
      1 N           9.5950   -9.9120   -5.8710 N.4       1 GLU         0.2380
      2 CA          9.2350  -11.1290   -6.6250 C.3       1 GLU         0.0665
      3 C           9.4920  -12.3800   -5.7920 C.2       1 GLU         0.2269
      4 O           8.5620  -12.9610   -5.2440 O.2       1 GLU        -0.3907
      5 CB         10.0140  -11.1850   -7.9350 C.3       1 GLU         0.0194
      6 CG          9.3550  -10.3940   -9.0510 C.3       1 GLU         0.0075
      7 CD          7.9820  -10.9330   -9.4050 C.2       1 GLU         0.0351
      8 OE1         7.8340  -12.1710   -9.4820 O.co2     1 GLU        -0.5690
      9 OE2         7.0470  -10.1270   -9.6090 O.co2     1 GLU        -0.5690
     10 N          10.7480  -12.7910   -5.6800 N.am      1 ASP        -0.2595
     11 CA         11.0770  -13.9810   -4.8970 C.3       1 ASP         0.1424
     12 C          11.9060  -13.6180   -3.6750 C.2       1 ASP         0.2057
     13 O          11.5910  -14.0190   -2.5520 O.2       1 ASP        -0.3943
     14 CB         11.8320  -15.0050   -5.7470 C.3       1 ASP         0.0406
     15 CG         12.4360  -16.1120   -4.9040 C.2       1 ASP         0.0393
     16 OD1        11.7010  -17.0490   -4.5250 O.co2     1 ASP        -0.5688
     17 OD2        13.6490  -16.0480   -4.6120 O.co2     1 ASP        -0.5688
     18 N          12.9700  -12.8680   -3.9040 N.am      1 HIS        -0.2618
     19 CA         13.8540  -12.4440   -2.8290 C.3       1 HIS         0.1421
     20 C          13.2680  -11.2500   -2.0940 C.2       1 HIS         0.2060
     21 O          12.7480  -10.3240   -2.7210 O.2       1 HIS        -0.3942
     22 CB         15.2320  -12.0790   -3.3870 C.3       1 HIS         0.0427
     23 CG         16.1950  -13.2270   -3.4380 C.2       1 HIS         0.0561
     24 ND1        15.8940  -14.4750   -3.9430 N.pl3     1 HIS        -0.2623
     25 CD2        17.4900  -13.2920   -3.0360 C.2       1 HIS        -0.0276
     26 CE1        16.9900  -15.2370   -3.8380 C.2       1 HIS         0.0875
     27 NE2        17.9860  -14.5680   -3.2940 N.2       1 HIS        -0.3437
     28 N          13.3360  -11.2760   -0.7700 N.am      1 LYS        -0.2636
     29 CA         12.8240  -10.1750    0.0300 C.3       1 LYS         0.1312
     30 C          13.9210   -9.1270    0.2070 C.2       1 LYS         0.2064
     31 O          15.0170   -9.4420    0.6720 O.2       1 LYS        -0.3942
     32 CB         12.3520  -10.6810    1.4000 C.3       1 LYS        -0.0122
     33 CG         10.8370  -10.7880    1.5370 C.3       1 LYS        -0.0440
     34 CD         10.4480  -11.4540    2.8530 C.3       1 LYS        -0.0124
     35 CE          8.9700  -11.2760    3.1750 C.3       1 LYS        -0.0354
     36 NZ          8.6090  -11.8890    4.4840 N.4       1 LYS         0.2185
     37 N          13.6470   -7.8710   -0.1710 N.am      1 PRO        -0.2498
     38 CA         14.6050   -6.7690   -0.0540 C.3       1 PRO         0.1338
     39 C          14.6790   -6.2030    1.3530 C.2       1 PRO         0.2039
     40 O          14.0030   -6.6770    2.2700 O.2       1 PRO        -0.3944
     41 CB         14.0590   -5.7050   -1.0270 C.3       1 PRO        -0.0104
     42 CG         12.8510   -6.3050   -1.6730 C.3       1 PRO        -0.0281
     43 CD         12.3970   -7.4220   -0.7810 C.3       1 PRO         0.0369
     44 N          15.5120   -5.1940    1.5150 N.am      1 GLY        -0.2664
     45 CA         15.6680   -4.5660    2.8020 C.3       1 GLY         0.1201
     46 C          16.7470   -3.5140    2.7920 C.2       1 GLY         0.2008
     47 O          17.7000   -3.5790    3.5680 O.2       1 GLY        -0.3947
     48 N          16.6020   -2.5410    1.9110 N.am      1 THR        -0.2616
     49 CA         17.5800   -1.4750    1.7970 C.3       1 THR         0.1565
     50 C          16.8830   -0.1330    1.5650 C.2       1 THR         0.2066
     51 O          16.4670    0.1690    0.4450 O.2       1 THR        -0.3943
     52 CB         18.5770   -1.7640    0.6420 C.3       1 THR         0.0924
     53 OG1        17.8950   -1.7590   -0.6190 O.3       1 THR        -0.3874
     54 CG2        19.2500   -3.1200    0.8210 C.3       1 THR        -0.0346
     55 N          16.7480    0.6660    2.6240 N.am      1 PHE        -0.2618
     56 CA         16.0900    1.9730    2.5220 C.3       1 PHE         0.1406
     57 C          16.0630    2.7220    3.8660 C.2       1 PHE         0.2085
     58 O          16.5800    3.8360    3.9550 O.2       1 PHE        -0.3940
     59 CB         14.6620    1.8250    1.9700 C.3       1 PHE         0.0214
     60 CG         13.9220    3.1250    1.8100 C.ar      1 PHE        -0.0386
     61 CD1        14.5570    4.2470    1.2980 C.ar      1 PHE        -0.0601
     62 CD2        12.5890    3.2220    2.1720 C.ar      1 PHE        -0.0601
     63 CE1        13.8740    5.4410    1.1540 C.ar      1 PHE        -0.0686
     64 CE2        11.9020    4.4110    2.0290 C.ar      1 PHE        -0.0686
     65 CZ         12.5450    5.5220    1.5190 C.ar      1 PHE        -0.0687
     66 N          15.4810    2.1380    4.9340 N.am      1 PRO        -0.2497
     67 CA         15.3790    2.8050    6.2300 C.3       1 PRO         0.1338
     68 C          16.6020    2.6090    7.1240 C.2       1 PRO         0.2041
     69 O          17.7170    2.3800    6.6450 O.2       1 PRO        -0.3944
     70 CB         14.1550    2.1360    6.8460 C.3       1 PRO        -0.0104
     71 CG         14.1880    0.7420    6.3260 C.3       1 PRO        -0.0281
     72 CD         14.8780    0.7930    4.9830 C.3       1 PRO         0.0369
     73 N          16.3740    2.7060    8.4310 N.am      1 LYS        -0.2637
     74 CA         17.4320    2.5620    9.4230 C.3       1 LYS         0.1310
     75 C          17.0820    1.4850   10.4490 C.2       1 LYS         0.2039
     76 O          17.4600    1.5950   11.6160 O.2       1 LYS        -0.3944
     77 CB         17.6470    3.8950   10.1480 C.3       1 LYS        -0.0122
     78 CG         17.9980    5.0510    9.2250 C.3       1 LYS        -0.0440
     79 CD         19.3590    4.8540    8.5840 C.3       1 LYS        -0.0124
     80 CE         19.7080    5.9930    7.6410 C.3       1 LYS        -0.0354
     81 NZ         21.0550    5.8110    7.0410 N.4       1 LYS         0.2185
     82 N          16.3740    0.4430   10.0050 N.am      1 ALA        -0.2640
     83 CA         15.9530   -0.6490   10.8880 C.3       1 ALA         0.1282
     84 C          15.1230   -0.1080   12.0490 C.2       1 ALA         0.2036
     85 O          15.6000   -0.0060   13.1820 O.2       1 ALA        -0.3944
     86 CB         17.1610   -1.4300   11.4000 C.3       1 ALA        -0.0244
     87 N          13.8790    0.2430   11.7580 N.am      1 LEU        -0.2637
     88 CA         12.9920    0.8040   12.7700 C.3       1 LEU         0.1312
     89 C          11.9420   -0.2050   13.2000 C.2       1 LEU         0.2040
     90 O          11.7510   -1.2370   12.5550 O.2       1 LEU        -0.3944
     91 CB         12.2750    2.0610   12.2480 C.3       1 LEU        -0.0101
     92 CG         13.1600    3.2030   11.7360 C.3       1 LEU        -0.0425
     93 CD1        14.3860    3.3870   12.6160 C.3       1 LEU        -0.0625
     94 CD2        13.5520    2.9630   10.2870 C.3       1 LEU        -0.0625
     95 N          11.2640    0.1180   14.2880 N.am      1 THR        -0.2613
     96 CA         10.2040   -0.7090   14.8290 C.3       1 THR         0.1564
     97 C           9.2960    0.1540   15.7180 C.2       1 THR         0.2060
     98 O           9.4280    0.1770   16.9450 O.2       1 THR        -0.3943
     99 CB         10.7610   -1.9350   15.6020 C.3       1 THR         0.0924
    100 OG1         9.7070   -2.6140   16.2970 O.3       1 THR        -0.3874
    101 CG2        11.8570   -1.5360   16.5820 C.3       1 THR        -0.0346
    102 N           8.4020    0.8960   15.0620 N.am      1 ASN        -0.2673
    103 CA          7.4600    1.7970   15.7360 C.3       1 ASN         0.1110
    104 C           8.2030    2.9470   16.4120 C.2       1 ASN         0.0624
    105 O           8.6710    3.8550   15.6910 O.co2     1 ASN        -0.5665
    106 CB          6.5910    1.0480   16.7540 C.3       1 ASN         0.0718
    107 CG          5.3780    1.8560   17.1850 C.2       1 ASN         0.1774
    108 OD1         5.1090    2.0050   18.3760 O.2       1 ASN        -0.3971
    109 ND2         4.6260    2.3600   16.2180 N.am      1 ASN        -0.3007
    110 OXT         8.3310    2.9400   17.6560 O.co2     1 ASN        -0.5665
    111 H           9.0681   -9.8860   -4.9980 H         1 GLU         0.2015
    112 H          10.5942   -9.9234   -5.6663 H         1 GLU         0.2015
    113 H           9.3706   -9.0886   -6.4296 H         1 GLU         0.2015
    114 H           8.1699  -11.0912   -6.8536 H         1 GLU         0.1099
    115 H          10.0605  -12.2276   -8.2495 H         1 GLU         0.0363
    116 H          10.9973  -10.7503   -7.7556 H         1 GLU         0.0363
    117 H           9.9862  -10.4682   -9.9366 H         1 GLU         0.0434
    118 H           9.2373   -9.3647   -8.7122 H         1 GLU         0.0434
    119 H          11.4923  -12.2713   -6.1451 H         1 ASP         0.1886
    120 H          10.1378  -14.4236   -4.5651 H         1 ASP         0.0819
    121 H          12.6425  -14.4885   -6.2613 H         1 ASP         0.0478
    122 H          11.1253  -15.4555   -6.4440 H         1 ASP         0.0478
    123 H          13.1769  -12.5787   -4.8600 H         1 HIS         0.1885
    124 H          13.9592  -13.2724   -2.1284 H         1 HIS         0.0824
    125 H          15.6602  -11.3279   -2.7233 H         1 HIS         0.0491
    126 H          15.0848  -11.7356   -4.4110 H         1 HIS         0.0491
    127 H          14.9954  -14.7658   -4.3282 H         1 HIS         0.2386
    128 H          18.0524  -12.4754   -2.5832 H         1 HIS         0.0324
    129 H          17.0503  -16.2763   -4.1609 H         1 HIS         0.1149
    130 H          13.7544  -12.0817   -0.3050 H         1 LYS         0.1883
    131 H          11.9721   -9.7274   -0.4819 H         1 LYS         0.0800
    132 H          12.6928   -9.9612    2.1442 H         1 LYS         0.0312
    133 H          12.7589  -11.6837    1.5308 H         1 LYS         0.0312
    134 H          10.4551  -11.3929    0.7146 H         1 LYS         0.0269
    135 H          10.4140   -9.7836    1.5169 H         1 LYS         0.0269
    136 H          11.0267  -10.9897    3.6515 H         1 LYS         0.0317
    137 H          10.6490  -12.5216    2.7645 H         1 LYS         0.0317
    138 H           8.3886  -11.7680    2.3952 H         1 LYS         0.0813
    139 H           8.7578  -10.2081    3.2275 H         1 LYS         0.0813
    140 H           7.6144  -11.7482    4.6613 H         1 LYS         0.1994
    141 H           8.8128  -12.8881    4.4579 H         1 LYS         0.1994
    142 H           9.1534  -11.4489    5.2258 H         1 LYS         0.1994
    143 H          15.6191   -7.0973   -0.2820 H         1 PRO         0.0802
    144 H          14.8076   -5.4347   -1.7717 H         1 PRO         0.0313
    145 H          13.8048   -4.7857   -0.4993 H         1 PRO         0.0313
    146 H          13.0870   -6.6754   -2.6706 H         1 PRO         0.0287
    147 H          12.0645   -5.5601   -1.7945 H         1 PRO         0.0287
    148 H          11.6542   -7.1070   -0.0481 H         1 PRO         0.0524
    149 H          11.8776   -8.2139   -1.3206 H         1 PRO         0.0524
    150 H          16.0524   -4.8540    0.7196 H         1 GLY         0.1881
    151 H          15.9481   -5.3337    3.5233 H         1 GLY         0.0763
    152 H          14.7255   -4.0840    3.0618 H         1 GLY         0.0763
    153 H          15.7864   -2.5387    1.2985 H         1 THR         0.1884
    154 H          18.1380   -1.4252    2.7320 H         1 THR         0.0826
    155 H          19.3342   -0.9802    0.6626 H         1 THR         0.0639
    156 H          17.4924   -0.8991   -0.7603 H         1 THR         0.2101
    157 H          19.7966   -3.1312    1.7640 H         1 THR         0.0257
    158 H          18.4912   -3.9024    0.8301 H         1 THR         0.0257
    159 H          19.9418   -3.2925   -0.0035 H         1 THR         0.0257
    160 H          17.1111    0.3609    3.5270 H         1 PHE         0.1885
    161 H          16.6819    2.5686    1.8270 H         1 PHE         0.0823
    162 H          14.1022    1.2234    2.6861 H         1 PHE         0.0474
    163 H          14.7460    1.3798    0.9786 H         1 PHE         0.0474
    164 H          15.6055    4.1870    1.0060 H         1 PHE         0.0557
    165 H          12.0757    2.3489    2.5748 H         1 PHE         0.0557
    166 H          14.3842    6.3167    0.7529 H         1 PHE         0.0599
    167 H          10.8529    4.4729    2.3184 H         1 PHE         0.0599
    168 H          12.0039    6.4613    1.4049 H         1 PHE         0.0559
    169 H          15.3074    3.8873    6.1219 H         1 PRO         0.0802
    170 H          13.2316    2.6494    6.5779 H         1 PRO         0.0313
    171 H          14.1793    2.1654    7.9353 H         1 PRO         0.0313
    172 H          13.1792    0.3410    6.2283 H         1 PRO         0.0287
    173 H          14.7232    0.0852    7.0118 H         1 PRO         0.0287
    174 H          15.6232    0.0050    4.8743 H         1 PRO         0.0524
    175 H          14.1850    0.6237    4.1589 H         1 PRO         0.0524
    176 H          15.4228    2.8880    8.7510 H         1 LYS         0.1883
    177 H          18.3438    2.2668    8.9038 H         1 LYS         0.0800
    178 H          18.4858    3.7602   10.8309 H         1 LYS         0.0312
    179 H          16.7095    4.1491   10.6425 H         1 LYS         0.0312
    180 H          18.0218    5.9685    9.8130 H         1 LYS         0.0269
    181 H          17.2480    5.1038    8.4358 H         1 LYS         0.0269
    182 H          19.3366    3.9279    8.0095 H         1 LYS         0.0317
    183 H          20.1088    4.8214    9.3745 H         1 LYS         0.0317
    184 H          19.7060    6.9236    8.2085 H         1 LYS         0.0813
    185 H          18.9721    6.0131    6.8371 H         1 LYS         0.0813
    186 H          21.2556    6.5914    6.4155 H         1 LYS         0.1994
    187 H          21.7547    5.7795    7.7825 H         1 LYS         0.1994
    188 H          21.0762    4.9376    6.5145 H         1 LYS         0.1994
    189 H          16.1176    0.4058    9.0184 H         1 ALA         0.1883
    190 H          15.3301   -1.3340   10.3127 H         1 ALA         0.0797
    191 H          17.7047   -1.8513   10.5544 H         1 ALA         0.0277
    192 H          17.8158   -0.7599   11.9571 H         1 ALA         0.0277
    193 H          16.8219   -2.2344   12.0527 H         1 ALA         0.0277
    194 H          13.5346    0.1181   10.8060 H         1 LEU         0.1883
    195 H          13.6167    1.0681   13.6233 H         1 LEU         0.0800
    196 H          11.7273    2.4667   13.0986 H         1 LEU         0.0315
    197 H          11.6853    1.7339   11.3916 H         1 LEU         0.0315
    198 H          12.5844    4.1274   11.7837 H         1 LEU         0.0298
    199 H          14.0701    3.6207   13.6327 H         1 LEU         0.0232
    200 H          14.9713    2.4675   12.6183 H         1 LEU         0.0232
    201 H          14.9925    4.2043   12.2257 H         1 LEU         0.0232
    202 H          14.1031    2.0256   10.2115 H         1 LEU         0.0232
    203 H          12.6530    2.9079    9.6731 H         1 LEU         0.0232
    204 H          14.1800    3.7840    9.9411 H         1 LEU         0.0232
    205 H          11.4972    0.9874   14.7677 H         1 THR         0.1884
    206 H           9.6178   -1.1117   14.0030 H         1 THR         0.0826
    207 H          11.1983   -2.6097   14.8661 H         1 THR         0.0639
    208 H           9.2972   -2.0114   16.9219 H         1 THR         0.2101
    209 H          12.6790   -1.0723   16.0367 H         1 THR         0.0257
    210 H          11.4547   -0.8279   17.3065 H         1 THR         0.0257
    211 H          12.2187   -2.4233   17.1015 H         1 THR         0.0257
    212 H           8.3719    0.8341   14.0443 H         1 ASN         0.1877
    213 H           6.7982    2.2083   14.9738 H         1 ASN         0.0752
    214 H           7.1984    0.8536   17.6379 H         1 ASN         0.0544
    215 H           6.2359    0.1307   16.2844 H         1 ASN         0.0544
    216 H           3.7886    2.8946   16.4492 H         1 ASN         0.1814
    217 H           4.8843    2.2135   15.2422 H         1 ASN         0.1814
@<TRIPOS>BOND
     1    1    2 1  
     2    2    3 1  
     3    2    5 1  
     4    3    4 2  
     5    3   10 am 
     6    5    6 1  
     7    6    7 1  
     8    7    8 ar 
     9    7    9 ar 
    10   10   11 1  
    11   11   12 1  
    12   11   14 1  
    13   12   13 2  
    14   12   18 am 
    15   14   15 1  
    16   15   16 ar 
    17   15   17 ar 
    18   18   19 1  
    19   19   20 1  
    20   19   22 1  
    21   20   21 2  
    22   20   28 am 
    23   22   23 1  
    24   23   24 1  
    25   23   25 2  
    26   24   26 1  
    27   25   27 1  
    28   26   27 2  
    29   28   29 1  
    30   29   30 1  
    31   29   32 1  
    32   30   31 2  
    33   30   37 am 
    34   32   33 1  
    35   33   34 1  
    36   34   35 1  
    37   35   36 1  
    38   37   38 1  
    39   37   43 1  
    40   38   39 1  
    41   38   41 1  
    42   39   40 2  
    43   39   44 am 
    44   41   42 1  
    45   42   43 1  
    46   44   45 1  
    47   45   46 1  
    48   46   47 2  
    49   46   48 am 
    50   48   49 1  
    51   49   50 1  
    52   49   52 1  
    53   50   51 2  
    54   50   55 am 
    55   52   53 1  
    56   52   54 1  
    57   55   56 1  
    58   56   57 1  
    59   56   59 1  
    60   57   58 2  
    61   57   66 am 
    62   59   60 1  
    63   60   61 ar 
    64   60   62 ar 
    65   61   63 ar 
    66   62   64 ar 
    67   63   65 ar 
    68   64   65 ar 
    69   66   67 1  
    70   66   72 1  
    71   67   68 1  
    72   67   70 1  
    73   68   69 2  
    74   68   73 am 
    75   70   71 1  
    76   71   72 1  
    77   73   74 1  
    78   74   75 1  
    79   74   77 1  
    80   75   76 2  
    81   75   82 am 
    82   77   78 1  
    83   78   79 1  
    84   79   80 1  
    85   80   81 1  
    86   82   83 1  
    87   83   84 1  
    88   83   86 1  
    89   84   85 2  
    90   84   87 am 
    91   87   88 1  
    92   88   89 1  
    93   88   91 1  
    94   89   90 2  
    95   89   95 am 
    96   91   92 1  
    97   92   93 1  
    98   92   94 1  
    99   95   96 1  
   100   96   97 1  
   101   96   99 1  
   102   97   98 2  
   103   97  102 am 
   104   99  100 1  
   105   99  101 1  
   106  102  103 1  
   107  103  104 1  
   108  103  106 1  
   109  104  105 ar 
   110  104  110 ar 
   111  106  107 1  
   112  107  108 2  
   113  107  109 am 
   114    1  111 1  
   115    1  112 1  
   116    1  113 1  
   117    2  114 1  
   118    5  115 1  
   119    5  116 1  
   120    6  117 1  
   121    6  118 1  
   122   10  119 1  
   123   11  120 1  
   124   14  121 1  
   125   14  122 1  
   126   18  123 1  
   127   19  124 1  
   128   22  125 1  
   129   22  126 1  
   130   24  127 1  
   131   25  128 1  
   132   26  129 1  
   133   28  130 1  
   134   29  131 1  
   135   32  132 1  
   136   32  133 1  
   137   33  134 1  
   138   33  135 1  
   139   34  136 1  
   140   34  137 1  
   141   35  138 1  
   142   35  139 1  
   143   36  140 1  
   144   36  141 1  
   145   36  142 1  
   146   38  143 1  
   147   41  144 1  
   148   41  145 1  
   149   42  146 1  
   150   42  147 1  
   151   43  148 1  
   152   43  149 1  
   153   44  150 1  
   154   45  151 1  
   155   45  152 1  
   156   48  153 1  
   157   49  154 1  
   158   52  155 1  
   159   53  156 1  
   160   54  157 1  
   161   54  158 1  
   162   54  159 1  
   163   55  160 1  
   164   56  161 1  
   165   59  162 1  
   166   59  163 1  
   167   61  164 1  
   168   62  165 1  
   169   63  166 1  
   170   64  167 1  
   171   65  168 1  
   172   67  169 1  
   173   70  170 1  
   174   70  171 1  
   175   71  172 1  
   176   71  173 1  
   177   72  174 1  
   178   72  175 1  
   179   73  176 1  
   180   74  177 1  
   181   77  178 1  
   182   77  179 1  
   183   78  180 1  
   184   78  181 1  
   185   79  182 1  
   186   79  183 1  
   187   80  184 1  
   188   80  185 1  
   189   81  186 1  
   190   81  187 1  
   191   81  188 1  
   192   82  189 1  
   193   83  190 1  
   194   86  191 1  
   195   86  192 1  
   196   86  193 1  
   197   87  194 1  
   198   88  195 1  
   199   91  196 1  
   200   91  197 1  
   201   92  198 1  
   202   93  199 1  
   203   93  200 1  
   204   93  201 1  
   205   94  202 1  
   206   94  203 1  
   207   94  204 1  
   208   95  205 1  
   209   96  206 1  
   210   99  207 1  
   211  100  208 1  
   212  101  209 1  
   213  101  210 1  
   214  101  211 1  
   215  102  212 1  
   216  103  213 1  
   217  106  214 1  
   218  106  215 1  
   219  109  216 1  
   220  109  217 1  
@<TRIPOS>SUBSTRUCTURE
     1 GLU         1

