5yz7_ligand
  -I-interpret- 

 29 29  0  0  0  0  0  0  0  0999 V2000
   -3.0220  -19.8250   -4.5950 Br  0  0  0  0  0
   -2.0960  -18.5710   -5.7630 C   0  0  0  0  0
   -2.8280  -17.8540   -6.6860 C   0  0  0  0  0
   -2.1480  -16.9640   -7.5080 C   0  0  0  0  0
   -0.7340  -18.4360   -5.6310 C   0  0  0  0  0
   -0.0670  -17.5390   -6.4640 C   0  0  0  0  0
   -0.7580  -16.7870   -7.4110 C   0  0  0  0  0
   -0.0500  -15.8180   -8.3060 C   0  0  0  0  0
    1.0570  -16.4470   -9.2200 C   0  0  0  0  0
    2.1890  -16.6190   -8.4000 O   0  0  0  0  0
    1.4320  -15.5890  -10.4320 C   0  0  0  0  0
    2.4550  -14.7200  -10.5420 C   0  0  0  0  0
    3.5060  -14.3970   -9.4380 C   0  0  0  0  0
    3.1630  -14.5090   -8.2460 O   0  0  0  0  0
    4.6500  -14.0390   -9.8370 O   0  0  0  0  0
    2.6240  -13.9770  -11.8170 C   0  0  0  0  0
   -3.9074  -17.9817   -6.7681 H   0  0  0  0  0
   -2.7069  -16.3890   -8.2463 H   0  0  0  0  0
   -0.1868  -19.0187   -4.8899 H   0  0  0  0  0
    1.0131  -17.4243   -6.3727 H   0  0  0  0  0
    0.4492  -15.0979   -7.6576 H   0  0  0  0  0
   -0.8036  -15.3951   -8.9704 H   0  0  0  0  0
    0.6765  -17.3800   -9.6358 H   0  0  0  0  0
    2.9010  -17.0043   -8.9160 H   0  0  0  0  0
    0.7950  -15.6942  -11.3102 H   0  0  0  0  0
    4.6646  -14.0303  -10.7968 H   0  0  0  0  0
    2.7727  -14.6854  -12.6319 H   0  0  0  0  0
    1.7318  -13.3813  -12.0099 H   0  0  0  0  0
    3.4911  -13.3209  -11.7415 H   0  0  0  0  0
  1  2  1  0  0  0
  2  3  4  0  0  0
  2  5  4  0  0  0
  3  4  4  0  0  0
  4  7  4  0  0  0
  5  6  4  0  0  0
  6  7  4  0  0  0
  7  8  1  0  0  0
  8  9  1  0  0  0
  9 10  1  0  0  0
  9 11  1  0  0  0
 11 12  2  0  0  0
 12 13  1  0  0  0
 12 16  1  0  0  0
 13 14  2  0  0  0
 13 15  1  0  0  0
  3 17  1  0  0  0
  4 18  1  0  0  0
  5 19  1  0  0  0
  6 20  1  0  0  0
  8 21  1  0  0  0
  8 22  1  0  0  0
  9 23  1  0  0  0
 10 24  1  0  0  0
 11 25  1  0  0  0
 15 26  1  0  0  0
 16 27  1  0  0  0
 16 28  1  0  0  0
 16 29  1  0  0  0
M  END
$$$$
