4g2f_ligand
  -I-interpret- 

 44 47  0  0  0  0  0  0  0  0999 V2000
   -9.5810    8.4270   53.9710 O   0  0  0  0  0
   -9.2290    7.7920   52.8640 C   0  0  0  0  0
   -8.9370    6.3330   52.9210 C   0  0  0  0  0
   -9.0440    5.6030   54.2410 C   0  0  0  0  0
   -8.8080    4.1010   54.0820 C   0  0  0  0  0
   -7.7220    3.7870   53.0570 C   0  0  0  0  0
   -8.2310    4.1530   51.6700 C   0  0  0  0  0
   -8.5480    5.6300   51.6780 C   0  0  0  0  0
   -8.4730    6.4380   50.4400 C   0  0  0  0  0
   -8.7780    7.8830   50.4990 C   0  0  0  0  0
   -8.6940    8.5890   49.3500 N   0  0  0  0  0
   -8.3410    8.0050   48.1900 C   0  0  0  0  0
   -8.0510    6.6980   48.0720 N   0  0  0  0  0
   -8.0880    5.8640   49.1320 C   0  0  0  0  0
   -7.7990    4.5480   49.0170 N   0  0  0  0  0
   -9.1490    8.4860   51.7250 N   0  0  0  0  0
   -9.4430    9.8570   51.7900 C   0  0  0  0  0
   -8.5700   10.7190   52.4240 C   0  0  0  0  0
   -8.8680   12.0680   52.4900 C   0  0  0  0  0
   -8.0070   12.9100   53.1200 O   0  0  0  0  0
  -10.0460   12.5670   51.9320 C   0  0  0  0  0
  -10.9620   11.7420   51.2890 C   0  0  0  0  0
  -10.6940   10.3850   51.1980 C   0  0  0  0  0
  -11.6460    9.4520   50.5090 C   0  0  0  0  0
   -9.7341    9.3536   53.7721 H   0  0  0  0  0
  -10.0501    5.7514   54.6333 H   0  0  0  0  0
   -8.2833    5.9993   54.9136 H   0  0  0  0  0
   -9.7377    3.6486   53.7370 H   0  0  0  0  0
   -8.4857    3.7068   55.0457 H   0  0  0  0  0
   -7.4792    2.7249   53.0916 H   0  0  0  0  0
   -6.8246    4.3627   53.2835 H   0  0  0  0  0
   -9.1211    3.5734   51.4253 H   0  0  0  0  0
   -7.4767    3.9290   50.9157 H   0  0  0  0  0
   -8.4896    4.5425   51.7237 H   0  0  0  0  0
   -8.2873    8.6267   47.2963 H   0  0  0  0  0
   -7.8455    3.9421   49.8363 H   0  0  0  0  0
   -7.5345    4.1612   48.1110 H   0  0  0  0  0
   -7.6511   10.3383   52.8700 H   0  0  0  0  0
   -8.3511   13.8054   53.0815 H   0  0  0  0  0
  -10.2539   13.6347   52.0024 H   0  0  0  0  0
  -11.8762   12.1556   50.8633 H   0  0  0  0  0
  -11.1392    8.9700   49.6730 H   0  0  0  0  0
  -11.9854    8.6944   51.2154 H   0  0  0  0  0
  -12.5025   10.0162   50.1399 H   0  0  0  0  0
  1  2  1  0  0  0
  2  3  2  0  0  0
  2 16  1  0  0  0
  3  4  1  0  0  0
  3  8  1  0  0  0
  4  5  1  0  0  0
  5  6  1  0  0  0
  6  7  1  0  0  0
  7  8  1  0  0  0
  8  9  1  0  0  0
  9 10  4  0  0  0
  9 14  4  0  0  0
 10 11  4  0  0  0
 10 16  1  0  0  0
 11 12  4  0  0  0
 12 13  4  0  0  0
 13 14  4  0  0  0
 14 15  1  0  0  0
 16 17  1  0  0  0
 17 18  4  0  0  0
 17 23  4  0  0  0
 18 19  4  0  0  0
 19 20  1  0  0  0
 19 21  4  0  0  0
 21 22  4  0  0  0
 22 23  4  0  0  0
 23 24  1  0  0  0
  1 25  1  0  0  0
  4 26  1  0  0  0
  4 27  1  0  0  0
  5 28  1  0  0  0
  5 29  1  0  0  0
  6 30  1  0  0  0
  6 31  1  0  0  0
  7 32  1  0  0  0
  7 33  1  0  0  0
  8 34  1  0  0  0
 12 35  1  0  0  0
 15 36  1  0  0  0
 15 37  1  0  0  0
 18 38  1  0  0  0
 20 39  1  0  0  0
 21 40  1  0  0  0
 22 41  1  0  0  0
 24 42  1  0  0  0
 24 43  1  0  0  0
 24 44  1  0  0  0
M  END
$$$$
