5kr8_ligand
  -I-interpret- 

 40 42  0  0  0  0  0  0  0  0999 V2000
   14.9280   40.0540   -6.2580 N   0  0  0  0  0
   20.2250   39.4510   -6.5750 C   0  0  0  0  0
   18.9230   39.2490   -7.0240 C   0  0  0  0  0
   18.6400   38.8580   -8.3350 C   0  0  0  0  0
   16.9900   37.2030   -9.1970 C   0  0  0  0  0
   21.2880   39.2600   -7.4530 C   0  0  0  0  0
   21.0320   38.8740   -8.7660 C   0  0  0  0  0
   19.7250   38.6730   -9.2110 C   0  0  0  0  0
   15.6520   39.9860   -7.3820 C   0  0  0  0  0
   14.1450   41.2170  -11.3450 C   0  0  0  0  0
   15.4410   41.9540  -11.6060 C   0  0  0  0  0
   16.6480   41.8770  -10.8970 C   0  0  0  0  0
   17.5460   42.7400  -11.5240 C   0  0  0  0  0
   16.9540   43.3050  -12.5300 O   0  0  0  0  0
   15.6300   42.8330  -12.6130 N   0  0  0  0  0
   18.9800   42.9900  -11.1110 C   0  0  0  0  0
   16.9810   41.0350   -9.6760 C   0  0  0  0  0
   16.8420   39.5370   -9.9820 C   0  0  0  0  0
   17.1930   38.6590   -8.7730 C   0  0  0  0  0
   16.2550   38.8850   -7.6660 N   0  0  0  0  0
   15.9060   41.4670   -8.3040 S   0  0  0  0  0
   19.5490   38.3030  -10.4870 F   0  0  0  0  0
   22.5400   39.4520   -7.0180 F   0  0  0  0  0
   14.8617   39.2421   -5.6442 H   0  0  0  0  0
   20.4104   39.7560   -5.5451 H   0  0  0  0  0
   18.0967   39.4010   -6.3296 H   0  0  0  0  0
   15.9514   37.0532   -9.4917 H   0  0  0  0  0
   17.6442   36.9765  -10.0389 H   0  0  0  0  0
   17.2303   36.5457   -8.3614 H   0  0  0  0  0
   21.8635   38.7269   -9.4553 H   0  0  0  0  0
   14.3197   40.1431  -11.4103 H   0  0  0  0  0
   13.7806   41.4672  -10.3487 H   0  0  0  0  0
   13.4047   41.5119  -12.0887 H   0  0  0  0  0
   19.0008   43.3816  -10.0940 H   0  0  0  0  0
   19.5372   42.0541  -11.1529 H   0  0  0  0  0
   19.4313   43.7137  -11.7897 H   0  0  0  0  0
   18.0161   41.2416   -9.4042 H   0  0  0  0  0
   17.5323   39.2918  -10.7891 H   0  0  0  0  0
   15.8038   39.3422  -10.2507 H   0  0  0  0  0
   16.0615   38.0877   -7.0600 H   0  0  0  0  0
  9  1  2  0  0  0
  3  2  4  0  0  0
  2  6  4  0  0  0
  4  3  4  0  0  0
  4  8  4  0  0  0
 19  4  1  0  0  0
 19  5  1  0  0  0
  7  6  4  0  0  0
  6 23  1  0  0  0
  8  7  4  0  0  0
  8 22  1  0  0  0
  9 20  1  0  0  0
 21  9  1  0  0  0
 11 10  1  0  0  0
 12 11  4  0  0  0
 11 15  4  0  0  0
 12 13  4  0  0  0
 17 12  1  0  0  0
 13 14  4  0  0  0
 13 16  1  0  0  0
 14 15  4  0  0  0
 18 17  1  0  0  0
 17 21  1  0  0  0
 18 19  1  0  0  0
 19 20  1  0  0  0
  1 24  1  0  0  0
  2 25  1  0  0  0
  3 26  1  0  0  0
  5 27  1  0  0  0
  5 28  1  0  0  0
  5 29  1  0  0  0
  7 30  1  0  0  0
 10 31  1  0  0  0
 10 32  1  0  0  0
 10 33  1  0  0  0
 16 34  1  0  0  0
 16 35  1  0  0  0
 16 36  1  0  0  0
 17 37  1  0  0  0
 18 38  1  0  0  0
 18 39  1  0  0  0
 20 40  1  0  0  0
M  END
$$$$
