5a6x_ligand
  -I-interpret- 

 26 26  0  0  0  0  0  0  0  0999 V2000
   -5.2390    6.8280    9.2330 C   0  0  0  0  0
   -4.2700    6.7240    8.0540 C   0  0  0  0  0
   -3.9690    8.0820    7.4980 C   0  0  0  0  0
   -3.3190    8.9000    8.5940 C   0  0  0  0  0
   -4.2500    8.9880    9.7910 C   0  0  0  0  0
   -3.6860    9.7260   10.9900 C   0  0  0  0  0
   -6.4110    7.4190    8.7370 O   0  0  0  0  0
   -4.8350    5.9270    7.0230 O   0  0  0  0  0
   -2.9870    7.8530    6.4520 O   0  0  0  0  0
   -2.0480    8.2810    8.8960 O   0  0  0  0  0
   -4.6480    7.6710   10.2010 O   0  0  0  0  0
   -7.4480    7.4290    9.7190 C   0  0  0  0  0
   -5.4598    5.8592    9.6811 H   0  0  0  0  0
   -3.3495    6.2657    8.4157 H   0  0  0  0  0
   -4.8567    8.5964    7.1298 H   0  0  0  0  0
   -3.1348    9.9290    8.2853 H   0  0  0  0  0
   -5.1004    9.5754    9.4447 H   0  0  0  0  0
   -4.4498    9.7955   11.7645 H   0  0  0  0  0
   -2.8234    9.1831   11.3763 H   0  0  0  0  0
   -3.3809   10.7279   10.6878 H   0  0  0  0  0
   -5.0325    5.0530    7.3676 H   0  0  0  0  0
   -3.3851    7.3347    5.7488 H   0  0  0  0  0
   -1.5089    8.2560    8.1021 H   0  0  0  0  0
   -7.6759    6.4051   10.0154 H   0  0  0  0  0
   -7.1169    7.9954   10.5894 H   0  0  0  0  0
   -8.3399    7.8941    9.2990 H   0  0  0  0  0
  1  2  1  0  0  0
  1  7  1  0  0  0
  1 11  1  0  0  0
  2  3  1  0  0  0
  2  8  1  0  0  0
  3  4  1  0  0  0
  3  9  1  0  0  0
  4  5  1  0  0  0
  4 10  1  0  0  0
  5  6  1  0  0  0
  5 11  1  0  0  0
  7 12  1  0  0  0
  1 13  1  0  0  0
  2 14  1  0  0  0
  3 15  1  0  0  0
  4 16  1  0  0  0
  5 17  1  0  0  0
  6 18  1  0  0  0
  6 19  1  0  0  0
  6 20  1  0  0  0
  8 21  1  0  0  0
  9 22  1  0  0  0
 10 23  1  0  0  0
 12 24  1  0  0  0
 12 25  1  0  0  0
 12 26  1  0  0  0
M  END
$$$$
