5u0w_ligand
  -I-interpret- 

 18 19  0  0  0  0  0  0  0  0999 V2000
    8.3260   -4.1710   27.6800 C   0  0  0  0  0
    8.4030   -3.5590   26.3670 N   0  0  0  0  0
    7.5380   -3.7700   25.3310 C   0  0  0  0  0
    7.8850   -3.0610   24.2670 N   0  0  0  0  0
    9.0120   -2.3860   24.6620 C   0  0  0  0  0
    9.8120   -1.4680   23.9240 C   0  0  0  0  0
    9.5920   -1.1350   22.7690 O   0  0  0  0  0
   10.8590   -1.0200   24.7090 N   0  0  0  0  0
   11.1210   -1.3830   26.0270 C   0  0  0  0  0
   12.2330   -0.7800   26.5730 N   0  0  0  0  0
   10.3750   -2.2210   26.6850 N   0  0  0  0  0
    9.3530   -2.6740   25.9520 C   0  0  0  0  0
    7.3787   -3.9044   28.1487 H   0  0  0  0  0
    8.3906   -5.2544   27.5788 H   0  0  0  0  0
    9.1510   -3.8125   28.2955 H   0  0  0  0  0
    6.6752   -4.4347   25.3741 H   0  0  0  0  0
   12.7854   -0.1285   26.0155 H   0  0  0  0  0
   10.5498   -2.5006   27.6502 H   0  0  0  0  0
  1  2  1  0  0  0
  2  3  4  0  0  0
  2 12  4  0  0  0
  3  4  4  0  0  0
  4  5  4  0  0  0
  5  6  1  0  0  0
  5 12  4  0  0  0
  6  7  2  0  0  0
  6  8  1  0  0  0
  8  9  4  0  0  0
  9 10  2  0  0  0
  9 11  1  0  0  0
 11 12  1  0  0  0
  1 13  1  0  0  0
  1 14  1  0  0  0
  1 15  1  0  0  0
  3 16  1  0  0  0
 10 17  1  0  0  0
 11 18  1  0  0  0
M  END
$$$$
