6duk_ligand
  -I-interpret- 

 66 71  0  0  0  0  0  0  0  0999 V2000
   39.0510   89.5250  -63.8770 C   0  0  0  0  0
   38.0000   89.6760  -65.9390 C   0  0  0  0  0
   37.3000   89.8450  -68.0670 C   0  0  0  0  0
   38.4570   89.2010  -68.3370 C   0  0  0  0  0
   38.9260   89.7070  -62.3780 C   0  0  0  0  0
   40.2930   91.7310  -61.7960 C   0  0  0  0  0
   41.5020   92.0920  -61.3490 C   0  0  0  0  0
   42.0170   93.3060  -61.0600 C   0  0  0  0  0
   43.3330   93.4440  -60.6020 C   0  0  0  0  0
   43.8860   94.6890  -60.2540 C   0  0  0  0  0
   43.0560   95.8100  -60.1170 C   0  0  0  0  0
   43.5750   97.0430  -59.7290 C   0  0  0  0  0
   44.9340   97.1950  -59.4560 C   0  0  0  0  0
   46.8450   98.6360  -59.2170 C   0  0  0  0  0
   47.2550   99.8470  -58.3660 C   0  0  0  0  0
   45.0550  100.8130  -58.6670 C   0  0  0  0  0
   44.6450   99.5750  -59.5050 C   0  0  0  0  0
   45.7600   96.0730  -59.5450 C   0  0  0  0  0
   45.2330   94.8320  -59.9310 C   0  0  0  0  0
   44.0730   92.2840  -60.4200 C   0  0  0  0  0
   43.4890   91.0540  -60.7330 C   0  0  0  0  0
   42.2320   90.9620  -61.1800 C   0  0  0  0  0
   41.4670   89.8370  -61.5320 C   0  0  0  0  0
   38.5710   88.4740  -61.7250 C   0  0  0  0  0
   38.2320   87.3460  -62.4820 C   0  0  0  0  0
   37.8400   86.1600  -61.8460 C   0  0  0  0  0
   37.7870   86.0640  -60.4600 C   0  0  0  0  0
   38.1170   87.1740  -59.7050 C   0  0  0  0  0
   38.4990   88.3590  -60.3340 C   0  0  0  0  0
   37.5080   85.0520  -62.5770 F   0  0  0  0  0
   37.9540   89.8370  -64.6040 N   0  0  0  0  0
   37.0420   90.0950  -66.7670 N   0  0  0  0  0
   40.1780   90.3850  -61.9150 N   0  0  0  0  0
   45.4000   98.3940  -59.0280 N   0  0  0  0  0
   46.5110  101.0460  -58.7710 N   0  3  0  0  0
   40.1120   89.1120  -64.3430 O   0  0  0  0  0
   39.3970   92.5450  -62.0380 O   0  0  0  0  0
   38.8030   89.4650  -59.5910 O   0  0  0  0  0
   39.2300   88.9260  -66.9050 S   0  0  0  0  0
   36.6123   90.1462  -68.8573 H   0  0  0  0  0
   38.8160   88.9141  -69.3254 H   0  0  0  0  0
   38.0950   90.3544  -62.0980 H   0  0  0  0  0
   41.3977   94.1941  -61.1854 H   0  0  0  0  0
   41.9887   95.7156  -60.3170 H   0  0  0  0  0
   42.9094   97.9013  -59.6375 H   0  0  0  0  0
   47.4117   97.7573  -58.9090 H   0  0  0  0  0
   47.0536   98.8338  -60.2684 H   0  0  0  0  0
   48.3202  100.0306  -58.5068 H   0  0  0  0  0
   47.0332   99.6327  -57.3205 H   0  0  0  0  0
   44.7973  100.6362  -57.6228 H   0  0  0  0  0
   44.5273  101.6885  -59.0453 H   0  0  0  0  0
   44.8703   99.7535  -60.5564 H   0  0  0  0  0
   43.5756   99.3954  -59.3940 H   0  0  0  0  0
   46.8213   96.1621  -59.3130 H   0  0  0  0  0
   45.8898   93.9634  -59.9791 H   0  0  0  0  0
   45.0932   92.3318  -60.0391 H   0  0  0  0  0
   44.0748   90.1432  -60.6093 H   0  0  0  0  0
   41.3826   89.1250  -60.7110 H   0  0  0  0  0
   41.9257   89.2650  -62.3386 H   0  0  0  0  0
   38.2731   87.3903  -63.5703 H   0  0  0  0  0
   37.4911   85.1321  -59.9783 H   0  0  0  0  0
   38.0787   87.1232  -58.6169 H   0  0  0  0  0
   37.1102   90.1867  -64.1501 H   0  0  0  0  0
   46.7424  101.2677  -59.7394 H   0  0  0  0  0
   46.7674  101.8181  -58.1558 H   0  0  0  0  0
   38.7161   89.2562  -58.6580 H   0  0  0  0  0
  5  1  1  0  0  0
  1 31  1  0  0  0
  1 36  2  0  0  0
 31  2  1  0  0  0
  2 32  4  0  0  0
  2 39  4  0  0  0
  4  3  4  0  0  0
 32  3  4  0  0  0
 39  4  4  0  0  0
  5 24  1  0  0  0
 33  5  1  0  0  0
  7  6  1  0  0  0
  6 33  1  0  0  0
  6 37  2  0  0  0
  8  7  4  0  0  0
  7 22  4  0  0  0
  9  8  4  0  0  0
 10  9  1  0  0  0
  9 20  4  0  0  0
 11 10  4  0  0  0
 10 19  4  0  0  0
 12 11  4  0  0  0
 13 12  4  0  0  0
 13 18  4  0  0  0
 34 13  1  0  0  0
 15 14  1  0  0  0
 14 34  1  0  0  0
 35 15  1  0  0  0
 16 17  1  0  0  0
 16 35  1  0  0  0
 17 34  1  0  0  0
 18 19  4  0  0  0
 20 21  4  0  0  0
 21 22  4  0  0  0
 22 23  1  0  0  0
 23 33  1  0  0  0
 24 25  4  0  0  0
 24 29  4  0  0  0
 25 26  4  0  0  0
 26 27  4  0  0  0
 26 30  1  0  0  0
 27 28  4  0  0  0
 28 29  4  0  0  0
 29 38  1  0  0  0
  3 40  1  0  0  0
  4 41  1  0  0  0
  5 42  1  0  0  0
  8 43  1  0  0  0
 11 44  1  0  0  0
 12 45  1  0  0  0
 14 46  1  0  0  0
 14 47  1  0  0  0
 15 48  1  0  0  0
 15 49  1  0  0  0
 16 50  1  0  0  0
 16 51  1  0  0  0
 17 52  1  0  0  0
 17 53  1  0  0  0
 18 54  1  0  0  0
 19 55  1  0  0  0
 20 56  1  0  0  0
 21 57  1  0  0  0
 23 58  1  0  0  0
 23 59  1  0  0  0
 25 60  1  0  0  0
 27 61  1  0  0  0
 28 62  1  0  0  0
 31 63  1  0  0  0
 35 64  1  0  0  0
 35 65  1  0  0  0
 38 66  1  0  0  0
M  END
$$$$
