5jf3_ligand
  -I-interpret- 

 30 30  0  0  0  0  0  0  0  0999 V2000
   -5.4240   -3.7100   11.7400 N   0  0  0  0  0
   -4.4240   -4.6480   11.5590 O   0  0  0  0  0
   -5.1610   -2.5180   12.2650 C   0  0  0  0  0
   -4.0420   -2.1840   12.6320 O   0  0  0  0  0
   -6.3430   -1.5800   12.3980 C   0  0  0  0  0
   -6.4170   -0.6160   11.2200 C   0  0  0  0  0
   -6.9430   -1.3350    9.9750 C   0  0  0  0  0
   -6.5390   -0.6330    8.6850 C   0  0  0  0  0
   -7.2150   -1.3160    7.4950 C   0  0  0  0  0
   -7.2230   -0.4170    6.2800 C   0  0  0  0  0
   -7.1940    0.5550   11.4370 C   0  0  0  0  0
   -8.4900    0.2640   11.4460 O   0  0  0  0  0
   -7.0410    1.8450   11.2030 N   0  0  0  0  0
   -9.1570    1.4010   11.2470 N   0  0  0  0  0
   -8.2680    2.3680   11.0960 C   0  0  0  0  0
   -6.3798   -3.9371   11.4658 H   0  0  0  0  0
   -4.7983   -5.4423   11.1709 H   0  0  0  0  0
   -6.2265   -1.0013   13.3143 H   0  0  0  0  0
   -7.2571   -2.1733   12.4200 H   0  0  0  0  0
   -5.3905   -0.2760   11.0830 H   0  0  0  0  0
   -8.0317   -1.3457   10.0264 H   0  0  0  0  0
   -6.5179   -2.3386    9.9602 H   0  0  0  0  0
   -5.4568   -0.6876    8.5668 H   0  0  0  0  0
   -6.8504    0.4107    8.7281 H   0  0  0  0  0
   -8.2460   -1.5446    7.7651 H   0  0  0  0  0
   -6.6600   -2.2224    7.2531 H   0  0  0  0  0
   -7.7671    0.4988    6.5108 H   0  0  0  0  0
   -6.1973   -0.1720    6.0041 H   0  0  0  0  0
   -7.7103   -0.9318    5.4519 H   0  0  0  0  0
   -8.4969    3.4181   10.9143 H   0  0  0  0  0
  1  2  1  0  0  0
  1  3  1  0  0  0
  3  4  2  0  0  0
  3  5  1  0  0  0
  5  6  1  0  0  0
  6  7  1  0  0  0
  6 11  1  0  0  0
  7  8  1  0  0  0
  8  9  1  0  0  0
  9 10  1  0  0  0
 11 12  4  0  0  0
 11 13  4  0  0  0
 12 14  4  0  0  0
 13 15  4  0  0  0
 14 15  4  0  0  0
  1 16  1  0  0  0
  2 17  1  0  0  0
  5 18  1  0  0  0
  5 19  1  0  0  0
  6 20  1  0  0  0
  7 21  1  0  0  0
  7 22  1  0  0  0
  8 23  1  0  0  0
  8 24  1  0  0  0
  9 25  1  0  0  0
  9 26  1  0  0  0
 10 27  1  0  0  0
 10 28  1  0  0  0
 10 29  1  0  0  0
 15 30  1  0  0  0
M  END
$$$$
