3vf7_ligand
  -I-interpret- 

 81 85  0  0  0  0  0  0  0  0999 V2000
    7.3650   14.1990   14.7430 O   0  0  0  0  0
    6.0010   14.2340   15.1570 C   0  0  0  0  0
    8.0210   15.3540   14.9890 C   0  0  0  0  0
    7.4450   16.4900   15.5500 C   0  0  0  0  0
    8.2580   17.6180   15.6820 C   0  0  0  0  0
    9.6220   17.5730   15.4340 C   0  0  0  0  0
   10.1670   16.4490   14.8690 C   0  0  0  0  0
    9.3470   15.3550   14.5850 C   0  0  0  0  0
   10.6240   18.9600   15.8910 S   0  0  0  0  0
   11.7350   19.0630   14.8760 O   0  0  0  0  0
    9.7410   20.1000   16.0820 O   0  0  0  0  0
   11.3200   18.5870   17.3360 N   0  0  0  0  0
   10.4260   18.1800   18.3720 C   0  0  0  0  0
   10.9490   18.4420   19.7990 C   0  0  0  0  0
   10.9400   19.9180   20.1940 C   0  0  0  0  0
    9.9710   17.7940   20.6790 N   0  0  0  0  0
    9.1240   18.6780   21.1470 C   0  0  0  0  0
    8.1410   18.3470   21.8070 O   0  0  0  0  0
    9.5330   20.0870   20.7710 C   0  0  0  0  0
   12.6160   17.9410   17.3670 C   0  0  0  0  0
   13.6710   18.8820   18.0130 C   0  0  0  0  0
   14.7690   18.0290   18.3120 O   0  0  0  0  0
   14.0560   20.0080   17.0580 C   0  0  0  0  0
   14.8780   20.9600   17.7760 N   0  0  0  0  0
   14.4480   22.1160   18.2900 C   0  0  0  0  0
   13.3460   22.5970   18.2000 O   0  0  0  0  0
   15.4600   22.7790   18.9330 O   0  0  0  0  0
   15.1760   25.0400   18.0720 C   0  0  0  0  0
   15.1550   24.1280   19.2940 C   0  0  0  0  0
   16.3160   24.6260   20.1840 C   0  0  0  0  0
   17.3790   25.0690   19.2010 C   0  0  0  0  0
   18.2090   23.9750   18.7890 O   0  0  0  0  0
   18.1100   23.6780   17.4330 C   0  0  0  0  0
   17.4160   24.9240   16.8180 C   0  0  0  0  0
   16.6190   25.5040   17.9750 C   0  0  0  0  0
   14.8060   19.5940   15.7770 C   0  0  0  0  0
   16.4780   21.2120   14.7920 C   0  0  0  0  0
   16.7700   22.3530   14.0350 C   0  0  0  0  0
   15.7490   23.0220   13.3470 C   0  0  0  0  0
   14.4500   22.5180   13.3590 C   0  0  0  0  0
   14.1610   21.4000   14.1400 C   0  0  0  0  0
   15.1520   20.7620   14.8730 C   0  0  0  0  0
    5.9529   14.4208   16.2298 H   0  0  0  0  0
    5.4813   15.0306   14.6245 H   0  0  0  0  0
    5.5297   13.2773   14.9320 H   0  0  0  0  0
    6.4039   16.4990   15.8726 H   0  0  0  0  0
    7.8072   18.5617   15.9890 H   0  0  0  0  0
   11.2326   16.4096   14.6431 H   0  0  0  0  0
    9.7508   14.4992   14.0440 H   0  0  0  0  0
   10.2885   17.1033   18.2730 H   0  0  0  0  0
    9.5113   18.7608   18.2535 H   0  0  0  0  0
   11.9758   18.0825   19.8667 H   0  0  0  0  0
   11.1469   20.5884   19.3598 H   0  0  0  0  0
   11.7290   20.1801   20.8989 H   0  0  0  0  0
    9.9526   16.7975   20.8959 H   0  0  0  0  0
    8.8448   20.5425   20.0590 H   0  0  0  0  0
    9.5132   20.7659   21.6235 H   0  0  0  0  0
   12.9228   17.7086   16.3472 H   0  0  0  0  0
   12.5447   17.0273   17.9571 H   0  0  0  0  0
   13.2996   19.3841   18.9063 H   0  0  0  0  0
   15.4705   18.5429   18.7188 H   0  0  0  0  0
   13.1076   20.4211   16.7145 H   0  0  0  0  0
   15.8640   20.7296   17.8992 H   0  0  0  0  0
   14.4822   25.8748   18.1710 H   0  0  0  0  0
   14.8492   24.5240   17.1692 H   0  0  0  0  0
   14.1758   24.1515   19.7723 H   0  0  0  0  0
   16.6785   23.8494   20.8574 H   0  0  0  0  0
   16.0071   25.4350   20.8460 H   0  0  0  0  0
   18.0071   25.8365   19.6532 H   0  0  0  0  0
   17.5457   22.7629   17.2531 H   0  0  0  0  0
   19.0838   23.4860   16.9824 H   0  0  0  0  0
   16.7852   24.6693   15.9663 H   0  0  0  0  0
   18.1313   25.6372   16.4084 H   0  0  0  0  0
   16.5319   26.5829   17.8463 H   0  0  0  0  0
   14.1511   18.9281   15.2151 H   0  0  0  0  0
   15.7428   19.1278   16.0824 H   0  0  0  0  0
   17.2731   20.6788   15.3131 H   0  0  0  0  0
   17.7943   22.7219   13.9807 H   0  0  0  0  0
   15.9714   23.9389   12.8011 H   0  0  0  0  0
   13.6690   22.9923   12.7647 H   0  0  0  0  0
   13.1398   21.0206   14.1756 H   0  0  0  0  0
  1  2  1  0  0  0
  3  1  1  0  0  0
  4  3  4  0  0  0
  8  3  4  0  0  0
  5  4  4  0  0  0
  6  5  4  0  0  0
  6  7  4  0  0  0
  9  6  1  0  0  0
  7  8  4  0  0  0
  9 10  2  0  0  0
  9 11  2  0  0  0
 12  9  1  0  0  0
 12 13  1  0  0  0
 20 12  1  0  0  0
 13 14  1  0  0  0
 14 15  1  0  0  0
 14 16  1  0  0  0
 15 19  1  0  0  0
 16 17  1  0  0  0
 17 18  2  0  0  0
 17 19  1  0  0  0
 21 20  1  0  0  0
 21 22  1  0  0  0
 23 21  1  0  0  0
 23 24  1  0  0  0
 36 23  1  0  0  0
 24 25  1  0  0  0
 25 26  2  0  0  0
 25 27  1  0  0  0
 27 29  1  0  0  0
 29 28  1  0  0  0
 28 35  1  0  0  0
 29 30  1  0  0  0
 30 31  1  0  0  0
 31 32  1  0  0  0
 31 35  1  0  0  0
 32 33  1  0  0  0
 34 33  1  0  0  0
 35 34  1  0  0  0
 42 36  1  0  0  0
 37 38  4  0  0  0
 37 42  4  0  0  0
 38 39  4  0  0  0
 39 40  4  0  0  0
 40 41  4  0  0  0
 41 42  4  0  0  0
  2 43  1  0  0  0
  2 44  1  0  0  0
  2 45  1  0  0  0
  4 46  1  0  0  0
  5 47  1  0  0  0
  7 48  1  0  0  0
  8 49  1  0  0  0
 13 50  1  0  0  0
 13 51  1  0  0  0
 14 52  1  0  0  0
 15 53  1  0  0  0
 15 54  1  0  0  0
 16 55  1  0  0  0
 19 56  1  0  0  0
 19 57  1  0  0  0
 20 58  1  0  0  0
 20 59  1  0  0  0
 21 60  1  0  0  0
 22 61  1  0  0  0
 23 62  1  0  0  0
 24 63  1  0  0  0
 28 64  1  0  0  0
 28 65  1  0  0  0
 29 66  1  0  0  0
 30 67  1  0  0  0
 30 68  1  0  0  0
 31 69  1  0  0  0
 33 70  1  0  0  0
 33 71  1  0  0  0
 34 72  1  0  0  0
 34 73  1  0  0  0
 35 74  1  0  0  0
 36 75  1  0  0  0
 36 76  1  0  0  0
 37 77  1  0  0  0
 38 78  1  0  0  0
 39 79  1  0  0  0
 40 80  1  0  0  0
 41 81  1  0  0  0
M  END
$$$$
