3d94_ligand
  -I-interpret- 

 70 76  0  0  0  0  0  0  0  0999 V2000
   25.4110   13.5940   -7.6470 N   0  0  0  0  0
   24.5920   13.5810   -6.5360 C   0  0  0  0  0
   24.2220   14.8190   -5.8410 C   0  0  0  0  0
   23.4050   14.7300   -4.7190 N   0  0  0  0  0
   22.9520   13.4880   -4.2750 C   0  0  0  0  0
   23.3360   12.3950   -4.9700 C   0  0  0  0  0
   24.1530   12.4190   -6.0860 N   0  0  0  0  0
   23.1950   16.0030   -4.2520 C   0  0  0  0  0
   22.3500   16.3460   -3.0250 C   0  0  0  0  0
   22.1470   17.8370   -2.6380 C   0  0  0  0  0
   22.1160   17.2840   -1.1870 C   0  0  0  0  0
   22.4270   18.2710   -0.1040 N   0  3  0  0  0
   22.2820   19.7040   -0.4220 C   0  0  0  0  0
   22.3280   20.5830    0.8250 C   0  0  0  0  0
   23.6150   20.3230    1.5740 N   0  3  0  0  0
   23.6940   21.1880    2.8030 C   0  0  0  0  0
   23.8600   18.8530    1.8580 C   0  0  0  0  0
   23.7000   17.9910    0.5990 C   0  0  0  0  0
   23.1790   16.2950   -1.7100 C   0  0  0  0  0
   23.8300   16.8880   -5.0040 N   0  0  0  0  0
   24.4580   16.1760   -6.0040 C   0  0  0  0  0
   25.3340   16.8980   -6.8990 C   0  0  0  0  0
   25.0300   18.1480   -7.4770 C   0  0  0  0  0
   25.9680   18.8360   -8.2660 C   0  0  0  0  0
   27.2750   18.2740   -8.4140 C   0  0  0  0  0
   27.6120   17.0500   -7.7860 C   0  0  0  0  0
   26.6420   16.4030   -7.0190 C   0  0  0  0  0
   25.6130   20.0080   -8.8560 N   0  0  0  0  0
   26.5490   20.6850   -9.6020 C   0  0  0  0  0
   27.8420   20.1790   -9.7920 C   0  0  0  0  0
   28.2070   18.9680   -9.1950 C   0  0  0  0  0
   26.0940   21.9370  -10.2520 C   0  0  0  0  0
   26.8600   23.1160  -10.2980 C   0  0  0  0  0
   26.3910   24.2580  -10.9590 C   0  0  0  0  0
   25.1430   24.2420  -11.5940 C   0  0  0  0  0
   24.3670   23.0950  -11.5630 C   0  0  0  0  0
   24.8490   21.9580  -10.9160 C   0  0  0  0  0
   25.7738   14.4784   -8.0028 H   0  0  0  0  0
   25.6534   12.7192   -8.1122 H   0  0  0  0  0
   22.3106   13.4021   -3.3979 H   0  0  0  0  0
   22.9764   11.4249   -4.6269 H   0  0  0  0  0
   21.4974   15.7189   -3.2856 H   0  0  0  0  0
   21.3647   18.4683   -3.0595 H   0  0  0  0  0
   22.8086   18.6398   -2.9633 H   0  0  0  0  0
   21.2339   16.9239   -0.6575 H   0  0  0  0  0
   21.6563   18.0990    0.5417 H   0  0  0  0  0
   21.3133   19.8473   -0.9007 H   0  0  0  0  0
   23.1107   19.9919   -1.0689 H   0  0  0  0  0
   21.4790   20.3490    1.4673 H   0  0  0  0  0
   22.2818   21.6322    0.5331 H   0  0  0  0  0
   24.3844   20.5912    0.9604 H   0  0  0  0  0
   23.6601   22.2373    2.5100 H   0  0  0  0  0
   22.8515   20.9648    3.4576 H   0  0  0  0  0
   24.6274   20.9862    3.3284 H   0  0  0  0  0
   23.1278   18.5211    2.5941 H   0  0  0  0  0
   24.8819   18.7412    2.2204 H   0  0  0  0  0
   24.5223   18.2202   -0.0788 H   0  0  0  0  0
   23.7010   16.9433    0.8998 H   0  0  0  0  0
   24.2509   16.4882   -1.6682 H   0  0  0  0  0
   23.4388   15.3676   -1.1997 H   0  0  0  0  0
   24.0478   18.5895   -7.3085 H   0  0  0  0  0
   28.6081   16.6223   -7.8994 H   0  0  0  0  0
   26.9086   15.4842   -6.4966 H   0  0  0  0  0
   28.5600   20.7268  -10.4023 H   0  0  0  0  0
   29.2106   18.5671   -9.3369 H   0  0  0  0  0
   27.8348   23.1411   -9.8110 H   0  0  0  0  0
   26.9993   25.1622  -10.9793 H   0  0  0  0  0
   24.7827   25.1309  -12.1119 H   0  0  0  0  0
   23.3873   23.0815  -12.0406 H   0  0  0  0  0
   24.2422   21.0525  -10.9233 H   0  0  0  0  0
  1  2  1  0  0  0
  2  3  4  0  0  0
  2  7  4  0  0  0
  3  4  4  0  0  0
  3 21  4  0  0  0
  4  5  4  0  0  0
  4  8  4  0  0  0
  5  6  4  0  0  0
  6  7  4  0  0  0
  8  9  1  0  0  0
  8 20  4  0  0  0
  9 10  1  0  0  0
  9 19  1  0  0  0
 10 11  1  0  0  0
 11 12  1  0  0  0
 11 19  1  0  0  0
 12 13  1  0  0  0
 12 18  1  0  0  0
 13 14  1  0  0  0
 14 15  1  0  0  0
 15 16  1  0  0  0
 15 17  1  0  0  0
 17 18  1  0  0  0
 20 21  4  0  0  0
 21 22  1  0  0  0
 22 23  4  0  0  0
 22 27  4  0  0  0
 23 24  4  0  0  0
 24 25  4  0  0  0
 24 28  4  0  0  0
 25 26  4  0  0  0
 25 31  4  0  0  0
 26 27  4  0  0  0
 28 29  4  0  0  0
 29 30  4  0  0  0
 29 32  1  0  0  0
 30 31  4  0  0  0
 32 33  4  0  0  0
 32 37  4  0  0  0
 33 34  4  0  0  0
 34 35  4  0  0  0
 35 36  4  0  0  0
 36 37  4  0  0  0
  1 38  1  0  0  0
  1 39  1  0  0  0
  5 40  1  0  0  0
  6 41  1  0  0  0
  9 42  1  0  0  0
 10 43  1  0  0  0
 10 44  1  0  0  0
 11 45  1  0  0  0
 12 46  1  0  0  0
 13 47  1  0  0  0
 13 48  1  0  0  0
 14 49  1  0  0  0
 14 50  1  0  0  0
 15 51  1  0  0  0
 16 52  1  0  0  0
 16 53  1  0  0  0
 16 54  1  0  0  0
 17 55  1  0  0  0
 17 56  1  0  0  0
 18 57  1  0  0  0
 18 58  1  0  0  0
 19 59  1  0  0  0
 19 60  1  0  0  0
 23 61  1  0  0  0
 26 62  1  0  0  0
 27 63  1  0  0  0
 30 64  1  0  0  0
 31 65  1  0  0  0
 33 66  1  0  0  0
 34 67  1  0  0  0
 35 68  1  0  0  0
 36 69  1  0  0  0
 37 70  1  0  0  0
M  END
$$$$
