3dbs_ligand
  -I-interpret- 

 62 67  0  0  0  0  0  0  0  0999 V2000
   19.6860   59.5250   24.4390 O   0  0  0  0  0
   22.2550   61.7810   22.1080 C   0  0  0  0  0
   21.3750   65.3980   21.3670 C   0  0  0  0  0
   22.5920   65.2050   20.8630 C   0  0  0  0  0
   24.1570   63.2850   20.7550 N   0  0  0  0  0
   20.6910   66.7430   21.2780 C   0  0  0  0  0
   25.6090   61.4690   20.6670 C   0  0  0  0  0
   23.4480   61.2570   21.7200 N   0  0  0  0  0
   19.9210   68.3930   19.6720 C   0  0  0  0  0
   19.5300   68.5240   18.1960 C   0  0  0  0  0
   18.8850   66.2070   18.2080 C   0  0  0  0  0
   18.9810   66.1720   19.7140 C   0  0  0  0  0
   21.3800   60.9900   22.8100 N   0  0  0  0  0
   17.2570   69.1770   15.8700 C   0  0  0  0  0
   21.9500   59.8880   23.5830 C   0  0  0  0  0
   21.0620   59.6020   24.7890 C   0  0  0  0  0
   20.1610   66.9800   19.9550 N   0  3  0  0  0
   19.2330   67.3420   15.4530 O   0  0  0  0  0
   18.0130   67.5640   16.2420 S   0  0  0  0  0
   17.0380   66.4970   15.9810 O   0  0  0  0  0
   18.4720   67.5550   17.8980 N   0  0  0  0  0
   20.6610   64.0680   22.1100 S   0  0  0  0  0
   22.9930   63.8290   21.1100 C   0  0  0  0  0
   22.0320   63.1230   21.7860 C   0  0  0  0  0
   24.3750   61.9890   21.0520 C   0  0  0  0  0
   26.2540   61.9140   19.5170 C   0  0  0  0  0
   27.4900   61.3820   19.1820 C   0  0  0  0  0
   28.0880   60.4370   19.9900 C   0  0  0  0  0
   27.4540   60.0120   21.1410 C   0  0  0  0  0
   27.8630   59.0900   22.0790 N   0  0  0  0  0
   26.2510   60.5350   21.4380 C   0  0  0  0  0
   25.8280   59.9200   22.6520 C   0  0  0  0  0
   26.8030   59.0610   23.0310 N   0  0  0  0  0
   19.2500   60.7430   23.8500 C   0  0  0  0  0
   19.9550   60.8890   22.5000 C   0  0  0  0  0
   23.1909   65.9565   20.3486 H   0  0  0  0  0
   21.4236   67.5187   21.5009 H   0  0  0  0  0
   19.8650   66.7584   21.9891 H   0  0  0  0  0
   19.1208   68.7725   20.3074 H   0  0  0  0  0
   20.8202   68.9746   19.8752 H   0  0  0  0  0
   20.3976   68.3279   17.5660 H   0  0  0  0  0
   19.1713   69.5340   17.9979 H   0  0  0  0  0
   18.1793   65.4681   17.8284 H   0  0  0  0  0
   19.8333   65.9533   17.7342 H   0  0  0  0  0
   19.0559   65.1633   20.1203 H   0  0  0  0  0
   18.0885   66.5481   20.2141 H   0  0  0  0  0
   17.9663   69.9714   16.1021 H   0  0  0  0  0
   16.9955   69.2191   14.8127 H   0  0  0  0  0
   16.3580   69.3032   16.4732 H   0  0  0  0  0
   22.9489   60.1609   23.9233 H   0  0  0  0  0
   22.0109   58.9978   22.9569 H   0  0  0  0  0
   21.3591   58.6404   25.2075 H   0  0  0  0  0
   21.1849   60.4182   25.5009 H   0  0  0  0  0
   20.8842   66.6888   19.2972 H   0  0  0  0  0
   25.7922   62.6732   18.8858 H   0  0  0  0  0
   27.9929   61.7130   18.2734 H   0  0  0  0  0
   29.0607   60.0259   19.7200 H   0  0  0  0  0
   24.8919   60.1069   23.1783 H   0  0  0  0  0
   19.4947   61.5851   24.4975 H   0  0  0  0  0
   18.1688   60.7309   23.7127 H   0  0  0  0  0
   19.7480   60.0401   21.8484 H   0  0  0  0  0
   19.6017   61.7666   21.9587 H   0  0  0  0  0
 16  1  1  0  0  0
  1 34  1  0  0  0
  8  2  4  0  0  0
  2 13  1  0  0  0
  2 24  4  0  0  0
  3  4  4  0  0  0
  6  3  1  0  0  0
  3 22  4  0  0  0
  4 23  4  0  0  0
 23  5  4  0  0  0
  5 25  4  0  0  0
 17  6  1  0  0  0
 25  7  1  0  0  0
  7 26  4  0  0  0
  7 31  4  0  0  0
 25  8  4  0  0  0
 10  9  1  0  0  0
  9 17  1  0  0  0
 21 10  1  0  0  0
 11 12  1  0  0  0
 21 11  1  0  0  0
 12 17  1  0  0  0
 13 15  1  0  0  0
 13 35  1  0  0  0
 19 14  1  0  0  0
 15 16  1  0  0  0
 19 18  2  0  0  0
 19 20  2  0  0  0
 19 21  1  0  0  0
 22 24  4  0  0  0
 23 24  4  0  0  0
 26 27  4  0  0  0
 27 28  4  0  0  0
 28 29  4  0  0  0
 29 30  4  0  0  0
 29 31  4  0  0  0
 30 33  4  0  0  0
 31 32  4  0  0  0
 32 33  4  0  0  0
 34 35  1  0  0  0
  4 36  1  0  0  0
  6 37  1  0  0  0
  6 38  1  0  0  0
  9 39  1  0  0  0
  9 40  1  0  0  0
 10 41  1  0  0  0
 10 42  1  0  0  0
 11 43  1  0  0  0
 11 44  1  0  0  0
 12 45  1  0  0  0
 12 46  1  0  0  0
 14 47  1  0  0  0
 14 48  1  0  0  0
 14 49  1  0  0  0
 15 50  1  0  0  0
 15 51  1  0  0  0
 16 52  1  0  0  0
 16 53  1  0  0  0
 17 54  1  0  0  0
 26 55  1  0  0  0
 27 56  1  0  0  0
 28 57  1  0  0  0
 32 58  1  0  0  0
 34 59  1  0  0  0
 34 60  1  0  0  0
 35 61  1  0  0  0
 35 62  1  0  0  0
M  END
$$$$
