2x7c_ligand
  -I-interpret- 

 33 35  0  0  0  0  0  0  0  0999 V2000
   -8.3520   12.1700   34.2410 O   0  0  0  0  0
   -7.3740   12.9590   33.6690 C   0  0  0  0  0
   -7.4190   13.1760   32.2840 C   0  0  0  0  0
   -6.3600   13.5450   34.4360 C   0  0  0  0  0
   -5.3640   14.3420   33.8580 C   0  0  0  0  0
   -5.4170   14.5470   32.4590 C   0  0  0  0  0
   -6.4420   13.9610   31.6810 C   0  0  0  0  0
   -6.5040   14.1000   30.1470 C   0  0  0  0  0
   -6.8190   15.5570   29.7580 C   0  0  0  0  0
   -8.0410   16.1280   30.1230 C   0  0  0  0  0
   -8.9340   15.3830   30.5310 O   0  0  0  0  0
   -8.4090   17.5990   29.8640 C   0  0  0  0  0
   -7.1400   18.4700   29.8780 C   0  0  0  0  0
   -6.0490   17.8720   28.9460 C   0  0  0  0  0
   -5.8640   16.3620   29.1630 C   0  0  0  0  0
   -4.6130   15.8200   28.8480 N   0  0  0  0  0
   -4.3080   14.4730   29.0090 C   0  0  0  0  0
   -2.7750   13.9450   28.4270 S   0  0  0  0  0
   -5.2230   13.6110   29.6090 N   0  0  0  0  0
   -8.1989   12.1077   35.1867 H   0  0  0  0  0
   -8.2140   12.7326   31.6845 H   0  0  0  0  0
   -6.3453   13.3763   35.5128 H   0  0  0  0  0
   -4.5759   14.7885   34.4643 H   0  0  0  0  0
   -4.6592   15.1636   31.9756 H   0  0  0  0  0
   -7.3082   13.5031   29.7168 H   0  0  0  0  0
   -9.0875   17.9416   30.6452 H   0  0  0  0  0
   -8.8899   17.6819   28.8893 H   0  0  0  0  0
   -6.7508   18.5074   30.8955 H   0  0  0  0  0
   -7.3955   19.4687   29.5239 H   0  0  0  0  0
   -5.1034   18.3653   29.1709 H   0  0  0  0  0
   -6.3609   18.0305   27.9137 H   0  0  0  0  0
   -3.8914   16.4419   28.4834 H   0  0  0  0  0
   -5.0007   12.6179   29.6774 H   0  0  0  0  0
  1  2  1  0  0  0
  2  3  4  0  0  0
  2  4  4  0  0  0
  3  7  4  0  0  0
  4  5  4  0  0  0
  5  6  4  0  0  0
  6  7  4  0  0  0
  7  8  1  0  0  0
  8  9  1  0  0  0
  8 19  1  0  0  0
  9 10  1  0  0  0
  9 15  2  0  0  0
 10 11  2  0  0  0
 10 12  1  0  0  0
 12 13  1  0  0  0
 13 14  1  0  0  0
 14 15  1  0  0  0
 15 16  1  0  0  0
 16 17  1  0  0  0
 17 18  2  0  0  0
 17 19  1  0  0  0
  1 20  1  0  0  0
  3 21  1  0  0  0
  4 22  1  0  0  0
  5 23  1  0  0  0
  6 24  1  0  0  0
  8 25  1  0  0  0
 12 26  1  0  0  0
 12 27  1  0  0  0
 13 28  1  0  0  0
 13 29  1  0  0  0
 14 30  1  0  0  0
 14 31  1  0  0  0
 16 32  1  0  0  0
 19 33  1  0  0  0
M  END
$$$$
