3grj_ligand
  -I-interpret- 

 21 22  0  0  0  0  0  0  0  0999 V2000
  -31.7210  -28.5470   12.2120 O   0  0  0  0  0
  -31.0550  -27.9640   11.2900 C   0  0  0  0  0
  -30.2490  -28.5620   10.4780 O   0  0  0  0  0
  -31.2830  -26.5040   11.1720 C   0  0  0  0  0
  -30.3850  -25.5130   10.7290 C   0  0  0  0  0
  -31.0630  -24.3000   10.8000 N   0  0  0  0  0
  -32.3150  -24.5870   11.2530 C   0  0  0  0  0
  -32.4790  -25.9280   11.5040 N   0  0  0  0  0
  -33.2590  -23.4260   11.3960 C   0  0  0  0  0
  -33.6470  -22.7030   10.2730 C   0  0  0  0  0
  -34.5130  -21.6190   10.3800 C   0  0  0  0  0
  -35.0270  -21.2680   11.6170 C   0  0  0  0  0
  -34.6510  -22.0060   12.7510 C   0  0  0  0  0
  -33.7650  -23.0800   12.6400 C   0  0  0  0  0
  -29.8667  -27.9186    9.8767 H   0  0  0  0  0
  -29.3587  -25.6666   10.3955 H   0  0  0  0  0
  -33.2664  -22.9902    9.2928 H   0  0  0  0  0
  -34.7860  -21.0478    9.4927 H   0  0  0  0  0
  -35.7158  -20.4283   11.7094 H   0  0  0  0  0
  -35.0546  -21.7380   13.7274 H   0  0  0  0  0
  -33.4728  -23.6432   13.5263 H   0  0  0  0  0
  1  2  2  0  0  0
  2  3  1  0  0  0
  2  4  1  0  0  0
  4  5  4  0  0  0
  4  8  4  0  0  0
  5  6  4  0  0  0
  6  7  4  0  0  0
  7  8  4  0  0  0
  7  9  1  0  0  0
  9 10  4  0  0  0
  9 14  4  0  0  0
 10 11  4  0  0  0
 11 12  4  0  0  0
 12 13  4  0  0  0
 13 14  4  0  0  0
  3 15  1  0  0  0
  5 16  1  0  0  0
 10 17  1  0  0  0
 11 18  1  0  0  0
 12 19  1  0  0  0
 13 20  1  0  0  0
 14 21  1  0  0  0
M  END
$$$$
