6rrm_ligand
  -I-interpret- 

 26 27  0  0  0  0  0  0  0  0999 V2000
   24.4030  -83.1000   57.8300 C   0  0  0  0  0
   25.5110  -82.5360   58.4480 C   0  0  0  0  0
   25.8160  -81.1990   58.2570 C   0  0  0  0  0
   25.0140  -80.4150   57.4450 C   0  0  0  0  0
   23.9090  -80.9710   56.8280 C   0  0  0  0  0
   22.5800  -84.8270   56.3510 O   0  0  0  0  0
   23.1920  -85.2980   57.2470 C   0  0  0  0  0
   23.0330  -86.7770   57.5850 C   0  0  0  0  0
   24.0960  -87.4010   58.2180 C   0  0  0  0  0
   24.0270  -88.7390   58.5520 C   0  0  0  0  0
   22.8900  -89.4650   58.2510 C   0  0  0  0  0
   21.8260  -88.8490   57.6180 C   0  0  0  0  0
   21.8860  -87.5050   57.2760 C   0  0  0  0  0
   20.3320  -86.7270   56.3700 Se  0  0  0  0  0
   24.1270  -84.5150   58.0500 N   0  0  0  0  0
   23.6050  -82.3100   57.0160 C   0  0  0  0  0
   26.1450  -83.1499   59.0878 H   0  0  0  0  0
   26.6875  -80.7636   58.7459 H   0  0  0  0  0
   25.2533  -79.3625   57.2928 H   0  0  0  0  0
   23.2746  -80.3542   56.1914 H   0  0  0  0  0
   24.9944  -86.8307   58.4543 H   0  0  0  0  0
   24.8670  -89.2215   59.0517 H   0  0  0  0  0
   22.8321  -90.5216   58.5122 H   0  0  0  0  0
   20.9305  -89.4251   57.3851 H   0  0  0  0  0
   24.6166  -84.9861   58.8107 H   0  0  0  0  0
   22.7355  -82.7439   56.5223 H   0  0  0  0  0
  1  2  4  0  0  0
 15  1  1  0  0  0
  1 16  4  0  0  0
  2  3  4  0  0  0
  3  4  4  0  0  0
  5  4  4  0  0  0
 16  5  4  0  0  0
  7  6  2  0  0  0
  7  8  1  0  0  0
  7 15  1  0  0  0
  8  9  4  0  0  0
  8 13  4  0  0  0
  9 10  4  0  0  0
 10 11  4  0  0  0
 11 12  4  0  0  0
 12 13  4  0  0  0
 13 14  1  0  0  0
  2 17  1  0  0  0
  3 18  1  0  0  0
  4 19  1  0  0  0
  5 20  1  0  0  0
  9 21  1  0  0  0
 10 22  1  0  0  0
 11 23  1  0  0  0
 12 24  1  0  0  0
 15 25  1  0  0  0
 16 26  1  0  0  0
M  END
$$$$
