### 
### Created by X-TOOL on Mon Aug  2 16:17:23 2021
### 

@<TRIPOS>MOLECULE
6rrm_ligand
   31    32     1     0     0
SMALL
GAST_HUCK


@<TRIPOS>ATOM
      1 C11        24.4030  -83.1000   57.8300 C.ar      1 9JT         0.0660
      2 C12        25.5110  -82.5360   58.4480 C.ar      1 9JT        -0.0412
      3 C13        25.8160  -81.1990   58.2570 C.ar      1 9JT        -0.0755
      4 C14        25.0140  -80.4150   57.4450 C.ar      1 9JT        -0.0771
      5 C15        23.9090  -80.9710   56.8280 C.ar      1 9JT        -0.0755
      6 O09        22.5800  -84.8270   56.3510 O.2       1 9JT        -0.3729
      7 C08        23.1920  -85.2980   57.2470 C.2       1 9JT         0.2331
      8 C07        23.0330  -86.7770   57.5850 C.ar      1 9JT         0.0643
      9 C06        24.0960  -87.4010   58.2180 C.ar      1 9JT        -0.0408
     10 C05        24.0270  -88.7390   58.5520 C.ar      1 9JT        -0.0562
     11 C04        22.8900  -89.4650   58.2510 C.ar      1 9JT        -0.0569
     12 C03        21.8260  -88.8490   57.6180 C.ar      1 9JT        -0.0478
     13 C02        21.8860  -87.5050   57.2760 C.ar      1 9JT         0.0060
     14 SE1        20.3320  -86.7270   56.3700 Se        1 9JT         0.0000
     15 N10        24.1270  -84.5150   58.0500 N.am      1 9JT        -0.2331
     16 C16        23.6050  -82.3100   57.0160 C.ar      1 9JT        -0.0412
     17 H1         26.1415  -83.1465   59.0843 H         1 9JT         0.0503
     18 H2         26.6827  -80.7660   58.7432 H         1 9JT         0.0577
     19 H3         25.2519  -79.3683   57.2936 H         1 9JT         0.0488
     20 H4         23.2781  -80.3576   56.1949 H         1 9JT         0.0577
     21 H5         24.9894  -86.8339   58.4530 H         1 9JT         0.0669
     22 H6         24.8624  -89.2188   59.0490 H         1 9JT         0.0629
     23 H7         22.8324  -90.5158   58.5108 H         1 9JT         0.0653
     24 H8         20.9354  -89.4219   57.3863 H         1 9JT         0.0636
     25 H9         21.2671  -84.9436   56.2975 H         1 9JT         0.0000
     26 H10        21.1276  -87.2168   54.5847 H         1 9JT         0.0000
     27 H11        19.3969  -88.5104   56.4425 H         1 9JT         0.0000
     28 H12        18.7343  -85.9271   55.4385 H         1 9JT         0.0000
     29 H13        19.5364  -86.2372   58.1553 H         1 9JT         0.0000
     30 H14        24.6070  -84.9769   58.7958 H         1 9JT         0.2253
     31 H15        22.7403  -82.7415   56.5250 H         1 9JT         0.0503
@<TRIPOS>BOND
     1    1    2 ar 
     2   15    1 1  
     3    1   16 ar 
     4    2    3 ar 
     5    3    4 ar 
     6    5    4 ar 
     7   16    5 ar 
     8    7    6 2  
     9    7    8 1  
    10    7   15 am 
    11    8    9 ar 
    12    8   13 ar 
    13    9   10 ar 
    14   10   11 ar 
    15   11   12 ar 
    16   12   13 ar 
    17   13   14 1  
    18    2   17 1  
    19    3   18 1  
    20    4   19 1  
    21    5   20 1  
    22    9   21 1  
    23   10   22 1  
    24   11   23 1  
    25   12   24 1  
    26   14   25 1  
    27   14   26 1  
    28   14   27 1  
    29   14   28 1  
    30   14   29 1  
    31   15   30 1  
    32   16   31 1  
@<TRIPOS>SUBSTRUCTURE
     1 9JT         1

