### 
### Created by X-TOOL on Wed Jan  1 15:39:36 2020
### 

@<TRIPOS>MOLECULE
6b30_ligand
   59    61     1     0     0
SMALL
GAST_HUCK


@<TRIPOS>ATOM
      1 C4        -12.3980   26.1390    1.0680 C.ar      1 CFG        -0.0391
      2 C5        -11.2010   25.7280    0.4880 C.ar      1 CFG        -0.0641
      3 C6        -10.9680   25.9530   -0.8690 C.ar      1 CFG        -0.0090
      4 C7        -11.9420   26.6260   -1.6280 C.ar      1 CFG        -0.0641
      5 C8        -13.1400   27.0350   -1.0530 C.ar      1 CFG        -0.0391
      6 C15        -7.8020   22.7060   -5.1130 C.2       1 CFG         0.0452
      7 C20        -9.0560   26.8670   -1.8140 C.2       1 CFG         0.2394
      8 C24        -7.0590   29.1180    0.2800 C.ar      1 CFG        -0.0408
      9 C26        -6.5800   31.2710   -0.6780 C.ar      1 CFG        -0.0419
     10 C28        -7.7380   29.6160   -1.9910 C.ar      1 CFG        -0.0408
     11 C1        -15.7200   27.5180    0.2120 C.3       1 CFG         0.0579
     12 O2        -14.5270   27.1830    0.9340 O.3       1 CFG        -0.3255
     13 C3        -13.3760   26.7900    0.3080 C.ar      1 CFG         0.0840
     14 C9         -9.6500   25.5090   -1.4800 C.3       1 CFG         0.1675
     15 N10        -9.7970   24.5870   -2.6390 N.am      1 CFG        -0.2386
     16 C11       -11.0370   23.8150   -2.8330 C.3       1 CFG         0.0272
     17 C12        -8.7650   24.4430   -3.5150 C.2       1 CFG         0.2606
     18 O13        -7.7440   25.0840   -3.3310 O.2       1 CFG        -0.3701
     19 C14        -8.7530   23.6040   -4.7410 C.2       1 CFG         0.2248
     20 C16        -8.2050   22.2200   -6.3810 C.2       1 CFG         0.2017
     21 O17        -7.5610   21.2830   -7.1310 O.2       1 CFG        -0.4142
     22 N18        -9.3110   22.8510   -6.6660 N.am      1 CFG        -0.1326
     23 O19        -9.6150   23.6310   -5.7820 O.3       1 CFG        -0.1565
     24 O21        -9.3370   27.4340   -2.8570 O.2       1 CFG        -0.3797
     25 N22        -8.2200   27.4280   -0.9110 N.am      1 CFG        -0.2306
     26 C23        -7.6470   28.7070   -0.9270 C.ar      1 CFG         0.0664
     27 C25        -6.5180   30.3890    0.4040 C.ar      1 CFG        -0.0697
     28 C27        -7.1960   30.8990   -1.8670 C.ar      1 CFG        -0.0697
     29 SI         -5.8920   32.9850   -0.4640 Si        1 CFG         0.0000
     30 C30        -4.7730   33.5030   -1.8560 C.3       1 CFG        -0.0681
     31 C31        -7.3600   34.1090   -0.3970 C.3       1 CFG        -0.0681
     32 C32        -5.0300   33.1070    1.1820 C.3       1 CFG        -0.0681
     33 H1        -12.5745   25.9524    2.1211 H         1 CFG         0.0526
     34 H2        -10.4491   25.2325    1.0915 H         1 CFG         0.0535
     35 H3        -11.7561   26.8288   -2.6765 H         1 CFG         0.0535
     36 H4        -13.8878   27.5406   -1.6532 H         1 CFG         0.0526
     37 H5         -6.9138   22.4196   -4.5518 H         1 CFG         0.0486
     38 H6         -7.0276   28.4361    1.1221 H         1 CFG         0.0502
     39 H7         -8.2297   29.3233   -2.9117 H         1 CFG         0.0502
     40 H8        -16.5105   27.8027    0.9220 H         1 CFG         0.0575
     41 H9        -16.0501   26.6480   -0.3747 H         1 CFG         0.0575
     42 H10       -15.5146   28.3603   -0.4650 H         1 CFG         0.0575
     43 H11        -9.0314   24.9975   -0.7279 H         1 CFG         0.0946
     44 H12       -10.9469   23.1982   -3.7393 H         1 CFG         0.0490
     45 H13       -11.8858   24.5060   -2.9427 H         1 CFG         0.0490
     46 H14       -11.2040   23.1644   -1.9619 H         1 CFG         0.0490
     47 H15        -9.8407   22.7118   -7.5027 H         1 CFG         0.2338
     48 H16        -7.9787   26.8543   -0.1283 H         1 CFG         0.2259
     49 H17        -6.0508   30.6957    1.3328 H         1 CFG         0.0581
     50 H18        -7.2559   31.5988   -2.6927 H         1 CFG         0.0581
     51 H19        -4.4019   34.5214   -1.6685 H         1 CFG         0.0227
     52 H20        -5.3330   33.4853   -2.8026 H         1 CFG         0.0227
     53 H21        -3.9221   32.8088   -1.9202 H         1 CFG         0.0227
     54 H22        -8.0204   33.8008    0.4269 H         1 CFG         0.0227
     55 H23        -7.9094   34.0517   -1.3482 H         1 CFG         0.0227
     56 H24        -7.0231   35.1427   -0.2298 H         1 CFG         0.0227
     57 H25        -4.1474   32.4505    1.1832 H         1 CFG         0.0227
     58 H26        -5.7193   32.7961    1.9809 H         1 CFG         0.0227
     59 H27        -4.7140   34.1464    1.3543 H         1 CFG         0.0227
@<TRIPOS>BOND
     1    2    1 ar 
     2    1   13 ar 
     3    3    2 ar 
     4    3    4 ar 
     5   14    3 1  
     6    4    5 ar 
     7    5   13 ar 
     8   19    6 2  
     9    6   20 1  
    10    7   14 1  
    11    7   24 2  
    12   25    7 am 
    13   26    8 ar 
    14    8   27 ar 
    15   27    9 ar 
    16   28    9 ar 
    17    9   29 1  
    18   26   10 ar 
    19   10   28 ar 
    20   12   11 1  
    21   13   12 1  
    22   14   15 1  
    23   15   16 1  
    24   15   17 am 
    25   17   18 2  
    26   17   19 1  
    27   19   23 1  
    28   20   21 2  
    29   22   20 am 
    30   23   22 1  
    31   25   26 1  
    32   29   30 1  
    33   29   31 1  
    34   29   32 1  
    35    1   33 1  
    36    2   34 1  
    37    4   35 1  
    38    5   36 1  
    39    6   37 1  
    40    8   38 1  
    41   10   39 1  
    42   11   40 1  
    43   11   41 1  
    44   11   42 1  
    45   14   43 1  
    46   16   44 1  
    47   16   45 1  
    48   16   46 1  
    49   22   47 1  
    50   25   48 1  
    51   27   49 1  
    52   28   50 1  
    53   30   51 1  
    54   30   52 1  
    55   30   53 1  
    56   31   54 1  
    57   31   55 1  
    58   31   56 1  
    59   32   57 1  
    60   32   58 1  
    61   32   59 1  
@<TRIPOS>SUBSTRUCTURE
     1 CFG         1

