6b30_ligand
  -I-interpret- 

 59 61  0  0  0  0  0  0  0  0999 V2000
  -12.3980   26.1390    1.0680 C   0  0  0  0  0
  -11.2010   25.7280    0.4880 C   0  0  0  0  0
  -10.9680   25.9530   -0.8690 C   0  0  0  0  0
  -11.9420   26.6260   -1.6280 C   0  0  0  0  0
  -13.1400   27.0350   -1.0530 C   0  0  0  0  0
   -7.8020   22.7060   -5.1130 C   0  0  0  0  0
   -9.0560   26.8670   -1.8140 C   0  0  0  0  0
   -7.0590   29.1180    0.2800 C   0  0  0  0  0
   -6.5800   31.2710   -0.6780 C   0  0  0  0  0
   -7.7380   29.6160   -1.9910 C   0  0  0  0  0
  -15.7200   27.5180    0.2120 C   0  0  0  0  0
  -14.5270   27.1830    0.9340 O   0  0  0  0  0
  -13.3760   26.7900    0.3080 C   0  0  0  0  0
   -9.6500   25.5090   -1.4800 C   0  0  0  0  0
   -9.7970   24.5870   -2.6390 N   0  0  0  0  0
  -11.0370   23.8150   -2.8330 C   0  0  0  0  0
   -8.7650   24.4430   -3.5150 C   0  0  0  0  0
   -7.7440   25.0840   -3.3310 O   0  0  0  0  0
   -8.7530   23.6040   -4.7410 C   0  0  0  0  0
   -8.2050   22.2200   -6.3810 C   0  0  0  0  0
   -7.5610   21.2830   -7.1310 O   0  0  0  0  0
   -9.3110   22.8510   -6.6660 N   0  0  0  0  0
   -9.6150   23.6310   -5.7820 O   0  0  0  0  0
   -9.3370   27.4340   -2.8570 O   0  0  0  0  0
   -8.2200   27.4280   -0.9110 N   0  0  0  0  0
   -7.6470   28.7070   -0.9270 C   0  0  0  0  0
   -6.5180   30.3890    0.4040 C   0  0  0  0  0
   -7.1960   30.8990   -1.8670 C   0  0  0  0  0
   -5.8920   32.9850   -0.4640 Si  0  0  0  0  0
   -4.7730   33.5030   -1.8560 C   0  0  0  0  0
   -7.3600   34.1090   -0.3970 C   0  0  0  0  0
   -5.0300   33.1070    1.1820 C   0  0  0  0  0
  -12.5755   25.9514    2.1270 H   0  0  0  0  0
  -10.4449   25.2298    1.0948 H   0  0  0  0  0
  -11.7550   26.8299   -2.6823 H   0  0  0  0  0
  -13.8919   27.5434   -1.6566 H   0  0  0  0  0
   -6.9130   22.4193   -4.5513 H   0  0  0  0  0
   -7.0275   28.4323    1.1267 H   0  0  0  0  0
   -8.2324   29.3217   -2.9168 H   0  0  0  0  0
  -15.5151   28.3526   -0.4585 H   0  0  0  0  0
  -16.0460   26.6552   -0.3689 H   0  0  0  0  0
  -16.5025   27.7999    0.9165 H   0  0  0  0  0
   -9.0252   24.8938   -0.8325 H   0  0  0  0  0
  -11.2013   23.1708   -1.9692 H   0  0  0  0  0
  -11.8772   24.5008   -2.9415 H   0  0  0  0  0
  -10.9465   23.2043   -3.7313 H   0  0  0  0  0
   -9.8513   22.7091   -7.5194 H   0  0  0  0  0
   -7.9739   26.8428   -0.1126 H   0  0  0  0  0
   -6.0482   30.6974    1.3380 H   0  0  0  0  0
   -7.2562   31.6026   -2.6973 H   0  0  0  0  0
   -3.9304   32.8144   -1.9186 H   0  0  0  0  0
   -5.3290   33.4850   -2.7933 H   0  0  0  0  0
   -4.4060   34.5122   -1.6691 H   0  0  0  0  0
   -7.9257   34.0214   -1.3246 H   0  0  0  0  0
   -7.9933   33.8276    0.4443 H   0  0  0  0  0
   -7.0228   35.1379   -0.2714 H   0  0  0  0  0
   -5.7425   32.8986    1.9801 H   0  0  0  0  0
   -4.2175   32.3814    1.2199 H   0  0  0  0  0
   -4.6272   34.1122    1.3061 H   0  0  0  0  0
  2  1  4  0  0  0
  1 13  4  0  0  0
  3  2  4  0  0  0
  3  4  4  0  0  0
 14  3  1  0  0  0
  4  5  4  0  0  0
  5 13  4  0  0  0
 19  6  2  0  0  0
  6 20  1  0  0  0
  7 14  1  0  0  0
  7 24  2  0  0  0
 25  7  1  0  0  0
 26  8  4  0  0  0
  8 27  4  0  0  0
 27  9  4  0  0  0
 28  9  4  0  0  0
  9 29  1  0  0  0
 26 10  4  0  0  0
 10 28  4  0  0  0
 12 11  1  0  0  0
 13 12  1  0  0  0
 14 15  1  0  0  0
 15 16  1  0  0  0
 15 17  1  0  0  0
 17 18  2  0  0  0
 17 19  1  0  0  0
 19 23  1  0  0  0
 20 21  2  0  0  0
 22 20  1  0  0  0
 23 22  1  0  0  0
 25 26  1  0  0  0
 29 30  1  0  0  0
 29 31  1  0  0  0
 29 32  1  0  0  0
  1 33  1  0  0  0
  2 34  1  0  0  0
  4 35  1  0  0  0
  5 36  1  0  0  0
  6 37  1  0  0  0
  8 38  1  0  0  0
 10 39  1  0  0  0
 11 40  1  0  0  0
 11 41  1  0  0  0
 11 42  1  0  0  0
 14 43  1  0  0  0
 16 44  1  0  0  0
 16 45  1  0  0  0
 16 46  1  0  0  0
 22 47  1  0  0  0
 25 48  1  0  0  0
 27 49  1  0  0  0
 28 50  1  0  0  0
 30 51  1  0  0  0
 30 52  1  0  0  0
 30 53  1  0  0  0
 31 54  1  0  0  0
 31 55  1  0  0  0
 31 56  1  0  0  0
 32 57  1  0  0  0
 32 58  1  0  0  0
 32 59  1  0  0  0
M  END
$$$$
