4de7_ligand
  -I-interpret- 

 28 29  0  0  0  0  0  0  0  0999 V2000
   14.9640  -13.4290   23.5530 N   0  0  0  0  0
   15.6200  -14.4670   24.1900 C   0  0  0  0  0
   14.8950  -15.4770   24.7910 N   0  0  0  0  0
   13.5170  -15.4470   24.7600 C   0  0  0  0  0
   12.8680  -14.3960   24.1220 C   0  0  0  0  0
   13.6120  -13.3010   23.6970 C   0  0  0  0  0
   16.8490  -14.4970   24.2210 O   0  0  0  0  0
   12.8710  -16.3470   25.2940 O   0  0  0  0  0
   15.7410  -12.3440   22.9220 C   0  0  0  0  0
   15.7950  -12.4810   21.4080 C   0  0  0  0  0
   17.1330  -12.4330   20.9810 O   0  0  0  0  0
   15.0710  -11.2720   20.8590 C   0  0  0  0  0
   14.8200  -10.3690   22.0540 C   0  0  0  0  0
   15.1290  -11.1040   23.2210 O   0  0  0  0  0
   15.9220  -10.5990   19.9610 O   0  0  0  0  0
   13.3780   -9.8770   22.1070 C   0  0  0  0  0
   15.3785  -16.2445   25.2574 H   0  0  0  0  0
   11.7911  -14.4299   23.9573 H   0  0  0  0  0
   13.1219  -12.3516   23.4813 H   0  0  0  0  0
   16.7565  -12.4005   23.3140 H   0  0  0  0  0
   15.3504  -13.4187   21.0745 H   0  0  0  0  0
   17.1661  -12.5195   20.0255 H   0  0  0  0  0
   14.1498  -11.5461   20.3448 H   0  0  0  0  0
   15.4490   -9.4826   21.9716 H   0  0  0  0  0
   15.4689   -9.8297   19.6081 H   0  0  0  0  0
   13.1543   -9.3132   21.2013 H   0  0  0  0  0
   12.7061  -10.7322   22.1794 H   0  0  0  0  0
   13.2463   -9.2350   22.9780 H   0  0  0  0  0
  1  2  1  0  0  0
  1  6  1  0  0  0
  1  9  1  0  0  0
  2  3  1  0  0  0
  2  7  2  0  0  0
  3  4  1  0  0  0
  4  5  1  0  0  0
  4  8  2  0  0  0
  5  6  2  0  0  0
  9 10  1  0  0  0
  9 14  1  0  0  0
 10 11  1  0  0  0
 10 12  1  0  0  0
 12 13  1  0  0  0
 12 15  1  0  0  0
 13 14  1  0  0  0
 13 16  1  0  0  0
  3 17  1  0  0  0
  5 18  1  0  0  0
  6 19  1  0  0  0
  9 20  1  0  0  0
 10 21  1  0  0  0
 11 22  1  0  0  0
 12 23  1  0  0  0
 13 24  1  0  0  0
 15 25  1  0  0  0
 16 26  1  0  0  0
 16 27  1  0  0  0
 16 28  1  0  0  0
M  END
$$$$
