2jdp_ligand
  -I-interpret- 

 26 26  0  0  0  0  0  0  0  0999 V2000
  -34.8140    9.0870  -42.3930 C   0  0  0  0  0
  -33.7980    8.8930  -41.2920 C   0  0  0  0  0
  -33.8980   10.0480  -40.3070 C   0  0  0  0  0
  -35.3050   10.2150  -39.7320 C   0  0  0  0  0
  -36.3340   10.2570  -40.8700 C   0  0  0  0  0
  -37.7870   10.2780  -40.3860 C   0  0  0  0  0
  -34.4750   10.2670  -43.1470 O   0  0  0  0  0
  -32.4840    8.8950  -41.8400 O   0  0  0  0  0
  -32.9580    9.8190  -39.2430 O   0  0  0  0  0
  -35.5300    9.1180  -38.8320 O   0  0  0  0  0
  -36.1080    9.1790  -41.7770 O   0  0  0  0  0
  -35.1970   10.3070  -44.3820 C   0  0  0  0  0
  -34.8215    8.2527  -43.0944 H   0  0  0  0  0
  -33.9952    7.9436  -40.7941 H   0  0  0  0  0
  -33.6692   10.9703  -40.8409 H   0  0  0  0  0
  -35.4083   11.1533  -39.1870 H   0  0  0  0  0
  -36.1865   11.2039  -41.3893 H   0  0  0  0  0
  -38.4519   10.3972  -41.2415 H   0  0  0  0  0
  -38.0125    9.3411  -39.8767 H   0  0  0  0  0
  -37.9270   11.1106  -39.6966 H   0  0  0  0  0
  -32.3985    8.1722  -42.4660 H   0  0  0  0  0
  -32.0778    9.7153  -39.6119 H   0  0  0  0  0
  -34.8652    9.1321  -38.1396 H   0  0  0  0  0
  -34.9484    9.4271  -44.9754 H   0  0  0  0  0
  -36.2672   10.3171  -44.1756 H   0  0  0  0  0
  -34.9233   11.2072  -44.9324 H   0  0  0  0  0
  1  2  1  0  0  0
  1  7  1  0  0  0
  1 11  1  0  0  0
  2  3  1  0  0  0
  2  8  1  0  0  0
  3  4  1  0  0  0
  3  9  1  0  0  0
  4  5  1  0  0  0
  4 10  1  0  0  0
  5  6  1  0  0  0
  5 11  1  0  0  0
  7 12  1  0  0  0
  1 13  1  0  0  0
  2 14  1  0  0  0
  3 15  1  0  0  0
  4 16  1  0  0  0
  5 17  1  0  0  0
  6 18  1  0  0  0
  6 19  1  0  0  0
  6 20  1  0  0  0
  8 21  1  0  0  0
  9 22  1  0  0  0
 10 23  1  0  0  0
 12 24  1  0  0  0
 12 25  1  0  0  0
 12 26  1  0  0  0
M  END
$$$$
