1ql9_ligand
  -I-interpret- 

 61 65  0  0  0  0  0  0  0  0999 V2000
   18.2230   50.5650   59.9120 N   0  0  0  0  0
   17.9420   51.0010   61.1640 C   0  0  0  0  0
   16.7870   50.5590   61.8240 C   0  0  0  0  0
   16.2510   49.2190   59.8740 C   0  0  0  0  0
   17.4170   49.6950   59.2640 C   0  0  0  0  0
   15.9280   49.6580   61.1670 C   0  0  0  0  0
   14.7500   49.1820   61.8130 N   0  0  0  0  0
   14.4290   49.5320   63.2230 C   0  0  0  0  0
   13.0270   50.2030   63.3210 C   0  0  0  0  0
   12.3770   49.1220   61.1300 C   0  0  0  0  0
   13.7350   48.3930   61.0840 C   0  0  0  0  0
   11.9290   49.3530   62.6090 C   0  0  0  0  0
   10.5660   50.0330   62.6130 C   0  0  0  0  0
   10.5770   51.2380   62.8600 O   0  0  0  0  0
    9.4420   49.4100   62.3370 N   0  0  0  0  0
    9.3660   47.9510   62.0360 C   0  0  0  0  0
    8.5640   47.7320   60.7300 C   0  0  0  0  0
    7.4540   49.9040   60.9880 C   0  0  0  0  0
    8.1660   50.1570   62.3430 C   0  0  0  0  0
    7.2720   48.4430   60.8410 N   0  0  0  0  0
    6.2200   48.0300   59.6480 S   0  0  0  0  0
    5.0680   48.9160   59.7320 O   0  0  0  0  0
    5.9520   46.6270   59.8260 O   0  0  0  0  0
    6.9580   48.2550   58.0380 C   0  0  0  0  0
    6.9530   49.5250   57.4270 C   0  0  0  0  0
    7.5660   47.1690   57.3800 C   0  0  0  0  0
    8.1500   47.3420   56.1160 C   0  0  0  0  0
    7.5350   49.7090   56.1580 C   0  0  0  0  0
    8.1350   48.6060   55.5000 C   0  0  0  0  0
    8.7140   48.7820   54.2470 C   0  0  0  0  0
    8.1040   51.1390   54.2760 C   0  0  0  0  0
    7.5190   50.9720   55.5360 C   0  0  0  0  0
    8.7040   50.0390   53.6350 C   0  0  0  0  0
    9.4500   50.2280   52.0690 Cl  0  0  0  0  0
   18.6171   51.6984   61.6600 H   0  0  0  0  0
   16.5575   50.9078   62.8309 H   0  0  0  0  0
   15.6020   48.5162   59.3514 H   0  0  0  0  0
   17.6770   49.3618   58.2593 H   0  0  0  0  0
   15.1797   50.2312   63.5912 H   0  0  0  0  0
   14.4243   48.6195   63.8192 H   0  0  0  0  0
   13.0775   51.1765   62.8334 H   0  0  0  0  0
   12.7622   50.2928   64.3745 H   0  0  0  0  0
   12.4771   50.0882   60.6355 H   0  0  0  0  0
   11.6295   48.5100   60.6253 H   0  0  0  0  0
   13.6349   47.4136   61.5517 H   0  0  0  0  0
   14.0465   48.2752   60.0461 H   0  0  0  0  0
   11.8226   48.4139   63.1520 H   0  0  0  0  0
    8.8677   47.4369   62.8579 H   0  0  0  0  0
   10.3734   47.5532   61.9137 H   0  0  0  0  0
    8.3883   46.6671   60.5780 H   0  0  0  0  0
    9.1273   48.1187   59.8807 H   0  0  0  0  0
    6.4890   50.4104   60.9663 H   0  0  0  0  0
    8.0528   50.2961   60.1660 H   0  0  0  0  0
    8.3546   51.2224   62.4755 H   0  0  0  0  0
    7.5370   49.8201   63.1669 H   0  0  0  0  0
    6.4954   50.3707   57.9403 H   0  0  0  0  0
    7.5831   46.1882   57.8552 H   0  0  0  0  0
    8.6158   46.4957   55.6110 H   0  0  0  0  0
    9.1776   47.9357   53.7401 H   0  0  0  0  0
    8.0951   52.1162   53.7932 H   0  0  0  0  0
    7.0508   51.8198   56.0361 H   0  0  0  0  0
  1  2  4  0  0  0
  1  5  4  0  0  0
  2  3  4  0  0  0
  3  6  4  0  0  0
  6  7  1  0  0  0
  7  8  1  0  0  0
  7 11  1  0  0  0
  8  9  1  0  0  0
  9 12  1  0  0  0
 12 13  1  0  0  0
 13 14  2  0  0  0
 13 15  1  0  0  0
 15 16  1  0  0  0
 15 19  1  0  0  0
 16 17  1  0  0  0
 17 20  1  0  0  0
 20 21  1  0  0  0
 21 22  2  0  0  0
 21 23  2  0  0  0
 21 24  1  0  0  0
 24 25  4  0  0  0
 24 26  4  0  0  0
 25 28  4  0  0  0
 26 27  4  0  0  0
 27 29  4  0  0  0
 28 29  4  0  0  0
 28 32  4  0  0  0
 29 30  4  0  0  0
 30 33  4  0  0  0
 33 34  1  0  0  0
 33 31  4  0  0  0
 32 31  4  0  0  0
 20 18  1  0  0  0
 19 18  1  0  0  0
 12 10  1  0  0  0
 11 10  1  0  0  0
  6  4  4  0  0  0
  5  4  4  0  0  0
  2 35  1  0  0  0
  3 36  1  0  0  0
  4 37  1  0  0  0
  5 38  1  0  0  0
  8 39  1  0  0  0
  8 40  1  0  0  0
  9 41  1  0  0  0
  9 42  1  0  0  0
 10 43  1  0  0  0
 10 44  1  0  0  0
 11 45  1  0  0  0
 11 46  1  0  0  0
 12 47  1  0  0  0
 16 48  1  0  0  0
 16 49  1  0  0  0
 17 50  1  0  0  0
 17 51  1  0  0  0
 18 52  1  0  0  0
 18 53  1  0  0  0
 19 54  1  0  0  0
 19 55  1  0  0  0
 25 56  1  0  0  0
 26 57  1  0  0  0
 27 58  1  0  0  0
 30 59  1  0  0  0
 31 60  1  0  0  0
 32 61  1  0  0  0
M  END
$$$$
