2gkl_ligand
  -I-interpret- 

 17 17  0  0  0  0  0  0  0  0999 V2000
   19.3660   49.2270   66.3240 O   0  0  0  0  0
   18.2170   49.0580   66.8030 C   0  0  0  0  0
   17.2940   49.8860   66.6170 O   0  0  0  0  0
   17.9230   47.8450   67.6490 C   0  0  0  0  0
   16.6120   47.4010   67.7940 C   0  0  0  0  0
   16.3330   46.2900   68.5930 C   0  0  0  0  0
   18.9400   47.1580   68.3170 C   0  0  0  0  0
   18.6080   46.0370   69.0900 C   0  0  0  0  0
   17.3200   45.6470   69.2100 N   0  0  0  0  0
   19.6640   45.2600   69.8330 C   0  0  0  0  0
   20.8630   45.6440   69.7830 O   0  0  0  0  0
   19.3010   44.2530   70.4800 O   0  0  0  0  0
   19.9277   48.4901   66.5752 H   0  0  0  0  0
   15.8017   47.9212   67.2832 H   0  0  0  0  0
   15.3043   45.9494   68.7111 H   0  0  0  0  0
   19.9756   47.4888   68.2381 H   0  0  0  0  0
   20.9233   46.4307   69.2361 H   0  0  0  0  0
  1  2  1  0  0  0
  2  3  2  0  0  0
  2  4  1  0  0  0
  4  5  4  0  0  0
  4  7  4  0  0  0
  5  6  4  0  0  0
  6  9  4  0  0  0
  7  8  4  0  0  0
  8  9  4  0  0  0
  8 10  1  0  0  0
 10 11  1  0  0  0
 10 12  2  0  0  0
  1 13  1  0  0  0
  5 14  1  0  0  0
  6 15  1  0  0  0
  7 16  1  0  0  0
 11 17  1  0  0  0
M  END
$$$$
