### 
### Created by X-TOOL on Mon Aug  2 16:13:26 2021
### 

@<TRIPOS>MOLECULE
6g01_ligand
   49    49     1     0     0
SMALL
GAST_HUCK


@<TRIPOS>ATOM
      1 C4          7.8120   14.5910   -1.3530 C.3       1 EEW         0.0105
      2 C5          9.0490   14.5980   -0.3870 C.3       1 EEW         0.1208
      3 C6          8.5260   14.7500    1.0190 C.3       1 EEW         0.1134
      4 C11        11.9980   16.7610   -1.4680 C.3       1 EEW         0.0257
      5 C7          7.4540   13.8400    1.2970 C.2       1 EEW        -0.0360
      6 C8          9.9910   15.7920    2.6820 C.3       1 EEW         0.0615
      7 C9          8.8600   16.3720    3.6350 C.3       1 EEW        -0.0292
      8 C10        11.2080   15.5080   -1.2060 C.2       1 EEW         0.1735
      9 C3          6.9560   13.3400   -1.0340 C.3       1 EEW         0.0281
     10 C91         8.6760   15.5300    4.8590 C.3       1 EEW        -0.0629
     11 C81        11.3030   15.4190    3.3800 C.3       1 EEW        -0.0292
     12 C82        12.4060   15.1240    2.3680 C.3       1 EEW        -0.0629
     13 O7          9.5890   14.5620    1.9770 O.3       1 EEW        -0.3589
     14 C2          6.6720   13.2110    0.3290 C.2       1 EEW         0.0277
     15 P           5.3820   12.1030    0.7730 P.3       1 EEW         0.1299
     16 OP1         4.1850   12.2450   -0.1360 O.co2     1 EEW        -0.6236
     17 OP2         5.0220   12.1890    2.2440 O.co2     1 EEW        -0.6236
     18 OP3         6.0490   10.6550    0.4930 O.3       1 EEW        -0.2865
     19 CP1         5.1680    9.5470    0.3410 C.3       1 EEW         0.0693
     20 N4          8.2830   14.5880   -2.7510 N.4       1 EEW         0.2237
     21 N5          9.9720   15.7080   -0.6990 N.am      1 EEW        -0.2739
     22 O10        11.6990   14.3960   -1.4150 O.2       1 EEW        -0.3974
     23 H1          7.2070   15.4939   -1.1835 H         1 EEW         0.0895
     24 H2          9.5911   13.6455   -0.4808 H         1 EEW         0.0665
     25 H3          8.1397   15.7743    1.1271 H         1 EEW         0.0785
     26 H4         12.9836   16.4942   -1.8771 H         1 EEW         0.0467
     27 H5         12.1295   17.3151   -0.5269 H         1 EEW         0.0467
     28 H6         11.4587   17.3899   -2.1916 H         1 EEW         0.0467
     29 H7          7.2340   13.6239    2.3414 H         1 EEW         0.0630
     30 H8         10.2048   16.5721    1.9366 H         1 EEW         0.0598
     31 H9          7.9105   16.4058    3.0806 H         1 EEW         0.0288
     32 H10         9.1415   17.3899    3.9426 H         1 EEW         0.0288
     33 H11         7.5039   12.4455   -1.3650 H         1 EEW         0.0444
     34 H12         6.0070   13.4136   -1.5853 H         1 EEW         0.0444
     35 H13         7.8865   15.9661    5.4887 H         1 EEW         0.0231
     36 H14         9.6186   15.4947    5.4249 H         1 EEW         0.0231
     37 H15         8.3876   14.5106    4.5629 H         1 EEW         0.0231
     38 H16        11.1375   14.5255    3.9999 H         1 EEW         0.0288
     39 H17        11.6188   16.2560    4.0200 H         1 EEW         0.0288
     40 H18        13.3315   14.8604    2.9008 H         1 EEW         0.0231
     41 H19        12.5815   16.0147    1.7469 H         1 EEW         0.0231
     42 H20        12.1003   14.2842    1.7267 H         1 EEW         0.0231
     43 H21         5.7545    8.6348    0.1572 H         1 EEW         0.0583
     44 H22         4.4949    9.7278   -0.5100 H         1 EEW         0.0583
     45 H23         4.5740    9.4223    1.2584 H         1 EEW         0.0583
     46 H24         8.8347   15.4142   -2.9214 H         1 EEW         0.1999
     47 H25         7.4897   14.5796   -3.3728 H         1 EEW         0.1999
     48 H26         8.8464   13.7682   -2.9140 H         1 EEW         0.1999
     49 H27         9.6697   16.6457   -0.5280 H         1 EEW         0.1859
@<TRIPOS>BOND
     1    2    1 1  
     2    1    9 1  
     3    1   20 1  
     4    2    3 1  
     5   21    2 1  
     6    3    5 1  
     7    3   13 1  
     8    8    4 1  
     9    5   14 2  
    10    6    7 1  
    11    6   11 1  
    12   13    6 1  
    13    7   10 1  
    14    8   21 am 
    15    8   22 2  
    16    9   14 1  
    17   11   12 1  
    18   14   15 1  
    19   15   16 ar 
    20   15   17 ar 
    21   15   18 1  
    22   18   19 1  
    23    1   23 1  
    24    2   24 1  
    25    3   25 1  
    26    4   26 1  
    27    4   27 1  
    28    4   28 1  
    29    5   29 1  
    30    6   30 1  
    31    7   31 1  
    32    7   32 1  
    33    9   33 1  
    34    9   34 1  
    35   10   35 1  
    36   10   36 1  
    37   10   37 1  
    38   11   38 1  
    39   11   39 1  
    40   12   40 1  
    41   12   41 1  
    42   12   42 1  
    43   19   43 1  
    44   19   44 1  
    45   19   45 1  
    46   20   46 1  
    47   20   47 1  
    48   20   48 1  
    49   21   49 1  
@<TRIPOS>SUBSTRUCTURE
     1 EEW         1

