6g01_ligand
  -I-interpret- 

 50 50  0  0  0  0  0  0  0  0999 V2000
    7.8120   14.5910   -1.3530 C   0  0  0  0  0
    9.0490   14.5980   -0.3870 C   0  0  0  0  0
    8.5260   14.7500    1.0190 C   0  0  0  0  0
   11.9980   16.7610   -1.4680 C   0  0  0  0  0
    7.4540   13.8400    1.2970 C   0  0  0  0  0
    9.9910   15.7920    2.6820 C   0  0  0  0  0
    8.8600   16.3720    3.6350 C   0  0  0  0  0
   11.2080   15.5080   -1.2060 C   0  0  0  0  0
    6.9560   13.3400   -1.0340 C   0  0  0  0  0
    8.6760   15.5300    4.8590 C   0  0  0  0  0
   11.3030   15.4190    3.3800 C   0  0  0  0  0
   12.4060   15.1240    2.3680 C   0  0  0  0  0
    9.5890   14.5620    1.9770 O   0  0  0  0  0
    6.6720   13.2110    0.3290 C   0  0  0  0  0
    5.3820   12.1030    0.7730 P   0  0  0  0  0
    4.1850   12.2450   -0.1360 O   0  0  0  0  0
    5.0220   12.1890    2.2440 O   0  0  0  0  0
    6.0490   10.6550    0.4930 O   0  0  0  0  0
    5.1680    9.5470    0.3410 C   0  0  0  0  0
    8.2830   14.5880   -2.7510 N   0  3  0  0  0
    9.9720   15.7080   -0.6990 N   0  0  0  0  0
   11.6990   14.3960   -1.4150 O   0  0  0  0  0
    7.1986   15.4812   -1.2134 H   0  0  0  0  0
    9.6077   13.6693   -0.5028 H   0  0  0  0  0
    8.1335   15.7631    1.1065 H   0  0  0  0  0
   12.8967   16.7580   -0.8512 H   0  0  0  0  0
   12.2784   16.7988   -2.5206 H   0  0  0  0  0
   11.3894   17.6310   -1.2213 H   0  0  0  0  0
    7.2338   13.6237    2.3424 H   0  0  0  0  0
   10.1422   16.6311    2.0029 H   0  0  0  0  0
    7.9202   16.3828    3.0830 H   0  0  0  0  0
    9.1578   17.3722    3.9497 H   0  0  0  0  0
    7.5221   12.4608   -1.3417 H   0  0  0  0  0
    6.0089   13.4394   -1.5644 H   0  0  0  0  0
    8.3903   14.5202    4.5642 H   0  0  0  0  0
    9.6107   15.4958    5.4188 H   0  0  0  0  0
    7.8935   15.9631    5.4821 H   0  0  0  0  0
   11.1345   14.5245    3.9797 H   0  0  0  0  0
   11.6168   16.2589    3.9999 H   0  0  0  0  0
   12.1018   14.2918    1.7332 H   0  0  0  0  0
   12.5789   16.0073    1.7532 H   0  0  0  0  0
   13.3225   14.8630    2.8972 H   0  0  0  0  0
    5.8173   12.0928    2.7731 H   0  0  0  0  0
    4.5800    9.4245    1.2506 H   0  0  0  0  0
    4.5016    9.7274   -0.5025 H   0  0  0  0  0
    5.7503    8.6438    0.1589 H   0  0  0  0  0
    8.8411   15.4244   -2.9223 H   0  0  0  0  0
    8.8529   13.7581   -2.9147 H   0  0  0  0  0
    7.4795   14.5794   -3.3792 H   0  0  0  0  0
    9.6636   16.6645   -0.5245 H   0  0  0  0  0
  2  1  1  0  0  0
  1  9  1  0  0  0
  1 20  1  0  0  0
  2  3  1  0  0  0
 21  2  1  0  0  0
  3  5  1  0  0  0
  3 13  1  0  0  0
  8  4  1  0  0  0
  5 14  2  0  0  0
  6  7  1  0  0  0
  6 11  1  0  0  0
 13  6  1  0  0  0
  7 10  1  0  0  0
  8 21  1  0  0  0
  8 22  2  0  0  0
  9 14  1  0  0  0
 11 12  1  0  0  0
 14 15  1  0  0  0
 15 16  2  0  0  0
 15 17  1  0  0  0
 15 18  1  0  0  0
 18 19  1  0  0  0
  1 23  1  0  0  0
  2 24  1  0  0  0
  3 25  1  0  0  0
  4 26  1  0  0  0
  4 27  1  0  0  0
  4 28  1  0  0  0
  5 29  1  0  0  0
  6 30  1  0  0  0
  7 31  1  0  0  0
  7 32  1  0  0  0
  9 33  1  0  0  0
  9 34  1  0  0  0
 10 35  1  0  0  0
 10 36  1  0  0  0
 10 37  1  0  0  0
 11 38  1  0  0  0
 11 39  1  0  0  0
 12 40  1  0  0  0
 12 41  1  0  0  0
 12 42  1  0  0  0
 17 43  1  0  0  0
 19 44  1  0  0  0
 19 45  1  0  0  0
 19 46  1  0  0  0
 20 47  1  0  0  0
 20 48  1  0  0  0
 20 49  1  0  0  0
 21 50  1  0  0  0
M  END
$$$$
