5n1s_ligand
  -I-interpret- 

 30 32  0  0  0  0  0  0  0  0999 V2000
   -5.9670    0.8580   16.7720 S   0  0  0  0  0
   -5.4520    0.9750   18.1220 O   0  0  0  0  0
   -7.3790    0.9800   16.5400 O   0  0  0  0  0
   -5.4250   -0.5030   16.0640 N   0  0  0  0  0
   -5.2530    2.2460   15.9320 C   0  0  0  0  0
   -6.0180    3.3690   15.5590 C   0  0  0  0  0
   -5.3870    4.4850   15.0200 C   0  0  0  0  0
   -4.0160    4.5140   14.8450 C   0  0  0  0  0
   -3.2860    3.3950   15.1500 C   0  0  0  0  0
   -3.8790    2.2780   15.7230 C   0  0  0  0  0
   -0.2800    8.8450   12.9590 C   0  0  0  0  0
   -1.2330    9.7090   13.5130 C   0  0  0  0  0
   -0.4880    7.4650   12.9510 C   0  0  0  0  0
   -1.6330    6.9590   13.5640 C   0  0  0  0  0
   -2.1260    5.6300   13.7360 C   0  0  0  0  0
   -2.5630    7.8150   14.1450 C   0  0  0  0  0
   -2.3900    9.2230   14.1100 C   0  0  0  0  0
   -3.6210    7.0170   14.6850 N   0  0  0  0  0
   -3.2970    5.6850   14.4100 C   0  0  0  0  0
   -4.8080   -1.1334   16.5761 H   0  0  0  0  0
   -5.7022   -0.7258   15.1080 H   0  0  0  0  0
   -7.0998    3.3631   15.6924 H   0  0  0  0  0
   -5.9830    5.3507   14.7309 H   0  0  0  0  0
   -2.2169    3.3816   14.9382 H   0  0  0  0  0
   -3.2656    1.4238   16.0098 H   0  0  0  0  0
    0.6341    9.2549   12.5294 H   0  0  0  0  0
   -1.0636   10.7851   13.4751 H   0  0  0  0  0
    0.2299    6.7969   12.4753 H   0  0  0  0  0
   -1.6389    4.7213   13.3824 H   0  0  0  0  0
   -3.1347    9.8963   14.5344 H   0  0  0  0  0
  1  2  2  0  0  0
  1  3  2  0  0  0
  1  4  1  0  0  0
  5  1  1  0  0  0
  6  5  4  0  0  0
 10  5  4  0  0  0
  7  6  4  0  0  0
  8  7  4  0  0  0
  8  9  4  0  0  0
 19  8  1  0  0  0
  9 10  4  0  0  0
 11 12  4  0  0  0
 13 11  4  0  0  0
 12 17  4  0  0  0
 14 13  4  0  0  0
 15 14  4  0  0  0
 14 16  4  0  0  0
 15 19  4  0  0  0
 16 17  4  0  0  0
 16 18  4  0  0  0
 18 19  4  0  0  0
  4 20  1  0  0  0
  4 21  1  0  0  0
  6 22  1  0  0  0
  7 23  1  0  0  0
  9 24  1  0  0  0
 10 25  1  0  0  0
 11 26  1  0  0  0
 12 27  1  0  0  0
 13 28  1  0  0  0
 15 29  1  0  0  0
 17 30  1  0  0  0
M  END
$$$$
