6hrp_ligand
  -I-interpret- 

 81 86  0  0  0  0  0  0  0  0999 V2000
   21.3870    5.6580    0.9990 C   0  0  0  0  0
   22.6160    6.0470    0.3910 C   0  0  0  0  0
   23.6140    6.5620    1.1030 C   0  0  0  0  0
   23.4690    6.6900    2.5310 C   0  0  0  0  0
   23.6200    5.9720   -1.9110 C   0  0  0  0  0
   23.3160    5.6080   -3.2690 C   0  0  0  0  0
   24.3410    5.7730   -4.1910 C   0  0  0  0  0
   25.5750    6.2410   -3.7930 C   0  0  0  0  0
   25.7580    6.5240   -2.4270 C   0  0  0  0  0
   26.6540    6.3600   -4.7960 C   0  0  0  0  0
   20.4360    5.2050    0.3950 O   0  0  0  0  0
   24.5640    7.1880    3.3250 C   0  0  0  0  0
   25.0480   10.0660    8.4400 C   0  0  0  0  0
   24.9140   11.4030    8.0200 C   0  0  0  0  0
   24.9490   11.7340    6.6150 C   0  0  0  0  0
   24.9170    9.8030    9.8280 C   0  0  0  0  0
   24.7490   10.7810   10.7450 C   0  0  0  0  0
   24.7130   12.0990   10.3490 C   0  0  0  0  0
   24.7520   12.4260    8.9950 C   0  0  0  0  0
   24.6180   13.2340   11.3680 C   0  0  0  0  0
   22.3630    6.2960    3.1270 N   0  0  0  0  0
   21.3280    5.8230    2.3830 N   0  0  0  0  0
   22.5860    5.8450   -1.0090 N   0  0  0  0  0
   24.7880    6.3760   -1.5510 N   0  0  0  0  0
   27.6910    5.7900   -4.5820 O   0  0  0  0  0
   26.4430    7.0120   -5.9390 N   0  0  0  0  0
   27.5570    7.0480   -6.9460 C   0  0  0  0  0
   27.5260    8.4150   -7.6400 C   0  0  0  0  0
   26.2070    8.6470   -8.1810 O   0  0  0  0  0
   25.3190    8.9990   -7.1040 C   0  0  0  0  0
   25.1710    7.7220   -6.2700 C   0  0  0  0  0
   20.0580    5.5590    3.0910 C   0  0  0  0  0
   25.8390    6.7070    3.0720 C   0  0  0  0  0
   26.9410    7.1510    3.7650 C   0  0  0  0  0
   26.6920    8.0780    4.7920 C   0  0  0  0  0
   25.4530    8.5100    5.0450 C   0  0  0  0  0
   24.3240    8.1370    4.3550 C   0  0  0  0  0
   25.3350    9.4600    6.1340 N   0  0  0  0  0
   25.2560    8.9870    7.4230 C   0  0  0  0  0
   25.1660   10.8120    5.7070 N   0  0  0  0  0
   23.0690    8.8190    4.6410 C   0  0  0  0  0
   22.5180    8.3600    5.8810 O   0  0  0  0  0
   25.3950    7.7900    7.6910 O   0  0  0  0  0
   24.9110    8.4870   10.2490 F   0  0  0  0  0
   24.5960   12.6800   12.7920 C   0  0  0  0  0
   25.9160   14.0890   11.2340 C   0  0  0  0  0
   23.4330   14.1270   11.0710 C   0  0  0  0  0
   24.5322    6.8840    0.6116 H   0  0  0  0  0
   22.3373    5.2247   -3.5577 H   0  0  0  0  0
   24.1682    5.5302   -5.2395 H   0  0  0  0  0
   26.7313    6.8759   -2.0849 H   0  0  0  0  0
   24.7926   12.7668    6.3035 H   0  0  0  0  0
   24.6419   10.5262   11.7994 H   0  0  0  0  0
   24.6583   13.4661    8.6829 H   0  0  0  0  0
   21.6849    5.5706   -1.4002 H   0  0  0  0  0
   27.4278    6.2512   -7.6785 H   0  0  0  0  0
   28.5166    6.8992   -6.4509 H   0  0  0  0  0
   28.2588    8.4309   -8.4467 H   0  0  0  0  0
   27.7665    9.1957   -6.9184 H   0  0  0  0  0
   24.3562    9.3499   -7.4756 H   0  0  0  0  0
   25.7147    9.8230   -6.5102 H   0  0  0  0  0
   24.7302    8.0237   -5.3199 H   0  0  0  0  0
   24.5784    7.0300   -6.8684 H   0  0  0  0  0
   20.2252    4.8137    3.8687 H   0  0  0  0  0
   19.6966    6.4827    3.5429 H   0  0  0  0  0
   19.3188    5.1865    2.3818 H   0  0  0  0  0
   25.9729    5.9515    2.2978 H   0  0  0  0  0
   27.9478    6.8046    3.5317 H   0  0  0  0  0
   27.5227    8.4503    5.3915 H   0  0  0  0  0
   22.3610    8.6074    3.8397 H   0  0  0  0  0
   23.2572    9.8902    4.7128 H   0  0  0  0  0
   21.6928    8.8195    6.0528 H   0  0  0  0  0
   23.7335   12.0244   12.9121 H   0  0  0  0  0
   25.5108   12.1164   12.9754 H   0  0  0  0  0
   24.5281   13.5054   13.5006 H   0  0  0  0  0
   26.7846   13.4630   11.4382 H   0  0  0  0  0
   25.9839   14.4879   10.2219 H   0  0  0  0  0
   25.8832   14.9114   11.9486 H   0  0  0  0  0
   23.5441   14.5568   10.0755 H   0  0  0  0  0
   22.5165   13.5386   11.1139 H   0  0  0  0  0
   23.3879   14.9266   11.8104 H   0  0  0  0  0
  2  1  1  0  0  0
  1 11  2  0  0  0
 22  1  1  0  0  0
  3  2  2  0  0  0
  2 23  1  0  0  0
  4  3  1  0  0  0
 12  4  1  0  0  0
  4 21  2  0  0  0
  5  6  4  0  0  0
 23  5  1  0  0  0
  5 24  4  0  0  0
  6  7  4  0  0  0
  7  8  4  0  0  0
  9  8  4  0  0  0
  8 10  1  0  0  0
 24  9  4  0  0  0
 10 25  2  0  0  0
 10 26  1  0  0  0
 12 33  4  0  0  0
 37 12  4  0  0  0
 13 14  4  0  0  0
 13 16  4  0  0  0
 39 13  1  0  0  0
 14 15  1  0  0  0
 14 19  4  0  0  0
 15 40  2  0  0  0
 16 17  4  0  0  0
 16 44  1  0  0  0
 17 18  4  0  0  0
 19 18  4  0  0  0
 18 20  1  0  0  0
 20 45  1  0  0  0
 20 46  1  0  0  0
 20 47  1  0  0  0
 21 22  1  0  0  0
 22 32  1  0  0  0
 26 27  1  0  0  0
 26 31  1  0  0  0
 27 28  1  0  0  0
 28 29  1  0  0  0
 30 29  1  0  0  0
 31 30  1  0  0  0
 34 33  4  0  0  0
 35 34  4  0  0  0
 36 35  4  0  0  0
 36 37  4  0  0  0
 38 36  1  0  0  0
 37 41  1  0  0  0
 38 39  1  0  0  0
 38 40  1  0  0  0
 39 43  2  0  0  0
 41 42  1  0  0  0
  3 48  1  0  0  0
  6 49  1  0  0  0
  7 50  1  0  0  0
  9 51  1  0  0  0
 15 52  1  0  0  0
 17 53  1  0  0  0
 19 54  1  0  0  0
 23 55  1  0  0  0
 27 56  1  0  0  0
 27 57  1  0  0  0
 28 58  1  0  0  0
 28 59  1  0  0  0
 30 60  1  0  0  0
 30 61  1  0  0  0
 31 62  1  0  0  0
 31 63  1  0  0  0
 32 64  1  0  0  0
 32 65  1  0  0  0
 32 66  1  0  0  0
 33 67  1  0  0  0
 34 68  1  0  0  0
 35 69  1  0  0  0
 41 70  1  0  0  0
 41 71  1  0  0  0
 42 72  1  0  0  0
 45 73  1  0  0  0
 45 74  1  0  0  0
 45 75  1  0  0  0
 46 76  1  0  0  0
 46 77  1  0  0  0
 46 78  1  0  0  0
 47 79  1  0  0  0
 47 80  1  0  0  0
 47 81  1  0  0  0
M  END
$$$$
