4k1b_ligand
  -I-interpret- 

 61 66  0  0  0  0  0  0  0  0999 V2000
  -44.5610   -1.9820    2.4500 C   0  0  0  0  0
  -45.4940   -1.1210    2.9980 C   0  0  0  0  0
  -46.2500   -0.3130    2.1730 C   0  0  0  0  0
  -46.0830   -0.3560    0.7980 C   0  0  0  0  0
  -45.1360   -1.2320    0.2350 C   0  0  0  0  0
  -44.3800   -2.0420    1.0810 C   0  0  0  0  0
  -44.9090   -1.3200   -1.2340 C   0  0  0  0  0
  -43.6360   -1.5730   -1.7640 C   0  0  0  0  0
  -43.5100   -1.6400   -3.1590 C   0  0  0  0  0
  -42.3930   -1.8800   -4.0880 C   0  0  0  0  0
  -42.9080   -1.8260   -5.3360 C   0  0  0  0  0
  -44.2610   -1.5750   -5.2780 N   0  0  0  0  0
  -44.6550   -1.4570   -3.9700 C   0  0  0  0  0
  -45.8370   -1.2220   -3.4170 N   0  0  0  0  0
  -45.9830   -1.1590   -2.1130 C   0  0  0  0  0
  -41.0520   -2.1150   -3.7290 N   0  0  0  0  0
  -40.1090   -2.5850   -4.5840 C   0  0  0  0  0
  -40.3530   -2.8550   -5.7500 O   0  0  0  0  0
  -38.7430   -2.7950   -4.1110 C   0  0  0  0  0
  -37.6830   -3.3140   -4.8730 C   0  0  0  0  0
  -36.6160   -3.3620   -4.1260 N   0  0  0  0  0
  -36.9140   -2.8760   -2.8500 N   0  0  0  0  0
  -38.2370   -2.5170   -2.8280 C   0  0  0  0  0
  -38.7980   -2.0170   -1.7230 N   0  0  0  0  0
  -38.0710   -1.8500   -0.6290 C   0  0  0  0  0
  -36.7080   -2.2100   -0.6160 C   0  0  0  0  0
  -36.1400   -2.7200   -1.7320 C   0  0  0  0  0
  -38.6400   -1.3280    0.5160 N   0  0  0  0  0
  -40.0550   -1.5420    0.8210 C   0  0  0  0  0
  -40.0830   -2.5110    2.0000 C   0  0  0  0  0
  -40.8370   -1.9070    3.1940 C   0  0  0  0  0
  -40.7680   -2.9100    4.3400 C   0  0  0  0  0
  -41.4520   -4.1300    3.9100 N   0  3  0  0  0
  -40.7770   -4.7670    2.7640 C   0  0  0  0  0
  -40.7390   -3.8210    1.5620 C   0  0  0  0  0
  -39.9730   -4.3880    0.5760 F   0  0  0  0  0
  -46.8550    0.4630    0.0440 F   0  0  0  0  0
  -43.9636   -2.6184    3.1028 H   0  0  0  0  0
  -45.6320   -1.0805    4.0785 H   0  0  0  0  0
  -46.9850    0.3650    2.6069 H   0  0  0  0  0
  -43.6426   -2.7260    0.6609 H   0  0  0  0  0
  -42.7728   -1.7130   -1.1133 H   0  0  0  0  0
  -42.3364   -1.9613   -6.2542 H   0  0  0  0  0
  -46.9759   -0.9748   -1.7028 H   0  0  0  0  0
  -40.7724   -1.9201   -2.7676 H   0  0  0  0  0
  -37.7429   -3.6250   -5.9160 H   0  0  0  0  0
  -36.1151   -2.0779    0.2891 H   0  0  0  0  0
  -35.0869   -3.0012   -1.7411 H   0  0  0  0  0
  -38.0646   -0.7845    1.1594 H   0  0  0  0  0
  -40.5895   -1.9468   -0.0384 H   0  0  0  0  0
  -40.5546   -0.6046    1.0656 H   0  0  0  0  0
  -39.0592   -2.7056    2.3196 H   0  0  0  0  0
  -41.8746   -1.7074    2.9262 H   0  0  0  0  0
  -40.3839   -0.9608    3.4898 H   0  0  0  0  0
  -41.2476   -2.5013    5.2294 H   0  0  0  0  0
  -39.7296   -3.1271    4.5903 H   0  0  0  0  0
  -42.3990   -3.8810    3.6243 H   0  0  0  0  0
  -41.4487   -4.7889    4.6886 H   0  0  0  0  0
  -41.3277   -5.6659    2.4868 H   0  0  0  0  0
  -39.7545   -5.0129    3.0504 H   0  0  0  0  0
  -41.7478   -3.6376    1.1921 H   0  0  0  0  0
  1  2  4  0  0  0
  1  6  4  0  0  0
  2  3  4  0  0  0
  3  4  4  0  0  0
  4  5  4  0  0  0
  4 37  1  0  0  0
  5  6  4  0  0  0
  5  7  1  0  0  0
  7  8  4  0  0  0
  7 15  4  0  0  0
  8  9  4  0  0  0
  9 10  4  0  0  0
  9 13  4  0  0  0
 10 11  4  0  0  0
 10 16  1  0  0  0
 11 12  4  0  0  0
 12 13  4  0  0  0
 13 14  4  0  0  0
 14 15  4  0  0  0
 16 17  1  0  0  0
 17 18  2  0  0  0
 17 19  1  0  0  0
 19 20  4  0  0  0
 19 23  4  0  0  0
 20 21  4  0  0  0
 21 22  4  0  0  0
 22 23  4  0  0  0
 22 27  4  0  0  0
 23 24  4  0  0  0
 24 25  4  0  0  0
 25 26  4  0  0  0
 25 28  1  0  0  0
 26 27  4  0  0  0
 28 29  1  0  0  0
 29 30  1  0  0  0
 30 31  1  0  0  0
 30 35  1  0  0  0
 31 32  1  0  0  0
 32 33  1  0  0  0
 33 34  1  0  0  0
 34 35  1  0  0  0
 35 36  1  0  0  0
  1 38  1  0  0  0
  2 39  1  0  0  0
  3 40  1  0  0  0
  6 41  1  0  0  0
  8 42  1  0  0  0
 11 43  1  0  0  0
 15 44  1  0  0  0
 16 45  1  0  0  0
 20 46  1  0  0  0
 26 47  1  0  0  0
 27 48  1  0  0  0
 28 49  1  0  0  0
 29 50  1  0  0  0
 29 51  1  0  0  0
 30 52  1  0  0  0
 31 53  1  0  0  0
 31 54  1  0  0  0
 32 55  1  0  0  0
 32 56  1  0  0  0
 33 57  1  0  0  0
 33 58  1  0  0  0
 34 59  1  0  0  0
 34 60  1  0  0  0
 35 61  1  0  0  0
M  END
$$$$
