5d48_ligand
  -I-interpret- 

 64 68  0  0  0  0  0  0  0  0999 V2000
    6.3400    5.7860   14.3660 O   0  0  0  0  0
    6.5110    5.6580   15.5860 C   0  0  0  0  0
    5.9080    4.6340   16.2140 O   0  0  0  0  0
    7.2940    6.6870   16.3870 C   0  0  0  0  0
    6.3920    7.9000   16.6720 C   0  0  0  0  0
    5.2690    7.5250   17.5370 N   0  0  0  0  0
    3.9530    7.4230   17.1020 C   0  0  0  0  0
    3.1370    6.9640   18.1970 C   0  0  0  0  0
    1.6300    6.7030   18.1390 C   0  0  0  0  0
    0.6060    7.7040   17.9180 C   0  0  0  0  0
    0.8340    9.1920   17.8130 C   0  0  0  0  0
   -0.5930    7.0150   17.8450 N   0  0  0  0  0
   -0.3330    5.6440   17.9970 N   0  0  0  0  0
    1.0010    5.3800   18.1530 C   0  0  0  0  0
    1.6460    4.0420   18.3770 C   0  0  0  0  0
    4.0060    6.8110   19.3580 C   0  0  0  0  0
    3.7540    6.5070   20.6940 C   0  0  0  0  0
    4.7750    6.5420   21.6030 C   0  0  0  0  0
    4.5300    6.0790   23.0130 C   0  0  0  0  0
    3.3900    6.7330   23.7850 C   0  0  0  0  0
    4.8770    7.1200   24.0640 C   0  0  0  0  0
    6.0910    6.8610   21.1730 C   0  0  0  0  0
    6.3600    7.2440   19.8490 C   0  0  0  0  0
    5.3550    7.2420   18.8710 C   0  0  0  0  0
    3.4920    7.6970   15.7120 C   0  0  0  0  0
    3.1820    6.7210   14.7640 C   0  0  0  0  0
    2.7070    7.1190   13.4770 C   0  0  0  0  0
    2.6310    8.4970   13.1500 C   0  0  0  0  0
    2.9530    9.4600   14.1290 C   0  0  0  0  0
    3.4100    9.0890   15.3970 C   0  0  0  0  0
    2.7670   10.8010   13.7780 O   0  0  0  0  0
    2.8460   11.8740   14.7170 C   0  0  0  0  0
    4.2400   12.4890   14.6190 C   0  0  0  0  0
    1.6950   12.8180   14.3050 C   0  0  0  0  0
    6.1277    4.6590   17.1482 H   0  0  0  0  0
    8.1670    7.0063   15.8177 H   0  0  0  0  0
    7.6213    6.2456   17.3283 H   0  0  0  0  0
    5.9973    8.2731   15.7270 H   0  0  0  0  0
    6.9824    8.6652   17.1760 H   0  0  0  0  0
    1.2804    9.5561   18.7384 H   0  0  0  0  0
    1.5050    9.3975   16.9790 H   0  0  0  0  0
   -0.1193    9.6935   17.6461 H   0  0  0  0  0
    2.4017    3.8714   17.6102 H   0  0  0  0  0
    2.1149    4.0263   19.3609 H   0  0  0  0  0
    0.8878    3.2608   18.3219 H   0  0  0  0  0
    2.7462    6.2421   21.0137 H   0  0  0  0  0
    4.7911    5.0381   22.8221 H   0  0  0  0  0
    2.4940    6.4462   24.3355 H   0  0  0  0  0
    2.4329    7.2174   23.5918 H   0  0  0  0  0
    5.4897    8.0159   24.1648 H   0  0  0  0  0
    5.5511    7.2410   24.9119 H   0  0  0  0  0
    6.9118    6.8071   21.8882 H   0  0  0  0  0
    7.3702    7.5490   19.5760 H   0  0  0  0  0
    3.3013    5.6643   15.0035 H   0  0  0  0  0
    2.4041    6.3665   12.7489 H   0  0  0  0  0
    2.3265    8.8091   12.1510 H   0  0  0  0  0
    3.6973    9.8440   16.1289 H   0  0  0  0  0
    2.7268   11.5958   15.7641 H   0  0  0  0  0
    4.9875   11.7304   14.8511 H   0  0  0  0  0
    4.4009   12.8619   13.6075 H   0  0  0  0  0
    4.3233   13.3121   15.3286 H   0  0  0  0  0
    1.8529   13.1559   13.2808 H   0  0  0  0  0
    0.7473   12.2835   14.3706 H   0  0  0  0  0
    1.6754   13.6784   14.9739 H   0  0  0  0  0
  1  2  2  0  0  0
  2  3  1  0  0  0
  2  4  1  0  0  0
  4  5  1  0  0  0
  5  6  1  0  0  0
  6  7  4  0  0  0
  6 24  4  0  0  0
  7  8  4  0  0  0
  7 25  1  0  0  0
  8  9  1  0  0  0
  8 16  4  0  0  0
  9 10  4  0  0  0
  9 14  4  0  0  0
 10 11  1  0  0  0
 10 12  4  0  0  0
 12 13  4  0  0  0
 13 14  4  0  0  0
 14 15  1  0  0  0
 16 17  4  0  0  0
 16 24  4  0  0  0
 17 18  4  0  0  0
 18 19  1  0  0  0
 18 22  4  0  0  0
 19 20  1  0  0  0
 19 21  1  0  0  0
 20 21  1  0  0  0
 22 23  4  0  0  0
 23 24  4  0  0  0
 25 26  4  0  0  0
 25 30  4  0  0  0
 26 27  4  0  0  0
 27 28  4  0  0  0
 28 29  4  0  0  0
 29 30  4  0  0  0
 29 31  1  0  0  0
 31 32  1  0  0  0
 32 33  1  0  0  0
 32 34  1  0  0  0
  3 35  1  0  0  0
  4 36  1  0  0  0
  4 37  1  0  0  0
  5 38  1  0  0  0
  5 39  1  0  0  0
 11 40  1  0  0  0
 11 41  1  0  0  0
 11 42  1  0  0  0
 15 43  1  0  0  0
 15 44  1  0  0  0
 15 45  1  0  0  0
 17 46  1  0  0  0
 19 47  1  0  0  0
 20 48  1  0  0  0
 20 49  1  0  0  0
 21 50  1  0  0  0
 21 51  1  0  0  0
 22 52  1  0  0  0
 23 53  1  0  0  0
 26 54  1  0  0  0
 27 55  1  0  0  0
 28 56  1  0  0  0
 30 57  1  0  0  0
 32 58  1  0  0  0
 33 59  1  0  0  0
 33 60  1  0  0  0
 33 61  1  0  0  0
 34 62  1  0  0  0
 34 63  1  0  0  0
 34 64  1  0  0  0
M  END
$$$$
