### 
### Created by X-TOOL on Wed Jan  1 15:39:34 2020
### 

@<TRIPOS>MOLECULE
5tgc_ligand
   43    45     1     0     0
SMALL
GAST_HUCK


@<TRIPOS>ATOM
      1 PG        -69.1220   48.9710    9.4000 P.3       1 ATP         0.1879
      2 O1G       -69.2560   47.8710    8.3740 O.co2     1 ATP        -0.6091
      3 O2G       -68.3650   50.1870    8.9210 O.co2     1 ATP        -0.6091
      4 O3G       -68.7100   48.5010   10.7740 O.co2     1 ATP        -0.6091
      5 PB        -71.4120   50.2740    8.4260 P.3       1 ATP         0.3553
      6 O1B       -70.6290   50.1520    7.1390 O.co2     1 ATP        -0.5652
      7 O2B       -72.8700   49.8860    8.4600 O.co2     1 ATP        -0.5652
      8 O3B       -70.6330   49.4960    9.6030 O.3       1 ATP        -0.1546
      9 PA        -70.9010   53.0370    8.0960 P.3       1 ATP         0.3266
     10 O1A       -69.7110   52.7050    7.2260 O.co2     1 ATP        -0.5692
     11 O2A       -72.1640   53.5790    7.4680 O.co2     1 ATP        -0.5692
     12 O3A       -71.2930   51.7690    9.0050 O.3       1 ATP        -0.1171
     13 O5'       -70.3980   54.0660    9.2290 O.3       1 ATP        -0.2441
     14 C5'       -71.3130   54.9870    9.8120 C.3       1 ATP         0.1131
     15 C4'       -70.6000   55.9000   10.8030 C.3       1 ATP         0.1189
     16 O4'       -70.0290   56.9800   10.0670 O.3       1 ATP        -0.3364
     17 C3'       -71.5450   56.4970   11.8370 C.3       1 ATP         0.1149
     18 O3'       -71.0050   56.3510   13.1550 O.3       1 ATP        -0.3864
     19 C2'       -71.6880   57.9610   11.4660 C.3       1 ATP         0.1385
     20 O2'       -71.6550   58.8060   12.6200 O.3       1 ATP        -0.3836
     21 C1'       -70.5110   58.2390   10.5400 C.3       1 ATP         0.2010
     22 N9        -70.8710   59.0950    9.3820 N.pl3     1 ATP        -0.1919
     23 C8        -71.9410   58.9630    8.5720 C.2       1 ATP         0.1123
     24 N7        -71.9410   59.9300    7.6180 N.2       1 ATP        -0.2958
     25 C5        -70.8520   60.6960    7.8130 C.ar      1 ATP         0.1045
     26 C6        -70.2440   61.8820    7.1690 C.ar      1 ATP         0.1298
     27 N6        -70.8250   62.4620    6.0890 N.pl3     1 ATP        -0.3152
     28 N1        -69.0950   62.3670    7.6930 N.ar      1 ATP        -0.2698
     29 C2        -68.5050   61.8070    8.7650 C.ar      1 ATP         0.0533
     30 N3        -69.0060   60.7300    9.3940 N.ar      1 ATP        -0.2714
     31 C4        -70.1530   60.1420    8.9780 C.ar      1 ATP         0.1613
     32 H1        -72.1015   54.4288   10.3380 H         1 ATP         0.0648
     33 H2        -71.7648   55.5992    9.0176 H         1 ATP         0.0648
     34 H3        -69.8118   55.3308   11.3176 H         1 ATP         0.0651
     35 H4        -72.5240   55.9976   11.7905 H         1 ATP         0.0648
     36 H5        -71.6066   56.7283   13.7861 H         1 ATP         0.2100
     37 H6        -72.6366   58.1254   10.9339 H         1 ATP         0.0676
     38 H7        -70.8271   58.6912   13.0716 H         1 ATP         0.2101
     39 H8        -69.7200   58.7442   11.1137 H         1 ATP         0.0996
     40 H9        -72.7001   58.1883    8.6692 H         1 ATP         0.1349
     41 H10       -70.3904   63.2869    5.6513 H         1 ATP         0.1820
     42 H11       -71.7007   62.0775    5.7067 H         1 ATP         0.1820
     43 H12       -67.5854   62.2436    9.1376 H         1 ATP         0.0996
@<TRIPOS>BOND
     1    1    2 ar 
     2    1    3 ar 
     3    1    4 ar 
     4    8    1 1  
     5    5    6 ar 
     6    5    7 ar 
     7    5    8 1  
     8   12    5 1  
     9    9   10 ar 
    10    9   11 ar 
    11    9   12 1  
    12    9   13 1  
    13   13   14 1  
    14   14   15 1  
    15   15   16 1  
    16   15   17 1  
    17   16   21 1  
    18   17   18 1  
    19   17   19 1  
    20   19   20 1  
    21   19   21 1  
    22   21   22 1  
    23   22   23 1  
    24   22   31 1  
    25   23   24 2  
    26   24   25 1  
    27   25   26 ar 
    28   25   31 ar 
    29   26   27 1  
    30   26   28 ar 
    31   28   29 ar 
    32   29   30 ar 
    33   30   31 ar 
    34   14   32 1  
    35   14   33 1  
    36   15   34 1  
    37   17   35 1  
    38   18   36 1  
    39   19   37 1  
    40   20   38 1  
    41   21   39 1  
    42   23   40 1  
    43   27   41 1  
    44   27   42 1  
    45   29   43 1  
@<TRIPOS>SUBSTRUCTURE
     1 ATP         1

