5tgc_ligand
  -I-interpret- 

 47 49  0  0  0  0  0  0  0  0999 V2000
  -69.1220   48.9710    9.4000 P   0  0  0  0  0
  -69.2560   47.8710    8.3740 O   0  0  0  0  0
  -68.3650   50.1870    8.9210 O   0  0  0  0  0
  -68.7100   48.5010   10.7740 O   0  0  0  0  0
  -71.4120   50.2740    8.4260 P   0  0  0  0  0
  -70.6290   50.1520    7.1390 O   0  0  0  0  0
  -72.8700   49.8860    8.4600 O   0  0  0  0  0
  -70.6330   49.4960    9.6030 O   0  0  0  0  0
  -70.9010   53.0370    8.0960 P   0  0  0  0  0
  -69.7110   52.7050    7.2260 O   0  0  0  0  0
  -72.1640   53.5790    7.4680 O   0  0  0  0  0
  -71.2930   51.7690    9.0050 O   0  0  0  0  0
  -70.3980   54.0660    9.2290 O   0  0  0  0  0
  -71.3130   54.9870    9.8120 C   0  0  0  0  0
  -70.6000   55.9000   10.8030 C   0  0  0  0  0
  -70.0290   56.9800   10.0670 O   0  0  0  0  0
  -71.5450   56.4970   11.8370 C   0  0  0  0  0
  -71.0050   56.3510   13.1550 O   0  0  0  0  0
  -71.6880   57.9610   11.4660 C   0  0  0  0  0
  -71.6550   58.8060   12.6200 O   0  0  0  0  0
  -70.5110   58.2390   10.5400 C   0  0  0  0  0
  -70.8710   59.0950    9.3820 N   0  0  0  0  0
  -71.9410   58.9630    8.5720 C   0  0  0  0  0
  -71.9410   59.9300    7.6180 N   0  0  0  0  0
  -70.8520   60.6960    7.8130 C   0  0  0  0  0
  -70.2440   61.8820    7.1690 C   0  0  0  0  0
  -70.8250   62.4620    6.0890 N   0  0  0  0  0
  -69.0950   62.3670    7.6930 N   0  0  0  0  0
  -68.5050   61.8070    8.7650 C   0  0  0  0  0
  -69.0060   60.7300    9.3940 N   0  0  0  0  0
  -70.1530   60.1420    8.9780 C   0  0  0  0  0
  -69.5193   48.2503    7.5323 H   0  0  0  0  0
  -68.6748   50.4311    8.0458 H   0  0  0  0  0
  -69.7244   50.4370    7.2878 H   0  0  0  0  0
  -72.8184   53.7364    8.1526 H   0  0  0  0  0
  -72.0863   54.4292   10.3401 H   0  0  0  0  0
  -71.7503   55.5975    9.0219 H   0  0  0  0  0
  -69.8551   55.3040   11.3303 H   0  0  0  0  0
  -72.5115   55.9931   11.8403 H   0  0  0  0  0
  -71.6129   56.7322   13.7927 H   0  0  0  0  0
  -72.6460   58.1676   10.9889 H   0  0  0  0  0
  -71.7479   59.7218   12.3474 H   0  0  0  0  0
  -69.7529   58.7837   11.1028 H   0  0  0  0  0
  -72.7008   58.1876    8.6693 H   0  0  0  0  0
  -71.6922   62.0812    5.7104 H   0  0  0  0  0
  -70.3946   63.2789    5.6555 H   0  0  0  0  0
  -67.5803   62.2460    9.1396 H   0  0  0  0  0
  1  2  1  0  0  0
  1  3  1  0  0  0
  1  4  2  0  0  0
  8  1  1  0  0  0
  5  6  1  0  0  0
  5  7  2  0  0  0
  5  8  1  0  0  0
 12  5  1  0  0  0
  9 10  2  0  0  0
  9 11  1  0  0  0
  9 12  1  0  0  0
  9 13  1  0  0  0
 13 14  1  0  0  0
 14 15  1  0  0  0
 15 16  1  0  0  0
 15 17  1  0  0  0
 16 21  1  0  0  0
 17 18  1  0  0  0
 17 19  1  0  0  0
 19 20  1  0  0  0
 19 21  1  0  0  0
 21 22  1  0  0  0
 22 23  4  0  0  0
 22 31  4  0  0  0
 23 24  4  0  0  0
 24 25  4  0  0  0
 25 26  4  0  0  0
 25 31  4  0  0  0
 26 27  1  0  0  0
 26 28  4  0  0  0
 28 29  4  0  0  0
 29 30  4  0  0  0
 30 31  4  0  0  0
  2 32  1  0  0  0
  3 33  1  0  0  0
  6 34  1  0  0  0
 11 35  1  0  0  0
 14 36  1  0  0  0
 14 37  1  0  0  0
 15 38  1  0  0  0
 17 39  1  0  0  0
 18 40  1  0  0  0
 19 41  1  0  0  0
 20 42  1  0  0  0
 21 43  1  0  0  0
 23 44  1  0  0  0
 27 45  1  0  0  0
 27 46  1  0  0  0
 29 47  1  0  0  0
M  END
$$$$
