5anu_ligand
  -I-interpret- 

 45 48  0  0  0  0  0  0  0  0999 V2000
   18.3950   21.7840    3.9030 O   0  0  0  0  0
   17.4950   21.1150    4.3670 C   0  0  0  0  0
   17.5840   20.1780    5.3580 N   0  0  0  0  0
   16.3600   19.5760    5.5590 C   0  0  0  0  0
   16.1910   21.1020    3.9200 N   0  0  0  0  0
   15.4830   20.1530    4.6120 C   0  0  0  0  0
   15.7300   21.8840    2.7670 C   0  0  0  0  0
   14.9260   23.1280    3.0470 C   0  0  0  0  0
   15.2370   24.3190    2.4150 C   0  0  0  0  0
   14.4730   25.4510    2.6290 C   0  0  0  0  0
   13.3360   25.3900    3.4150 C   0  0  0  0  0
   13.7770   23.0650    3.8250 C   0  0  0  0  0
   12.9910   24.1910    4.0100 C   0  0  0  0  0
   11.8510   24.1860    4.7970 O   0  0  0  0  0
   11.7630   23.3080    5.9360 C   0  0  0  0  0
   10.7050   22.2760    5.6770 C   0  0  0  0  0
   11.3110   21.2260    4.9620 O   0  0  0  0  0
   10.6750   19.9490    5.0950 C   0  0  0  0  0
   11.5430   18.9330    4.3940 C   0  0  0  0  0
   12.5550   18.4740    5.3260 O   0  0  0  0  0
   13.8350   18.8610    5.3350 C   0  0  0  0  0
   14.1940   19.8010    4.4650 N   0  0  0  0  0
   14.6010   18.2330    6.2540 N   0  0  0  0  0
   15.8750   18.5600    6.4200 C   0  0  0  0  0
   16.6270   17.9490    7.3460 N   0  0  0  0  0
   16.1870   16.8080    8.1090 C   0  0  0  0  0
   18.4346   19.9558    5.8751 H   0  0  0  0  0
   15.0646   21.2233    2.2113 H   0  0  0  0  0
   16.6344   22.2260    2.2638 H   0  0  0  0  0
   16.0929   24.3651    1.7417 H   0  0  0  0  0
   14.7681   26.3974    2.1758 H   0  0  0  0  0
   12.7197   26.2768    3.5632 H   0  0  0  0  0
   13.4916   22.1230    4.2933 H   0  0  0  0  0
   11.5049   23.8838    6.8248 H   0  0  0  0  0
   12.7231   22.8176    6.0970 H   0  0  0  0  0
    9.8832   22.7054    5.1039 H   0  0  0  0  0
   10.2889   21.9101    6.6157 H   0  0  0  0  0
    9.6801   19.9711    4.6503 H   0  0  0  0  0
   10.5591   19.6893    6.1472 H   0  0  0  0  0
   12.0164   19.3851    3.5224 H   0  0  0  0  0
   10.9360   18.0920    4.0588 H   0  0  0  0  0
   17.5640   18.3121    7.5207 H   0  0  0  0  0
   15.2977   17.0753    8.6798 H   0  0  0  0  0
   15.9521   15.9877    7.4308 H   0  0  0  0  0
   16.9797   16.5013    8.7914 H   0  0  0  0  0
  1  2  2  0  0  0
  2  3  1  0  0  0
  2  5  1  0  0  0
  3  4  1  0  0  0
  4  6  4  0  0  0
  4 24  4  0  0  0
  5  6  1  0  0  0
  5  7  1  0  0  0
  6 22  4  0  0  0
  7  8  1  0  0  0
  8  9  4  0  0  0
  8 12  4  0  0  0
  9 10  4  0  0  0
 10 11  4  0  0  0
 11 13  4  0  0  0
 12 13  4  0  0  0
 13 14  1  0  0  0
 14 15  1  0  0  0
 15 16  1  0  0  0
 16 17  1  0  0  0
 17 18  1  0  0  0
 18 19  1  0  0  0
 19 20  1  0  0  0
 20 21  1  0  0  0
 21 22  4  0  0  0
 21 23  4  0  0  0
 23 24  4  0  0  0
 24 25  1  0  0  0
 25 26  1  0  0  0
  3 27  1  0  0  0
  7 28  1  0  0  0
  7 29  1  0  0  0
  9 30  1  0  0  0
 10 31  1  0  0  0
 11 32  1  0  0  0
 12 33  1  0  0  0
 15 34  1  0  0  0
 15 35  1  0  0  0
 16 36  1  0  0  0
 16 37  1  0  0  0
 18 38  1  0  0  0
 18 39  1  0  0  0
 19 40  1  0  0  0
 19 41  1  0  0  0
 25 42  1  0  0  0
 26 43  1  0  0  0
 26 44  1  0  0  0
 26 45  1  0  0  0
M  END
$$$$
