4np3_ligand
  -I-interpret- 

 36 38  0  0  0  0  0  0  0  0999 V2000
   12.2890   -5.8900    1.2430 C   0  0  0  0  0
   12.8370   -4.6300    0.5440 C   0  0  0  0  0
   11.9770   -4.2060   -0.5060 C   0  0  0  0  0
   12.5020   -3.3160   -1.4720 C   0  0  0  0  0
   11.7240   -2.8600   -2.5490 C   0  0  0  0  0
   10.3790   -3.2820   -2.6570 C   0  0  0  0  0
    9.8500   -4.1580   -1.6980 C   0  0  0  0  0
    8.5480   -4.5840   -1.8140 N   0  0  0  0  0
   10.6210   -4.6400   -0.6080 C   0  0  0  0  0
   10.0390   -5.5490    0.3680 C   0  0  0  0  0
   10.8650   -5.6740    1.6010 N   0  3  0  0  0
   10.3240   -6.7210    2.5160 C   0  0  0  0  0
   11.0950   -6.7110    3.8260 C   0  0  0  0  0
   10.9890   -5.7350    4.7140 N   0  0  0  0  0
   11.8320   -6.0370    5.7190 C   0  0  0  0  0
   12.4460   -7.1940    5.4440 N   0  0  0  0  0
   11.9810   -7.6170    4.2630 C   0  0  0  0  0
   12.4350   -8.9040    3.5430 C   0  0  0  0  0
   12.8663   -6.0855    2.1467 H   0  0  0  0  0
   12.3701   -6.7441    0.5706 H   0  0  0  0  0
   13.8128   -4.8656    0.1193 H   0  0  0  0  0
   12.9079   -3.8285    1.2793 H   0  0  0  0  0
   13.5335   -2.9764   -1.3785 H   0  0  0  0  0
   12.1524   -2.1884   -3.2930 H   0  0  0  0  0
    9.7575   -2.9290   -3.4799 H   0  0  0  0  0
    7.9739   -4.2629   -2.5936 H   0  0  0  0  0
    8.1561   -5.2211   -1.1205 H   0  0  0  0  0
    9.9720   -6.5352   -0.0914 H   0  0  0  0  0
    9.0655   -5.1522    0.6561 H   0  0  0  0  0
   10.8165   -4.7992    2.1234 H   0  0  0  0  0
   10.4275   -7.6986    2.0451 H   0  0  0  0  0
    9.2724   -6.5155    2.7160 H   0  0  0  0  0
   11.9895   -5.4352    6.6141 H   0  0  0  0  0
   11.5722   -9.5485    3.3751 H   0  0  0  0  0
   12.8870   -8.6433    2.5860 H   0  0  0  0  0
   13.1654   -9.4262    4.1610 H   0  0  0  0  0
  1  2  1  0  0  0
  1 11  1  0  0  0
  2  3  1  0  0  0
  3  4  4  0  0  0
  3  9  4  0  0  0
  4  5  4  0  0  0
  5  6  4  0  0  0
  6  7  4  0  0  0
  7  8  1  0  0  0
  7  9  4  0  0  0
  9 10  1  0  0  0
 10 11  1  0  0  0
 11 12  1  0  0  0
 12 13  1  0  0  0
 13 14  4  0  0  0
 13 17  4  0  0  0
 14 15  4  0  0  0
 15 16  4  0  0  0
 16 17  4  0  0  0
 17 18  1  0  0  0
  1 19  1  0  0  0
  1 20  1  0  0  0
  2 21  1  0  0  0
  2 22  1  0  0  0
  4 23  1  0  0  0
  5 24  1  0  0  0
  6 25  1  0  0  0
  8 26  1  0  0  0
  8 27  1  0  0  0
 10 28  1  0  0  0
 10 29  1  0  0  0
 11 30  1  0  0  0
 12 31  1  0  0  0
 12 32  1  0  0  0
 15 33  1  0  0  0
 18 34  1  0  0  0
 18 35  1  0  0  0
 18 36  1  0  0  0
M  END
$$$$
