1grp_ligand
  -I-interpret- 

 21 20  0  0  0  0  0  0  0  0999 V2000
   85.3340   67.4820    3.4280 C   0  0  0  0  0
   85.8940   66.7740    4.2520 O   0  0  0  0  0
   84.8120   68.5500    3.7260 O   0  0  0  0  0
   85.2860   66.9910    1.9840 C   0  0  0  0  0
   84.8980   68.0580    1.1360 O   0  0  0  0  0
   84.3130   65.8010    1.8310 C   0  0  0  0  0
   84.3210   65.2300    0.4060 C   0  0  0  0  0
   85.1940   64.0140    0.2250 C   0  0  0  0  0
   86.2050   64.1000   -0.4670 O   0  0  0  0  0
   84.8440   62.9760    0.7710 O   0  0  0  0  0
   82.8650   66.2010    2.1800 C   0  0  0  0  0
   82.5580   66.2640    3.3680 O   0  0  0  0  0
   82.0430   66.4310    1.2920 O   0  0  0  0  0
   84.4296   68.9482    2.9406 H   0  0  0  0  0
   86.2797   66.6442    1.7005 H   0  0  0  0  0
   85.5113   68.7889    1.2422 H   0  0  0  0  0
   84.6643   65.0404    2.5282 H   0  0  0  0  0
   84.7173   66.0075   -0.2471 H   0  0  0  0  0
   83.2993   64.9261    0.1782 H   0  0  0  0  0
   86.2906   64.9977   -0.7962 H   0  0  0  0  0
   82.4639   66.3330    0.4347 H   0  0  0  0  0
  1  4  1  0  0  0
  1  3  1  0  0  0
  1  2  2  0  0  0
  4  6  1  0  0  0
  4  5  1  0  0  0
  6 11  1  0  0  0
  6  7  1  0  0  0
  7  8  1  0  0  0
  8 10  2  0  0  0
  8  9  1  0  0  0
 11 13  1  0  0  0
 11 12  2  0  0  0
  3 14  1  0  0  0
  4 15  1  0  0  0
  5 16  1  0  0  0
  6 17  1  0  0  0
  7 18  1  0  0  0
  7 19  1  0  0  0
  9 20  1  0  0  0
 13 21  1  0  0  0
M  END
$$$$
