4ag8_ligand
  -I-interpret- 

 45 48  0  0  0  0  0  0  0  0999 V2000
   24.8310   23.4700   35.7940 O   0  0  0  0  0
   25.4990   22.8060   36.6100 C   0  0  0  0  0
   26.4150   21.9160   36.1840 N   0  0  0  0  0
   26.7820   21.7270   34.7830 C   0  0  0  0  0
   25.2920   23.0320   38.0660 C   0  0  0  0  0
   26.4560   22.9970   38.8890 C   0  0  0  0  0
   26.4090   23.2000   40.2910 C   0  0  0  0  0
   25.1560   23.4620   40.8850 C   0  0  0  0  0
   24.0180   23.2980   38.6740 C   0  0  0  0  0
   23.9820   23.4920   40.0940 C   0  0  0  0  0
   22.5100   23.3470   37.7880 S   0  0  0  0  0
   21.4890   24.5480   38.5260 C   0  0  0  0  0
   20.1230   24.2590   38.7960 C   0  0  0  0  0
   19.2570   25.2390   39.3920 C   0  0  0  0  0
   22.0200   25.8320   38.8650 C   0  0  0  0  0
   21.1780   26.7750   39.4500 C   0  0  0  0  0
   21.4300   28.0760   39.8550 N   0  0  0  0  0
   20.3390   28.5970   40.3060 N   0  0  0  0  0
   19.3710   27.7550   40.2740 C   0  0  0  0  0
   19.8440   26.5040   39.7110 C   0  0  0  0  0
   18.0180   28.1340   40.7130 C   0  0  0  0  0
   16.8850   27.3250   40.8080 C   0  0  0  0  0
   15.5470   27.8250   41.2730 C   0  0  0  0  0
   14.5760   26.8900   41.3370 N   0  0  0  0  0
   13.3190   27.2230   41.7450 C   0  0  0  0  0
   13.0020   28.5450   42.1030 C   0  0  0  0  0
   14.0040   29.5300   42.0410 C   0  0  0  0  0
   15.3120   29.1790   41.6160 C   0  0  0  0  0
   26.8816   21.3379   36.8830 H   0  0  0  0  0
   25.9007   21.4294   34.2148 H   0  0  0  0  0
   27.1756   22.6613   34.3826 H   0  0  0  0  0
   27.5427   20.9497   34.7097 H   0  0  0  0  0
   27.4216   22.8063   38.4207 H   0  0  0  0  0
   27.3159   23.1550   40.8939 H   0  0  0  0  0
   25.0916   23.6422   41.9581 H   0  0  0  0  0
   23.0220   23.6679   40.5793 H   0  0  0  0  0
   19.7252   23.2754   38.5462 H   0  0  0  0  0
   18.2061   25.0290   39.5909 H   0  0  0  0  0
   23.0658   26.0687   38.6689 H   0  0  0  0  0
   17.8845   29.1771   40.9997 H   0  0  0  0  0
   16.9756   26.2749   40.5301 H   0  0  0  0  0
   12.5486   26.4535   41.7944 H   0  0  0  0  0
   11.9930   28.8032   42.4244 H   0  0  0  0  0
   13.7769   30.5594   42.3184 H   0  0  0  0  0
   16.1058   29.9235   41.5558 H   0  0  0  0  0
  1  2  2  0  0  0
  2  3  1  0  0  0
  2  5  1  0  0  0
  3  4  1  0  0  0
  5  6  4  0  0  0
  5  9  4  0  0  0
  6  7  4  0  0  0
  7  8  4  0  0  0
  8 10  4  0  0  0
  9 10  4  0  0  0
  9 11  1  0  0  0
 11 12  1  0  0  0
 12 13  4  0  0  0
 12 15  4  0  0  0
 13 14  4  0  0  0
 14 20  4  0  0  0
 15 16  4  0  0  0
 16 17  4  0  0  0
 16 20  4  0  0  0
 17 18  4  0  0  0
 18 19  4  0  0  0
 19 20  4  0  0  0
 19 21  1  0  0  0
 21 22  2  0  0  0
 22 23  1  0  0  0
 23 24  4  0  0  0
 23 28  4  0  0  0
 24 25  4  0  0  0
 25 26  4  0  0  0
 26 27  4  0  0  0
 27 28  4  0  0  0
  3 29  1  0  0  0
  4 30  1  0  0  0
  4 31  1  0  0  0
  4 32  1  0  0  0
  6 33  1  0  0  0
  7 34  1  0  0  0
  8 35  1  0  0  0
 10 36  1  0  0  0
 13 37  1  0  0  0
 14 38  1  0  0  0
 15 39  1  0  0  0
 21 40  1  0  0  0
 22 41  1  0  0  0
 25 42  1  0  0  0
 26 43  1  0  0  0
 27 44  1  0  0  0
 28 45  1  0  0  0
M  END
$$$$
