6fv2_ligand
  -I-interpret- 

 80 83  0  0  0  0  0  0  0  0999 V2000
   51.7830    9.3480   47.3190 O   0  0  0  0  0
   51.3500    9.3540   48.4640 C   0  0  0  0  0
   50.9770    8.0450   49.1410 C   0  0  0  0  0
   49.4530    7.9360   49.3570 C   0  0  0  0  0
   48.8920    6.6320   48.8050 C   0  0  0  0  0
   47.9270    6.6480   47.7870 C   0  0  0  0  0
   47.4190    5.4390   47.2880 C   0  0  0  0  0
   47.8720    4.2120   47.7990 C   0  0  0  0  0
   48.8280    4.1970   48.8190 C   0  0  0  0  0
   49.3370    5.4000   49.3170 C   0  0  0  0  0
   51.1590   10.4720   49.1770 N   0  0  0  0  0
   51.3940   11.8110   48.6450 C   0  0  0  0  0
   50.9900   12.8720   49.6540 C   0  0  0  0  0
   49.5000   12.9220   49.7930 C   0  0  0  0  0
   48.9100   12.5490   50.9940 C   0  0  0  0  0
   47.5360   12.6110   51.0930 C   0  0  0  0  0
   46.7710   13.0350   50.0030 C   0  0  0  0  0
   47.3660   13.4020   48.8070 C   0  0  0  0  0
   48.7420   13.3460   48.7060 C   0  0  0  0  0
   52.8210   12.1320   48.3970 C   0  0  0  0  0
   53.6050   11.7630   49.2560 O   0  0  0  0  0
   53.1290   12.8320   47.2870 N   0  0  0  0  0
   54.4960   13.2900   46.9860 C   0  0  0  0  0
   55.1950   12.4730   45.8790 C   0  0  0  0  0
   55.3400   11.0040   46.2170 C   0  0  0  0  0
   55.9200   10.2830   45.0710 C   0  0  0  0  0
   55.4740   10.3720   43.9670 O   0  0  0  0  0
   56.9240    9.5300   45.4330 N   0  0  0  0  0
   57.2040    9.5890   46.8410 C   0  0  0  0  0
   56.3290   10.7310   47.3410 C   0  0  0  0  0
   54.4780   14.7800   46.6440 C   0  0  0  0  0
   55.8160   15.2040   46.3080 O   0  0  0  0  0
   53.8890   15.5740   47.7930 C   0  0  0  0  0
   52.6820   15.5370   47.9680 O   0  0  0  0  0
   54.7440   16.2300   48.5980 N   0  0  0  0  0
   54.3320   16.8170   49.8570 C   0  0  0  0  0
   55.5130   16.8540   50.8000 C   0  0  0  0  0
   55.5120   16.1270   52.0020 C   0  0  0  0  0
   56.6230   17.6460   50.4610 C   0  0  0  0  0
   57.7490   17.7470   51.2920 C   0  0  0  0  0
   57.7460   17.0170   52.4860 C   0  0  0  0  0
   56.6360   16.2120   52.8390 C   0  0  0  0  0
   51.4677    8.0066   50.1135 H   0  0  0  0  0
   51.2953    7.2219   48.5013 H   0  0  0  0  0
   48.9739    8.7629   48.8328 H   0  0  0  0  0
   49.2571    7.9653   50.4289 H   0  0  0  0  0
   47.5728    7.5971   47.3847 H   0  0  0  0  0
   46.6677    5.4523   46.4984 H   0  0  0  0  0
   47.4801    3.2755   47.4022 H   0  0  0  0  0
   49.1764    3.2477   49.2258 H   0  0  0  0  0
   50.0855    5.3830   50.1092 H   0  0  0  0  0
   50.8332   10.3832   50.1395 H   0  0  0  0  0
   50.8190   11.8135   47.7190 H   0  0  0  0  0
   51.3466   13.8427   49.3096 H   0  0  0  0  0
   51.4282   12.6263   50.6213 H   0  0  0  0  0
   49.5171   12.2161   51.8359 H   0  0  0  0  0
   47.0451   12.3284   52.0243 H   0  0  0  0  0
   45.6858   13.0777   50.0956 H   0  0  0  0  0
   46.7597   13.7286   47.9621 H   0  0  0  0  0
   49.2334   13.6334   47.7765 H   0  0  0  0  0
   52.3834   13.0540   46.6273 H   0  0  0  0  0
   55.0903   13.1262   47.8849 H   0  0  0  0  0
   56.1975   12.8816   45.7522 H   0  0  0  0  0
   54.5818   12.5447   44.9807 H   0  0  0  0  0
   54.3356   10.6849   46.4953 H   0  0  0  0  0
   57.4573    8.9561   44.7798 H   0  0  0  0  0
   58.2612    9.7572   47.0461 H   0  0  0  0  0
   56.9854    8.6482   47.3463 H   0  0  0  0  0
   55.8191   10.4685   48.2679 H   0  0  0  0  0
   56.9210   11.6153   47.5769 H   0  0  0  0  0
   53.8416   14.9615   45.7779 H   0  0  0  0  0
   55.8094   16.1395   46.0925 H   0  0  0  0  0
   55.7190   16.3175   48.3114 H   0  0  0  0  0
   53.5334   16.2184   50.2951 H   0  0  0  0  0
   53.9692   17.8305   49.6861 H   0  0  0  0  0
   54.6570   15.5102   52.2789 H   0  0  0  0  0
   56.6089   18.1997   49.5222 H   0  0  0  0  0
   58.5977   18.3731   51.0168 H   0  0  0  0  0
   58.6077   17.0687   53.1515 H   0  0  0  0  0
   56.6544   15.6507   53.7732 H   0  0  0  0  0
  1  2  2  0  0  0
  2  3  1  0  0  0
  2 11  1  0  0  0
  3  4  1  0  0  0
  4  5  1  0  0  0
  5  6  4  0  0  0
  5 10  4  0  0  0
  6  7  4  0  0  0
  7  8  4  0  0  0
  8  9  4  0  0  0
  9 10  4  0  0  0
 11 12  1  0  0  0
 12 13  1  0  0  0
 12 20  1  0  0  0
 13 14  1  0  0  0
 14 15  4  0  0  0
 14 19  4  0  0  0
 15 16  4  0  0  0
 16 17  4  0  0  0
 17 18  4  0  0  0
 18 19  4  0  0  0
 20 21  2  0  0  0
 20 22  1  0  0  0
 22 23  1  0  0  0
 23 24  1  0  0  0
 23 31  1  0  0  0
 24 25  1  0  0  0
 25 26  1  0  0  0
 25 30  1  0  0  0
 26 27  2  0  0  0
 26 28  1  0  0  0
 28 29  1  0  0  0
 29 30  1  0  0  0
 31 32  1  0  0  0
 31 33  1  0  0  0
 33 34  2  0  0  0
 33 35  1  0  0  0
 35 36  1  0  0  0
 36 37  1  0  0  0
 37 38  4  0  0  0
 37 39  4  0  0  0
 38 42  4  0  0  0
 39 40  4  0  0  0
 40 41  4  0  0  0
 41 42  4  0  0  0
  3 43  1  0  0  0
  3 44  1  0  0  0
  4 45  1  0  0  0
  4 46  1  0  0  0
  6 47  1  0  0  0
  7 48  1  0  0  0
  8 49  1  0  0  0
  9 50  1  0  0  0
 10 51  1  0  0  0
 11 52  1  0  0  0
 12 53  1  0  0  0
 13 54  1  0  0  0
 13 55  1  0  0  0
 15 56  1  0  0  0
 16 57  1  0  0  0
 17 58  1  0  0  0
 18 59  1  0  0  0
 19 60  1  0  0  0
 22 61  1  0  0  0
 23 62  1  0  0  0
 24 63  1  0  0  0
 24 64  1  0  0  0
 25 65  1  0  0  0
 28 66  1  0  0  0
 29 67  1  0  0  0
 29 68  1  0  0  0
 30 69  1  0  0  0
 30 70  1  0  0  0
 31 71  1  0  0  0
 32 72  1  0  0  0
 35 73  1  0  0  0
 36 74  1  0  0  0
 36 75  1  0  0  0
 38 76  1  0  0  0
 39 77  1  0  0  0
 40 78  1  0  0  0
 41 79  1  0  0  0
 42 80  1  0  0  0
M  END
$$$$
