### 
### Created by X-TOOL on Mon Sep 10 21:12:51 2018
### 

@<TRIPOS>MOLECULE
1o4j_ligand
   25    25     1     0     0
SMALL
GAST_HUCK


@<TRIPOS>ATOM
      1 C1         21.7570   32.4490   16.3470 C.ar      1 IS2        -0.0227
      2 C2         20.6130   32.8340   17.1460 C.ar      1 IS2        -0.0394
      3 C3         19.4720   31.9850   17.2430 C.ar      1 IS2        -0.0068
      4 C4         19.5130   30.6620   16.6520 C.ar      1 IS2         0.1211
      5 C5         20.7170   30.2180   16.0540 C.ar      1 IS2        -0.0068
      6 C6         21.8440   31.0750   15.9460 C.ar      1 IS2        -0.0394
      7 N11        18.3580   29.8120   16.6040 N.am      1 IS2        -0.1876
      8 C12        17.1160   30.2680   17.0430 C.2       1 IS2         0.3076
      9 O13        17.0760   31.1770   17.8170 O.2       1 IS2        -0.3258
     10 P14        15.9250   28.9850   17.2550 P.3       1 IS2         0.0655
     11 O15        14.3950   29.5520   16.7260 O.co2     1 IS2        -0.6700
     12 O16        15.9300   28.5900   18.6860 O.co2     1 IS2        -0.6700
     13 O17        16.3060   27.9070   16.4040 O.co2     1 IS2        -0.6700
     14 C18        23.0150   33.2810   16.4030 C.3       1 IS2        -0.0120
     15 C19        22.6800   34.8080   16.2980 C.3       1 IS2        -0.0518
     16 H1         20.6241   33.7791   17.6768 H         1 IS2         0.0635
     17 H2         18.5797   32.3264   17.7552 H         1 IS2         0.0682
     18 H3         20.7796   29.2056   15.6717 H         1 IS2         0.0682
     19 H4         22.7785   30.6871   15.5569 H         1 IS2         0.0635
     20 H5         18.4451   28.8804   16.2511 H         1 IS2         0.2703
     21 H6         23.6716   32.9980   15.5671 H         1 IS2         0.0483
     22 H7         23.5310   33.0901   17.3555 H         1 IS2         0.0483
     23 H8         23.6115   35.3915   16.3411 H         1 IS2         0.0260
     24 H9         22.0264   35.0984   17.1338 H         1 IS2         0.0260
     25 H10        22.1670   35.0062   15.3454 H         1 IS2         0.0260
@<TRIPOS>BOND
     1    1    2 ar 
     2    1    6 ar 
     3    1   14 1  
     4    2    3 ar 
     5    3    4 ar 
     6    4    5 ar 
     7    4    7 1  
     8    5    6 ar 
     9    7    8 am 
    10    8    9 2  
    11    8   10 1  
    12   10   11 ar 
    13   10   12 ar 
    14   10   13 ar 
    15   14   15 1  
    16    2   16 1  
    17    3   17 1  
    18    5   18 1  
    19    6   19 1  
    20    7   20 1  
    21   14   21 1  
    22   14   22 1  
    23   15   23 1  
    24   15   24 1  
    25   15   25 1  
@<TRIPOS>SUBSTRUCTURE
     1 IS2         1

