1o4j_ligand
  -I-interpret- 

 27 27  0  0  0  0  0  0  0  0999 V2000
   21.7570   32.4490   16.3470 C   0  0  0  0  0
   20.6130   32.8340   17.1460 C   0  0  0  0  0
   19.4720   31.9850   17.2430 C   0  0  0  0  0
   19.5130   30.6620   16.6520 C   0  0  0  0  0
   20.7170   30.2180   16.0540 C   0  0  0  0  0
   21.8440   31.0750   15.9460 C   0  0  0  0  0
   18.3580   29.8120   16.6040 N   0  0  0  0  0
   17.1160   30.2680   17.0430 C   0  0  0  0  0
   17.0760   31.1770   17.8170 O   0  0  0  0  0
   15.9250   28.9850   17.2550 P   0  0  0  0  0
   14.3950   29.5520   16.7260 O   0  0  0  0  0
   15.9300   28.5900   18.6860 O   0  0  0  0  0
   16.3060   27.9070   16.4040 O   0  0  0  0  0
   23.0150   33.2810   16.4030 C   0  0  0  0  0
   22.6800   34.8080   16.2980 C   0  0  0  0  0
   20.6241   33.7843   17.6798 H   0  0  0  0  0
   18.5748   32.3283   17.7581 H   0  0  0  0  0
   20.7800   29.2000   15.6696 H   0  0  0  0  0
   22.7836   30.6850   15.5548 H   0  0  0  0  0
   18.4469   28.8618   16.2440 H   0  0  0  0  0
   14.1145   30.2807   17.2844 H   0  0  0  0  0
   15.6689   29.3404   19.2248 H   0  0  0  0  0
   23.6560   33.0042   15.5660 H   0  0  0  0  0
   23.5155   33.0963   17.3535 H   0  0  0  0  0
   22.1717   35.0031   15.3537 H   0  0  0  0  0
   22.0324   35.0944   17.1266 H   0  0  0  0  0
   23.6037   35.3851   16.3409 H   0  0  0  0  0
  1  2  4  0  0  0
  1  6  4  0  0  0
  1 14  1  0  0  0
  2  3  4  0  0  0
  3  4  4  0  0  0
  4  5  4  0  0  0
  4  7  1  0  0  0
  5  6  4  0  0  0
  7  8  1  0  0  0
  8  9  2  0  0  0
  8 10  1  0  0  0
 10 11  1  0  0  0
 10 12  1  0  0  0
 10 13  2  0  0  0
 14 15  1  0  0  0
  2 16  1  0  0  0
  3 17  1  0  0  0
  5 18  1  0  0  0
  6 19  1  0  0  0
  7 20  1  0  0  0
 11 21  1  0  0  0
 12 22  1  0  0  0
 14 23  1  0  0  0
 14 24  1  0  0  0
 15 25  1  0  0  0
 15 26  1  0  0  0
 15 27  1  0  0  0
M  END
$$$$
