1auj_ligand
  -I-interpret- 

 60 62  0  0  0  0  0  0  0  0999 V2000
   28.6880   14.3440   20.0590 C   0  0  0  0  0
   29.1300   14.0320   18.6180 C   0  0  0  0  0
   27.2160   12.4430   20.3260 N   0  0  0  0  0
   28.0180   13.4880   22.3260 B   0  0  0  0  0
   28.3640   13.1170   20.9210 C   0  0  0  0  0
   29.2650   13.8500   23.0040 O   0  0  0  0  0
   27.6790   12.2590   23.0420 O   0  0  0  0  0
   26.0270    9.6570   18.5570 N   0  0  0  0  0
   25.8610   10.7940   19.4520 C   0  0  0  0  0
   27.2000   11.1590   19.9930 C   0  0  0  0  0
   28.0680   10.3070   20.2210 O   0  0  0  0  0
   25.0540   10.2360   20.6240 C   0  0  0  0  0
   25.0430    8.7110   20.5270 C   0  0  0  0  0
   25.7170    8.3720   19.1850 C   0  0  0  0  0
   26.4300    9.9050   17.2980 C   0  0  0  0  0
   27.0020   10.9550   16.9850 O   0  0  0  0  0
   26.5040    8.6560   16.4010 C   0  0  0  0  0
   29.5980   12.7750   18.1930 C   0  0  0  0  0
   30.0980   12.6310   16.8910 C   0  0  0  0  0
   29.1550   15.1160   17.7090 C   0  0  0  0  0
   29.6740   14.9770   16.4010 C   0  0  0  0  0
   30.1480   13.7240   16.0140 C   0  0  0  0  0
   30.5410   11.2930   16.3440 C   0  0  0  0  0
   30.9000   10.2400   15.8950 N   0  0  0  0  0
   25.5050    8.5870   15.2370 C   0  0  0  0  0
   27.8600    8.5570   15.8690 N   0  3  0  0  0
   22.2720    6.9720   16.7130 C   0  0  0  0  0
   21.3000    7.4800   15.8130 C   0  0  0  0  0
   21.6470    8.3910   14.8060 C   0  0  0  0  0
   23.0060    8.7860   14.7030 C   0  0  0  0  0
   24.0220    8.2850   15.5680 C   0  0  0  0  0
   23.6260    7.3790   16.5930 C   0  0  0  0  0
   27.7701   14.9273   19.9861 H   0  0  0  0  0
   29.5231   14.8534   20.5398 H   0  0  0  0  0
   26.3737   12.9924   20.1554 H   0  0  0  0  0
   29.2459   12.4772   20.9531 H   0  0  0  0  0
   29.6100   14.6617   22.6250 H   0  0  0  0  0
   26.8597   11.9016   22.6918 H   0  0  0  0  0
   25.3996   11.6511   18.9615 H   0  0  0  0  0
   24.0336   10.6174   20.5867 H   0  0  0  0  0
   25.5068   10.5445   21.5663 H   0  0  0  0  0
   24.0273    8.3179   20.5714 H   0  0  0  0  0
   25.5736    8.2564   21.3636 H   0  0  0  0  0
   26.6177    7.7764   19.3336 H   0  0  0  0  0
   25.0626    7.7705   18.5540 H   0  0  0  0  0
   26.2291    7.8214   17.0459 H   0  0  0  0  0
   29.5721   11.9209   18.8698 H   0  0  0  0  0
   28.7641   16.0831   18.0251 H   0  0  0  0  0
   29.7027   15.8241   15.7156 H   0  0  0  0  0
   30.5635   13.5922   15.0150 H   0  0  0  0  0
   25.8387    7.7536   14.6187 H   0  0  0  0  0
   25.5056    9.5839   14.7961 H   0  0  0  0  0
   27.9299    7.7339   15.2706 H   0  0  0  0  0
   28.0724    9.3933   15.3251 H   0  0  0  0  0
   28.5216    8.4749   16.6409 H   0  0  0  0  0
   21.9794    6.2709   17.4946 H   0  0  0  0  0
   20.2636    7.1556   15.9065 H   0  0  0  0  0
   20.8950    8.7845   14.1221 H   0  0  0  0  0
   23.2845    9.5024   13.9302 H   0  0  0  0  0
   24.3695    6.9949   17.2914 H   0  0  0  0  0
  1  2  1  0  0  0
  5  1  1  0  0  0
  2 18  4  0  0  0
  2 20  4  0  0  0
  3  5  1  0  0  0
 10  3  1  0  0  0
  5  4  1  0  0  0
  4  6  1  0  0  0
  4  7  1  0  0  0
  8  9  1  0  0  0
  8 14  1  0  0  0
 15  8  1  0  0  0
  9 10  1  0  0  0
  9 12  1  0  0  0
 10 11  2  0  0  0
 13 12  1  0  0  0
 14 13  1  0  0  0
 15 16  2  0  0  0
 17 15  1  0  0  0
 25 17  1  0  0  0
 17 26  1  0  0  0
 18 19  4  0  0  0
 19 22  4  0  0  0
 19 23  1  0  0  0
 20 21  4  0  0  0
 21 22  4  0  0  0
 23 24  3  0  0  0
 31 25  1  0  0  0
 28 27  4  0  0  0
 27 32  4  0  0  0
 29 28  4  0  0  0
 30 29  4  0  0  0
 30 31  4  0  0  0
 31 32  4  0  0  0
  1 33  1  0  0  0
  1 34  1  0  0  0
  3 35  1  0  0  0
  5 36  1  0  0  0
  6 37  1  0  0  0
  7 38  1  0  0  0
  9 39  1  0  0  0
 12 40  1  0  0  0
 12 41  1  0  0  0
 13 42  1  0  0  0
 13 43  1  0  0  0
 14 44  1  0  0  0
 14 45  1  0  0  0
 17 46  1  0  0  0
 18 47  1  0  0  0
 20 48  1  0  0  0
 21 49  1  0  0  0
 22 50  1  0  0  0
 25 51  1  0  0  0
 25 52  1  0  0  0
 26 53  1  0  0  0
 26 54  1  0  0  0
 26 55  1  0  0  0
 27 56  1  0  0  0
 28 57  1  0  0  0
 29 58  1  0  0  0
 30 59  1  0  0  0
 32 60  1  0  0  0
M  END
$$$$
