### 
### Created by X-TOOL on Mon Sep 10 21:13:12 2018
### 

@<TRIPOS>MOLECULE
4dhq_ligand
   33    34     1     0     0
SMALL
GAST_HUCK


@<TRIPOS>ATOM
      1 OAS        20.9610   14.7690   -9.8220 O.co2     1 Y06        -0.5643
      2 PAR        21.9600   13.7000  -10.3810 P.3       1 Y06         0.0783
      3 OAU        21.6140   13.2410  -11.8060 O.co2     1 Y06        -0.5643
      4 OAT        21.9340   12.5530   -9.4000 O.co2     1 Y06        -0.5643
      5 CAM        23.6490   14.4890  -10.4240 C.ar      1 Y06         0.0641
      6 CAN        23.7830   15.8450  -10.0880 C.ar      1 Y06        -0.0499
      7 CAO        25.0940   16.3860  -10.1360 C.ar      1 Y06        -0.0681
      8 CAP        26.2160   15.6100  -10.4840 C.ar      1 Y06        -0.0672
      9 CAQ        26.0530   14.2350  -10.8010 C.ar      1 Y06        -0.0277
     10 CAL        24.7460   13.7140  -10.7630 C.ar      1 Y06         0.1159
     11 OAK        24.4900   12.3950  -11.0790 O.3       1 Y06        -0.2925
     12 CAA        25.5200   11.4080  -10.8830 C.3       1 Y06         0.1661
     13 CAB        24.8370   10.0390  -10.6410 C.2       1 Y06         0.2347
     14 OAD        25.4990    9.0020  -10.7330 O.2       1 Y06        -0.3819
     15 NAC        23.5260   10.1160  -10.2880 N.am      1 Y06        -0.2317
     16 CAE        22.7790    9.0400   -9.9700 C.ar      1 Y06         0.0668
     17 CAF        22.5000    8.0160  -10.8770 C.ar      1 Y06        -0.0275
     18 CAG        21.6630    6.9760  -10.4280 C.ar      1 Y06         0.0270
     19 CL1        21.3610    5.7100  -11.5090 Cl        1 Y06        -0.0748
     20 CAH        21.0910    6.9110   -9.1520 C.ar      1 Y06        -0.0633
     21 CAI        21.3640    7.9350   -8.2710 C.ar      1 Y06        -0.0750
     22 CAJ        22.1980    8.9870   -8.6970 C.ar      1 Y06        -0.0411
     23 H1         22.9280   16.4488   -9.8060 H         1 Y06         0.0634
     24 H2         25.2366   17.4335   -9.8963 H         1 Y06         0.0533
     25 H3         27.2016   16.0606  -10.5100 H         1 Y06         0.0616
     26 H4         26.9010   13.6121  -11.0617 H         1 Y06         0.0552
     27 H5         26.1333   11.6777  -10.0106 H         1 Y06         0.0867
     28 H6         26.1583   11.3530  -11.7771 H         1 Y06         0.0867
     29 H7         23.0938   11.0174  -10.2630 H         1 Y06         0.2257
     30 H8         22.9089    8.0211  -11.8809 H         1 Y06         0.0507
     31 H9         20.4539    6.0819   -8.8661 H         1 Y06         0.0493
     32 H10        20.9456    7.9309   -7.2710 H         1 Y06         0.0577
     33 H11        22.4003    9.7962   -8.0047 H         1 Y06         0.0504
@<TRIPOS>BOND
     1    1    2 ar 
     2    2    3 ar 
     3    2    4 ar 
     4    2    5 1  
     5    5    6 ar 
     6    5   10 ar 
     7    6    7 ar 
     8    7    8 ar 
     9    8    9 ar 
    10    9   10 ar 
    11   10   11 1  
    12   11   12 1  
    13   12   13 1  
    14   13   14 2  
    15   13   15 am 
    16   15   16 1  
    17   16   17 ar 
    18   16   22 ar 
    19   17   18 ar 
    20   18   19 1  
    21   18   20 ar 
    22   20   21 ar 
    23   21   22 ar 
    24    6   23 1  
    25    7   24 1  
    26    8   25 1  
    27    9   26 1  
    28   12   27 1  
    29   12   28 1  
    30   15   29 1  
    31   17   30 1  
    32   20   31 1  
    33   21   32 1  
    34   22   33 1  
@<TRIPOS>SUBSTRUCTURE
     1 Y06         1

