4abv_ligand
  -I-interpret- 

 27 28  0  0  0  0  0  0  0  0999 V2000
    0.0080    0.4460    7.0030 C   0  0  0  0  0
   -0.3630    0.2470    8.3410 C   0  0  0  0  0
    0.5610    0.4400    9.3550 C   0  0  0  0  0
    1.8380    0.8280    9.0240 C   0  0  0  0  0
    2.2400    1.0290    7.7140 C   0  0  0  0  0
    1.3160    0.8220    6.7000 C   0  0  0  0  0
   -0.8980    0.2130    5.9980 O   0  0  0  0  0
   -1.0850    0.9720    4.8700 C   0  0  0  0  0
   -0.0700    1.5280    4.1010 C   0  0  0  0  0
   -0.4110    2.2850    2.9820 C   0  0  0  0  0
   -1.7300    2.4800    2.6160 C   0  0  0  0  0
   -2.7270    1.9210    3.3710 C   0  0  0  0  0
   -2.3920    1.1720    4.4810 C   0  0  0  0  0
    2.8040    0.9990   10.1260 C   0  0  0  0  0
    3.1550   -0.6060   10.7350 Cl  0  0  0  0  0
   -2.1560    3.4230    1.2400 Cl  0  0  0  0  0
    1.5980    1.3230    4.5280 Cl  0  0  0  0  0
   -1.6130   -0.1300    8.7110 O   0  0  0  0  0
    0.2806    0.2869   10.3971 H   0  0  0  0  0
    3.2585    1.3425    7.4850 H   0  0  0  0  0
    1.6145    0.9541    5.6600 H   0  0  0  0  0
    0.3802    2.7337    2.3814 H   0  0  0  0  0
   -3.7724    2.0659    3.0985 H   0  0  0  0  0
   -3.1903    0.7223    5.0714 H   0  0  0  0  0
    2.3915    1.6324   10.9113 H   0  0  0  0  0
    3.7118    1.4904    9.7760 H   0  0  0  0  0
   -1.6524   -0.2089    9.6669 H   0  0  0  0  0
  1  2  4  0  0  0
  1  6  4  0  0  0
  1  7  1  0  0  0
  2  3  4  0  0  0
  2 18  1  0  0  0
  3  4  4  0  0  0
  4  5  4  0  0  0
  4 14  1  0  0  0
  5  6  4  0  0  0
  7  8  1  0  0  0
  8  9  4  0  0  0
  8 13  4  0  0  0
  9 10  4  0  0  0
  9 17  1  0  0  0
 10 11  4  0  0  0
 11 12  4  0  0  0
 11 16  1  0  0  0
 12 13  4  0  0  0
 14 15  1  0  0  0
  3 19  1  0  0  0
  5 20  1  0  0  0
  6 21  1  0  0  0
 10 22  1  0  0  0
 12 23  1  0  0  0
 13 24  1  0  0  0
 14 25  1  0  0  0
 14 26  1  0  0  0
 18 27  1  0  0  0
M  END
$$$$
