4bqs_ligand
  -I-interpret- 

 27 28  0  0  0  0  0  0  0  0999 V2000
    0.5330   -0.6150   43.8740 O   0  0  0  0  0
    1.5760   -0.6220   44.6370 C   0  0  0  0  0
    2.2370   -1.6770   44.7920 O   0  0  0  0  0
    2.0380    0.5830   45.2220 C   0  0  0  0  0
    1.1540    1.6860   45.1190 C   0  0  0  0  0
    3.2670    0.6560   45.9460 C   0  0  0  0  0
    3.8410    1.8830   46.4200 C   0  0  0  0  0
    5.0640    2.0880   45.6760 O   0  0  0  0  0
    4.1110    1.8370   47.7860 C   0  0  0  0  0
    3.3350    2.4120   48.7900 C   0  0  0  0  0
    2.0890    3.0570   48.5860 C   0  0  0  0  0
    1.2940    2.3850   47.5500 O   0  0  0  0  0
    1.5450    2.8010   46.1730 C   0  0  0  0  0
    2.9830    3.1550   45.9930 C   0  0  0  0  0
    3.2110    3.5030   44.5710 O   0  0  0  0  0
    0.1488    0.2647   43.8672 H   0  0  0  0  0
    0.3244    1.7566   44.4155 H   0  0  0  0  0
    3.9994    0.3120   45.2156 H   0  0  0  0  0
    3.0366    0.1238   46.8689 H   0  0  0  0  0
    4.8650    2.1178   44.7373 H   0  0  0  0  0
    5.0093    1.3037   48.0969 H   0  0  0  0  0
    3.7148    2.3622   49.8105 H   0  0  0  0  0
    2.2803    4.0803   48.2629 H   0  0  0  0  0
    1.5298    3.0283   49.5212 H   0  0  0  0  0
    0.9141    3.6712   45.9916 H   0  0  0  0  0
    3.2728    4.0107   46.6029 H   0  0  0  0  0
    2.6826    4.2711   44.3420 H   0  0  0  0  0
  1  2  1  0  0  0
  2  3  2  0  0  0
  2  4  1  0  0  0
  4  5  2  0  0  0
  4  6  1  0  0  0
  5 13  1  0  0  0
  6  7  1  0  0  0
  7  8  1  0  0  0
  7  9  1  0  0  0
  7 14  1  0  0  0
  9 10  2  0  0  0
 10 11  1  0  0  0
 11 12  1  0  0  0
 12 13  1  0  0  0
 13 14  1  0  0  0
 14 15  1  0  0  0
  1 16  1  0  0  0
  5 17  1  0  0  0
  6 18  1  0  0  0
  6 19  1  0  0  0
  8 20  1  0  0  0
  9 21  1  0  0  0
 10 22  1  0  0  0
 11 23  1  0  0  0
 11 24  1  0  0  0
 13 25  1  0  0  0
 14 26  1  0  0  0
 15 27  1  0  0  0
M  END
$$$$
