4q7w_ligand
  -I-interpret- 

 16 16  0  0  0  0  0  0  0  0999 V2000
   16.1330    3.6560   13.5500 C   0  0  0  0  0
   15.5320    3.1580   14.8250 C   0  0  0  0  0
   14.8650    3.9910   15.6130 C   0  0  0  0  0
   14.3290    3.5360   16.8090 C   0  0  0  0  0
   14.4970    2.2560   17.1750 C   0  0  0  0  0
   15.2250    1.3940   16.3680 C   0  0  0  0  0
   15.4860   -0.2540   16.8680 S   0  0  0  0  0
   15.7270    1.8270   15.2180 N   0  0  0  0  0
   16.4410    1.0030   14.4500 O   0  0  0  0  0
   15.3455    4.0527   12.9092 H   0  0  0  0  0
   16.8532    4.4433   13.7725 H   0  0  0  0  0
   16.6369    2.8338   13.0419 H   0  0  0  0  0
   14.7380    5.0334   15.3207 H   0  0  0  0  0
   13.7716    4.2180   17.4511 H   0  0  0  0  0
   14.0615    1.8937   18.1062 H   0  0  0  0  0
   16.7273    1.4699   13.6616 H   0  0  0  0  0
  1  2  1  0  0  0
  2  3  2  0  0  0
  2  8  1  0  0  0
  3  4  1  0  0  0
  4  5  2  0  0  0
  5  6  1  0  0  0
  6  7  2  0  0  0
  6  8  1  0  0  0
  8  9  1  0  0  0
  1 10  1  0  0  0
  1 11  1  0  0  0
  1 12  1  0  0  0
  3 13  1  0  0  0
  4 14  1  0  0  0
  5 15  1  0  0  0
  9 16  1  0  0  0
M  END
$$$$
