### 
### Created by X-TOOL on Mon Sep 10 21:13:03 2018
### 

@<TRIPOS>MOLECULE
3mo2_ligand
   88    91     1     0     0
SMALL
GAST_HUCK


@<TRIPOS>ATOM
      1 N1         15.0470   42.3080   37.1920 N.ar      1 E67        -0.2473
      2 C2         14.2230   41.4860   37.9290 C.ar      1 E67         0.1533
      3 N3         12.8830   41.5070   37.7480 N.ar      1 E67        -0.3045
      4 C4         12.3430   42.3570   36.8240 C.ar      1 E67         0.0078
      5 C5         13.1820   43.2220   36.0540 C.ar      1 E67         0.0267
      6 C6         14.5750   43.1740   36.2590 C.ar      1 E67         0.1243
      7 CAA        10.3620   43.2720   35.6520 C.ar      1 E67         0.1280
      8 CAB        11.1990   44.1350   34.8930 C.ar      1 E67         0.1272
      9 CAC        12.6130   44.1010   35.1020 C.ar      1 E67        -0.0226
     10 CAF        10.9380   42.3840   36.6190 C.ar      1 E67        -0.0244
     11 OAK         9.0040   43.3390   35.3980 O.3       1 E67        -0.3141
     12 OAL        10.5970   44.9880   33.9690 O.3       1 E67        -0.3230
     13 CAM        11.3010   45.2120   32.7370 C.3       1 E67         0.0572
     14 NAN        15.4130   43.9640   35.5430 N.pl3     1 E67        -0.2940
     15 CAO        16.9050   44.0310   35.6250 C.3       1 E67         0.0395
     16 CAP        17.3560   45.4870   35.4850 C.3       1 E67        -0.0475
     17 CAQ        18.9400   45.5900   35.5430 C.3       1 E67        -0.1081
     18 NAR        19.5500   44.7860   34.4280 N.4       1 E67         0.4081
     19 CAS        19.1280   43.3390   34.6100 C.3       1 E67        -0.1081
     20 CAT        17.5840   43.2220   34.4980 C.3       1 E67        -0.0475
     21 NAU        14.8130   40.6820   38.8140 N.pl3     1 E67        -0.2962
     22 CAV        16.2870   40.8220   38.8470 C.3       1 E67         0.0282
     23 CAW        16.7890   40.6000   40.2550 C.3       1 E67        -0.0511
     24 CAX        16.7640   41.8020   41.0410 C.3       1 E67        -0.1120
     25 NAY        17.2840   41.3920   42.3650 N.4       1 E67         0.3987
     26 CAZ        16.2280   41.3690   43.3990 C.3       1 E67        -0.1260
     27 CBA        18.4160   42.2920   42.7070 C.3       1 E67        -0.1260
     28 CBB         8.1220   42.8910   36.4370 C.3       1 E67         0.0710
     29 CBC         6.6640   43.0270   35.9960 C.3       1 E67        -0.0248
     30 CBD         6.1820   42.1310   34.8540 C.3       1 E67        -0.0458
     31 CBE         6.1650   42.7430   33.4510 C.3       1 E67        -0.0126
     32 CBF         5.6450   41.6570   32.4870 C.3       1 E67        -0.0354
     33 NBG         5.5820   42.1280   31.1110 N.4       1 E67         0.2185
     34 CBH        21.0470   44.9540   34.5450 C.3       1 E67        -0.0763
     35 CBI        21.9460   44.2540   33.4730 C.ar      1 E67        -0.0632
     36 CBJ        23.2730   43.8550   33.8800 C.ar      1 E67        -0.0623
     37 CBK        24.1880   43.2190   32.9920 C.ar      1 E67        -0.0686
     38 CBL        23.7500   42.9570   31.5770 C.ar      1 E67        -0.0687
     39 CBM        22.3450   43.3900   31.1760 C.ar      1 E67        -0.0686
     40 CBN        21.4960   44.0210   32.1280 C.ar      1 E67        -0.0623
     41 H          13.2597   44.7592   34.5218 H         1 E67         0.0541
     42 H          10.2933   41.7252   37.2007 H         1 E67         0.0461
     43 H          12.2756   45.6504   32.9515 H         1 E67         0.0573
     44 H          11.4344   44.2626   32.2184 H         1 E67         0.0573
     45 H          10.7253   45.8924   32.1096 H         1 E67         0.0573
     46 H          14.9727   44.5879   34.8668 H         1 E67         0.1901
     47 H          17.1944   43.6103   36.5880 H         1 E67         0.0566
     48 H          16.9342   46.0677   36.3053 H         1 E67         0.0269
     49 H          17.0120   45.8724   34.5252 H         1 E67         0.0269
     50 H          19.2896   45.1997   36.4988 H         1 E67         0.0021
     51 H          19.2353   46.6337   35.4351 H         1 E67         0.0021
     52 H          19.4448   42.9927   35.5938 H         1 E67         0.0021
     53 H          19.5923   42.7285   33.8355 H         1 E67         0.0021
     54 H          17.2652   43.6168   33.5333 H         1 E67         0.0269
     55 H          17.2979   42.1741   34.5887 H         1 E67         0.0269
     56 H          14.2991   40.0335   39.4104 H         1 E67         0.1855
     57 H          16.5619   41.8247   38.5195 H         1 E67         0.0523
     58 H          16.7349   40.0825   38.1832 H         1 E67         0.0523
     59 H          17.8221   40.2578   40.1947 H         1 E67         0.0265
     60 H          16.1369   39.8699   40.7344 H         1 E67         0.0265
     61 H          15.7613   42.2239   41.1094 H         1 E67         0.0017
     62 H          17.3649   42.5941   40.5942 H         1 E67         0.0017
     63 H          15.7968   42.3651   43.4984 H         1 E67        -0.0019
     64 H          15.4508   40.6627   43.1071 H         1 E67        -0.0019
     65 H          16.6604   41.0622   44.3514 H         1 E67        -0.0019
     66 H          19.1940   42.1993   41.9492 H         1 E67        -0.0019
     67 H          18.0617   43.3222   42.7417 H         1 E67        -0.0019
     68 H          18.8197   42.0123   43.6801 H         1 E67        -0.0019
     69 H           8.2820   43.5016   37.3256 H         1 E67         0.0615
     70 H           8.3310   41.8431   36.6521 H         1 E67         0.0615
     71 H           6.5638   44.0483   35.6285 H         1 E67         0.0291
     72 H           6.0685   42.7412   36.8631 H         1 E67         0.0291
     73 H           5.1452   41.8864   35.0847 H         1 E67         0.0268
     74 H           6.8874   41.3013   34.8084 H         1 E67         0.0268
     75 H           7.1645   43.0673   33.1612 H         1 E67         0.0317
     76 H           5.5209   43.6219   33.4230 H         1 E67         0.0317
     77 H           4.6372   41.3818   32.7979 H         1 E67         0.0813
     78 H           6.3325   40.8121   32.5252 H         1 E67         0.0813
     79 H           5.2340   41.3792   30.5122 H         1 E67         0.1994
     80 H           4.9532   42.9292   31.0556 H         1 E67         0.1994
     81 H           6.5148   42.4044   30.8045 H         1 E67         0.1994
     82 H          21.3176   44.4951   35.4959 H         1 E67         0.0182
     83 H          21.2299   46.0219   34.4254 H         1 E67         0.0182
     84 H          23.5866   44.0478   34.9059 H         1 E67         0.0556
     85 H          25.1827   42.9289   33.3303 H         1 E67         0.0599
     86 H          24.4156   42.4734   30.8620 H         1 E67         0.0559
     87 H          21.9903   43.2164   30.1600 H         1 E67         0.0599
     88 H          20.4933   44.3311   31.8339 H         1 E67         0.0556
@<TRIPOS>BOND
     1    2    1 ar 
     2    6    1 ar 
     3    3    2 ar 
     4    2   21 1  
     5    4    3 ar 
     6    4    5 ar 
     7   10    4 ar 
     8    5    6 ar 
     9    5    9 ar 
    10    6   14 1  
    11    7    8 ar 
    12    7   10 ar 
    13    7   11 1  
    14    8    9 ar 
    15    8   12 1  
    16   11   28 1  
    17   12   13 1  
    18   14   15 1  
    19   15   16 1  
    20   15   20 1  
    21   16   17 1  
    22   17   18 1  
    23   18   19 1  
    24   18   34 1  
    25   19   20 1  
    26   21   22 1  
    27   22   23 1  
    28   23   24 1  
    29   24   25 1  
    30   25   26 1  
    31   25   27 1  
    32   28   29 1  
    33   29   30 1  
    34   30   31 1  
    35   31   32 1  
    36   32   33 1  
    37   34   35 1  
    38   35   36 ar 
    39   35   40 ar 
    40   36   37 ar 
    41   37   38 ar 
    42   38   39 ar 
    43   39   40 ar 
    44    9   41 1  
    45   10   42 1  
    46   13   43 1  
    47   13   44 1  
    48   13   45 1  
    49   14   46 1  
    50   15   47 1  
    51   16   48 1  
    52   16   49 1  
    53   17   50 1  
    54   17   51 1  
    55   19   52 1  
    56   19   53 1  
    57   20   54 1  
    58   20   55 1  
    59   21   56 1  
    60   22   57 1  
    61   22   58 1  
    62   23   59 1  
    63   23   60 1  
    64   24   61 1  
    65   24   62 1  
    66   26   63 1  
    67   26   64 1  
    68   26   65 1  
    69   27   66 1  
    70   27   67 1  
    71   27   68 1  
    72   28   69 1  
    73   28   70 1  
    74   29   71 1  
    75   29   72 1  
    76   30   73 1  
    77   30   74 1  
    78   31   75 1  
    79   31   76 1  
    80   32   77 1  
    81   32   78 1  
    82   33   79 1  
    83   33   80 1  
    84   33   81 1  
    85   34   82 1  
    86   34   83 1  
    87   36   84 1  
    88   37   85 1  
    89   38   86 1  
    90   39   87 1  
    91   40   88 1  
@<TRIPOS>SUBSTRUCTURE
     1 E67         1

