3mo2_ligand
  -I-interpret- 

 90 93  0  0  0  0  0  0  0  0999 V2000
   15.0470   42.3080   37.1920 N   0  0  0  0  0
   14.2230   41.4860   37.9290 C   0  0  0  0  0
   12.8830   41.5070   37.7480 N   0  0  0  0  0
   12.3430   42.3570   36.8240 C   0  0  0  0  0
   13.1820   43.2220   36.0540 C   0  0  0  0  0
   14.5750   43.1740   36.2590 C   0  0  0  0  0
   10.3620   43.2720   35.6520 C   0  0  0  0  0
   11.1990   44.1350   34.8930 C   0  0  0  0  0
   12.6130   44.1010   35.1020 C   0  0  0  0  0
   10.9380   42.3840   36.6190 C   0  0  0  0  0
    9.0040   43.3390   35.3980 O   0  0  0  0  0
   10.5970   44.9880   33.9690 O   0  0  0  0  0
   11.3010   45.2120   32.7370 C   0  0  0  0  0
   15.4130   43.9640   35.5430 N   0  0  0  0  0
   16.9050   44.0310   35.6250 C   0  0  0  0  0
   17.3560   45.4870   35.4850 C   0  0  0  0  0
   18.9400   45.5900   35.5430 C   0  0  0  0  0
   19.5500   44.7860   34.4280 N   0  3  0  0  0
   19.1280   43.3390   34.6100 C   0  0  0  0  0
   17.5840   43.2220   34.4980 C   0  0  0  0  0
   14.8130   40.6820   38.8140 N   0  0  0  0  0
   16.2870   40.8220   38.8470 C   0  0  0  0  0
   16.7890   40.6000   40.2550 C   0  0  0  0  0
   16.7640   41.8020   41.0410 C   0  0  0  0  0
   17.2840   41.3920   42.3650 N   0  3  0  0  0
   16.2280   41.3690   43.3990 C   0  0  0  0  0
   18.4160   42.2920   42.7070 C   0  0  0  0  0
    8.1220   42.8910   36.4370 C   0  0  0  0  0
    6.6640   43.0270   35.9960 C   0  0  0  0  0
    6.1820   42.1310   34.8540 C   0  0  0  0  0
    6.1650   42.7430   33.4510 C   0  0  0  0  0
    5.6450   41.6570   32.4870 C   0  0  0  0  0
    5.5820   42.1280   31.1110 N   0  3  0  0  0
   21.0470   44.9540   34.5450 C   0  0  0  0  0
   21.9460   44.2540   33.4730 C   0  0  0  0  0
   23.2730   43.8550   33.8800 C   0  0  0  0  0
   24.1880   43.2190   32.9920 C   0  0  0  0  0
   23.7500   42.9570   31.5770 C   0  0  0  0  0
   22.3450   43.3900   31.1760 C   0  0  0  0  0
   21.4960   44.0210   32.1280 C   0  0  0  0  0
   13.2597   44.7592   34.5218 H   0  0  0  0  0
   10.2933   41.7252   37.2007 H   0  0  0  0  0
   12.2756   45.6504   32.9515 H   0  0  0  0  0
   11.4344   44.2626   32.2184 H   0  0  0  0  0
   10.7253   45.8924   32.1096 H   0  0  0  0  0
   14.9727   44.5879   34.8668 H   0  0  0  0  0
   17.1944   43.6103   36.5880 H   0  0  0  0  0
   16.9342   46.0677   36.3053 H   0  0  0  0  0
   17.0120   45.8724   34.5252 H   0  0  0  0  0
   19.2896   45.1997   36.4988 H   0  0  0  0  0
   19.2353   46.6337   35.4351 H   0  0  0  0  0
   19.2471   45.0890   33.5024 H   0  0  0  0  0
   19.4448   42.9927   35.5938 H   0  0  0  0  0
   19.5923   42.7285   33.8355 H   0  0  0  0  0
   17.2652   43.6168   33.5333 H   0  0  0  0  0
   17.2979   42.1741   34.5887 H   0  0  0  0  0
   14.2991   40.0335   39.4104 H   0  0  0  0  0
   16.5619   41.8247   38.5195 H   0  0  0  0  0
   16.7349   40.0825   38.1832 H   0  0  0  0  0
   17.8221   40.2578   40.1947 H   0  0  0  0  0
   16.1369   39.8699   40.7344 H   0  0  0  0  0
   15.7613   42.2239   41.1094 H   0  0  0  0  0
   17.3649   42.5941   40.5942 H   0  0  0  0  0
   17.6212   40.4301   42.3258 H   0  0  0  0  0
   15.7968   42.3651   43.4984 H   0  0  0  0  0
   15.4508   40.6627   43.1071 H   0  0  0  0  0
   16.6604   41.0622   44.3514 H   0  0  0  0  0
   19.1940   42.1993   41.9492 H   0  0  0  0  0
   18.0617   43.3222   42.7417 H   0  0  0  0  0
   18.8197   42.0123   43.6801 H   0  0  0  0  0
    8.2820   43.5016   37.3256 H   0  0  0  0  0
    8.3310   41.8431   36.6521 H   0  0  0  0  0
    6.5638   44.0483   35.6285 H   0  0  0  0  0
    6.0685   42.7412   36.8631 H   0  0  0  0  0
    5.1452   41.8864   35.0847 H   0  0  0  0  0
    6.8874   41.3013   34.8084 H   0  0  0  0  0
    7.1645   43.0673   33.1612 H   0  0  0  0  0
    5.5209   43.6219   33.4230 H   0  0  0  0  0
    4.6372   41.3818   32.7979 H   0  0  0  0  0
    6.3325   40.8121   32.5252 H   0  0  0  0  0
    5.2340   41.3792   30.5122 H   0  0  0  0  0
    4.9532   42.9292   31.0556 H   0  0  0  0  0
    6.5148   42.4044   30.8045 H   0  0  0  0  0
   21.3176   44.4951   35.4959 H   0  0  0  0  0
   21.2299   46.0219   34.4254 H   0  0  0  0  0
   23.5866   44.0478   34.9059 H   0  0  0  0  0
   25.1827   42.9289   33.3303 H   0  0  0  0  0
   24.4156   42.4734   30.8620 H   0  0  0  0  0
   21.9903   43.2164   30.1600 H   0  0  0  0  0
   20.4933   44.3311   31.8339 H   0  0  0  0  0
  2  1  4  0  0  0
  6  1  4  0  0  0
  3  2  4  0  0  0
  2 21  1  0  0  0
  4  3  4  0  0  0
  4  5  4  0  0  0
 10  4  4  0  0  0
  5  6  4  0  0  0
  5  9  4  0  0  0
  6 14  1  0  0  0
  7  8  4  0  0  0
  7 10  4  0  0  0
  7 11  1  0  0  0
  8  9  4  0  0  0
  8 12  1  0  0  0
 11 28  1  0  0  0
 12 13  1  0  0  0
 14 15  1  0  0  0
 15 16  1  0  0  0
 15 20  1  0  0  0
 16 17  1  0  0  0
 17 18  1  0  0  0
 18 19  1  0  0  0
 18 34  1  0  0  0
 19 20  1  0  0  0
 21 22  1  0  0  0
 22 23  1  0  0  0
 23 24  1  0  0  0
 24 25  1  0  0  0
 25 26  1  0  0  0
 25 27  1  0  0  0
 28 29  1  0  0  0
 29 30  1  0  0  0
 30 31  1  0  0  0
 31 32  1  0  0  0
 32 33  1  0  0  0
 34 35  1  0  0  0
 35 36  4  0  0  0
 35 40  4  0  0  0
 36 37  4  0  0  0
 37 38  4  0  0  0
 38 39  4  0  0  0
 39 40  4  0  0  0
  9 41  1  0  0  0
 10 42  1  0  0  0
 13 43  1  0  0  0
 13 44  1  0  0  0
 13 45  1  0  0  0
 14 46  1  0  0  0
 15 47  1  0  0  0
 16 48  1  0  0  0
 16 49  1  0  0  0
 17 50  1  0  0  0
 17 51  1  0  0  0
 18 52  1  0  0  0
 19 53  1  0  0  0
 19 54  1  0  0  0
 20 55  1  0  0  0
 20 56  1  0  0  0
 21 57  1  0  0  0
 22 58  1  0  0  0
 22 59  1  0  0  0
 23 60  1  0  0  0
 23 61  1  0  0  0
 24 62  1  0  0  0
 24 63  1  0  0  0
 25 64  1  0  0  0
 26 65  1  0  0  0
 26 66  1  0  0  0
 26 67  1  0  0  0
 27 68  1  0  0  0
 27 69  1  0  0  0
 27 70  1  0  0  0
 28 71  1  0  0  0
 28 72  1  0  0  0
 29 73  1  0  0  0
 29 74  1  0  0  0
 30 75  1  0  0  0
 30 76  1  0  0  0
 31 77  1  0  0  0
 31 78  1  0  0  0
 32 79  1  0  0  0
 32 80  1  0  0  0
 33 81  1  0  0  0
 33 82  1  0  0  0
 33 83  1  0  0  0
 34 84  1  0  0  0
 34 85  1  0  0  0
 36 86  1  0  0  0
 37 87  1  0  0  0
 38 88  1  0  0  0
 39 89  1  0  0  0
 40 90  1  0  0  0
M  END
$$$$
