2gde_ligand
  -I-interpret- 

 87 89  0  0  0  0  0  0  0  0999 V2000
   20.6550  -15.2220   18.4460 C   0  0  0  0  0
   21.1760  -14.0950   19.3760 C   0  0  0  0  0
   20.2190  -13.5570   20.4370 C   0  0  0  0  0
   19.1840  -14.5650   20.9690 C   0  0  0  0  0
   18.6110  -15.5450   19.9140 C   0  0  0  0  0
   19.7530  -16.2550   19.1810 C   0  0  0  0  0
   20.4820  -17.0490   20.1390 O   0  0  0  0  0
   18.1550  -13.6680   21.5580 N   0  0  0  0  0
   18.1900  -12.3790   20.8640 C   0  0  0  0  0
   19.3180  -12.4730   19.8170 C   0  0  0  0  0
   16.8780  -12.1300   20.1530 C   0  0  0  0  0
   16.3650  -10.8720   20.1540 N   0  0  0  0  0
   15.0980  -10.6020   19.4490 C   0  0  0  0  0
   14.2810   -9.6110   20.2700 C   0  0  0  0  0
   13.5580  -10.3830   21.3480 C   0  0  0  0  0
   12.9610   -9.7310   22.5500 C   0  0  0  0  0
   12.2090  -10.7550   23.2710 N   0  0  0  0  0
   12.6070  -12.0340   22.6700 C   0  0  0  0  0
   13.3880  -11.6830   21.4220 C   0  0  0  0  0
   11.3470  -10.5390   24.2380 C   0  0  0  0  0
   10.6640  -11.5920   24.8210 N   0  0  0  0  0
   11.0860   -9.2630   24.6530 N   0  0  0  0  0
   16.3050  -13.0560   19.5820 O   0  0  0  0  0
   17.3320  -13.9710   22.5800 C   0  0  0  0  0
   16.5600  -13.1120   22.9460 O   0  0  0  0  0
   17.3660  -15.3270   23.2710 C   0  0  0  0  0
   17.7450  -15.1150   24.7500 C   0  0  0  0  0
   17.7410  -16.4080   25.5710 C   0  0  0  0  0
   18.6580  -17.5010   24.9920 C   0  0  0  0  0
   18.1580  -16.0490   26.9950 C   0  0  0  0  0
   19.3340  -14.2690   24.8190 Cl  0  0  0  0  0
   16.0430  -15.9480   23.2410 N   0  0  0  0  0
   15.7690  -17.0330   22.4770 C   0  0  0  0  0
   14.3890  -17.6150   22.5220 C   0  0  0  0  0
   13.4510  -16.6030   22.9250 O   0  0  0  0  0
   12.9280  -15.8390   21.8240 C   0  0  0  0  0
   14.4110  -18.8270   23.4710 C   0  0  0  0  0
   14.4860  -18.4670   24.8620 O   0  0  0  0  0
   15.0530  -19.5630   25.7960 S   0  0  0  0  0
   15.2210  -19.0100   27.0920 O   0  0  0  0  0
   13.9750  -20.6200   26.0320 O   0  0  0  0  0
   16.1130  -20.1720   25.0540 O   0  0  0  0  0
   16.6010  -17.5480   21.7500 O   0  0  0  0  0
   19.9940  -14.6320   17.3100 O   0  0  0  0  0
   21.5130  -15.7984   18.1000 H   0  0  0  0  0
   21.3921  -13.2509   18.7211 H   0  0  0  0  0
   22.0092  -14.5313   19.9269 H   0  0  0  0  0
   20.8881  -13.2353   21.2350 H   0  0  0  0  0
   19.6219  -15.2683   21.6773 H   0  0  0  0  0
   18.0154  -14.9859   19.1924 H   0  0  0  0  0
   17.9908  -16.2881   20.4153 H   0  0  0  0  0
   19.3624  -16.9187   18.4096 H   0  0  0  0  0
   21.2029  -17.5017   19.6952 H   0  0  0  0  0
   18.3570  -11.5661   21.5706 H   0  0  0  0  0
   18.9654  -12.7179   18.8151 H   0  0  0  0  0
   19.8302  -11.5273   19.6399 H   0  0  0  0  0
   16.8530  -10.1191   20.6392 H   0  0  0  0  0
   14.5387  -11.5294   19.3259 H   0  0  0  0  0
   15.3051  -10.1836   18.4640 H   0  0  0  0  0
   13.5644   -9.0937   19.6320 H   0  0  0  0  0
   14.9352   -8.8625   20.7170 H   0  0  0  0  0
   12.3060   -8.9111   22.2554 H   0  0  0  0  0
   13.7410   -9.3105   23.1847 H   0  0  0  0  0
   11.7371  -12.6463   22.4323 H   0  0  0  0  0
   13.2099  -12.6240   23.3603 H   0  0  0  0  0
   13.7555  -12.4038   20.6916 H   0  0  0  0  0
    9.9752  -11.4112   25.5513 H   0  0  0  0  0
   10.8494  -12.5489   24.5204 H   0  0  0  0  0
   11.5612   -8.4758   24.2114 H   0  0  0  0  0
   18.0862  -15.9647   22.7584 H   0  0  0  0  0
   16.9786  -14.4955   25.2159 H   0  0  0  0  0
   16.7377  -16.8334   25.5471 H   0  0  0  0  0
   18.3304  -17.7514   23.9830 H   0  0  0  0  0
   19.6840  -17.1342   24.9617 H   0  0  0  0  0
   18.6065  -18.3884   25.6229 H   0  0  0  0  0
   19.1554  -15.6097   26.9803 H   0  0  0  0  0
   17.4497  -15.3317   27.4097 H   0  0  0  0  0
   18.1655  -16.9502   27.6081 H   0  0  0  0  0
   15.2998  -15.5505   23.8155 H   0  0  0  0  0
   14.0684  -17.9610   21.5393 H   0  0  0  0  0
   13.7480  -15.3398   21.3078 H   0  0  0  0  0
   12.4140  -16.5062   21.1321 H   0  0  0  0  0
   12.2271  -15.0941   22.2008 H   0  0  0  0  0
   15.3010  -19.4107   23.2357 H   0  0  0  0  0
   13.4798  -19.3742   23.3244 H   0  0  0  0  0
   13.7789  -21.0658   25.2047 H   0  0  0  0  0
   20.5846  -14.0035   16.8883 H   0  0  0  0  0
  1  2  1  0  0  0
  1  6  1  0  0  0
  1 44  1  0  0  0
  2  3  1  0  0  0
  3  4  1  0  0  0
  3 10  1  0  0  0
  4  5  1  0  0  0
  4  8  1  0  0  0
  5  6  1  0  0  0
  6  7  1  0  0  0
  8  9  1  0  0  0
  8 24  1  0  0  0
  9 10  1  0  0  0
  9 11  1  0  0  0
 11 12  1  0  0  0
 11 23  2  0  0  0
 12 13  1  0  0  0
 13 14  1  0  0  0
 14 15  1  0  0  0
 15 16  1  0  0  0
 15 19  2  0  0  0
 16 17  1  0  0  0
 17 18  1  0  0  0
 17 20  1  0  0  0
 18 19  1  0  0  0
 20 21  1  0  0  0
 20 22  2  0  0  0
 24 25  2  0  0  0
 24 26  1  0  0  0
 26 27  1  0  0  0
 26 32  1  0  0  0
 27 28  1  0  0  0
 27 31  1  0  0  0
 28 29  1  0  0  0
 28 30  1  0  0  0
 32 33  1  0  0  0
 33 34  1  0  0  0
 33 43  2  0  0  0
 34 35  1  0  0  0
 34 37  1  0  0  0
 35 36  1  0  0  0
 37 38  1  0  0  0
 38 39  1  0  0  0
 39 40  2  0  0  0
 39 41  1  0  0  0
 39 42  2  0  0  0
  1 45  1  0  0  0
  2 46  1  0  0  0
  2 47  1  0  0  0
  3 48  1  0  0  0
  4 49  1  0  0  0
  5 50  1  0  0  0
  5 51  1  0  0  0
  6 52  1  0  0  0
  7 53  1  0  0  0
  9 54  1  0  0  0
 10 55  1  0  0  0
 10 56  1  0  0  0
 12 57  1  0  0  0
 13 58  1  0  0  0
 13 59  1  0  0  0
 14 60  1  0  0  0
 14 61  1  0  0  0
 16 62  1  0  0  0
 16 63  1  0  0  0
 18 64  1  0  0  0
 18 65  1  0  0  0
 19 66  1  0  0  0
 21 67  1  0  0  0
 21 68  1  0  0  0
 22 69  1  0  0  0
 26 70  1  0  0  0
 27 71  1  0  0  0
 28 72  1  0  0  0
 29 73  1  0  0  0
 29 74  1  0  0  0
 29 75  1  0  0  0
 30 76  1  0  0  0
 30 77  1  0  0  0
 30 78  1  0  0  0
 32 79  1  0  0  0
 34 80  1  0  0  0
 36 81  1  0  0  0
 36 82  1  0  0  0
 36 83  1  0  0  0
 37 84  1  0  0  0
 37 85  1  0  0  0
 41 86  1  0  0  0
 44 87  1  0  0  0
M  END
$$$$
