### 
### Created by X-TOOL on Wed Jan  1 15:39:37 2020
### 

@<TRIPOS>MOLECULE
6bnk_ligand
  159   159     1     0     0
SMALL
GAST_HUCK


@<TRIPOS>ATOM
      1 C1          5.6240  -17.2530   19.5150 C.3       1 AGH         0.0762
      2 C2          6.7260  -16.4640   20.2540 C.3       1 AGH         0.0936
      3 C3          6.9400  -15.0720   19.5830 C.3       1 AGH         0.1059
      4 C4          7.7970  -14.0590   20.3820 C.3       1 AGH         0.0833
      5 C5          9.2630  -14.5100   20.6110 C.3       1 AGH        -0.0243
      6 C6         10.2500  -13.3320   20.7510 C.3       1 AGH        -0.0506
      7 O3          7.4660  -15.1850   18.2550 O.3       1 AGH        -0.3869
      8 C18        15.5610   -5.5280   14.3700 C.3       1 AGH        -0.0653
      9 C17        14.6990   -5.0440   15.5330 C.3       1 AGH        -0.0559
     10 C16        15.0780   -5.8090   16.8030 C.3       1 AGH        -0.0533
     11 C15        13.9980   -5.5930   17.8670 C.3       1 AGH        -0.0531
     12 C14        14.5080   -6.1070   19.2140 C.3       1 AGH        -0.0531
     13 C13        13.3290   -6.5530   20.0800 C.3       1 AGH        -0.0531
     14 C12        13.6350   -7.9060   20.7320 C.3       1 AGH        -0.0531
     15 C11        12.5310   -8.2590   21.7380 C.3       1 AGH        -0.0531
     16 C10        12.6890   -9.7130   22.1920 C.3       1 AGH        -0.0531
     17 C9         11.4020  -10.4880   21.8940 C.3       1 AGH        -0.0531
     18 C8         11.5100  -11.9240   22.4380 C.3       1 AGH        -0.0531
     19 C7         10.2170  -12.7100   22.1620 C.3       1 AGH        -0.0530
     20 O4          7.7460  -12.8010   19.7000 O.3       1 AGH        -0.3892
     21 O1A         4.3260  -16.7070   19.7990 O.3       1 AGH        -0.3463
     22 C1A         3.2370  -17.4120   19.1380 C.3       1 AGH         0.1880
     23 O6A         2.9720  -18.7400   19.7180 O.3       1 AGH        -0.3405
     24 C5M         2.4670  -18.7540   21.0970 C.3       1 AGH         0.1130
     25 C6A         2.2900  -20.1890   21.5970 C.3       1 AGH         0.0730
     26 O5A         3.5570  -20.8470   21.5770 O.3       1 AGH        -0.3924
     27 C4A         1.1480  -17.9500   21.2120 C.3       1 AGH         0.1119
     28 O4A         0.0680  -18.6160   20.5140 O.3       1 AGH        -0.3865
     29 C3A         1.3630  -16.5190   20.6520 C.3       1 AGH         0.1141
     30 O3A         0.1170  -15.7930   20.7120 O.3       1 AGH        -0.3864
     31 C2A         1.9450  -16.5560   19.1890 C.3       1 AGH         0.1341
     32 O2A         2.2230  -15.2380   18.6970 O.3       1 AGH        -0.3841
     33 N2          6.3720  -16.3590   21.6860 N.am      1 AGH        -0.2791
     34 CAA         6.7410  -17.2470   22.6340 C.2       1 AGH         0.1764
     35 OAA         7.4060  -18.2620   22.4230 O.2       1 AGH        -0.3971
     36 CAB         6.2200  -16.9240   24.0450 C.3       1 AGH         0.0372
     37 CAC         7.2680  -17.2180   25.1220 C.3       1 AGH        -0.0361
     38 CAD         8.2570  -16.0590   25.2480 C.3       1 AGH        -0.0510
     39 CAE         9.5160  -16.5910   25.9290 C.3       1 AGH        -0.0529
     40 CAF        10.1020  -15.5400   26.8750 C.3       1 AGH        -0.0531
     41 CAG        11.5300  -15.1920   26.4400 C.3       1 AGH        -0.0531
     42 CAH        12.5560  -15.8060   27.3940 C.3       1 AGH        -0.0531
     43 CAI        13.9000  -15.1210   27.1550 C.3       1 AGH        -0.0531
     44 CAJ        14.9360  -15.6010   28.1720 C.3       1 AGH        -0.0531
     45 CAK        16.0440  -16.3910   27.4700 C.3       1 AGH        -0.0531
     46 CAL        16.0010  -17.8470   27.9500 C.3       1 AGH        -0.0531
     47 CAM        16.9960  -18.7030   27.1560 C.3       1 AGH        -0.0531
     48 CAN        16.6850  -20.1920   27.3510 C.3       1 AGH        -0.0531
     49 CAO        17.4710  -20.7600   28.5400 C.3       1 AGH        -0.0531
     50 CAP        16.7190  -21.9620   29.1090 C.3       1 AGH        -0.0531
     51 CAQ        16.2470  -21.6470   30.5290 C.3       1 AGH        -0.0531
     52 CAR        15.8760  -22.9500   31.2370 C.3       1 AGH        -0.0531
     53 CAS        15.7610  -22.7010   32.7410 C.3       1 AGH        -0.0531
     54 CAT        14.2930  -22.7860   33.1720 C.3       1 AGH        -0.0531
     55 CAU        13.9730  -21.6220   34.1150 C.3       1 AGH        -0.0531
     56 CAV        12.5350  -21.1400   33.9120 C.3       1 AGH        -0.0531
     57 CAW        12.3250  -19.8420   34.6970 C.3       1 AGH        -0.0531
     58 CAX        11.7520  -18.7600   33.7760 C.3       1 AGH        -0.0533
     59 CAY        12.7950  -17.6570   33.5470 C.3       1 AGH        -0.0559
     60 CAZ        12.4840  -16.9090   32.2430 C.3       1 AGH        -0.0653
     61 H1          5.6524  -18.3031   19.8411 H         1 AGH         0.0585
     62 H2          5.8079  -17.2003   18.4318 H         1 AGH         0.0585
     63 H3          7.6694  -17.0243   20.1760 H         1 AGH         0.0605
     64 H4          5.9379  -14.6269   19.4957 H         1 AGH         0.0643
     65 H5          7.3357  -13.9361   21.3730 H         1 AGH         0.0620
     66 H6          9.5758  -15.1276   19.7562 H         1 AGH         0.0291
     67 H7          9.3036  -15.1106   21.5317 H         1 AGH         0.0291
     68 H8          9.9844  -12.5578   20.0161 H         1 AGH         0.0266
     69 H9         11.2679  -13.6964   20.5481 H         1 AGH         0.0266
     70 H10         7.4367  -14.3356   17.8306 H         1 AGH         0.2100
     71 H11        15.2880   -4.9777   13.4575 H         1 AGH         0.0230
     72 H12        15.3944   -6.6039   14.2130 H         1 AGH         0.0230
     73 H13        16.6217   -5.3511   14.6013 H         1 AGH         0.0230
     74 H14        13.6383   -5.2209   15.3015 H         1 AGH         0.0263
     75 H15        14.8657   -3.9681   15.6898 H         1 AGH         0.0263
     76 H16        16.0434   -5.4400   17.1796 H         1 AGH         0.0265
     77 H17        15.1592   -6.8820   16.5749 H         1 AGH         0.0265
     78 H18        13.0881   -6.1426   17.5843 H         1 AGH         0.0265
     79 H19        13.7687   -4.5201   17.9458 H         1 AGH         0.0265
     80 H20        15.0548   -5.3028   19.7282 H         1 AGH         0.0265
     81 H21        15.1818   -6.9603   19.0476 H         1 AGH         0.0265
     82 H22        12.4312   -6.6471   19.4514 H         1 AGH         0.0265
     83 H23        13.1502   -5.8033   20.8649 H         1 AGH         0.0265
     84 H24        14.6011   -7.8494   21.2549 H         1 AGH         0.0265
     85 H25        13.6834   -8.6833   19.9552 H         1 AGH         0.0265
     86 H26        11.5479   -8.1299   21.2617 H         1 AGH         0.0265
     87 H27        12.6058   -7.5937   22.6108 H         1 AGH         0.0265
     88 H28        12.8897   -9.7390   23.2732 H         1 AGH         0.0265
     89 H29        13.5281  -10.1758   21.6520 H         1 AGH         0.0265
     90 H30        11.2418  -10.5224   20.8063 H         1 AGH         0.0265
     91 H31        10.5524   -9.9803   22.3740 H         1 AGH         0.0265
     92 H32        11.6848  -11.8865   23.5234 H         1 AGH         0.0265
     93 H33        12.3532  -12.4330   21.9482 H         1 AGH         0.0265
     94 H34        10.1152  -13.5118   22.9082 H         1 AGH         0.0265
     95 H35         9.3569  -12.0284   22.2365 H         1 AGH         0.0265
     96 H36         8.1752  -12.8818   18.8564 H         1 AGH         0.2099
     97 H37         3.5196  -17.5544   18.0845 H         1 AGH         0.0937
     98 H38         3.2161  -18.2644   21.7366 H         1 AGH         0.0647
     99 H39         1.5862  -20.7237   20.9422 H         1 AGH         0.0584
    100 H40         1.8973  -20.1759   22.6244 H         1 AGH         0.0584
    101 H41         3.8941  -20.8557   20.6889 H         1 AGH         0.2095
    102 H42         0.8767  -17.8738   22.2753 H         1 AGH         0.0647
    103 H43        -0.7270  -18.1032   20.6002 H         1 AGH         0.2100
    104 H44         2.0937  -16.0032   21.2923 H         1 AGH         0.0648
    105 H45        -0.5368  -16.2446   20.1913 H         1 AGH         0.2100
    106 H46         1.1928  -17.0185   18.5330 H         1 AGH         0.0671
    107 H47         2.8600  -14.8178   19.2628 H         1 AGH         0.2101
    108 H48         5.8207  -15.5754   21.9724 H         1 AGH         0.1856
    109 H49         5.3264  -17.5343   24.2425 H         1 AGH         0.0502
    110 H50         5.9532  -15.8578   24.0902 H         1 AGH         0.0502
    111 H51         7.8165  -18.1323   24.8514 H         1 AGH         0.0290
    112 H52         6.7615  -17.3663   26.0871 H         1 AGH         0.0290
    113 H53         7.8153  -15.2545   25.8543 H         1 AGH         0.0267
    114 H54         8.5074  -15.6706   24.2498 H         1 AGH         0.0267
    115 H55        10.2628  -16.8433   25.1618 H         1 AGH         0.0265
    116 H56         9.2620  -17.4935   26.5042 H         1 AGH         0.0265
    117 H57        10.1191  -15.9394   27.8998 H         1 AGH         0.0265
    118 H58         9.4796  -14.6335   26.8451 H         1 AGH         0.0265
    119 H59        11.6495  -14.0985   26.4378 H         1 AGH         0.0265
    120 H60        11.7027  -15.5818   25.4260 H         1 AGH         0.0265
    121 H61        12.6478  -16.8845   27.1981 H         1 AGH         0.0265
    122 H62        12.2376  -15.6482   28.4350 H         1 AGH         0.0265
    123 H63        13.7739  -14.0327   27.2534 H         1 AGH         0.0265
    124 H64        14.2520  -15.3591   26.1404 H         1 AGH         0.0265
    125 H65        14.4439  -16.2472   28.9138 H         1 AGH         0.0265
    126 H66        15.3769  -14.7303   28.6793 H         1 AGH         0.0265
    127 H67        17.0221  -15.9510   27.7144 H         1 AGH         0.0265
    128 H68        15.8882  -16.3569   26.3816 H         1 AGH         0.0265
    129 H69        14.9858  -18.2456   27.8072 H         1 AGH         0.0265
    130 H70        16.2627  -17.8842   29.0178 H         1 AGH         0.0265
    131 H71        18.0169  -18.4955   27.5092 H         1 AGH         0.0265
    132 H72        16.9196  -18.4525   26.0876 H         1 AGH         0.0265
    133 H73        16.9629  -20.7412   26.4393 H         1 AGH         0.0265
    134 H74        15.6081  -20.3142   27.5389 H         1 AGH         0.0265
    135 H75        17.5726  -19.9879   29.3169 H         1 AGH         0.0265
    136 H76        18.4697  -21.0759   28.2041 H         1 AGH         0.0265
    137 H77        17.3876  -22.8352   29.1308 H         1 AGH         0.0265
    138 H78        15.8481  -22.1828   28.4744 H         1 AGH         0.0265
    139 H79        15.3671  -20.9882   30.4864 H         1 AGH         0.0265
    140 H80        17.0545  -21.1450   31.0821 H         1 AGH         0.0265
    141 H81        16.6550  -23.7035   31.0491 H         1 AGH         0.0265
    142 H82        14.9125  -23.3147   30.8515 H         1 AGH         0.0265
    143 H83        16.1530  -21.7005   32.9763 H         1 AGH         0.0265
    144 H84        16.3447  -23.4601   33.2823 H         1 AGH         0.0265
    145 H85        14.1176  -23.7391   33.6924 H         1 AGH         0.0265
    146 H86        13.6457  -22.7282   32.2845 H         1 AGH         0.0265
    147 H87        14.6643  -20.7912   33.9105 H         1 AGH         0.0265
    148 H88        14.0983  -21.9556   35.1557 H         1 AGH         0.0265
    149 H89        11.8349  -21.9070   34.2748 H         1 AGH         0.0265
    150 H90        12.3558  -20.9564   32.8424 H         1 AGH         0.0265
    151 H91        13.2890  -19.5017   35.1030 H         1 AGH         0.0265
    152 H92        11.6232  -20.0257   35.5238 H         1 AGH         0.0265
    153 H93        10.8562  -18.3229   34.2413 H         1 AGH         0.0265
    154 H94        11.4807  -19.2106   32.8099 H         1 AGH         0.0265
    155 H95        13.7955  -18.1091   33.4788 H         1 AGH         0.0263
    156 H96        12.7689  -16.9494   34.3888 H         1 AGH         0.0263
    157 H97        13.2344  -16.1205   32.0847 H         1 AGH         0.0230
    158 H98        11.4841  -16.4554   32.3100 H         1 AGH         0.0230
    159 H99        12.5107  -17.6151   31.3999 H         1 AGH         0.0230
@<TRIPOS>BOND
     1    2    1 1  
     2    1   21 1  
     3    3    2 1  
     4    2   33 1  
     5    4    3 1  
     6    3    7 1  
     7    5    4 1  
     8    4   20 1  
     9    6    5 1  
    10   19    6 1  
    11    9    8 1  
    12   10    9 1  
    13   11   10 1  
    14   12   11 1  
    15   13   12 1  
    16   14   13 1  
    17   15   14 1  
    18   16   15 1  
    19   17   16 1  
    20   18   17 1  
    21   18   19 1  
    22   21   22 1  
    23   22   23 1  
    24   22   31 1  
    25   23   24 1  
    26   24   25 1  
    27   24   27 1  
    28   25   26 1  
    29   27   28 1  
    30   27   29 1  
    31   29   30 1  
    32   29   31 1  
    33   31   32 1  
    34   33   34 am 
    35   34   35 2  
    36   34   36 1  
    37   36   37 1  
    38   37   38 1  
    39   38   39 1  
    40   39   40 1  
    41   40   41 1  
    42   41   42 1  
    43   42   43 1  
    44   43   44 1  
    45   44   45 1  
    46   45   46 1  
    47   46   47 1  
    48   47   48 1  
    49   48   49 1  
    50   49   50 1  
    51   50   51 1  
    52   51   52 1  
    53   52   53 1  
    54   53   54 1  
    55   54   55 1  
    56   55   56 1  
    57   56   57 1  
    58   57   58 1  
    59   58   59 1  
    60   59   60 1  
    61    1   61 1  
    62    1   62 1  
    63    2   63 1  
    64    3   64 1  
    65    4   65 1  
    66    5   66 1  
    67    5   67 1  
    68    6   68 1  
    69    6   69 1  
    70    7   70 1  
    71    8   71 1  
    72    8   72 1  
    73    8   73 1  
    74    9   74 1  
    75    9   75 1  
    76   10   76 1  
    77   10   77 1  
    78   11   78 1  
    79   11   79 1  
    80   12   80 1  
    81   12   81 1  
    82   13   82 1  
    83   13   83 1  
    84   14   84 1  
    85   14   85 1  
    86   15   86 1  
    87   15   87 1  
    88   16   88 1  
    89   16   89 1  
    90   17   90 1  
    91   17   91 1  
    92   18   92 1  
    93   18   93 1  
    94   19   94 1  
    95   19   95 1  
    96   20   96 1  
    97   22   97 1  
    98   24   98 1  
    99   25   99 1  
   100   25  100 1  
   101   26  101 1  
   102   27  102 1  
   103   28  103 1  
   104   29  104 1  
   105   30  105 1  
   106   31  106 1  
   107   32  107 1  
   108   33  108 1  
   109   36  109 1  
   110   36  110 1  
   111   37  111 1  
   112   37  112 1  
   113   38  113 1  
   114   38  114 1  
   115   39  115 1  
   116   39  116 1  
   117   40  117 1  
   118   40  118 1  
   119   41  119 1  
   120   41  120 1  
   121   42  121 1  
   122   42  122 1  
   123   43  123 1  
   124   43  124 1  
   125   44  125 1  
   126   44  126 1  
   127   45  127 1  
   128   45  128 1  
   129   46  129 1  
   130   46  130 1  
   131   47  131 1  
   132   47  132 1  
   133   48  133 1  
   134   48  134 1  
   135   49  135 1  
   136   49  136 1  
   137   50  137 1  
   138   50  138 1  
   139   51  139 1  
   140   51  140 1  
   141   52  141 1  
   142   52  142 1  
   143   53  143 1  
   144   53  144 1  
   145   54  145 1  
   146   54  146 1  
   147   55  147 1  
   148   55  148 1  
   149   56  149 1  
   150   56  150 1  
   151   57  151 1  
   152   57  152 1  
   153   58  153 1  
   154   58  154 1  
   155   59  155 1  
   156   59  156 1  
   157   60  157 1  
   158   60  158 1  
   159   60  159 1  
@<TRIPOS>SUBSTRUCTURE
     1 AGH         1

