6bnk_ligand
  -I-interpret- 

159159  0  0  0  0  0  0  0  0999 V2000
    5.6240  -17.2530   19.5150 C   0  0  0  0  0
    6.7260  -16.4640   20.2540 C   0  0  0  0  0
    6.9400  -15.0720   19.5830 C   0  0  0  0  0
    7.7970  -14.0590   20.3820 C   0  0  0  0  0
    9.2630  -14.5100   20.6110 C   0  0  0  0  0
   10.2500  -13.3320   20.7510 C   0  0  0  0  0
    7.4660  -15.1850   18.2550 O   0  0  0  0  0
   15.5610   -5.5280   14.3700 C   0  0  0  0  0
   14.6990   -5.0440   15.5330 C   0  0  0  0  0
   15.0780   -5.8090   16.8030 C   0  0  0  0  0
   13.9980   -5.5930   17.8670 C   0  0  0  0  0
   14.5080   -6.1070   19.2140 C   0  0  0  0  0
   13.3290   -6.5530   20.0800 C   0  0  0  0  0
   13.6350   -7.9060   20.7320 C   0  0  0  0  0
   12.5310   -8.2590   21.7380 C   0  0  0  0  0
   12.6890   -9.7130   22.1920 C   0  0  0  0  0
   11.4020  -10.4880   21.8940 C   0  0  0  0  0
   11.5100  -11.9240   22.4380 C   0  0  0  0  0
   10.2170  -12.7100   22.1620 C   0  0  0  0  0
    7.7460  -12.8010   19.7000 O   0  0  0  0  0
    4.3260  -16.7070   19.7990 O   0  0  0  0  0
    3.2370  -17.4120   19.1380 C   0  0  0  0  0
    2.9720  -18.7400   19.7180 O   0  0  0  0  0
    2.4670  -18.7540   21.0970 C   0  0  0  0  0
    2.2900  -20.1890   21.5970 C   0  0  0  0  0
    3.5570  -20.8470   21.5770 O   0  0  0  0  0
    1.1480  -17.9500   21.2120 C   0  0  0  0  0
    0.0680  -18.6160   20.5140 O   0  0  0  0  0
    1.3630  -16.5190   20.6520 C   0  0  0  0  0
    0.1170  -15.7930   20.7120 O   0  0  0  0  0
    1.9450  -16.5560   19.1890 C   0  0  0  0  0
    2.2230  -15.2380   18.6970 O   0  0  0  0  0
    6.3720  -16.3590   21.6860 N   0  0  0  0  0
    6.7410  -17.2470   22.6340 C   0  0  0  0  0
    7.4060  -18.2620   22.4230 O   0  0  0  0  0
    6.2200  -16.9240   24.0450 C   0  0  0  0  0
    7.2680  -17.2180   25.1220 C   0  0  0  0  0
    8.2570  -16.0590   25.2480 C   0  0  0  0  0
    9.5160  -16.5910   25.9290 C   0  0  0  0  0
   10.1020  -15.5400   26.8750 C   0  0  0  0  0
   11.5300  -15.1920   26.4400 C   0  0  0  0  0
   12.5560  -15.8060   27.3940 C   0  0  0  0  0
   13.9000  -15.1210   27.1550 C   0  0  0  0  0
   14.9360  -15.6010   28.1720 C   0  0  0  0  0
   16.0440  -16.3910   27.4700 C   0  0  0  0  0
   16.0010  -17.8470   27.9500 C   0  0  0  0  0
   16.9960  -18.7030   27.1560 C   0  0  0  0  0
   16.6850  -20.1920   27.3510 C   0  0  0  0  0
   17.4710  -20.7600   28.5400 C   0  0  0  0  0
   16.7190  -21.9620   29.1090 C   0  0  0  0  0
   16.2470  -21.6470   30.5290 C   0  0  0  0  0
   15.8760  -22.9500   31.2370 C   0  0  0  0  0
   15.7610  -22.7010   32.7410 C   0  0  0  0  0
   14.2930  -22.7860   33.1720 C   0  0  0  0  0
   13.9730  -21.6220   34.1150 C   0  0  0  0  0
   12.5350  -21.1400   33.9120 C   0  0  0  0  0
   12.3250  -19.8420   34.6970 C   0  0  0  0  0
   11.7520  -18.7600   33.7760 C   0  0  0  0  0
   12.7950  -17.6570   33.5470 C   0  0  0  0  0
   12.4840  -16.9090   32.2430 C   0  0  0  0  0
    5.6497  -18.2897   19.8506 H   0  0  0  0  0
    5.8051  -17.1877   18.4421 H   0  0  0  0  0
    7.6775  -16.9912   20.1846 H   0  0  0  0  0
    5.9299  -14.6630   19.5583 H   0  0  0  0  0
    7.3743  -13.9804   21.3836 H   0  0  0  0  0
    9.5676  -15.0931   19.7419 H   0  0  0  0  0
    9.2917  -15.0759   21.5421 H   0  0  0  0  0
    9.9640  -12.5624   20.0340 H   0  0  0  0  0
   11.2565  -13.7091   20.5697 H   0  0  0  0  0
    6.9381  -15.8120   17.7552 H   0  0  0  0  0
   16.6118   -5.3522   14.6005 H   0  0  0  0  0
   15.3950   -6.5941   14.2155 H   0  0  0  0  0
   15.2896   -4.9820   13.4665 H   0  0  0  0  0
   13.6480   -5.2196   15.3035 H   0  0  0  0  0
   14.8645   -3.9779   15.6884 H   0  0  0  0  0
   16.0351   -5.4444   17.1760 H   0  0  0  0  0
   15.1596   -6.8722   16.5772 H   0  0  0  0  0
   13.0952   -6.1357   17.5868 H   0  0  0  0  0
   13.7686   -4.5302   17.9444 H   0  0  0  0  0
   15.0468   -5.3081   19.7234 H   0  0  0  0  0
   15.1730   -6.9544   19.0474 H   0  0  0  0  0
   12.4423   -6.6506   19.4536 H   0  0  0  0  0
   13.1578   -5.8111   20.8600 H   0  0  0  0  0
   14.5914   -7.8478   21.2517 H   0  0  0  0  0
   13.6803   -8.6756   19.9615 H   0  0  0  0  0
   11.5576   -8.1331   21.2640 H   0  0  0  0  0
   12.6079   -7.6007   22.6034 H   0  0  0  0  0
   12.8866   -9.7380   23.2637 H   0  0  0  0  0
   13.5198  -10.1713   21.6556 H   0  0  0  0  0
   11.2488  -10.5250   20.8155 H   0  0  0  0  0
   10.5628   -9.9857   22.3753 H   0  0  0  0  0
   11.6726  -11.8810   23.5149 H   0  0  0  0  0
   12.3402  -12.4268   21.9418 H   0  0  0  0  0
   10.1256  -13.5089   22.8979 H   0  0  0  0  0
    9.3688  -12.0286   22.2277 H   0  0  0  0  0
    6.8298  -12.5451   19.5710 H   0  0  0  0  0
    3.5479  -17.5700   18.1053 H   0  0  0  0  0
    3.2059  -18.2687   21.7346 H   0  0  0  0  0
    1.5897  -20.7196   20.9519 H   0  0  0  0  0
    1.8970  -20.1785   22.6136 H   0  0  0  0  0
    3.4530  -21.7486   21.8898 H   0  0  0  0  0
    0.8679  -17.8850   22.2634 H   0  0  0  0  0
   -0.7354  -18.0978   20.6011 H   0  0  0  0  0
    2.1007  -16.0025   21.2662 H   0  0  0  0  0
    0.2472  -14.9070   20.3660 H   0  0  0  0  0
    1.1856  -17.0071   18.5503 H   0  0  0  0  0
    1.4219  -14.7100   18.7295 H   0  0  0  0  0
    5.8096  -15.5597   21.9781 H   0  0  0  0  0
    5.3473  -17.5478   24.2381 H   0  0  0  0  0
    5.9776  -15.8621   24.0850 H   0  0  0  0  0
    7.8154  -18.1184   24.8432 H   0  0  0  0  0
    6.7615  -17.3532   26.0776 H   0  0  0  0  0
    7.8209  -15.2519   25.8367 H   0  0  0  0  0
    8.4996  -15.6600   24.2631 H   0  0  0  0  0
   10.2560  -16.8307   25.1655 H   0  0  0  0  0
    9.2573  -17.4795   26.5050 H   0  0  0  0  0
   10.1202  -15.9375   27.8898 H   0  0  0  0  0
    9.4856  -14.6416   26.8432 H   0  0  0  0  0
   11.6456  -14.1082   26.4511 H   0  0  0  0  0
   11.6988  -15.5908   25.4397 H   0  0  0  0  0
   12.6436  -16.8770   27.2112 H   0  0  0  0  0
   12.2403  -15.6614   28.4272 H   0  0  0  0  0
   13.7719  -14.0439   27.2624 H   0  0  0  0  0
   14.2488  -15.3671   26.1521 H   0  0  0  0  0
   14.4462  -16.2464   28.9011 H   0  0  0  0  0
   15.3756  -14.7354   28.6676 H   0  0  0  0  0
   17.0139  -15.9542   27.7081 H   0  0  0  0  0
   15.8934  -16.3553   26.3910 H   0  0  0  0  0
   14.9957  -18.2404   27.7992 H   0  0  0  0  0
   16.2687  -17.8801   29.0061 H   0  0  0  0  0
   18.0060  -18.4994   27.5118 H   0  0  0  0  0
   16.9141  -18.4566   26.0974 H   0  0  0  0  0
   16.9717  -20.7326   26.4490 H   0  0  0  0  0
   15.6189  -20.3062   27.5470 H   0  0  0  0  0
   17.5749  -19.9951   29.3095 H   0  0  0  0  0
   18.4620  -21.0709   28.2092 H   0  0  0  0  0
   17.3824  -22.8266   29.1314 H   0  0  0  0  0
   15.8555  -22.1795   28.4804 H   0  0  0  0  0
   15.3763  -20.9926   30.4880 H   0  0  0  0  0
   17.0458  -21.1477   31.0774 H   0  0  0  0  0
   16.6486  -23.6961   31.0512 H   0  0  0  0  0
   14.9208  -23.3106   30.8553 H   0  0  0  0  0
   16.1469  -21.7081   32.9719 H   0  0  0  0  0
   16.3373  -23.4559   33.2758 H   0  0  0  0  0
   14.1183  -23.7308   33.6868 H   0  0  0  0  0
   13.6511  -22.7299   32.2928 H   0  0  0  0  0
   14.6540  -20.7982   33.9011 H   0  0  0  0  0
   14.0887  -21.9609   35.1445 H   0  0  0  0  0
   11.8400  -21.9003   34.2686 H   0  0  0  0  0
   12.3551  -20.9603   32.8521 H   0  0  0  0  0
   13.2820  -19.5045   35.0949 H   0  0  0  0  0
   11.6261  -20.0254   35.5131 H   0  0  0  0  0
   10.8674  -18.3253   34.2414 H   0  0  0  0  0
   11.4884  -19.2081   32.8179 H   0  0  0  0  0
   13.7854  -18.1068   33.4768 H   0  0  0  0  0
   12.7660  -16.9552   34.3805 H   0  0  0  0  0
   12.5107  -17.6097   31.4085 H   0  0  0  0  0
   11.4930  -16.4601   32.3106 H   0  0  0  0  0
   13.2282  -16.1280   32.0873 H   0  0  0  0  0
  2  1  1  0  0  0
  1 21  1  0  0  0
  3  2  1  0  0  0
  2 33  1  0  0  0
  4  3  1  0  0  0
  3  7  1  0  0  0
  5  4  1  0  0  0
  4 20  1  0  0  0
  6  5  1  0  0  0
 19  6  1  0  0  0
  9  8  1  0  0  0
 10  9  1  0  0  0
 11 10  1  0  0  0
 12 11  1  0  0  0
 13 12  1  0  0  0
 14 13  1  0  0  0
 15 14  1  0  0  0
 16 15  1  0  0  0
 17 16  1  0  0  0
 18 17  1  0  0  0
 18 19  1  0  0  0
 21 22  1  0  0  0
 22 23  1  0  0  0
 22 31  1  0  0  0
 23 24  1  0  0  0
 24 25  1  0  0  0
 24 27  1  0  0  0
 25 26  1  0  0  0
 27 28  1  0  0  0
 27 29  1  0  0  0
 29 30  1  0  0  0
 29 31  1  0  0  0
 31 32  1  0  0  0
 33 34  1  0  0  0
 34 35  2  0  0  0
 34 36  1  0  0  0
 36 37  1  0  0  0
 37 38  1  0  0  0
 38 39  1  0  0  0
 39 40  1  0  0  0
 40 41  1  0  0  0
 41 42  1  0  0  0
 42 43  1  0  0  0
 43 44  1  0  0  0
 44 45  1  0  0  0
 45 46  1  0  0  0
 46 47  1  0  0  0
 47 48  1  0  0  0
 48 49  1  0  0  0
 49 50  1  0  0  0
 50 51  1  0  0  0
 51 52  1  0  0  0
 52 53  1  0  0  0
 53 54  1  0  0  0
 54 55  1  0  0  0
 55 56  1  0  0  0
 56 57  1  0  0  0
 57 58  1  0  0  0
 58 59  1  0  0  0
 59 60  1  0  0  0
  1 61  1  0  0  0
  1 62  1  0  0  0
  2 63  1  0  0  0
  3 64  1  0  0  0
  4 65  1  0  0  0
  5 66  1  0  0  0
  5 67  1  0  0  0
  6 68  1  0  0  0
  6 69  1  0  0  0
  7 70  1  0  0  0
  8 71  1  0  0  0
  8 72  1  0  0  0
  8 73  1  0  0  0
  9 74  1  0  0  0
  9 75  1  0  0  0
 10 76  1  0  0  0
 10 77  1  0  0  0
 11 78  1  0  0  0
 11 79  1  0  0  0
 12 80  1  0  0  0
 12 81  1  0  0  0
 13 82  1  0  0  0
 13 83  1  0  0  0
 14 84  1  0  0  0
 14 85  1  0  0  0
 15 86  1  0  0  0
 15 87  1  0  0  0
 16 88  1  0  0  0
 16 89  1  0  0  0
 17 90  1  0  0  0
 17 91  1  0  0  0
 18 92  1  0  0  0
 18 93  1  0  0  0
 19 94  1  0  0  0
 19 95  1  0  0  0
 20 96  1  0  0  0
 22 97  1  0  0  0
 24 98  1  0  0  0
 25 99  1  0  0  0
 25100  1  0  0  0
 26101  1  0  0  0
 27102  1  0  0  0
 28103  1  0  0  0
 29104  1  0  0  0
 30105  1  0  0  0
 31106  1  0  0  0
 32107  1  0  0  0
 33108  1  0  0  0
 36109  1  0  0  0
 36110  1  0  0  0
 37111  1  0  0  0
 37112  1  0  0  0
 38113  1  0  0  0
 38114  1  0  0  0
 39115  1  0  0  0
 39116  1  0  0  0
 40117  1  0  0  0
 40118  1  0  0  0
 41119  1  0  0  0
 41120  1  0  0  0
 42121  1  0  0  0
 42122  1  0  0  0
 43123  1  0  0  0
 43124  1  0  0  0
 44125  1  0  0  0
 44126  1  0  0  0
 45127  1  0  0  0
 45128  1  0  0  0
 46129  1  0  0  0
 46130  1  0  0  0
 47131  1  0  0  0
 47132  1  0  0  0
 48133  1  0  0  0
 48134  1  0  0  0
 49135  1  0  0  0
 49136  1  0  0  0
 50137  1  0  0  0
 50138  1  0  0  0
 51139  1  0  0  0
 51140  1  0  0  0
 52141  1  0  0  0
 52142  1  0  0  0
 53143  1  0  0  0
 53144  1  0  0  0
 54145  1  0  0  0
 54146  1  0  0  0
 55147  1  0  0  0
 55148  1  0  0  0
 56149  1  0  0  0
 56150  1  0  0  0
 57151  1  0  0  0
 57152  1  0  0  0
 58153  1  0  0  0
 58154  1  0  0  0
 59155  1  0  0  0
 59156  1  0  0  0
 60157  1  0  0  0
 60158  1  0  0  0
 60159  1  0  0  0
M  END
$$$$
