2zyb_ligand
  -I-interpret- 

 42 45  0  0  0  0  0  0  0  0999 V2000
   19.1860   35.3390    8.7970 C   0  0  0  0  0
   19.0140   36.2140    7.5540 C   0  0  0  0  0
   17.9860   35.9450    6.6540 C   0  0  0  0  0
   17.8040   36.7030    5.4940 C   0  0  0  0  0
   18.7660   37.6420    5.1120 C   0  0  0  0  0
   20.0060   37.2610    7.2400 C   0  0  0  0  0
   19.8370   37.9920    5.9710 C   0  0  0  0  0
   20.8120   39.0920    5.6440 C   0  0  0  0  0
   21.0820   37.5430    8.0460 N   0  0  0  0  0
   22.3750   37.0680    7.8750 C   0  0  0  0  0
   23.5120   37.6410    8.6450 C   0  0  0  0  0
   23.6050   38.6800    9.6410 C   0  0  0  0  0
   24.8940   38.7240   10.0370 N   0  0  0  0  0
   25.5680   37.7770    9.3500 C   0  0  0  0  0
   24.7240   37.0990    8.5400 N   0  0  0  0  0
   24.9360   36.0710    7.6760 C   0  0  0  0  0
   23.8800   35.5540    6.9260 C   0  0  0  0  0
   22.6360   36.0180    7.0820 N   0  0  0  0  0
   26.2850   35.4400    7.5310 C   0  0  0  0  0
   27.2140   35.5330    8.5440 C   0  0  0  0  0
   28.4350   34.8690    8.4430 C   0  0  0  0  0
   28.7650   34.2090    7.2500 C   0  0  0  0  0
   27.8450   34.1120    6.2430 C   0  0  0  0  0
   26.5860   34.7010    6.3960 C   0  0  0  0  0
   18.2818   35.3899    9.4035 H   0  0  0  0  0
   19.3629   34.3076    8.4921 H   0  0  0  0  0
   20.0354   35.6983    9.3780 H   0  0  0  0  0
   17.3041   35.1200    6.8600 H   0  0  0  0  0
   16.9103   36.5616    4.8862 H   0  0  0  0  0
   18.6908   38.1150    4.1328 H   0  0  0  0  0
   21.3225   38.8575    4.7099 H   0  0  0  0  0
   20.2734   40.0337    5.5387 H   0  0  0  0  0
   21.5434   39.1782    6.4475 H   0  0  0  0  0
   20.9156   38.1576    8.8429 H   0  0  0  0  0
   22.7913   39.3081   10.0036 H   0  0  0  0  0
   26.6378   37.5866    9.4360 H   0  0  0  0  0
   24.0715   34.7611    6.2030 H   0  0  0  0  0
   26.9928   36.1292    9.4293 H   0  0  0  0  0
   29.1281   34.8625    9.2843 H   0  0  0  0  0
   29.7562   33.7729    7.1255 H   0  0  0  0  0
   28.0919   33.5781    5.3254 H   0  0  0  0  0
   25.8342   34.5784    5.6164 H   0  0  0  0  0
  1  2  1  0  0  0
  2  3  4  0  0  0
  2  6  4  0  0  0
  3  4  4  0  0  0
  4  5  4  0  0  0
  5  7  4  0  0  0
  6  7  4  0  0  0
  6  9  1  0  0  0
  7  8  1  0  0  0
  9 10  1  0  0  0
 10 11  4  0  0  0
 10 18  4  0  0  0
 11 12  4  0  0  0
 11 15  4  0  0  0
 12 13  4  0  0  0
 13 14  4  0  0  0
 14 15  4  0  0  0
 15 16  4  0  0  0
 16 17  4  0  0  0
 16 19  1  0  0  0
 17 18  4  0  0  0
 19 20  4  0  0  0
 19 24  4  0  0  0
 20 21  4  0  0  0
 21 22  4  0  0  0
 22 23  4  0  0  0
 23 24  4  0  0  0
  1 25  1  0  0  0
  1 26  1  0  0  0
  1 27  1  0  0  0
  3 28  1  0  0  0
  4 29  1  0  0  0
  5 30  1  0  0  0
  8 31  1  0  0  0
  8 32  1  0  0  0
  8 33  1  0  0  0
  9 34  1  0  0  0
 12 35  1  0  0  0
 14 36  1  0  0  0
 17 37  1  0  0  0
 20 38  1  0  0  0
 21 39  1  0  0  0
 22 40  1  0  0  0
 23 41  1  0  0  0
 24 42  1  0  0  0
M  END
$$$$
