6qav_ligand
  -I-interpret- 

 65 69  0  0  0  0  0  0  0  0999 V2000
 -102.2450   -2.1360  -58.2030 N   0  0  0  0  0
  -97.3920   -0.4750  -57.6490 C   0  0  0  0  0
 -106.6080   -0.9130  -58.4580 N   0  0  0  0  0
  -96.7440   -2.5260  -57.5340 C   0  0  0  0  0
 -105.7040    5.1160  -56.3430 N   0  3  0  0  0
 -101.2220   -1.4890  -55.4140 C   0  0  0  0  0
 -101.9950   -0.5410  -56.3180 C   0  0  0  0  0
  -99.6100   -2.9330  -57.2170 O   0  0  0  0  0
  -99.0970   -2.0350  -56.5180 C   0  0  0  0  0
  -97.6780   -1.6220  -56.6840 C   0  0  0  0  0
  -96.1130   -1.2560  -58.1250 C   0  0  0  0  0
  -99.7810   -1.3600  -55.5870 N   0  0  0  0  0
 -101.8430   -0.7920  -57.8250 C   0  0  0  0  0
 -103.5250   -2.5070  -58.3010 C   0  0  0  0  0
 -103.8590   -3.8300  -58.5630 C   0  0  0  0  0
 -102.8060   -4.8820  -58.8650 C   0  0  0  0  0
 -102.3030   -5.8130  -57.8100 C   0  0  0  0  0
 -103.1450   -6.3390  -58.8950 C   0  0  0  0  0
 -105.1980   -4.0780  -58.7400 C   0  0  0  0  0
 -106.1480   -3.1440  -58.6890 N   0  0  0  0  0
 -105.7120   -1.9160  -58.4150 C   0  0  0  0  0
 -104.4490   -1.5620  -58.2170 N   0  0  0  0  0
 -106.5680    0.4470  -58.1370 C   0  0  0  0  0
 -107.5880    1.2530  -58.6180 C   0  0  0  0  0
 -107.5450    2.6190  -58.4150 C   0  0  0  0  0
 -106.5290    3.2000  -57.6690 C   0  0  0  0  0
 -106.4460    4.7000  -57.5400 C   0  0  0  0  0
 -105.5140    6.5950  -56.3400 C   0  0  0  0  0
 -104.4110    4.4310  -56.2820 C   0  0  0  0  0
 -104.6010    2.9410  -56.0680 C   0  0  0  0  0
 -105.5700    2.3750  -57.0660 C   0  0  0  0  0
 -105.5850    1.0040  -57.3300 C   0  0  0  0  0
 -101.5199   -2.8252  -58.4019 H   0  0  0  0  0
  -97.3217    0.5530  -57.2935 H   0  0  0  0  0
  -98.1446   -0.1423  -58.3638 H   0  0  0  0  0
 -107.5206   -1.2119  -58.8017 H   0  0  0  0  0
  -97.1553   -3.2987  -58.1835 H   0  0  0  0  0
  -96.1249   -3.2888  -57.0618 H   0  0  0  0  0
 -106.2445    4.8582  -55.5173 H   0  0  0  0  0
 -101.5049   -2.5098  -55.6711 H   0  0  0  0  0
 -101.4631   -1.2441  -54.3796 H   0  0  0  0  0
 -101.6014    0.4577  -56.1288 H   0  0  0  0  0
 -103.0504   -0.6821  -56.0851 H   0  0  0  0  0
  -97.5121   -1.5135  -55.6122 H   0  0  0  0  0
  -95.1123   -0.9337  -57.8373 H   0  0  0  0  0
  -95.7794   -1.2187  -59.1620 H   0  0  0  0  0
  -99.2710   -0.7269  -54.9710 H   0  0  0  0  0
 -102.4849   -0.0861  -58.3520 H   0  0  0  0  0
 -100.7916   -0.6678  -58.0843 H   0  0  0  0  0
 -102.3496   -4.1745  -59.5573 H   0  0  0  0  0
 -101.7291   -5.9805  -56.8986 H   0  0  0  0  0
 -103.6491   -7.1789  -59.3730 H   0  0  0  0  0
 -105.5042   -5.1058  -58.9350 H   0  0  0  0  0
 -108.4248    0.8087  -59.1569 H   0  0  0  0  0
 -108.3212    3.2503  -58.8475 H   0  0  0  0  0
 -105.9217    5.0862  -58.4141 H   0  0  0  0  0
 -107.4610    5.0894  -57.4611 H   0  0  0  0  0
 -104.9536    6.8898  -57.2272 H   0  0  0  0  0
 -106.4876    7.0851  -56.3442 H   0  0  0  0  0
 -104.9624    6.8874  -55.4465 H   0  0  0  0  0
 -103.8375    4.8358  -55.4481 H   0  0  0  0  0
 -103.8856    4.5868  -57.2242 H   0  0  0  0  0
 -104.9961    2.7787  -55.0652 H   0  0  0  0  0
 -103.6391    2.4437  -56.1927 H   0  0  0  0  0
 -104.8162    0.3636  -56.8976 H   0  0  0  0  0
  1 13  1  0  0  0
 14  1  1  0  0  0
 10  2  1  0  0  0
  2 11  1  0  0  0
  3 21  1  0  0  0
 23  3  1  0  0  0
 10  4  1  0  0  0
  4 11  1  0  0  0
 27  5  1  0  0  0
  5 28  1  0  0  0
  5 29  1  0  0  0
  7  6  1  0  0  0
  6 12  1  0  0  0
 13  7  1  0  0  0
  9  8  2  0  0  0
  9 10  1  0  0  0
 12  9  1  0  0  0
 14 15  4  0  0  0
 22 14  4  0  0  0
 15 16  1  0  0  0
 19 15  4  0  0  0
 16 17  1  0  0  0
 16 18  1  0  0  0
 18 17  2  0  0  0
 20 19  4  0  0  0
 21 20  4  0  0  0
 21 22  4  0  0  0
 24 23  4  0  0  0
 23 32  4  0  0  0
 25 24  4  0  0  0
 26 25  4  0  0  0
 26 27  1  0  0  0
 26 31  4  0  0  0
 29 30  1  0  0  0
 30 31  1  0  0  0
 31 32  4  0  0  0
  1 33  1  0  0  0
  2 34  1  0  0  0
  2 35  1  0  0  0
  3 36  1  0  0  0
  4 37  1  0  0  0
  4 38  1  0  0  0
  5 39  1  0  0  0
  6 40  1  0  0  0
  6 41  1  0  0  0
  7 42  1  0  0  0
  7 43  1  0  0  0
 10 44  1  0  0  0
 11 45  1  0  0  0
 11 46  1  0  0  0
 12 47  1  0  0  0
 13 48  1  0  0  0
 13 49  1  0  0  0
 16 50  1  0  0  0
 17 51  1  0  0  0
 18 52  1  0  0  0
 19 53  1  0  0  0
 24 54  1  0  0  0
 25 55  1  0  0  0
 27 56  1  0  0  0
 27 57  1  0  0  0
 28 58  1  0  0  0
 28 59  1  0  0  0
 28 60  1  0  0  0
 29 61  1  0  0  0
 29 62  1  0  0  0
 30 63  1  0  0  0
 30 64  1  0  0  0
 32 65  1  0  0  0
M  END
$$$$
