3mpt_ligand
  -I-interpret- 

 38 40  0  0  0  0  0  0  0  0999 V2000
   40.6540   29.2610   33.2960 C   0  0  0  0  0
   40.0080   29.8400   32.0830 C   0  0  0  0  0
   38.6270   29.9010   32.0040 C   0  0  0  0  0
   38.0200   30.4360   30.8920 C   0  0  0  0  0
   38.7970   30.8950   29.8540 C   0  0  0  0  0
   40.1770   30.8330   29.9130 C   0  0  0  0  0
   40.7810   30.3050   31.0370 C   0  0  0  0  0
   42.2630   30.2400   31.1380 C   0  0  0  0  0
   42.8540   29.2080   30.8740 O   0  0  0  0  0
   42.9530   31.4200   31.6040 C   0  0  0  0  0
   42.3190   32.5620   32.0190 C   0  0  0  0  0
   43.2650   33.4670   32.3960 N   0  0  0  0  0
   44.5190   32.9630   32.2500 C   0  0  0  0  0
   44.3440   31.6830   31.7500 C   0  0  0  0  0
   45.6790   33.7360   32.5930 C   0  0  0  0  0
   45.6320   34.9020   32.9760 O   0  0  0  0  0
   46.8520   33.0540   32.4920 N   0  0  0  0  0
   48.0690   33.7370   32.8450 C   0  0  0  0  0
   48.8530   33.9690   31.6430 C   0  0  0  0  0
   48.7230   34.8710   30.6120 C   0  0  0  0  0
   49.7860   34.5940   29.7220 C   0  0  0  0  0
   50.4790   33.5360   30.2740 C   0  0  0  0  0
   49.9170   33.1410   31.4540 O   0  0  0  0  0
   40.3616   29.8389   34.1727 H   0  0  0  0  0
   40.3336   28.2263   33.4179 H   0  0  0  0  0
   41.7373   29.2960   33.1809 H   0  0  0  0  0
   38.0188   29.5237   32.8261 H   0  0  0  0  0
   36.9332   30.4957   30.8337 H   0  0  0  0  0
   38.3168   31.3147   28.9701 H   0  0  0  0  0
   40.7812   31.1967   29.0819 H   0  0  0  0  0
   41.2407   32.7195   32.0433 H   0  0  0  0  0
   45.1461   30.9863   31.5065 H   0  0  0  0  0
   46.8686   32.0848   32.1747 H   0  0  0  0  0
   48.6418   33.1265   33.5431 H   0  0  0  0  0
   47.8299   34.6907   33.3155 H   0  0  0  0  0
   47.9584   35.6402   30.5038 H   0  0  0  0  0
   50.0122   35.1110   28.7894 H   0  0  0  0  0
   51.3599   33.0758   29.8265 H   0  0  0  0  0
  1  2  1  0  0  0
  2  3  4  0  0  0
  2  7  4  0  0  0
  3  4  4  0  0  0
  4  5  4  0  0  0
  5  6  4  0  0  0
  6  7  4  0  0  0
  7  8  1  0  0  0
  8  9  2  0  0  0
  8 10  1  0  0  0
 10 11  4  0  0  0
 10 14  4  0  0  0
 11 12  4  0  0  0
 12 13  4  0  0  0
 13 14  4  0  0  0
 13 15  1  0  0  0
 15 16  2  0  0  0
 15 17  1  0  0  0
 17 18  1  0  0  0
 18 19  1  0  0  0
 19 20  4  0  0  0
 19 23  4  0  0  0
 20 21  4  0  0  0
 21 22  4  0  0  0
 22 23  4  0  0  0
  1 24  1  0  0  0
  1 25  1  0  0  0
  1 26  1  0  0  0
  3 27  1  0  0  0
  4 28  1  0  0  0
  5 29  1  0  0  0
  6 30  1  0  0  0
 11 31  1  0  0  0
 14 32  1  0  0  0
 17 33  1  0  0  0
 18 34  1  0  0  0
 18 35  1  0  0  0
 20 36  1  0  0  0
 21 37  1  0  0  0
 22 38  1  0  0  0
M  END
$$$$
