3v2q_ligand
  -I-interpret- 

 50 49  0  0  0  0  0  0  0  0999 V2000
    0.3710   -0.4450   11.3500 C   0  0  0  0  0
   -0.4450   -1.2760   10.9130 O   0  0  0  0  0
    0.0890    0.2680   12.3100 O   0  0  0  0  0
    1.7320   -0.3200   10.6840 C   0  0  0  0  0
    1.7250   -0.4120    9.1670 C   0  0  0  0  0
    3.0830   -0.8010    8.5930 C   0  0  0  0  0
    3.7240    0.3080    7.7540 C   0  0  0  0  0
    4.1440   -0.1490    6.3620 C   0  0  0  0  0
    5.4870    0.4710    5.9410 C   0  0  0  0  0
    5.8960    0.0050    4.5310 C   0  0  0  0  0
    7.2810    0.4880    4.1390 C   0  0  0  0  0
    7.7280    0.0590    2.7540 C   0  0  0  0  0
    8.9860    0.7660    2.2690 C   0  0  0  0  0
    9.1750    0.5270    0.7660 C   0  0  0  0  0
   10.6410    0.2370    0.4620 C   0  0  0  0  0
   11.1530    1.0260   -0.7480 C   0  0  0  0  0
   12.3060    0.2970   -1.4550 C   0  0  0  0  0
   12.8460    1.1130   -2.6340 C   0  0  0  0  0
   -0.0586   -1.7404   10.1669 H   0  0  0  0  0
    2.3331   -1.1550   11.0441 H   0  0  0  0  0
    2.1117    0.6706   10.9344 H   0  0  0  0  0
    1.4654    0.5710    8.7739 H   0  0  0  0  0
    1.0088   -1.1829    8.8824 H   0  0  0  0  0
    2.9318   -1.6620    7.9419 H   0  0  0  0  0
    3.7487   -1.0075    9.4310 H   0  0  0  0  0
    4.6227    0.6362    8.2763 H   0  0  0  0  0
    2.9812    1.0961    7.6300 H   0  0  0  0  0
    3.3811    0.1690    5.6514 H   0  0  0  0  0
    4.2554   -1.2332    6.3755 H   0  0  0  0  0
    6.2537    0.1552    6.6485 H   0  0  0  0  0
    5.3827    1.5560    5.9329 H   0  0  0  0  0
    5.1814    0.4184    3.8193 H   0  0  0  0  0
    5.9057   -1.0849    4.5263 H   0  0  0  0  0
    7.9836    0.0533    4.8500 H   0  0  0  0  0
    7.2516    1.5776    4.1416 H   0  0  0  0  0
    6.9255    0.3106    2.0606 H   0  0  0  0  0
    7.9509   -1.0070    2.7997 H   0  0  0  0  0
    9.8487    0.3720    2.8062 H   0  0  0  0  0
    8.8897    1.8361    2.4528 H   0  0  0  0  0
    8.8660    1.4185    0.2203 H   0  0  0  0  0
    8.5705   -0.3271    0.4607 H   0  0  0  0  0
   10.7353   -0.8253    0.2368 H   0  0  0  0  0
   11.2304    0.5309    1.3305 H   0  0  0  0  0
   11.5198    1.9911   -0.3985 H   0  0  0  0  0
   10.3324    1.1392   -1.4565 H   0  0  0  0  0
   11.9323   -0.6538   -1.8351 H   0  0  0  0  0
   13.1135    0.1501   -0.7377 H   0  0  0  0  0
   12.0466    1.2782   -3.3563 H   0  0  0  0  0
   13.2141    2.0728   -2.2716 H   0  0  0  0  0
   13.6602    0.5664   -3.1099 H   0  0  0  0  0
  1  2  1  0  0  0
  1  3  2  0  0  0
  1  4  1  0  0  0
  4  5  1  0  0  0
  5  6  1  0  0  0
  6  7  1  0  0  0
  7  8  1  0  0  0
  8  9  1  0  0  0
  9 10  1  0  0  0
 10 11  1  0  0  0
 11 12  1  0  0  0
 12 13  1  0  0  0
 13 14  1  0  0  0
 14 15  1  0  0  0
 15 16  1  0  0  0
 16 17  1  0  0  0
 17 18  1  0  0  0
  2 19  1  0  0  0
  4 20  1  0  0  0
  4 21  1  0  0  0
  5 22  1  0  0  0
  5 23  1  0  0  0
  6 24  1  0  0  0
  6 25  1  0  0  0
  7 26  1  0  0  0
  7 27  1  0  0  0
  8 28  1  0  0  0
  8 29  1  0  0  0
  9 30  1  0  0  0
  9 31  1  0  0  0
 10 32  1  0  0  0
 10 33  1  0  0  0
 11 34  1  0  0  0
 11 35  1  0  0  0
 12 36  1  0  0  0
 12 37  1  0  0  0
 13 38  1  0  0  0
 13 39  1  0  0  0
 14 40  1  0  0  0
 14 41  1  0  0  0
 15 42  1  0  0  0
 15 43  1  0  0  0
 16 44  1  0  0  0
 16 45  1  0  0  0
 17 46  1  0  0  0
 17 47  1  0  0  0
 18 48  1  0  0  0
 18 49  1  0  0  0
 18 50  1  0  0  0
M  END
$$$$
