6ayr_ligand
  -I-interpret- 

 48 50  0  0  0  0  0  0  0  0999 V2000
   67.9330   18.6050   38.2600 C   0  0  0  0  0
   65.2120   18.6630   38.8030 C   0  0  0  0  0
   66.0260   17.4520   38.9330 C   0  0  0  0  0
   63.8900   17.0290   39.5090 C   0  0  0  0  0
   67.6910   13.4180   42.8010 O   0  0  0  0  0
   67.8410   14.7700   42.3660 C   0  0  0  0  0
   66.7450   15.5910   42.9970 C   0  0  0  0  0
   66.9180   17.1030   42.9110 C   0  0  0  0  0
   68.0890   17.6760   44.0900 S   0  0  0  0  0
   67.1200   17.7520   45.5660 C   0  0  0  0  0
   67.9730   18.1420   46.7600 C   0  0  0  0  0
   67.0840   18.4320   47.9650 C   0  0  0  0  0
   67.9390   18.7950   49.1590 C   0  0  0  0  0
   65.5220   15.1410   42.1990 C   0  0  0  0  0
   66.0480   14.5510   40.9520 N   0  3  0  0  0
   67.5210   14.7880   40.8990 C   0  0  0  0  0
   65.3550   14.9200   39.7210 C   0  0  0  0  0
   63.9530   18.3380   39.1440 N   0  0  0  0  0
   65.9300   19.8780   38.3220 C   0  0  0  0  0
   65.3050   21.0600   38.1370 N   0  0  0  0  0
   67.3580   17.4570   38.6700 N   0  0  0  0  0
   65.1300   16.3880   39.4230 C   0  0  0  0  0
   67.2520   19.7660   38.0840 N   0  0  0  0  0
   69.0042   18.6009   38.0586 H   0  0  0  0  0
   62.9742   16.5344   39.8327 H   0  0  0  0  0
   68.3814   12.8784   42.4089 H   0  0  0  0  0
   68.8367   15.1418   42.6079 H   0  0  0  0  0
   66.7018   15.4259   44.0736 H   0  0  0  0  0
   65.9575   17.5756   43.1162 H   0  0  0  0  0
   67.2761   17.3563   41.9131 H   0  0  0  0  0
   66.6891   16.7681   45.7515 H   0  0  0  0  0
   66.3409   18.5028   45.4337 H   0  0  0  0  0
   68.5461   19.0360   46.5142 H   0  0  0  0  0
   68.6476   17.3207   47.0019 H   0  0  0  0  0
   66.4958   17.5449   48.2000 H   0  0  0  0  0
   66.4208   19.2648   47.7308 H   0  0  0  0  0
   68.6046   17.9643   49.3937 H   0  0  0  0  0
   68.5298   19.6807   48.9254 H   0  0  0  0  0
   67.2966   19.0006   50.0152 H   0  0  0  0  0
   64.8554   15.9779   41.9906 H   0  0  0  0  0
   64.9279   14.4187   42.7588 H   0  0  0  0  0
   65.8558   13.5502   40.9940 H   0  0  0  0  0
   68.0737   14.0573   40.3085 H   0  0  0  0  0
   67.8115   15.7048   40.3859 H   0  0  0  0  0
   64.3560   14.4955   39.8208 H   0  0  0  0  0
   65.9985   14.5637   38.9166 H   0  0  0  0  0
   64.3065   21.1443   38.3277 H   0  0  0  0  0
   65.8312   21.8689   37.8065 H   0  0  0  0  0
 21  1  4  0  0  0
  1 23  4  0  0  0
  3  2  4  0  0  0
 18  2  4  0  0  0
  2 19  4  0  0  0
  3 21  4  0  0  0
 22  3  4  0  0  0
  4 18  4  0  0  0
 22  4  4  0  0  0
  6  5  1  0  0  0
  6  7  1  0  0  0
 16  6  1  0  0  0
  7  8  1  0  0  0
 14  7  1  0  0  0
  8  9  1  0  0  0
  9 10  1  0  0  0
 10 11  1  0  0  0
 11 12  1  0  0  0
 12 13  1  0  0  0
 15 14  1  0  0  0
 15 16  1  0  0  0
 17 15  1  0  0  0
 17 22  1  0  0  0
 19 20  1  0  0  0
 19 23  4  0  0  0
  1 24  1  0  0  0
  4 25  1  0  0  0
  5 26  1  0  0  0
  6 27  1  0  0  0
  7 28  1  0  0  0
  8 29  1  0  0  0
  8 30  1  0  0  0
 10 31  1  0  0  0
 10 32  1  0  0  0
 11 33  1  0  0  0
 11 34  1  0  0  0
 12 35  1  0  0  0
 12 36  1  0  0  0
 13 37  1  0  0  0
 13 38  1  0  0  0
 13 39  1  0  0  0
 14 40  1  0  0  0
 14 41  1  0  0  0
 15 42  1  0  0  0
 16 43  1  0  0  0
 16 44  1  0  0  0
 17 45  1  0  0  0
 17 46  1  0  0  0
 20 47  1  0  0  0
 20 48  1  0  0  0
M  END
$$$$
