3gbe_ligand
  -I-interpret- 

 25 25  0  0  0  0  0  0  0  0999 V2000
   14.7580   37.5350   43.9990 C   0  0  0  0  0
   13.6700   38.2030   44.8930 C   0  0  0  0  0
   12.9730   37.2300   45.6300 O   0  0  0  0  0
   12.6850   38.9840   43.9780 C   0  0  0  0  0
   11.6180   39.5710   44.7120 O   0  0  0  0  0
   13.4910   40.1120   43.2790 C   0  0  0  0  0
   12.6110   40.8870   42.4100 O   0  0  0  0  0
   14.6860   39.4810   42.4710 C   0  0  0  0  0
   15.5260   38.5940   43.2680 N   0  3  0  0  0
   15.6330   40.5800   41.8760 C   0  0  0  0  0
   16.2290   41.2760   43.0650 O   0  0  0  0  0
   14.2786   36.8723   43.2786 H   0  0  0  0  0
   15.4397   36.9603   44.6259 H   0  0  0  0  0
   14.1461   38.8856   45.5969 H   0  0  0  0  0
   13.5889   36.7534   46.1914 H   0  0  0  0  0
   12.2457   38.2882   43.2632 H   0  0  0  0  0
   11.1133   38.8806   45.1482 H   0  0  0  0  0
   13.9034   40.7893   44.0268 H   0  0  0  0  0
   11.8946   41.2577   42.9305 H   0  0  0  0  0
   14.1979   38.9086   41.6822 H   0  0  0  0  0
   16.1645   38.1215   42.6281 H   0  0  0  0  0
   15.9977   39.1671   43.9677 H   0  0  0  0  0
   15.0889   41.2745   41.2359 H   0  0  0  0  0
   16.4027   40.1441   41.2391 H   0  0  0  0  0
   16.8241   41.9669   42.7648 H   0  0  0  0  0
  1  2  1  0  0  0
  1  9  1  0  0  0
  2  3  1  0  0  0
  2  4  1  0  0  0
  4  5  1  0  0  0
  4  6  1  0  0  0
  6  7  1  0  0  0
  6  8  1  0  0  0
  8  9  1  0  0  0
  8 10  1  0  0  0
 10 11  1  0  0  0
  1 12  1  0  0  0
  1 13  1  0  0  0
  2 14  1  0  0  0
  3 15  1  0  0  0
  4 16  1  0  0  0
  5 17  1  0  0  0
  6 18  1  0  0  0
  7 19  1  0  0  0
  8 20  1  0  0  0
  9 21  1  0  0  0
  9 22  1  0  0  0
 10 23  1  0  0  0
 10 24  1  0  0  0
 11 25  1  0  0  0
M  END
$$$$
