1oxq_ligand
  -I-interpret- 

 63 63  0  0  0  0  0  0  0  0999 V2000
   22.2690   48.5480   -7.6420 N   0  3  0  0  0
   22.6620   48.1820   -6.2580 C   0  0  0  0  0
   21.9960   46.8720   -5.8630 C   0  0  0  0  0
   20.9800   46.4800   -6.4400 O   0  0  0  0  0
   22.2940   49.2960   -5.2770 C   0  0  0  0  0
   22.5740   46.2140   -4.8660 N   0  0  0  0  0
   22.1160   44.9170   -4.4070 C   0  0  0  0  0
   22.2050   44.9340   -2.8710 C   0  0  0  0  0
   23.0470   45.6550   -2.3290 O   0  0  0  0  0
   22.9730   43.7940   -5.1050 C   0  0  0  0  0
   22.7520   43.7160   -6.6300 C   0  0  0  0  0
   24.4340   43.8910   -4.7180 C   0  0  0  0  0
   21.3290   44.2180   -2.1560 N   0  0  0  0  0
   21.4480   44.1390   -0.6910 C   0  0  0  0  0
   22.7890   43.6040   -0.2330 C   0  0  0  0  0
   23.4190   42.8220   -0.9470 O   0  0  0  0  0
   20.3310   43.1710   -0.2980 C   0  0  0  0  0
   19.3260   43.3490   -1.3570 C   0  0  0  0  0
   20.1380   43.4900   -2.6330 C   0  0  0  0  0
   23.2330   44.0670    0.9340 N   0  0  0  0  0
   24.3870   43.4850    1.6090 C   0  0  0  0  0
   23.8790   42.2230    2.2870 C   0  0  0  0  0
   23.1160   42.3070    3.2530 O   0  0  0  0  0
   24.9930   44.4510    2.6690 C   0  0  0  0  0
   25.3380   45.8130    2.0580 C   0  0  0  0  0
   26.2200   43.8240    3.3300 C   0  0  0  0  0
   25.5220   46.9150    3.0920 C   0  0  0  0  0
   24.2368   41.0918    1.8628 O   0  0  0  0  0
   22.7183   49.4264   -7.9007 H   0  0  0  0  0
   22.5637   47.8120   -8.2837 H   0  0  0  0  0
   21.2559   48.6562   -7.6891 H   0  0  0  0  0
   23.7435   48.0511   -6.2222 H   0  0  0  0  0
   21.2131   49.4365   -5.2777 H   0  0  0  0  0
   22.6253   49.0207   -4.2757 H   0  0  0  0  0
   22.7823   50.2219   -5.5809 H   0  0  0  0  0
   23.3763   46.6396   -4.4018 H   0  0  0  0  0
   21.0823   44.6998   -4.6760 H   0  0  0  0  0
   22.6084   42.8400   -4.7242 H   0  0  0  0  0
   21.7026   43.5027   -6.8333 H   0  0  0  0  0
   23.0252   44.6682   -7.0846 H   0  0  0  0  0
   23.3726   42.9221   -7.0456 H   0  0  0  0  0
   24.8249   44.8626   -5.0203 H   0  0  0  0  0
   24.5307   43.7790   -3.6381 H   0  0  0  0  0
   24.9942   43.1010   -5.2181 H   0  0  0  0  0
   21.3697   45.1239   -0.2305 H   0  0  0  0  0
   19.9306   43.3792    0.6942 H   0  0  0  0  0
   20.6801   42.1410   -0.2253 H   0  0  0  0  0
   18.6312   42.5105   -1.4057 H   0  0  0  0  0
   18.6933   44.2182   -1.1775 H   0  0  0  0  0
   20.3738   42.5356   -3.1037 H   0  0  0  0  0
   19.6048   44.0077   -3.4304 H   0  0  0  0  0
   22.7507   44.8534    1.3693 H   0  0  0  0  0
   25.1822   43.2806    0.8921 H   0  0  0  0  0
   24.2364   44.6189    3.4354 H   0  0  0  0  0
   24.5069   46.1031    1.4152 H   0  0  0  0  0
   26.2828   45.7028    1.5258 H   0  0  0  0  0
   25.9312   42.8953    3.8222 H   0  0  0  0  0
   26.9734   43.6151    2.5705 H   0  0  0  0  0
   26.6274   44.5159    4.0671 H   0  0  0  0  0
   24.5996   47.0363    3.6599 H   0  0  0  0  0
   26.3336   46.6455    3.7679 H   0  0  0  0  0
   25.7641   47.8495    2.5859 H   0  0  0  0  0
   24.8255   41.2041    1.1128 H   0  0  0  0  0
  2  1  1  0  0  0
  2  5  1  0  0  0
  3  2  1  0  0  0
  3  4  2  0  0  0
  7  6  1  0  0  0
  7 10  1  0  0  0
  8  7  1  0  0  0
  8  9  2  0  0  0
 10 12  1  0  0  0
 10 11  1  0  0  0
  6  3  1  0  0  0
 15 14  1  0  0  0
 14 17  1  0  0  0
 14 13  1  0  0  0
 13 19  1  0  0  0
 19 18  1  0  0  0
 17 18  1  0  0  0
 15 16  2  0  0  0
 13  8  1  0  0  0
 20 21  1  0  0  0
 21 24  1  0  0  0
 21 22  1  0  0  0
 22 23  2  0  0  0
 24 26  1  0  0  0
 24 25  1  0  0  0
 25 27  1  0  0  0
 15 20  1  0  0  0
 22 28  1  0  0  0
  1 29  1  0  0  0
  1 30  1  0  0  0
  1 31  1  0  0  0
  2 32  1  0  0  0
  5 33  1  0  0  0
  5 34  1  0  0  0
  5 35  1  0  0  0
  6 36  1  0  0  0
  7 37  1  0  0  0
 10 38  1  0  0  0
 11 39  1  0  0  0
 11 40  1  0  0  0
 11 41  1  0  0  0
 12 42  1  0  0  0
 12 43  1  0  0  0
 12 44  1  0  0  0
 14 45  1  0  0  0
 17 46  1  0  0  0
 17 47  1  0  0  0
 18 48  1  0  0  0
 18 49  1  0  0  0
 19 50  1  0  0  0
 19 51  1  0  0  0
 20 52  1  0  0  0
 21 53  1  0  0  0
 24 54  1  0  0  0
 25 55  1  0  0  0
 25 56  1  0  0  0
 26 57  1  0  0  0
 26 58  1  0  0  0
 26 59  1  0  0  0
 27 60  1  0  0  0
 27 61  1  0  0  0
 27 62  1  0  0  0
 28 63  1  0  0  0
M  END
$$$$
