6f5u_ligand
  -I-interpret- 

 60 62  0  0  0  0  0  0  0  0999 V2000
  -45.5760   11.5180   -4.5060 C   0  0  0  0  0
  -42.0370   13.5040   -5.7650 C   0  0  0  0  0
  -43.3320   14.1640   -5.4680 C   0  0  0  0  0
  -44.3660   13.6250   -8.5630 C   0  0  0  0  0
  -44.5610   15.1530   -8.6980 C   0  0  0  0  0
  -43.5520   15.9770   -8.5420 C   0  0  0  0  0
  -43.7820   17.4870   -8.6780 C   0  0  0  0  0
  -44.9910   17.9580   -8.9500 C   0  0  0  0  0
  -46.1610   17.0000   -9.1270 C   0  0  0  0  0
  -45.9620   15.7020   -9.0110 C   0  0  0  0  0
  -46.5390   12.5120   -8.9270 C   0  0  0  0  0
  -44.8040   12.4550   -5.5460 C   0  0  0  0  0
  -47.6920   11.9830   -8.5650 C   0  0  0  0  0
  -48.6070   11.4080   -9.6490 C   0  0  0  0  0
  -48.2630   11.4340  -10.9240 C   0  0  0  0  0
  -46.9270   12.0510  -11.3370 C   0  0  0  0  0
  -46.1370   12.5490  -10.4090 C   0  0  0  0  0
  -45.8870   13.1900   -6.4910 C   0  0  0  0  0
  -47.6280   11.0540   -3.4020 C   0  0  0  0  0
  -48.5310    9.8940   -3.9090 C   0  0  0  0  0
  -48.3040    9.5880   -5.3770 C   0  0  0  0  0
  -50.0090   10.2310   -3.6840 C   0  0  0  0  0
  -43.2050   12.4720   -4.0830 C   0  0  0  0  0
  -41.9540   12.4160   -4.9050 C   0  0  0  0  0
  -44.0700   13.2350   -4.7910 N   0  3  0  0  0
  -45.6020   13.0920   -7.9650 N   0  0  0  0  0
  -46.9810   11.7450   -4.4880 O   0  0  0  0  0
  -45.1914   11.7401   -3.5106 H   0  0  0  0  0
  -45.4110   10.4832   -4.8061 H   0  0  0  0  0
  -41.3001   13.8105   -6.5074 H   0  0  0  0  0
  -43.8346   14.4848   -6.3805 H   0  0  0  0  0
  -43.1920   15.0695   -4.8775 H   0  0  0  0  0
  -43.5025   13.3973   -7.9380 H   0  0  0  0  0
  -44.1773   13.1700   -9.5354 H   0  0  0  0  0
  -42.5576   15.5911   -8.3174 H   0  0  0  0  0
  -42.9474   18.1764   -8.5504 H   0  0  0  0  0
  -45.1476   19.0323   -9.0470 H   0  0  0  0  0
  -47.1565   17.3848   -9.3482 H   0  0  0  0  0
  -46.7971   15.0131   -9.1380 H   0  0  0  0  0
  -44.1502   11.9435   -6.2524 H   0  0  0  0  0
  -47.9869   11.9559   -7.5160 H   0  0  0  0  0
  -49.5623   10.9679   -9.3628 H   0  0  0  0  0
  -48.9295   11.0169  -11.6789 H   0  0  0  0  0
  -46.6322   12.0783  -12.3860 H   0  0  0  0  0
  -45.1843   12.9938  -10.6964 H   0  0  0  0  0
  -45.8672   14.2489   -6.2331 H   0  0  0  0  0
  -46.8445   12.6984   -6.3190 H   0  0  0  0  0
  -46.8568   10.6306   -2.7585 H   0  0  0  0  0
  -48.2558   11.7677   -2.8684 H   0  0  0  0  0
  -48.2596    9.0080   -3.3350 H   0  0  0  0  0
  -48.5272   10.4747   -5.9704 H   0  0  0  0  0
  -47.2642    9.2991   -5.5300 H   0  0  0  0  0
  -48.9581    8.7711   -5.6819 H   0  0  0  0  0
  -50.1879   10.3820   -2.6194 H   0  0  0  0  0
  -50.2598   11.1413   -4.2286 H   0  0  0  0  0
  -50.6268    9.4085   -4.0445 H   0  0  0  0  0
  -43.0156   12.8945   -3.0963 H   0  0  0  0  0
  -43.6081   11.4757   -3.9014 H   0  0  0  0  0
  -41.1519   11.6806   -4.8420 H   0  0  0  0  0
  -44.7308   13.7460   -4.2056 H   0  0  0  0  0
  1 12  1  0  0  0
 27  1  1  0  0  0
  3  2  1  0  0  0
  2 24  2  0  0  0
 25  3  1  0  0  0
  4  5  1  0  0  0
 26  4  1  0  0  0
  5  6  4  0  0  0
  5 10  4  0  0  0
  6  7  4  0  0  0
  7  8  4  0  0  0
  9  8  4  0  0  0
 10  9  4  0  0  0
 11 13  4  0  0  0
 11 17  4  0  0  0
 26 11  1  0  0  0
 12 18  1  0  0  0
 12 25  1  0  0  0
 13 14  4  0  0  0
 14 15  4  0  0  0
 16 15  4  0  0  0
 17 16  4  0  0  0
 18 26  1  0  0  0
 19 20  1  0  0  0
 19 27  1  0  0  0
 20 21  1  0  0  0
 20 22  1  0  0  0
 24 23  1  0  0  0
 23 25  1  0  0  0
  1 28  1  0  0  0
  1 29  1  0  0  0
  2 30  1  0  0  0
  3 31  1  0  0  0
  3 32  1  0  0  0
  4 33  1  0  0  0
  4 34  1  0  0  0
  6 35  1  0  0  0
  7 36  1  0  0  0
  8 37  1  0  0  0
  9 38  1  0  0  0
 10 39  1  0  0  0
 12 40  1  0  0  0
 13 41  1  0  0  0
 14 42  1  0  0  0
 15 43  1  0  0  0
 16 44  1  0  0  0
 17 45  1  0  0  0
 18 46  1  0  0  0
 18 47  1  0  0  0
 19 48  1  0  0  0
 19 49  1  0  0  0
 20 50  1  0  0  0
 21 51  1  0  0  0
 21 52  1  0  0  0
 21 53  1  0  0  0
 22 54  1  0  0  0
 22 55  1  0  0  0
 22 56  1  0  0  0
 23 57  1  0  0  0
 23 58  1  0  0  0
 24 59  1  0  0  0
 25 60  1  0  0  0
M  END
$$$$
