5wfj_ligand
  -I-interpret- 

 44 46  0  0  0  0  0  0  0  0999 V2000
   -0.8750  -15.5460   -3.5240 C   0  0  0  0  0
   -2.1900  -15.2380   -3.2260 N   0  0  0  0  0
   -2.7290  -13.9790   -3.0730 N   0  0  0  0  0
   -1.8720  -13.0260   -3.2500 C   0  0  0  0  0
   -0.4990  -13.1470   -3.5830 C   0  0  0  0  0
    0.0300  -14.4490   -3.7200 C   0  0  0  0  0
   -0.7940  -16.9280   -3.5930 C   0  0  0  0  0
   -2.0620  -17.4400   -3.3330 C   0  0  0  0  0
   -2.9190  -16.3840   -3.1140 C   0  0  0  0  0
    0.3250  -11.9310   -3.8340 C   0  0  0  0  0
   -0.1920  -10.7510   -3.5150 N   0  0  0  0  0
    1.4480  -12.0080   -4.3530 O   0  0  0  0  0
    1.3280  -14.6390   -4.0100 N   0  0  0  0  0
    2.1470  -15.8250   -4.2190 C   0  0  0  0  0
    2.0700  -16.3260   -5.6370 C   0  0  0  0  0
    2.1240  -15.4450   -6.7090 C   0  0  0  0  0
    2.0110  -15.9040   -8.0120 C   0  0  0  0  0
    1.8430  -17.2550   -8.2630 C   0  0  0  0  0
    1.8020  -18.1550   -7.2030 C   0  0  0  0  0
    1.9160  -17.6820   -5.8960 C   0  0  0  0  0
    1.6720  -19.5400   -7.4800 N   0  0  0  0  0
    1.0640  -20.4900   -6.7420 C   0  0  0  0  0
    1.0540  -21.8300   -7.3650 C   0  0  0  0  0
    0.5320  -20.2560   -5.6490 O   0  0  0  0  0
    0.1850  -21.8770   -8.5980 C   0  0  0  0  0
   -2.2499  -12.0108   -3.1289 H   0  0  0  0  0
    0.1017  -17.5094   -3.8116 H   0  0  0  0  0
   -2.3308  -18.4960   -3.3071 H   0  0  0  0  0
   -3.9840  -16.4524   -2.8920 H   0  0  0  0  0
    0.3356   -9.8971   -3.6966 H   0  0  0  0  0
   -1.1169  -10.6980   -3.0883 H   0  0  0  0  0
    1.8506  -13.7681   -4.1036 H   0  0  0  0  0
    1.7790  -16.6119   -3.5606 H   0  0  0  0  0
    3.1837  -15.5631   -4.0074 H   0  0  0  0  0
    2.2569  -14.3792   -6.5235 H   0  0  0  0  0
    2.0546  -15.1987   -8.8419 H   0  0  0  0  0
    1.7432  -17.6124   -9.2879 H   0  0  0  0  0
    1.8838  -18.3869   -5.0653 H   0  0  0  0  0
    2.0940  -19.8589   -8.3521 H   0  0  0  0  0
    0.6538  -22.5388   -6.6400 H   0  0  0  0  0
    2.0745  -22.0757   -7.6590 H   0  0  0  0  0
   -0.8394  -21.6196   -8.3290 H   0  0  0  0  0
    0.5594  -21.1636   -9.3322 H   0  0  0  0  0
    0.2097  -22.8816   -9.0202 H   0  0  0  0  0
  1  2  4  0  0  0
  1  6  4  0  0  0
  1  7  4  0  0  0
  2  3  4  0  0  0
  2  9  4  0  0  0
  3  4  4  0  0  0
  4  5  4  0  0  0
  5  6  4  0  0  0
  5 10  1  0  0  0
  6 13  1  0  0  0
  7  8  4  0  0  0
  8  9  4  0  0  0
 10 11  1  0  0  0
 10 12  2  0  0  0
 13 14  1  0  0  0
 14 15  1  0  0  0
 15 16  4  0  0  0
 15 20  4  0  0  0
 16 17  4  0  0  0
 17 18  4  0  0  0
 18 19  4  0  0  0
 19 20  4  0  0  0
 19 21  1  0  0  0
 21 22  1  0  0  0
 22 23  1  0  0  0
 22 24  2  0  0  0
 23 25  1  0  0  0
  4 26  1  0  0  0
  7 27  1  0  0  0
  8 28  1  0  0  0
  9 29  1  0  0  0
 11 30  1  0  0  0
 11 31  1  0  0  0
 13 32  1  0  0  0
 14 33  1  0  0  0
 14 34  1  0  0  0
 16 35  1  0  0  0
 17 36  1  0  0  0
 18 37  1  0  0  0
 20 38  1  0  0  0
 21 39  1  0  0  0
 23 40  1  0  0  0
 23 41  1  0  0  0
 25 42  1  0  0  0
 25 43  1  0  0  0
 25 44  1  0  0  0
M  END
$$$$
