3uw5_ligand
  -I-interpret- 

 70 73  0  0  0  0  0  0  0  0999 V2000
   86.3590   60.3040   14.7920 N   0  3  0  0  0
   86.4570   59.1170   13.9180 C   0  0  0  0  0
   84.9810   60.5640   15.2490 C   0  0  0  0  0
   85.0120   61.5830   16.3930 C   0  0  0  0  0
   84.1680   61.1260   14.1120 C   0  0  0  0  0
   84.7440   61.6380   13.1660 O   0  0  0  0  0
   82.8210   61.0390   14.1640 N   0  0  0  0  0
   81.9760   61.5740   13.0840 C   0  0  0  0  0
   80.8150   62.3110   13.6990 C   0  0  0  0  0
   80.3740   61.9710   14.7880 O   0  0  0  0  0
   81.4360   60.4680   12.1470 C   0  0  0  0  0
   80.5650   59.4420   12.9000 C   0  0  0  0  0
   80.0250   58.3830   11.9250 C   0  0  0  0  0
   81.1890   57.6780   11.2140 C   0  0  0  0  0
   82.0370   58.7020   10.4450 C   0  0  0  0  0
   82.5920   59.7570   11.4140 C   0  0  0  0  0
   80.2370   63.3380   13.0430 N   0  0  0  0  0
   79.1010   64.0950   13.5670 C   0  0  0  0  0
   77.9000   63.1990   13.7150 C   0  0  0  0  0
   77.6800   62.3530   12.8670 O   0  0  0  0  0
   78.7790   65.2180   12.5600 C   0  0  0  0  0
   80.1110   65.3760   11.7900 C   0  0  0  0  0
   80.6010   63.9090   11.7250 C   0  0  0  0  0
   77.0900   63.3290   14.7910 N   0  0  0  0  0
   75.9540   62.5380   14.9390 C   0  0  0  0  0
   75.1410   62.3450   16.0470 C   0  0  0  0  0
   74.1190   61.5340   15.8360 N   0  0  0  0  0
   73.9390   61.0260   14.6770 N   0  0  0  0  0
   75.1950   61.6040   13.6970 S   0  0  0  0  0
   75.3560   62.9310   17.3950 C   0  0  0  0  0
   74.2920   63.5580   18.0620 C   0  0  0  0  0
   74.4800   64.0880   19.3310 C   0  0  0  0  0
   75.7220   63.9880   19.9460 C   0  0  0  0  0
   76.7740   63.3600   19.2950 C   0  0  0  0  0
   76.5990   62.8290   18.0250 C   0  0  0  0  0
   86.6684   61.1141   14.2550 H   0  0  0  0  0
   86.9349   60.1336   15.6164 H   0  0  0  0  0
   86.1142   58.2372   14.4625 H   0  0  0  0  0
   85.8348   59.2649   13.0354 H   0  0  0  0  0
   87.4941   58.9762   13.6136 H   0  0  0  0  0
   84.5323   59.6321   15.5929 H   0  0  0  0  0
   85.4645   62.5098   16.0402 H   0  0  0  0  0
   83.9944   61.7795   16.7305 H   0  0  0  0  0
   85.5991   61.1820   17.2192 H   0  0  0  0  0
   82.3802   60.5932   14.9686 H   0  0  0  0  0
   82.5920   62.2391   12.4787 H   0  0  0  0  0
   80.8000   60.9580   11.4097 H   0  0  0  0  0
   79.7254   59.9600   13.3636 H   0  0  0  0  0
   81.1718   58.9496   13.6599 H   0  0  0  0  0
   79.3940   58.8700   11.1815 H   0  0  0  0  0
   79.4468   57.6457   12.4820 H   0  0  0  0  0
   80.7886   56.9465   10.5121 H   0  0  0  0  0
   81.8139   57.1823   11.9569 H   0  0  0  0  0
   81.4150   59.1937    9.6970 H   0  0  0  0  0
   82.8670   58.1885    9.9597 H   0  0  0  0  0
   83.2313   59.2661   12.1478 H   0  0  0  0  0
   83.1634   60.4940   10.8498 H   0  0  0  0  0
   79.3470   64.5073   14.5456 H   0  0  0  0  0
   78.4539   66.1404   13.0412 H   0  0  0  0  0
   77.9378   64.9779   11.9098 H   0  0  0  0  0
   80.8173   66.0526   12.2712 H   0  0  0  0  0
   79.9985   65.8437   10.8119 H   0  0  0  0  0
   80.1428   63.3611   10.9016 H   0  0  0  0  0
   81.6720   63.8439   11.5331 H   0  0  0  0  0
   77.3159   64.0194   15.5070 H   0  0  0  0  0
   73.3158   63.6289   17.5823 H   0  0  0  0  0
   73.6548   64.5818   19.8442 H   0  0  0  0  0
   75.8702   64.4040   20.9425 H   0  0  0  0  0
   77.7448   63.2832   19.7846 H   0  0  0  0  0
   77.4286   62.3338   17.5204 H   0  0  0  0  0
  1  2  1  0  0  0
  1  3  1  0  0  0
  3  4  1  0  0  0
  3  5  1  0  0  0
  5  6  2  0  0  0
  5  7  1  0  0  0
  7  8  1  0  0  0
  8  9  1  0  0  0
  8 11  1  0  0  0
  9 10  2  0  0  0
  9 17  1  0  0  0
 11 12  1  0  0  0
 11 16  1  0  0  0
 12 13  1  0  0  0
 13 14  1  0  0  0
 14 15  1  0  0  0
 15 16  1  0  0  0
 17 18  1  0  0  0
 17 23  1  0  0  0
 18 19  1  0  0  0
 18 21  1  0  0  0
 19 20  2  0  0  0
 19 24  1  0  0  0
 21 22  1  0  0  0
 22 23  1  0  0  0
 24 25  1  0  0  0
 25 26  4  0  0  0
 25 29  4  0  0  0
 26 27  4  0  0  0
 26 30  1  0  0  0
 27 28  4  0  0  0
 28 29  4  0  0  0
 30 31  4  0  0  0
 30 35  4  0  0  0
 31 32  4  0  0  0
 32 33  4  0  0  0
 33 34  4  0  0  0
 34 35  4  0  0  0
  1 36  1  0  0  0
  1 37  1  0  0  0
  2 38  1  0  0  0
  2 39  1  0  0  0
  2 40  1  0  0  0
  3 41  1  0  0  0
  4 42  1  0  0  0
  4 43  1  0  0  0
  4 44  1  0  0  0
  7 45  1  0  0  0
  8 46  1  0  0  0
 11 47  1  0  0  0
 12 48  1  0  0  0
 12 49  1  0  0  0
 13 50  1  0  0  0
 13 51  1  0  0  0
 14 52  1  0  0  0
 14 53  1  0  0  0
 15 54  1  0  0  0
 15 55  1  0  0  0
 16 56  1  0  0  0
 16 57  1  0  0  0
 18 58  1  0  0  0
 21 59  1  0  0  0
 21 60  1  0  0  0
 22 61  1  0  0  0
 22 62  1  0  0  0
 23 63  1  0  0  0
 23 64  1  0  0  0
 24 65  1  0  0  0
 31 66  1  0  0  0
 32 67  1  0  0  0
 33 68  1  0  0  0
 34 69  1  0  0  0
 35 70  1  0  0  0
M  END
$$$$
