3bjm_ligand
  -I-interpret- 

 51 55  0  0  0  0  0  0  0  0999 V2000
   66.4430   72.4150   71.0990 C   0  0  0  0  0
   65.8870   72.6960   69.6490 C   0  0  0  0  0
   67.9470   72.1390   71.0210 C   0  0  0  0  0
   68.5590   71.9600   72.4190 C   0  0  0  0  0
   66.8160   73.4630   73.4040 C   0  0  0  0  0
   66.3870   70.9400   73.2330 C   0  0  0  0  0
   68.3050   73.2490   73.2460 C   0  0  0  0  0
   67.9120   70.6940   73.0810 C   0  0  0  0  0
   66.2290   72.2230   74.1350 C   0  0  0  0  0
   68.6380   72.0130   66.1540 C   0  0  0  0  0
   68.9990   71.9700   67.6110 C   0  0  0  0  0
   67.7240   71.0410   65.4460 C   0  0  0  0  0
   67.5180   69.1910   67.0900 C   0  0  0  0  0
   67.0210   68.7270   68.2460 N   0  0  0  0  0
   66.2290   73.6910   71.9760 C   0  0  0  0  0
   65.7800   71.2180   71.8150 C   0  0  0  0  0
   65.9280   71.5530   68.6130 C   0  0  0  0  0
   64.5150   73.1010   69.6690 N   0  3  0  0  0
   66.8880   71.5120   67.6940 N   0  0  0  0  0
   65.0540   70.6980   68.6370 O   0  0  0  0  0
   69.9580   71.8640   72.2920 O   0  0  0  0  0
   67.7520   72.6200   67.1480 C   0  0  0  0  0
   66.8640   70.5240   66.5700 C   0  0  0  0  0
   66.5901   73.4663   69.3322 H   0  0  0  0  0
   68.4298   72.9889   70.5386 H   0  0  0  0  0
   68.1008   71.2196   70.4561 H   0  0  0  0  0
   66.5625   74.3345   74.0075 H   0  0  0  0  0
   65.8781   70.0837   73.6756 H   0  0  0  0  0
   68.7416   74.1036   72.7292 H   0  0  0  0  0
   68.7631   73.1452   74.2296 H   0  0  0  0  0
   68.3589   70.5172   74.0593 H   0  0  0  0  0
   68.0863   69.8181   72.4560 H   0  0  0  0  0
   65.1710   72.3924   74.3351 H   0  0  0  0  0
   66.7662   72.0713   75.0712 H   0  0  0  0  0
   69.3204   72.1940   65.3235 H   0  0  0  0  0
   69.8499   72.1792   68.2593 H   0  0  0  0  0
   69.3282   71.2510   68.3612 H   0  0  0  0  0
   68.2633   70.2513   64.9230 H   0  0  0  0  0
   67.1472   71.5033   64.6449 H   0  0  0  0  0
   68.3165   68.6819   66.5503 H   0  0  0  0  0
   66.2733   69.2339   68.7197 H   0  0  0  0  0
   65.1614   73.8958   72.0560 H   0  0  0  0  0
   66.7374   74.5352   71.5103 H   0  0  0  0  0
   65.9462   70.3315   71.2030 H   0  0  0  0  0
   64.7238   71.4530   71.9462 H   0  0  0  0  0
   64.3964   73.8631   70.3365 H   0  0  0  0  0
   64.2413   73.4167   68.7385 H   0  0  0  0  0
   63.9325   72.3109   69.9463 H   0  0  0  0  0
   70.1791   71.0792   71.7853 H   0  0  0  0  0
   67.2264   73.5749   67.1506 H   0  0  0  0  0
   65.8414   70.3649   66.2277 H   0  0  0  0  0
  2  1  1  0  0  0
  1  3  1  0  0  0
  1 15  1  0  0  0
  1 16  1  0  0  0
 17  2  1  0  0  0
  2 18  1  0  0  0
  3  4  1  0  0  0
  4  7  1  0  0  0
  4  8  1  0  0  0
  4 21  1  0  0  0
  5  7  1  0  0  0
  5  9  1  0  0  0
 15  5  1  0  0  0
  6  8  1  0  0  0
  6  9  1  0  0  0
 16  6  1  0  0  0
 11 10  1  0  0  0
 10 12  1  0  0  0
 22 10  1  0  0  0
 22 11  1  0  0  0
 12 23  1  0  0  0
 13 14  2  0  0  0
 23 13  1  0  0  0
 19 17  1  0  0  0
 17 20  2  0  0  0
 19 22  1  0  0  0
 19 23  1  0  0  0
  2 24  1  0  0  0
  3 25  1  0  0  0
  3 26  1  0  0  0
  5 27  1  0  0  0
  6 28  1  0  0  0
  7 29  1  0  0  0
  7 30  1  0  0  0
  8 31  1  0  0  0
  8 32  1  0  0  0
  9 33  1  0  0  0
  9 34  1  0  0  0
 10 35  1  0  0  0
 11 36  1  0  0  0
 11 37  1  0  0  0
 12 38  1  0  0  0
 12 39  1  0  0  0
 13 40  1  0  0  0
 14 41  1  0  0  0
 15 42  1  0  0  0
 15 43  1  0  0  0
 16 44  1  0  0  0
 16 45  1  0  0  0
 18 46  1  0  0  0
 18 47  1  0  0  0
 18 48  1  0  0  0
 21 49  1  0  0  0
 22 50  1  0  0  0
 23 51  1  0  0  0
M  END
$$$$
