### 
### Created by X-TOOL on Sun Sep  9 21:50:50 2018
### 

@<TRIPOS>MOLECULE
3bjm_ligand
   51    55     1     0     0
SMALL
GAST_HUCK


@<TRIPOS>ATOM
      1 C1         66.4430   72.4150   71.0990 C.3       1 NON         0.0340
      2 C2         65.8870   72.6960   69.6490 C.3       1 NON         0.0711
      3 C3         67.9470   72.1390   71.0210 C.3       1 NON        -0.0110
      4 C8         68.5590   71.9600   72.4190 C.3       1 NON         0.0675
      5 C9         66.8160   73.4630   73.4040 C.3       1 NON        -0.0374
      6 C10        66.3870   70.9400   73.2330 C.3       1 NON        -0.0374
      7 C13        68.3050   73.2490   73.2460 C.3       1 NON        -0.0211
      8 C14        67.9120   70.6940   73.0810 C.3       1 NON        -0.0211
      9 C16        66.2290   72.2230   74.1350 C.3       1 NON        -0.0471
     10 C19        68.6380   72.0130   66.1540 C.3       1 NON        -0.0103
     11 C20        68.9990   71.9700   67.6110 C.3       1 NON        -0.0239
     12 C21        67.7240   71.0410   65.4460 C.3       1 NON        -0.0065
     13 C22        67.5180   69.1910   67.0900 C.2       1 NON         0.0209
     14 N23        67.0210   68.7270   68.2460 N.2       1 NON        -0.3619
     15 C4         66.2290   73.6910   71.9760 C.3       1 NON        -0.0370
     16 C5         65.7800   71.2180   71.8150 C.3       1 NON        -0.0370
     17 C6         65.9280   71.5530   68.6130 C.2       1 NON         0.2309
     18 N7         64.5150   73.1010   69.6690 N.4       1 NON         0.2383
     19 N11        66.8880   71.5120   67.6940 N.am      1 NON        -0.2425
     20 O12        65.0540   70.6980   68.6370 O.2       1 NON        -0.3904
     21 O15        69.9580   71.8640   72.2920 O.3       1 NON        -0.3885
     22 C17        67.7520   72.6200   67.1480 C.3       1 NON         0.0525
     23 C18        66.8640   70.5240   66.5700 C.3       1 NON         0.1043
     24 H1         66.4925   73.5229   69.2495 H         1 NON         0.1104
     25 H2         68.4404   72.9851   70.5204 H         1 NON         0.0302
     26 H3         68.1124   71.2209   70.4381 H         1 NON         0.0302
     27 H4         66.6249   74.3575   74.0151 H         1 NON         0.0302
     28 H5         65.8931   70.0736   73.6970 H         1 NON         0.0302
     29 H6         68.7458   74.1116   72.7248 H         1 NON         0.0296
     30 H7         68.7675   73.1447   74.2386 H         1 NON         0.0296
     31 H8         68.3603   70.5233   74.0709 H         1 NON         0.0296
     32 H9         68.0837   69.8139   72.4439 H         1 NON         0.0296
     33 H10        65.1622   72.3935   74.3420 H         1 NON         0.0271
     34 H11        66.7666   72.0705   75.0825 H         1 NON         0.0271
     35 H12        69.3026   72.5456   65.4579 H         1 NON         0.0327
     36 H13        69.8315   72.5790   67.9930 H         1 NON         0.0291
     37 H14        68.9555   71.0202   68.1641 H         1 NON         0.0291
     38 H15        68.2961   70.2272   64.9766 H         1 NON         0.0327
     39 H16        67.1169   71.5500   64.6829 H         1 NON         0.0327
     40 H17        68.3158   68.6823   66.5508 H         1 NON         0.1225
     41 H18        67.3864   67.8773   68.6468 H         1 NON         0.1054
     42 H19        65.1524   73.9026   72.0545 H         1 NON         0.0277
     43 H20        66.7373   74.5456   71.5056 H         1 NON         0.0277
     44 H21        65.9142   70.3200   71.1941 H         1 NON         0.0277
     45 H22        64.7063   71.4283   71.9285 H         1 NON         0.0277
     46 H23        64.2007   73.2697   68.7262 H         1 NON         0.2015
     47 H24        64.4220   73.9461   70.2104 H         1 NON         0.2015
     48 H25        63.9556   72.3725   70.0843 H         1 NON         0.2015
     49 H26        70.3500   71.8057   73.1554 H         1 NON         0.2102
     50 H27        67.4205   73.6683   67.1809 H         1 NON         0.0564
     51 H28        65.8338   70.3505   66.2257 H         1 NON         0.0842
@<TRIPOS>BOND
     1    2    1 1  
     2    1    3 1  
     3    1   15 1  
     4    1   16 1  
     5   17    2 1  
     6    2   18 1  
     7    3    4 1  
     8    4    7 1  
     9    4    8 1  
    10    4   21 1  
    11    5    7 1  
    12    5    9 1  
    13   15    5 1  
    14    6    8 1  
    15    6    9 1  
    16   16    6 1  
    17   11   10 1  
    18   10   12 1  
    19   22   10 1  
    20   22   11 1  
    21   12   23 1  
    22   13   14 2  
    23   23   13 1  
    24   19   17 am 
    25   17   20 2  
    26   19   22 1  
    27   19   23 1  
    28    2   24 1  
    29    3   25 1  
    30    3   26 1  
    31    5   27 1  
    32    6   28 1  
    33    7   29 1  
    34    7   30 1  
    35    8   31 1  
    36    8   32 1  
    37    9   33 1  
    38    9   34 1  
    39   10   35 1  
    40   11   36 1  
    41   11   37 1  
    42   12   38 1  
    43   12   39 1  
    44   13   40 1  
    45   14   41 1  
    46   15   42 1  
    47   15   43 1  
    48   16   44 1  
    49   16   45 1  
    50   18   46 1  
    51   18   47 1  
    52   18   48 1  
    53   21   49 1  
    54   22   50 1  
    55   23   51 1  
@<TRIPOS>SUBSTRUCTURE
     1 NON         1

