### 
### Created by X-TOOL on Mon Sep 10 21:13:07 2018
### 

@<TRIPOS>MOLECULE
3shz_ligand
   57    59     1     0     0
SMALL
GAST_HUCK


@<TRIPOS>ATOM
      1 CAA        49.5460  -19.0980   42.0510 C.3       1 5CO        -0.0628
      2 CAB        44.6480  -13.7740   37.3390 C.3       1 5CO        -0.0517
      3 CAC        44.7450   -8.1290   43.1680 C.3       1 5CO        -0.1255
      4 OAD        46.2260  -18.9930   38.7090 O.2       1 5CO        -0.4193
      5 OAE        42.9420  -13.9760   45.9570 O.2       1 5CO        -0.1513
      6 OAF        41.9910  -13.8110   43.6960 O.2       1 5CO        -0.1513
      7 CLAG       44.8260  -17.5040   36.5320 Cl        1 5CO        -0.1016
      8 CAH        45.6080  -15.0380   44.7260 C.ar      1 5CO        -0.0365
      9 CAI        46.6060  -15.8670   44.2220 C.ar      1 5CO        -0.0210
     10 CAJ        44.4750  -15.1140   42.6190 C.ar      1 5CO        -0.0198
     11 CAK        49.8650  -17.6070   42.1470 C.3       1 5CO        -0.0274
     12 CAL        43.7030  -14.8880   37.8230 C.3       1 5CO        -0.0089
     13 CAM        48.8090  -16.8710   42.9850 C.3       1 5CO         0.0733
     14 CAN        43.9780   -9.7110   44.7850 C.3       1 5CO        -0.0959
     15 CAO        44.7250  -10.4470   42.6480 C.3       1 5CO        -0.0959
     16 CAP        43.2750  -11.0650   45.0150 C.3       1 5CO         0.0109
     17 CAQ        44.0380  -11.8100   42.8560 C.3       1 5CO         0.0109
     18 NAR        44.6330  -15.5580   39.9710 N.2       1 5CO        -0.2879
     19 NAS        45.9020  -17.5160   40.3670 N.am      1 5CO        -0.2052
     20 OAT        47.5000  -17.1100   42.3760 O.3       1 5CO        -0.3090
     21 CAU        44.5010  -14.7300   43.9400 C.ar      1 5CO         0.1060
     22 CAV        46.5240  -16.3300   42.9100 C.ar      1 5CO         0.1183
     23 CAW        44.4810  -15.8860   38.6840 C.2       1 5CO         0.0136
     24 CAX        45.0310  -17.0810   38.2030 C.2       1 5CO         0.0954
     25 CAY        45.4140  -15.9990   42.1410 C.ar      1 5CO         0.0816
     26 CAZ        45.2560  -16.3820   40.8250 C.2       1 5CO         0.1658
     27 CBA        45.7240  -17.9280   39.0690 C.2       1 5CO         0.2054
     28 NBB        43.9970   -9.3830   43.3430 N.4       1 5CO         0.4029
     29 NBC        43.9800  -12.1500   44.3000 N.am      1 5CO        -0.2390
     30 SBD        43.2420  -13.6660   44.5150 S.o2      1 5CO         0.0674
     31 H          49.5297  -19.5299   43.0516 H         1 5CO         0.0231
     32 H          48.5715  -19.2302   41.5809 H         1 5CO         0.0231
     33 H          50.3100  -19.5939   41.4522 H         1 5CO         0.0231
     34 H          45.0696  -13.2570   38.2010 H         1 5CO         0.0258
     35 H          45.4519  -14.2126   36.7478 H         1 5CO         0.0258
     36 H          44.0895  -13.0661   36.7266 H         1 5CO         0.0258
     37 H          44.2536   -7.3332   43.7278 H         1 5CO        -0.0019
     38 H          45.7623   -8.2597   43.5369 H         1 5CO        -0.0019
     39 H          44.7715   -7.8679   42.1101 H         1 5CO        -0.0019
     40 H          45.6930  -14.6310   45.7336 H         1 5CO         0.0668
     41 H          47.4488  -16.1531   44.8512 H         1 5CO         0.0564
     42 H          43.7105  -14.7171   41.9511 H         1 5CO         0.0682
     43 H          49.8701  -17.1851   41.1420 H         1 5CO         0.0289
     44 H          50.8369  -17.4875   42.6258 H         1 5CO         0.0289
     45 H          43.2826  -15.4054   36.9606 H         1 5CO         0.0477
     46 H          42.9000  -14.4489   38.4150 H         1 5CO         0.0477
     47 H          49.0241  -15.8027   43.0074 H         1 5CO         0.0620
     48 H          48.8195  -17.2390   44.0110 H         1 5CO         0.0620
     49 H          45.0032   -9.7751   45.1496 H         1 5CO         0.0033
     50 H          43.4354   -8.9321   45.3207 H         1 5CO         0.0033
     51 H          44.7411  -10.2218   41.5816 H         1 5CO         0.0033
     52 H          45.7368  -10.4996   43.0500 H         1 5CO         0.0033
     53 H          42.2545  -11.0001   44.6374 H         1 5CO         0.0458
     54 H          43.2790  -11.2865   46.0822 H         1 5CO         0.0458
     55 H          44.6102  -12.5775   42.3348 H         1 5CO         0.0458
     56 H          43.0222  -11.7573   42.4642 H         1 5CO         0.0458
     57 H          46.5096  -18.0454   40.9922 H         1 5CO         0.2530
@<TRIPOS>BOND
     1   11    1 1  
     2   12    2 1  
     3   28    3 1  
     4   27    4 2  
     5   30    5 2  
     6   30    6 2  
     7   24    7 1  
     8    8    9 ar 
     9   21    8 ar 
    10    9   22 ar 
    11   21   10 ar 
    12   10   25 ar 
    13   13   11 1  
    14   23   12 1  
    15   20   13 1  
    16   16   14 1  
    17   14   28 1  
    18   17   15 1  
    19   15   28 1  
    20   29   16 1  
    21   29   17 1  
    22   18   23 1  
    23   26   18 2  
    24   26   19 1  
    25   19   27 am 
    26   22   20 1  
    27   30   21 1  
    28   25   22 ar 
    29   23   24 2  
    30   27   24 1  
    31   25   26 1  
    32   29   30 am 
    33    1   31 1  
    34    1   32 1  
    35    1   33 1  
    36    2   34 1  
    37    2   35 1  
    38    2   36 1  
    39    3   37 1  
    40    3   38 1  
    41    3   39 1  
    42    8   40 1  
    43    9   41 1  
    44   10   42 1  
    45   11   43 1  
    46   11   44 1  
    47   12   45 1  
    48   12   46 1  
    49   13   47 1  
    50   13   48 1  
    51   14   49 1  
    52   14   50 1  
    53   15   51 1  
    54   15   52 1  
    55   16   53 1  
    56   16   54 1  
    57   17   55 1  
    58   17   56 1  
    59   19   57 1  
@<TRIPOS>SUBSTRUCTURE
     1 5CO         1

