3shz_ligand
  -I-interpret- 

 58 60  0  0  0  0  0  0  0  0999 V2000
   49.5460  -19.0980   42.0510 C   0  0  0  0  0
   44.6480  -13.7740   37.3390 C   0  0  0  0  0
   44.7450   -8.1290   43.1680 C   0  0  0  0  0
   46.2260  -18.9930   38.7090 O   0  0  0  0  0
   42.9420  -13.9760   45.9570 O   0  0  0  0  0
   41.9910  -13.8110   43.6960 O   0  0  0  0  0
   44.8260  -17.5040   36.5320 Cl  0  0  0  0  0
   45.6080  -15.0380   44.7260 C   0  0  0  0  0
   46.6060  -15.8670   44.2220 C   0  0  0  0  0
   44.4750  -15.1140   42.6190 C   0  0  0  0  0
   49.8650  -17.6070   42.1470 C   0  0  0  0  0
   43.7030  -14.8880   37.8230 C   0  0  0  0  0
   48.8090  -16.8710   42.9850 C   0  0  0  0  0
   43.9780   -9.7110   44.7850 C   0  0  0  0  0
   44.7250  -10.4470   42.6480 C   0  0  0  0  0
   43.2750  -11.0650   45.0150 C   0  0  0  0  0
   44.0380  -11.8100   42.8560 C   0  0  0  0  0
   44.6330  -15.5580   39.9710 N   0  0  0  0  0
   45.9020  -17.5160   40.3670 N   0  0  0  0  0
   47.5000  -17.1100   42.3760 O   0  0  0  0  0
   44.5010  -14.7300   43.9400 C   0  0  0  0  0
   46.5240  -16.3300   42.9100 C   0  0  0  0  0
   44.4810  -15.8860   38.6840 C   0  0  0  0  0
   45.0310  -17.0810   38.2030 C   0  0  0  0  0
   45.4140  -15.9990   42.1410 C   0  0  0  0  0
   45.2560  -16.3820   40.8250 C   0  0  0  0  0
   45.7240  -17.9280   39.0690 C   0  0  0  0  0
   43.9970   -9.3830   43.3430 N   0  3  0  0  0
   43.9800  -12.1500   44.3000 N   0  0  0  0  0
   43.2420  -13.6660   44.5150 S   0  0  0  0  0
   49.5297  -19.5299   43.0516 H   0  0  0  0  0
   48.5715  -19.2302   41.5809 H   0  0  0  0  0
   50.3100  -19.5939   41.4522 H   0  0  0  0  0
   45.0696  -13.2570   38.2010 H   0  0  0  0  0
   45.4519  -14.2126   36.7478 H   0  0  0  0  0
   44.0895  -13.0661   36.7266 H   0  0  0  0  0
   44.2536   -7.3332   43.7278 H   0  0  0  0  0
   45.7623   -8.2597   43.5369 H   0  0  0  0  0
   44.7715   -7.8679   42.1101 H   0  0  0  0  0
   45.6930  -14.6310   45.7336 H   0  0  0  0  0
   47.4488  -16.1531   44.8512 H   0  0  0  0  0
   43.7105  -14.7171   41.9511 H   0  0  0  0  0
   49.8701  -17.1851   41.1420 H   0  0  0  0  0
   50.8369  -17.4875   42.6258 H   0  0  0  0  0
   43.2826  -15.4054   36.9606 H   0  0  0  0  0
   42.9000  -14.4489   38.4150 H   0  0  0  0  0
   49.0241  -15.8027   43.0074 H   0  0  0  0  0
   48.8195  -17.2390   44.0110 H   0  0  0  0  0
   45.0032   -9.7751   45.1496 H   0  0  0  0  0
   43.4354   -8.9321   45.3207 H   0  0  0  0  0
   44.7411  -10.2218   41.5816 H   0  0  0  0  0
   45.7368  -10.4996   43.0500 H   0  0  0  0  0
   42.2545  -11.0001   44.6374 H   0  0  0  0  0
   43.2790  -11.2865   46.0822 H   0  0  0  0  0
   44.6102  -12.5775   42.3348 H   0  0  0  0  0
   43.0222  -11.7573   42.4642 H   0  0  0  0  0
   46.5096  -18.0454   40.9922 H   0  0  0  0  0
   43.0487   -9.2918   42.9786 H   0  0  0  0  0
 11  1  1  0  0  0
 12  2  1  0  0  0
 28  3  1  0  0  0
 27  4  2  0  0  0
 30  5  2  0  0  0
 30  6  2  0  0  0
 24  7  1  0  0  0
  8  9  4  0  0  0
 21  8  4  0  0  0
  9 22  4  0  0  0
 21 10  4  0  0  0
 10 25  4  0  0  0
 13 11  1  0  0  0
 23 12  1  0  0  0
 20 13  1  0  0  0
 16 14  1  0  0  0
 14 28  1  0  0  0
 17 15  1  0  0  0
 15 28  1  0  0  0
 29 16  1  0  0  0
 29 17  1  0  0  0
 18 23  1  0  0  0
 26 18  2  0  0  0
 26 19  1  0  0  0
 19 27  1  0  0  0
 22 20  1  0  0  0
 30 21  1  0  0  0
 25 22  4  0  0  0
 23 24  2  0  0  0
 27 24  1  0  0  0
 25 26  1  0  0  0
 29 30  1  0  0  0
  1 31  1  0  0  0
  1 32  1  0  0  0
  1 33  1  0  0  0
  2 34  1  0  0  0
  2 35  1  0  0  0
  2 36  1  0  0  0
  3 37  1  0  0  0
  3 38  1  0  0  0
  3 39  1  0  0  0
  8 40  1  0  0  0
  9 41  1  0  0  0
 10 42  1  0  0  0
 11 43  1  0  0  0
 11 44  1  0  0  0
 12 45  1  0  0  0
 12 46  1  0  0  0
 13 47  1  0  0  0
 13 48  1  0  0  0
 14 49  1  0  0  0
 14 50  1  0  0  0
 15 51  1  0  0  0
 15 52  1  0  0  0
 16 53  1  0  0  0
 16 54  1  0  0  0
 17 55  1  0  0  0
 17 56  1  0  0  0
 19 57  1  0  0  0
 28 58  1  0  0  0
M  END
$$$$
