1njc_ligand
  -I-interpret- 

 34 35  0  0  0  0  0  0  0  0999 V2000
   14.9020   46.4380  -51.7190 N   0  0  0  0  0
   14.1850   45.3580  -51.2250 C   0  0  0  0  0
   13.7110   45.4090  -49.9240 N   0  0  0  0  0
   13.9520   46.4790  -49.1260 C   0  0  0  0  0
   14.6640   47.6150  -49.6750 C   0  0  0  0  0
   15.1110   47.5240  -51.0020 C   0  0  0  0  0
   13.9430   44.3460  -51.8670 O   0  0  0  0  0
   13.6750   46.4080  -47.8210 N   0  0  0  0  0
   15.7210   46.3370  -52.9350 C   0  0  0  0  0
   15.0440   46.1050  -54.2880 C   0  0  0  0  0
   16.2320   46.2250  -55.2340 C   0  0  0  0  0
   16.9860   47.4800  -54.8130 C   0  0  0  0  0
   16.6240   47.4730  -53.3390 O   0  0  0  0  0
   17.1240   45.1520  -54.9100 O   0  0  0  0  0
   16.4080   48.7120  -55.5100 C   0  0  0  0  0
   16.8400   48.7060  -56.9070 O   0  0  0  0  0
   15.9630   49.4190  -58.0000 P   0  0  0  0  0
   16.6410   49.6050  -59.3080 O   0  0  0  0  0
   14.9040   48.4060  -58.0760 O   0  0  0  0  0
   15.4330   50.7220  -57.5860 O   0  0  0  0  0
   14.8460   48.5088  -49.0783 H   0  0  0  0  0
   15.6403   48.3662  -51.4476 H   0  0  0  0  0
   13.2839   45.5516  -47.4285 H   0  0  0  0  0
   13.8546   47.2102  -47.2171 H   0  0  0  0  0
   16.2364   45.4724  -52.5168 H   0  0  0  0  0
   14.2375   46.8061  -54.5028 H   0  0  0  0  0
   14.5183   45.1528  -54.3598 H   0  0  0  0  0
   15.9182   46.2287  -56.2778 H   0  0  0  0  0
   18.0514   47.5017  -55.0420 H   0  0  0  0  0
   17.8911   45.1901  -55.4859 H   0  0  0  0  0
   16.7625   49.6170  -55.0166 H   0  0  0  0  0
   15.3194   48.6898  -55.4589 H   0  0  0  0  0
   16.9988   48.7648  -59.6040 H   0  0  0  0  0
   15.2837   47.5676  -58.3489 H   0  0  0  0  0
  1  9  1  0  0  0
  1  6  1  0  0  0
  1  2  1  0  0  0
  2  7  2  0  0  0
  2  3  1  0  0  0
  3  4  2  0  0  0
  4  8  1  0  0  0
  4  5  1  0  0  0
  5  6  2  0  0  0
  9 13  1  0  0  0
  9 10  1  0  0  0
 10 11  1  0  0  0
 11 14  1  0  0  0
 11 12  1  0  0  0
 12 15  1  0  0  0
 12 13  1  0  0  0
 15 16  1  0  0  0
 16 17  1  0  0  0
 17 20  2  0  0  0
 17 19  1  0  0  0
 17 18  1  0  0  0
  5 21  1  0  0  0
  6 22  1  0  0  0
  8 23  1  0  0  0
  8 24  1  0  0  0
  9 25  1  0  0  0
 10 26  1  0  0  0
 10 27  1  0  0  0
 11 28  1  0  0  0
 12 29  1  0  0  0
 14 30  1  0  0  0
 15 31  1  0  0  0
 15 32  1  0  0  0
 18 33  1  0  0  0
 19 34  1  0  0  0
M  END
$$$$
