4m5u_ligand
  -I-interpret- 

 37 40  0  0  0  0  0  0  0  0999 V2000
    9.8500   22.3000   -8.0690 O   0  0  0  0  0
   10.0350   21.7680   -9.1760 C   0  0  0  0  0
    9.6830   20.4280   -9.5380 C   0  0  0  0  0
    9.0970   19.6660   -8.5810 O   0  0  0  0  0
    9.9560   19.9860  -10.8000 C   0  0  0  0  0
   10.5700   20.7680  -11.8210 C   0  0  0  0  0
   10.8000   20.1140  -13.1620 C   0  0  0  0  0
   11.3750   18.8300  -13.2640 C   0  0  0  0  0
   11.6140   18.1670  -14.4650 C   0  0  0  0  0
   11.2790   18.7820  -15.6710 C   0  0  0  0  0
   10.7080   20.0550  -15.6410 C   0  0  0  0  0
   10.4790   20.6880  -14.4140 C   0  0  0  0  0
   11.5000   18.1690  -16.8170 F   0  0  0  0  0
   10.9230   22.0770  -11.4990 C   0  0  0  0  0
   11.5840   23.1070  -12.3850 C   0  0  0  0  0
   12.9400   23.0450  -12.7370 C   0  0  0  0  0
   13.5800   24.0010  -13.5420 C   0  0  0  0  0
   12.9130   25.1150  -14.0670 C   0  0  0  0  0
   11.5640   25.1980  -13.7120 C   0  0  0  0  0
   10.9310   24.2360  -12.9090 C   0  0  0  0  0
   13.5900   26.1310  -14.8960 C   0  0  0  0  0
   14.8720   26.6260  -14.8430 N   0  0  0  0  0
   14.9940   27.5670  -15.8130 N   0  0  0  0  0
   13.8860   27.7240  -16.4720 N   0  0  0  0  0
   12.9690   26.8620  -15.9380 N   0  0  0  0  0
   10.6440   22.5370  -10.1880 N   0  0  0  0  0
    9.0034   20.1810   -7.7763 H   0  0  0  0  0
    9.6844   18.9592  -11.0451 H   0  0  0  0  0
   11.6510   18.3222  -12.3398 H   0  0  0  0  0
   12.0605   17.1727  -14.4625 H   0  0  0  0  0
   10.4408   20.5555  -16.5717 H   0  0  0  0  0
   10.0275   21.6800  -14.4239 H   0  0  0  0  0
   13.5303   22.2077  -12.3648 H   0  0  0  0  0
   14.6385   23.8709  -13.7674 H   0  0  0  0  0
   10.9794   26.0441  -14.0733 H   0  0  0  0  0
    9.8743   24.3722  -12.6791 H   0  0  0  0  0
   10.9034   23.4967   -9.9596 H   0  0  0  0  0
  1  2  2  0  0  0
  2  3  1  0  0  0
  2 26  1  0  0  0
  3  4  1  0  0  0
  3  5  2  0  0  0
  5  6  1  0  0  0
  6  7  1  0  0  0
  6 14  2  0  0  0
  7  8  4  0  0  0
  7 12  4  0  0  0
  8  9  4  0  0  0
  9 10  4  0  0  0
 10 11  4  0  0  0
 10 13  1  0  0  0
 11 12  4  0  0  0
 14 15  1  0  0  0
 14 26  1  0  0  0
 15 16  4  0  0  0
 15 20  4  0  0  0
 16 17  4  0  0  0
 17 18  4  0  0  0
 18 19  4  0  0  0
 18 21  1  0  0  0
 19 20  4  0  0  0
 21 22  4  0  0  0
 21 25  4  0  0  0
 22 23  4  0  0  0
 23 24  4  0  0  0
 24 25  4  0  0  0
  4 27  1  0  0  0
  5 28  1  0  0  0
  8 29  1  0  0  0
  9 30  1  0  0  0
 11 31  1  0  0  0
 12 32  1  0  0  0
 16 33  1  0  0  0
 17 34  1  0  0  0
 19 35  1  0  0  0
 20 36  1  0  0  0
 26 37  1  0  0  0
M  END
$$$$
