4qmn_ligand
  -I-interpret- 

 67 70  0  0  0  0  0  0  0  0999 V2000
   -3.7830   -2.3270   17.3620 C   0  0  0  0  0
   -0.1440    4.8450   20.8800 O   0  0  0  0  0
   -8.7670   -1.0960   12.0020 C   0  0  0  0  0
    0.5640    4.9290   16.4170 N   0  0  0  0  0
    2.6850    4.4580   21.1320 Cl  0  0  0  0  0
    2.1220    0.8280   17.2440 Cl  0  0  0  0  0
   -0.3230    4.2490   16.1540 C   0  0  0  0  0
   -2.2340    4.0430   14.9120 C   0  0  0  0  0
    2.2500    2.6530   19.1750 C   0  0  0  0  0
   -0.5280    3.2090   19.1190 C   0  0  0  0  0
   -4.7630    1.4620   14.5310 C   0  0  0  0  0
   -3.1340    0.1890   16.4230 C   0  0  0  0  0
   -7.4360   -1.4280   12.7200 C   0  0  0  0  0
   -6.5910   -0.1940   13.1480 C   0  0  0  0  0
  -13.1410   -3.4100   15.0830 C   0  0  0  0  0
  -10.7710   -2.6430   12.1540 C   0  0  0  0  0
   -9.7930   -1.7060   14.2350 C   0  0  0  0  0
  -12.1100   -2.8600   12.9020 C   0  0  0  0  0
  -11.1230   -1.9520   14.9930 C   0  0  0  0  0
   -3.3150    3.3490   14.5140 N   0  0  0  0  0
   -0.7810    1.5850   17.3440 N   0  0  0  0  0
   -4.6600   -1.7210   16.3960 O   0  0  0  0  0
   -6.2350   -0.4190   14.5310 O   0  0  0  0  0
    0.3150    3.8860   20.0200 C   0  0  0  0  0
    1.6960    3.6080   20.0430 C   0  0  0  0  0
    1.4100    1.9720   18.2750 C   0  0  0  0  0
   -1.3450    3.4880   15.8530 C   0  0  0  0  0
    0.0150    2.2400   18.2410 C   0  0  0  0  0
   -4.2920   -0.4700   15.9540 C   0  0  0  0  0
   -5.1050    0.1820   15.0000 C   0  0  0  0  0
   -1.6080    2.1840   16.4030 C   0  0  0  0  0
   -3.6090    2.1130   14.9970 C   0  0  0  0  0
   -2.7680    1.4850   15.9570 C   0  0  0  0  0
  -10.0040   -1.5090   12.7630 N   0  3  0  0  0
  -11.8810   -3.0760   14.3640 N   0  3  0  0  0
   -1.5300    5.2050   20.7570 C   0  0  0  0  0
   -2.7885   -2.4365   16.9296 H   0  0  0  0  0
   -3.7278   -1.6944   18.2479 H   0  0  0  0  0
   -4.1706   -3.3077   17.6379 H   0  0  0  0  0
   -8.7701   -1.6473   11.0617 H   0  0  0  0  0
   -8.8079   -0.0128   11.8875 H   0  0  0  0  0
   -2.0455    5.0367   14.5057 H   0  0  0  0  0
    3.3191    2.4417   19.1983 H   0  0  0  0  0
   -1.5952    3.4299   19.0972 H   0  0  0  0  0
   -5.4006    1.9551   13.7973 H   0  0  0  0  0
   -2.5036   -0.3070   17.1610 H   0  0  0  0  0
   -6.8299   -1.9928   12.0117 H   0  0  0  0  0
   -7.6972   -1.9616   13.6339 H   0  0  0  0  0
   -7.1541    0.7318   13.0297 H   0  0  0  0  0
   -5.7042   -0.0855   12.5235 H   0  0  0  0  0
  -13.8520   -2.5921   14.9666 H   0  0  0  0  0
  -13.5647   -4.3235   14.6658 H   0  0  0  0  0
  -12.9257   -3.5581   16.1412 H   0  0  0  0  0
  -10.9834   -2.4060   11.1115 H   0  0  0  0  0
  -10.1744   -3.5523   12.2271 H   0  0  0  0  0
   -9.1593   -2.5823   14.3713 H   0  0  0  0  0
   -9.3384   -0.7999   14.6355 H   0  0  0  0  0
  -12.5998   -3.7430   12.4914 H   0  0  0  0  0
  -12.7293   -1.9723   12.7733 H   0  0  0  0  0
  -11.7290   -1.0470   14.9496 H   0  0  0  0  0
  -10.8992   -2.2102   16.0281 H   0  0  0  0  0
   -0.7664    0.5654   17.3678 H   0  0  0  0  0
  -10.6022   -0.6883   12.6684 H   0  0  0  0  0
  -11.2806   -3.8957   14.4539 H   0  0  0  0  0
   -1.7168    5.5888   19.7540 H   0  0  0  0  0
   -2.1495    4.3254   20.9320 H   0  0  0  0  0
   -1.7712    5.9729   21.4920 H   0  0  0  0  0
 22  1  1  0  0  0
 24  2  1  0  0  0
  2 36  1  0  0  0
 13  3  1  0  0  0
  3 34  1  0  0  0
  7  4  3  0  0  0
 25  5  1  0  0  0
 26  6  1  0  0  0
 27  7  1  0  0  0
 20  8  4  0  0  0
  8 27  4  0  0  0
  9 25  4  0  0  0
 26  9  4  0  0  0
 10 24  4  0  0  0
 28 10  4  0  0  0
 30 11  4  0  0  0
 11 32  4  0  0  0
 29 12  4  0  0  0
 12 33  4  0  0  0
 14 13  1  0  0  0
 23 14  1  0  0  0
 35 15  1  0  0  0
 16 18  1  0  0  0
 34 16  1  0  0  0
 17 19  1  0  0  0
 34 17  1  0  0  0
 18 35  1  0  0  0
 19 35  1  0  0  0
 32 20  4  0  0  0
 21 28  1  0  0  0
 31 21  1  0  0  0
 29 22  1  0  0  0
 30 23  1  0  0  0
 24 25  4  0  0  0
 28 26  4  0  0  0
 27 31  4  0  0  0
 29 30  4  0  0  0
 31 33  4  0  0  0
 32 33  4  0  0  0
  1 37  1  0  0  0
  1 38  1  0  0  0
  1 39  1  0  0  0
  3 40  1  0  0  0
  3 41  1  0  0  0
  8 42  1  0  0  0
  9 43  1  0  0  0
 10 44  1  0  0  0
 11 45  1  0  0  0
 12 46  1  0  0  0
 13 47  1  0  0  0
 13 48  1  0  0  0
 14 49  1  0  0  0
 14 50  1  0  0  0
 15 51  1  0  0  0
 15 52  1  0  0  0
 15 53  1  0  0  0
 16 54  1  0  0  0
 16 55  1  0  0  0
 17 56  1  0  0  0
 17 57  1  0  0  0
 18 58  1  0  0  0
 18 59  1  0  0  0
 19 60  1  0  0  0
 19 61  1  0  0  0
 21 62  1  0  0  0
 34 63  1  0  0  0
 35 64  1  0  0  0
 36 65  1  0  0  0
 36 66  1  0  0  0
 36 67  1  0  0  0
M  END
$$$$
