### 
### Created by X-TOOL on Mon Sep 10 21:13:23 2018
### 

@<TRIPOS>MOLECULE
4wz5_ligand
   36    38     1     0     0
SMALL
GAST_HUCK


@<TRIPOS>ATOM
      1 C1         18.0850  -10.0850   32.1200 C.ar      1 3VU        -0.0550
      2 C2         17.7990  -10.8840   31.0230 C.ar      1 3VU         0.0847
      3 C3         16.7120  -11.7550   30.9870 C.ar      1 3VU        -0.0288
      4 O4         18.3780   -9.4860   35.3080 O.3       1 3VU        -0.8710
      5 C7         15.2090  -12.1410   35.1210 C.3       1 3VU        -0.0059
      6 C8         14.3430  -12.1710   36.3570 C.2       1 3VU         0.0353
      7 C9         14.5750  -12.6470   31.9930 C.3       1 3VU        -0.0413
      8 C10        16.5740  -12.7550   29.8590 C.3       1 3VU        -0.0400
      9 C11        19.7890  -11.2440   29.7750 C.2       1 3VU         0.1300
     10 C12        21.7570  -11.8120   28.8980 C.2       1 3VU         0.0216
     11 O1         14.6970  -13.1000   37.2040 O.co2     1 3VU        -0.5689
     12 O2         13.4290  -11.3950   36.5600 O.co2     1 3VU        -0.5689
     13 C6         15.2900  -10.7620   34.4690 C.3       1 3VU        -0.0922
     14 O          15.9990   -9.8190   35.3110 O.3       1 3VU        -0.8444
     15 B          17.2020   -9.5590   34.6530 B         1 3VU         3.0000
     16 C5         16.0450  -10.9110   33.1640 C.ar      1 3VU        -0.0745
     17 C          17.2010  -10.1310   33.2090 C.ar      1 3VU        -0.0616
     18 C4         15.7920  -11.7540   32.0490 C.ar      1 3VU        -0.0605
     19 O3         18.5370  -10.6930   29.8380 O.3       1 3VU        -0.2942
     20 S          20.5750  -12.2140   31.0550 S.3       1 3VU        -0.0998
     21 N1         21.9310  -12.4510   30.0920 N.2       1 3VU        -0.4111
     22 N          20.5850  -11.1340   28.6940 N.2       1 3VU        -0.3727
     23 N2         22.7120  -11.8380   27.9550 N.pl3     1 3VU        -0.3480
     24 H          18.9612   -9.4469   32.1357 H         1 3VU         0.0403
     25 H          18.3366   -8.7910   35.9543 H         1 3VU        -0.1290
     26 H          14.7950  -12.8491   34.3881 H         1 3VU         0.0437
     27 H          16.2257  -12.4547   35.4001 H         1 3VU         0.0437
     28 H          14.5761  -13.2094   31.0477 H         1 3VU         0.0353
     29 H          13.6654  -12.0313   32.0522 H         1 3VU         0.0353
     30 H          14.5973  -13.3506   32.8382 H         1 3VU         0.0353
     31 H          17.3820  -12.5983   29.1292 H         1 3VU         0.0345
     32 H          15.6012  -12.6177   29.3642 H         1 3VU         0.0345
     33 H          16.6386  -13.7757   30.2639 H         1 3VU         0.0345
     34 H          14.2742  -10.3862   34.2766 H         1 3VU         0.0243
     35 H          23.5883  -12.3525   28.1235 H         1 3VU         0.1672
     36 H          22.5685  -11.3435   27.0629 H         1 3VU         0.1672
@<TRIPOS>BOND
     1    1    2 ar 
     2   17    1 ar 
     3    2    3 ar 
     4    2   19 1  
     5    3    8 1  
     6    3   18 ar 
     7   15    4 1  
     8    5    6 1  
     9   13    5 1  
    10    6   11 ar 
    11    6   12 ar 
    12   18    7 1  
    13   19    9 1  
    14    9   20 1  
    15    9   22 2  
    16   10   21 2  
    17   22   10 1  
    18   10   23 1  
    19   14   13 1  
    20   13   16 1  
    21   15   14 1  
    22   15   17 1  
    23   16   17 ar 
    24   16   18 ar 
    25   20   21 1  
    26    1   24 1  
    27    4   25 1  
    28    5   26 1  
    29    5   27 1  
    30    7   28 1  
    31    7   29 1  
    32    7   30 1  
    33    8   31 1  
    34    8   32 1  
    35    8   33 1  
    36   13   34 1  
    37   23   35 1  
    38   23   36 1  
@<TRIPOS>SUBSTRUCTURE
     1 3VU         1

