4wz5_ligand
  -I-interpret- 

 37 39  0  0  0  0  0  0  0  0999 V2000
   18.0850  -10.0850   32.1200 C   0  0  0  0  0
   17.7990  -10.8840   31.0230 C   0  0  0  0  0
   16.7120  -11.7550   30.9870 C   0  0  0  0  0
   18.3780   -9.4860   35.3080 O   0  0  0  0  0
   15.2090  -12.1410   35.1210 C   0  0  0  0  0
   14.3430  -12.1710   36.3570 C   0  0  0  0  0
   14.5750  -12.6470   31.9930 C   0  0  0  0  0
   16.5740  -12.7550   29.8590 C   0  0  0  0  0
   19.7890  -11.2440   29.7750 C   0  0  0  0  0
   21.7570  -11.8120   28.8980 C   0  0  0  0  0
   14.6970  -13.1000   37.2040 O   0  0  0  0  0
   13.4290  -11.3950   36.5600 O   0  0  0  0  0
   15.2900  -10.7620   34.4690 C   0  0  0  0  0
   15.9990   -9.8190   35.3110 O   0  0  0  0  0
   17.2020   -9.5590   34.6530 B   0  0  0  0  0
   16.0450  -10.9110   33.1640 C   0  0  0  0  0
   17.2010  -10.1310   33.2090 C   0  0  0  0  0
   15.7920  -11.7540   32.0490 C   0  0  0  0  0
   18.5370  -10.6930   29.8380 O   0  0  0  0  0
   20.5750  -12.2140   31.0550 S   0  0  0  0  0
   21.9310  -12.4510   30.0920 N   0  0  0  0  0
   20.5850  -11.1340   28.6940 N   0  0  0  0  0
   22.7120  -11.8380   27.9550 N   0  0  0  0  0
   18.9660   -9.4434   32.1358 H   0  0  0  0  0
   19.0811   -9.3003   34.6813 H   0  0  0  0  0
   14.7670  -12.8223   34.3940 H   0  0  0  0  0
   16.2186  -12.4221   35.4208 H   0  0  0  0  0
   13.9741  -12.3859   31.1219 H   0  0  0  0  0
   14.8923  -13.6871   31.9185 H   0  0  0  0  0
   13.9835  -12.5101   32.8983 H   0  0  0  0  0
   16.5154  -12.2235   28.9091 H   0  0  0  0  0
   17.4402  -13.4167   29.8538 H   0  0  0  0  0
   15.6674  -13.3423   30.0047 H   0  0  0  0  0
   15.4366  -13.5949   36.8438 H   0  0  0  0  0
   14.2802  -10.3832   34.3108 H   0  0  0  0  0
   23.5833  -12.3403   28.1252 H   0  0  0  0  0
   22.5664  -11.3555   27.0682 H   0  0  0  0  0
  1  2  4  0  0  0
 17  1  4  0  0  0
  2  3  4  0  0  0
  2 19  1  0  0  0
  3  8  1  0  0  0
  3 18  4  0  0  0
 15  4  1  0  0  0
  5  6  1  0  0  0
 13  5  1  0  0  0
  6 11  1  0  0  0
  6 12  2  0  0  0
 18  7  1  0  0  0
 19  9  1  0  0  0
  9 20  4  0  0  0
  9 22  4  0  0  0
 10 21  4  0  0  0
 22 10  4  0  0  0
 10 23  1  0  0  0
 14 13  1  0  0  0
 13 16  1  0  0  0
 15 14  1  0  0  0
 15 17  1  0  0  0
 16 17  4  0  0  0
 16 18  4  0  0  0
 20 21  4  0  0  0
  1 24  1  0  0  0
  4 25  1  0  0  0
  5 26  1  0  0  0
  5 27  1  0  0  0
  7 28  1  0  0  0
  7 29  1  0  0  0
  7 30  1  0  0  0
  8 31  1  0  0  0
  8 32  1  0  0  0
  8 33  1  0  0  0
 11 34  1  0  0  0
 13 35  1  0  0  0
 23 36  1  0  0  0
 23 37  1  0  0  0
M  END
$$$$
