1o47_ligand
  -I-interpret- 

 77 80  0  0  0  0  0  0  0  0999 V2000
   19.4240   24.9570   20.1250 C   0  0  0  0  0
   19.9800   25.8960   19.2510 C   0  0  0  0  0
   19.1920   26.3790   18.1810 C   0  0  0  0  0
   17.8020   26.0000   18.0910 C   0  0  0  0  0
   17.2850   25.0700   18.9970 C   0  0  0  0  0
   18.0830   24.5020   19.9870 C   0  0  0  0  0
   16.9190   26.6460   17.0140 C   0  0  0  0  0
   15.8890   25.8170   16.7100 F   0  0  0  0  0
   17.6140   26.8760   15.8720 F   0  0  0  0  0
   16.3220   28.3460   17.4480 P   0  0  0  0  0
   15.1940   28.7000   16.4530 O   0  0  0  0  0
   17.3820   29.3300   17.2510 O   0  0  0  0  0
   15.6890   28.4760   18.8650 O   0  0  0  0  0
   20.3070   24.3950   21.1770 C   0  0  0  0  0
   19.9480   25.0170   22.5210 C   0  0  0  0  0
   20.6960   24.2990   23.6180 C   0  0  0  0  0
   19.9660   23.2750   24.1800 N   0  0  0  0  0
   21.8530   24.6550   23.9280 O   0  0  0  0  0
   20.2830   26.4220   22.5370 N   0  0  0  0  0
   19.5610   27.3450   23.1640 C   0  0  0  0  0
   18.6200   27.0650   23.8980 O   0  0  0  0  0
   19.9670   28.8210   22.8380 C   0  0  0  0  0
   20.5770   22.3410   25.0850 C   0  0  0  0  0
   21.6280   21.5460   24.2610 C   0  0  0  0  0
   22.4330   20.6070   24.9690 N   0  0  0  0  0
   21.7590   21.6650   23.0380 O   0  0  0  0  0
   22.2570   20.2680   26.3960 C   0  0  0  0  0
   20.9350   19.5430   26.6110 C   0  0  0  0  0
   23.3850   19.7250   24.2360 C   0  0  0  0  0
   22.7690   18.3660   23.9430 C   0  0  0  0  0
   19.7630   20.5430   26.8230 C   0  0  0  0  0
   19.4480   21.4420   25.5810 C   0  0  0  0  0
   21.6950   18.2980   23.0160 C   0  0  0  0  0
   21.0810   17.0480   22.7270 C   0  0  0  0  0
   21.6030   15.9300   23.3900 C   0  0  0  0  0
   22.6530   16.0030   24.3330 C   0  0  0  0  0
   23.2220   17.2200   24.6140 C   0  0  0  0  0
   20.9300   14.6240   23.0890 C   0  0  0  0  0
   21.6630   13.4050   23.0050 C   0  0  0  0  0
   20.9670   12.1930   22.7170 C   0  0  0  0  0
   19.5830   12.1750   22.5330 C   0  0  0  0  0
   18.8250   13.3490   22.6960 C   0  0  0  0  0
   19.5010   14.5720   22.9550 C   0  0  0  0  0
   21.0016   26.2490   19.3918 H   0  0  0  0  0
   19.6315   27.0337   17.4285 H   0  0  0  0  0
   16.2357   24.7833   18.9274 H   0  0  0  0  0
   17.6886   23.7253   20.6422 H   0  0  0  0  0
   14.4738   28.0729   16.5512 H   0  0  0  0  0
   14.9969   27.8186   18.9666 H   0  0  0  0  0
   21.3469   24.6178   20.9379 H   0  0  0  0  0
   20.1725   23.3145   21.2274 H   0  0  0  0  0
   18.8745   24.9180   22.6817 H   0  0  0  0  0
   18.9769   23.1783   23.9503 H   0  0  0  0  0
   21.1209   26.7227   22.0390 H   0  0  0  0  0
   19.1310   29.3286   22.3568 H   0  0  0  0  0
   20.2244   29.3383   23.7623 H   0  0  0  0  0
   20.8273   28.8205   22.1687 H   0  0  0  0  0
   21.0762   22.8012   25.9377 H   0  0  0  0  0
   22.2568   21.1873   26.9816 H   0  0  0  0  0
   23.0735   19.6174   26.7094 H   0  0  0  0  0
   21.0235   18.9215   27.5021 H   0  0  0  0  0
   20.7218   18.9447   25.7252 H   0  0  0  0  0
   24.2687   19.5779   24.8569 H   0  0  0  0  0
   23.6391   20.2013   23.2891 H   0  0  0  0  0
   20.0539   21.2095   27.6349 H   0  0  0  0  0
   18.8700   19.9514   27.0245 H   0  0  0  0  0
   19.2262   20.7575   24.7622 H   0  0  0  0  0
   18.6440   22.1104   25.8891 H   0  0  0  0  0
   21.3409   19.2048   22.5255 H   0  0  0  0  0
   20.2493   16.9646   22.0275 H   0  0  0  0  0
   23.0076   15.1014   24.8324 H   0  0  0  0  0
   24.0198   17.2957   25.3529 H   0  0  0  0  0
   22.7421   13.3984   23.1588 H   0  0  0  0  0
   21.5277   11.2615   22.6390 H   0  0  0  0  0
   19.0859   11.2439   22.2609 H   0  0  0  0  0
   17.7377   13.3210   22.6248 H   0  0  0  0  0
   18.9224   15.4904   23.0541 H   0  0  0  0  0
  1  2  4  0  0  0
  1  6  4  0  0  0
  1 14  1  0  0  0
  2  3  4  0  0  0
  3  4  4  0  0  0
  4  5  4  0  0  0
  4  7  1  0  0  0
  5  6  4  0  0  0
  7  8  1  0  0  0
  7  9  1  0  0  0
  7 10  1  0  0  0
 10 11  1  0  0  0
 10 12  2  0  0  0
 10 13  1  0  0  0
 14 15  1  0  0  0
 15 16  1  0  0  0
 15 19  1  0  0  0
 16 17  1  0  0  0
 16 18  2  0  0  0
 17 23  1  0  0  0
 19 20  1  0  0  0
 20 21  2  0  0  0
 20 22  1  0  0  0
 23 24  1  0  0  0
 23 32  1  0  0  0
 24 25  1  0  0  0
 24 26  2  0  0  0
 25 27  1  0  0  0
 25 29  1  0  0  0
 27 28  1  0  0  0
 28 31  1  0  0  0
 29 30  1  0  0  0
 30 33  4  0  0  0
 30 37  4  0  0  0
 31 32  1  0  0  0
 33 34  4  0  0  0
 34 35  4  0  0  0
 35 36  4  0  0  0
 35 38  1  0  0  0
 36 37  4  0  0  0
 38 39  4  0  0  0
 38 43  4  0  0  0
 39 40  4  0  0  0
 40 41  4  0  0  0
 41 42  4  0  0  0
 42 43  4  0  0  0
  2 44  1  0  0  0
  3 45  1  0  0  0
  5 46  1  0  0  0
  6 47  1  0  0  0
 11 48  1  0  0  0
 13 49  1  0  0  0
 14 50  1  0  0  0
 14 51  1  0  0  0
 15 52  1  0  0  0
 17 53  1  0  0  0
 19 54  1  0  0  0
 22 55  1  0  0  0
 22 56  1  0  0  0
 22 57  1  0  0  0
 23 58  1  0  0  0
 27 59  1  0  0  0
 27 60  1  0  0  0
 28 61  1  0  0  0
 28 62  1  0  0  0
 29 63  1  0  0  0
 29 64  1  0  0  0
 31 65  1  0  0  0
 31 66  1  0  0  0
 32 67  1  0  0  0
 32 68  1  0  0  0
 33 69  1  0  0  0
 34 70  1  0  0  0
 36 71  1  0  0  0
 37 72  1  0  0  0
 39 73  1  0  0  0
 40 74  1  0  0  0
 41 75  1  0  0  0
 42 76  1  0  0  0
 43 77  1  0  0  0
M  END
$$$$
