### 
### Created by X-TOOL on Mon Sep 10 21:12:51 2018
### 

@<TRIPOS>MOLECULE
1o47_ligand
   75    78     1     0     0
SMALL
GAST_HUCK


@<TRIPOS>ATOM
      1 C1         19.4240   24.9570   20.1250 C.ar      1 822        -0.0068
      2 C2         19.9800   25.8960   19.2510 C.ar      1 822        -0.0280
      3 C3         19.1920   26.3790   18.1810 C.ar      1 822        -0.0385
      4 C4         17.8020   26.0000   18.0910 C.ar      1 822         0.0219
      5 C5         17.2850   25.0700   18.9970 C.ar      1 822        -0.0385
      6 C6         18.0830   24.5020   19.9870 C.ar      1 822        -0.0280
      7 C11        16.9190   26.6460   17.0140 C.3       1 822         0.2931
      8 F12        15.8890   25.8170   16.7100 F         1 822        -0.2419
      9 F13        17.6140   26.8760   15.8720 F         1 822        -0.2419
     10 P14        16.3220   28.3460   17.4480 P.3       1 822         0.0966
     11 O15        15.1940   28.7000   16.4530 O.co2     1 822        -0.5668
     12 O16        17.3820   29.3300   17.2510 O.co2     1 822        -0.5668
     13 O17        15.6890   28.4760   18.8650 O.co2     1 822        -0.5668
     14 C18        20.3070   24.3950   21.1770 C.3       1 822         0.0367
     15 C19        19.9480   25.0170   22.5210 C.3       1 822         0.1450
     16 C22        20.6960   24.2990   23.6180 C.2       1 822         0.2068
     17 N23        19.9660   23.2750   24.1800 N.am      1 822        -0.2635
     18 O24        21.8530   24.6550   23.9280 O.2       1 822        -0.3941
     19 N25        20.2830   26.4220   22.5370 N.am      1 822        -0.2633
     20 C26        19.5610   27.3450   23.1640 C.2       1 822         0.1753
     21 O27        18.6200   27.0650   23.8980 O.2       1 822        -0.3972
     22 C28        19.9670   28.8210   22.8380 C.3       1 822         0.0258
     23 C32        20.5770   22.3410   25.0850 C.3       1 822         0.1312
     24 C33        21.6280   21.5460   24.2610 C.2       1 822         0.2060
     25 N34        22.4330   20.6070   24.9690 N.am      1 822        -0.2598
     26 O37        21.7590   21.6650   23.0380 O.2       1 822        -0.3942
     27 C38        22.2570   20.2680   26.3960 C.3       1 822         0.0362
     28 C39        20.9350   19.5430   26.6110 C.3       1 822        -0.0321
     29 C42        23.3850   19.7250   24.2360 C.3       1 822         0.0680
     30 C43        22.7690   18.3660   23.9430 C.ar      1 822        -0.0198
     31 C46        19.7630   20.5430   26.8230 C.3       1 822        -0.0470
     32 C49        19.4480   21.4420   25.5810 C.3       1 822        -0.0123
     33 C58        21.6950   18.2980   23.0160 C.ar      1 822        -0.0570
     34 C59        21.0810   17.0480   22.7270 C.ar      1 822        -0.0600
     35 C60        21.6030   15.9300   23.3900 C.ar      1 822        -0.0242
     36 C61        22.6530   16.0030   24.3330 C.ar      1 822        -0.0600
     37 C62        23.2220   17.2200   24.6140 C.ar      1 822        -0.0570
     38 C67        20.9300   14.6240   23.0890 C.ar      1 822        -0.0221
     39 C68        21.6630   13.4050   23.0050 C.ar      1 822        -0.0557
     40 C69        20.9670   12.1930   22.7170 C.ar      1 822        -0.0622
     41 C70        19.5830   12.1750   22.5330 C.ar      1 822        -0.0627
     42 C71        18.8250   13.3490   22.6960 C.ar      1 822        -0.0622
     43 C72        19.5010   14.5720   22.9550 C.ar      1 822        -0.0557
     44 H1         20.9960   26.2471   19.3910 H         1 822         0.0652
     45 H2         19.6291   27.0301   17.4326 H         1 822         0.0835
     46 H3         16.2415   24.7849   18.9278 H         1 822         0.0835
     47 H4         17.6908   23.7296   20.6386 H         1 822         0.0652
     48 H5         21.3561   24.6215   20.9358 H         1 822         0.0547
     49 H6         20.1696   23.3048   21.2283 H         1 822         0.0547
     50 H7         18.8666   24.9068   22.6894 H         1 822         0.0833
     51 H8         18.9963   23.1802   23.9548 H         1 822         0.1883
     52 H9         21.1044   26.7168   22.0488 H         1 822         0.1885
     53 H10        19.3196   29.5116   23.3984 H         1 822         0.0467
     54 H11        19.8511   29.0035   21.7595 H         1 822         0.0467
     55 H12        21.0155   28.9853   23.1271 H         1 822         0.0467
     56 H13        21.0608   22.8535   25.9295 H         1 822         0.0800
     57 H14        22.2641   21.1927   26.9917 H         1 822         0.0524
     58 H15        23.0835   19.6177   26.7185 H         1 822         0.0524
     59 H16        21.0207   18.8997   27.4992 H         1 822         0.0285
     60 H17        20.7200   18.9228   25.7283 H         1 822         0.0285
     61 H18        24.2872   19.5842   24.8494 H         1 822         0.0689
     62 H19        23.6592   20.2060   23.2855 H         1 822         0.0689
     63 H20        20.0196   21.2000   27.6671 H         1 822         0.0268
     64 H21        18.8589   19.9665   27.0686 H         1 822         0.0268
     65 H22        19.1615   20.7778   24.7523 H         1 822         0.0312
     66 H23        18.5976   22.0883   25.8438 H         1 822         0.0312
     67 H24        21.3429   19.1998   22.5282 H         1 822         0.0561
     68 H25        20.2538   16.9650   22.0313 H         1 822         0.0609
     69 H26        23.0057   15.1063   24.8297 H         1 822         0.0609
     70 H27        24.0154   17.2953   25.3488 H         1 822         0.0561
     71 H28        22.7361   13.3984   23.1580 H         1 822         0.0615
     72 H29        21.5246   11.2666   22.6394 H         1 822         0.0615
     73 H30        19.0886   11.2490   22.2624 H         1 822         0.0610
     74 H31        17.7437   13.3212   22.6252 H         1 822         0.0615
     75 H32        18.9256   15.4854   23.0535 H         1 822         0.0615
@<TRIPOS>BOND
     1    1    2 ar 
     2    1    6 ar 
     3    1   14 1  
     4    2    3 ar 
     5    3    4 ar 
     6    4    5 ar 
     7    4    7 1  
     8    5    6 ar 
     9    7    8 1  
    10    7    9 1  
    11    7   10 1  
    12   10   11 ar 
    13   10   12 ar 
    14   10   13 ar 
    15   14   15 1  
    16   15   16 1  
    17   15   19 1  
    18   16   17 am 
    19   16   18 2  
    20   17   23 1  
    21   19   20 am 
    22   20   21 2  
    23   20   22 1  
    24   23   24 1  
    25   23   32 1  
    26   24   25 am 
    27   24   26 2  
    28   25   27 1  
    29   25   29 1  
    30   27   28 1  
    31   28   31 1  
    32   29   30 1  
    33   30   33 ar 
    34   30   37 ar 
    35   31   32 1  
    36   33   34 ar 
    37   34   35 ar 
    38   35   36 ar 
    39   35   38 1  
    40   36   37 ar 
    41   38   39 ar 
    42   38   43 ar 
    43   39   40 ar 
    44   40   41 ar 
    45   41   42 ar 
    46   42   43 ar 
    47    2   44 1  
    48    3   45 1  
    49    5   46 1  
    50    6   47 1  
    51   14   48 1  
    52   14   49 1  
    53   15   50 1  
    54   17   51 1  
    55   19   52 1  
    56   22   53 1  
    57   22   54 1  
    58   22   55 1  
    59   23   56 1  
    60   27   57 1  
    61   27   58 1  
    62   28   59 1  
    63   28   60 1  
    64   29   61 1  
    65   29   62 1  
    66   31   63 1  
    67   31   64 1  
    68   32   65 1  
    69   32   66 1  
    70   33   67 1  
    71   34   68 1  
    72   36   69 1  
    73   37   70 1  
    74   39   71 1  
    75   40   72 1  
    76   41   73 1  
    77   42   74 1  
    78   43   75 1  
@<TRIPOS>SUBSTRUCTURE
     1 822         1

