### 
### Created by X-TOOL on Mon Sep 10 21:12:45 2018
### 

@<TRIPOS>MOLECULE
1lhd_ligand
   65    66     1     0     0
SMALL
GAST_HUCK


@<TRIPOS>ATOM
      1 B1         14.9900  -10.5580   17.9990 B         1 DI2         0.7163
      2 C          14.6830  -11.5260   19.2030 C.3       1 DI2         0.0532
      3 C2         13.4780  -10.9310   19.9430 C.3       1 DI2        -0.0386
      4 C3         13.0880  -11.4400   21.3240 C.3       1 DI2        -0.0473
      5 C4         11.8770  -12.3720   21.2930 C.3       1 DI2        -0.0126
      6 C5         11.5610  -12.8790   22.6160 C.3       1 DI2        -0.0354
      7 C6         17.8510  -12.8450   21.0770 C.3       1 DI2         0.1336
      8 C7         16.6100  -12.8020   20.1260 C.2       1 DI2         0.2010
      9 C8         19.1610  -12.6170   20.3060 C.3       1 DI2        -0.0104
     10 C9         19.8350  -13.9710   20.1480 C.3       1 DI2        -0.0281
     11 C10        19.2410  -14.8870   21.2040 C.3       1 DI2         0.0369
     12 C11        17.1280  -14.7320   22.5490 C.2       1 DI2         0.2085
     13 C12        17.8200  -16.0930   24.6890 C.3       1 DI2         0.0214
     14 C13        17.2670  -16.1400   23.2010 C.3       1 DI2         0.1406
     15 C14        15.7500  -18.0070   22.6010 C.2       1 DI2         0.1752
     16 C15        14.3320  -18.5780   22.6250 C.3       1 DI2         0.0258
     17 C16        21.6040  -15.3850   24.3510 C.ar      1 DI2        -0.0686
     18 C17        21.7350  -14.2320   25.1080 C.ar      1 DI2        -0.0687
     19 C18        20.6200  -13.6810   25.7410 C.ar      1 DI2        -0.0686
     20 C19        19.3620  -14.2660   25.6000 C.ar      1 DI2        -0.0601
     21 C20        19.2180  -15.4300   24.8350 C.ar      1 DI2        -0.0386
     22 C21        20.3520  -15.9950   24.2120 C.ar      1 DI2        -0.0601
     23 N          15.8820  -11.6610   20.1200 N.am      1 DI2        -0.2918
     24 N1         10.4250  -12.6060   23.3970 N.4       1 DI2         0.2185
     25 N2         18.0470  -14.2130   21.6970 N.am      1 DI2        -0.2497
     26 N3         15.9360  -16.8030   23.1770 N.am      1 DI2        -0.2640
     27 O          13.8200  -10.4880   17.1570 O.3       1 DI2        -0.4967
     28 O1         16.0910  -10.8680   17.1680 O.3       1 DI2        -0.4967
     29 O2         16.3970  -13.7940   19.4070 O.2       1 DI2        -0.3946
     30 O3         16.1370  -14.0530   22.8650 O.2       1 DI2        -0.3940
     31 O4         16.6560  -18.6510   22.0380 O.2       1 DI2        -0.3972
     32 H1         14.4226  -12.5226   18.8172 H         1 DI2         0.0431
     33 H2         12.6035  -11.0826   19.2933 H         1 DI2         0.0275
     34 H3         13.6741   -9.8538   20.0485 H         1 DI2         0.0275
     35 H4         12.8502  -10.5764   21.9624 H         1 DI2         0.0267
     36 H5         13.9415  -11.9873   21.7505 H         1 DI2         0.0267
     37 H6         12.0961  -13.2205   20.6282 H         1 DI2         0.0317
     38 H7         11.0092  -11.8176   20.9062 H         1 DI2         0.0317
     39 H8         12.4108  -12.5711   23.2429 H         1 DI2         0.0813
     40 H9         11.5657  -13.9732   22.5037 H         1 DI2         0.0813
     41 H10        17.7252  -12.0825   21.8598 H         1 DI2         0.0802
     42 H11        19.8149  -11.9345   20.8687 H         1 DI2         0.0313
     43 H12        18.9456  -12.1863   19.3171 H         1 DI2         0.0313
     44 H13        20.9201  -13.8731   20.2996 H         1 DI2         0.0287
     45 H14        19.6400  -14.3755   19.1438 H         1 DI2         0.0287
     46 H15        19.9585  -15.0409   22.0235 H         1 DI2         0.0524
     47 H16        18.9759  -15.8585   20.7615 H         1 DI2         0.0524
     48 H17        17.8883  -17.1251   25.0632 H         1 DI2         0.0474
     49 H18        17.1050  -15.5266   25.3038 H         1 DI2         0.0474
     50 H19        17.9708  -16.7310   22.5965 H         1 DI2         0.0823
     51 H20        14.3227  -19.5576   22.1246 H         1 DI2         0.0467
     52 H21        13.6514  -17.8916   22.1000 H         1 DI2         0.0467
     53 H22        14.0017  -18.6957   23.6676 H         1 DI2         0.0467
     54 H23        22.4725  -15.8153   23.8656 H         1 DI2         0.0599
     55 H24        22.7044  -13.7575   25.2087 H         1 DI2         0.0559
     56 H25        20.7328  -12.7900   26.3479 H         1 DI2         0.0599
     57 H26        18.4984  -13.8211   26.0810 H         1 DI2         0.0557
     58 H27        20.2530  -16.9015   23.6259 H         1 DI2         0.0557
     59 H28        16.1361  -10.9045   20.7227 H         1 DI2         0.1840
     60 H29        10.4897  -13.1054   24.2702 H         1 DI2         0.1994
     61 H30         9.5980  -12.9009   22.9018 H         1 DI2         0.1994
     62 H31        10.3725  -11.6160   23.5792 H         1 DI2         0.1994
     63 H32        15.1563  -16.3419   23.6006 H         1 DI2         0.1884
     64 H33        13.9432   -9.8118   16.5012 H         1 DI2         0.1667
     65 H34        16.8794  -10.9212   17.6955 H         1 DI2         0.1667
@<TRIPOS>BOND
     1    2    1 1  
     2    1   27 1  
     3    1   28 1  
     4    2    3 1  
     5   23    2 1  
     6    3    4 1  
     7    4    5 1  
     8    5    6 1  
     9    6   24 1  
    10    7    8 1  
    11    7    9 1  
    12   25    7 1  
    13    8   23 am 
    14    8   29 2  
    15   10    9 1  
    16   11   10 1  
    17   25   11 1  
    18   14   12 1  
    19   12   25 am 
    20   12   30 2  
    21   13   14 1  
    22   21   13 1  
    23   14   26 1  
    24   15   16 1  
    25   26   15 am 
    26   15   31 2  
    27   18   17 ar 
    28   17   22 ar 
    29   19   18 ar 
    30   20   19 ar 
    31   20   21 ar 
    32   21   22 ar 
    33    2   32 1  
    34    3   33 1  
    35    3   34 1  
    36    4   35 1  
    37    4   36 1  
    38    5   37 1  
    39    5   38 1  
    40    6   39 1  
    41    6   40 1  
    42    7   41 1  
    43    9   42 1  
    44    9   43 1  
    45   10   44 1  
    46   10   45 1  
    47   11   46 1  
    48   11   47 1  
    49   13   48 1  
    50   13   49 1  
    51   14   50 1  
    52   16   51 1  
    53   16   52 1  
    54   16   53 1  
    55   17   54 1  
    56   18   55 1  
    57   19   56 1  
    58   20   57 1  
    59   22   58 1  
    60   23   59 1  
    61   24   60 1  
    62   24   61 1  
    63   24   62 1  
    64   26   63 1  
    65   27   64 1  
    66   28   65 1  
@<TRIPOS>SUBSTRUCTURE
     1 DI2         1

