1lhd_ligand
  -I-interpret- 

 65 66  0  0  0  0  0  0  0  0999 V2000
   14.9900  -10.5580   17.9990 B   0  0  0  0  0
   14.6830  -11.5260   19.2030 C   0  0  0  0  0
   13.4780  -10.9310   19.9430 C   0  0  0  0  0
   13.0880  -11.4400   21.3240 C   0  0  0  0  0
   11.8770  -12.3720   21.2930 C   0  0  0  0  0
   11.5610  -12.8790   22.6160 C   0  0  0  0  0
   17.8510  -12.8450   21.0770 C   0  0  0  0  0
   16.6100  -12.8020   20.1260 C   0  0  0  0  0
   19.1610  -12.6170   20.3060 C   0  0  0  0  0
   19.8350  -13.9710   20.1480 C   0  0  0  0  0
   19.2410  -14.8870   21.2040 C   0  0  0  0  0
   17.1280  -14.7320   22.5490 C   0  0  0  0  0
   17.8200  -16.0930   24.6890 C   0  0  0  0  0
   17.2670  -16.1400   23.2010 C   0  0  0  0  0
   15.7500  -18.0070   22.6010 C   0  0  0  0  0
   14.3320  -18.5780   22.6250 C   0  0  0  0  0
   21.6040  -15.3850   24.3510 C   0  0  0  0  0
   21.7350  -14.2320   25.1080 C   0  0  0  0  0
   20.6200  -13.6810   25.7410 C   0  0  0  0  0
   19.3620  -14.2660   25.6000 C   0  0  0  0  0
   19.2180  -15.4300   24.8350 C   0  0  0  0  0
   20.3520  -15.9950   24.2120 C   0  0  0  0  0
   15.8820  -11.6610   20.1200 N   0  0  0  0  0
   10.4250  -12.6060   23.3970 N   0  3  0  0  0
   18.0470  -14.2130   21.6970 N   0  0  0  0  0
   15.9360  -16.8030   23.1770 N   0  0  0  0  0
   13.8200  -10.4880   17.1570 O   0  0  0  0  0
   16.0910  -10.8680   17.1680 O   0  0  0  0  0
   16.3970  -13.7940   19.4070 O   0  0  0  0  0
   16.1370  -14.0530   22.8650 O   0  0  0  0  0
   16.6560  -18.6510   22.0380 O   0  0  0  0  0
   14.4620  -12.5323   18.8471 H   0  0  0  0  0
   12.6252  -11.1852   19.3135 H   0  0  0  0  0
   13.7538   -9.8897   20.1097 H   0  0  0  0  0
   12.8285  -10.5765   21.9365 H   0  0  0  0  0
   13.9320  -12.0032   21.7223 H   0  0  0  0  0
   12.1090  -13.2178   20.6458 H   0  0  0  0  0
   11.0186  -11.8102   20.9247 H   0  0  0  0  0
   12.3437  -12.4108   23.2128 H   0  0  0  0  0
   11.4221  -13.9397   22.4068 H   0  0  0  0  0
   17.6512  -12.0731   21.8202 H   0  0  0  0  0
   19.8089  -11.9279   20.8477 H   0  0  0  0  0
   18.9590  -12.1739   19.3308 H   0  0  0  0  0
   20.9138  -13.8826   20.2760 H   0  0  0  0  0
   19.6655  -14.3725   19.1489 H   0  0  0  0  0
   19.9509  -15.0714   22.0103 H   0  0  0  0  0
   18.9981  -15.8642   20.7867 H   0  0  0  0  0
   17.9191  -17.1249   25.0257 H   0  0  0  0  0
   17.1199  -15.4938   25.2712 H   0  0  0  0  0
   18.0000  -16.7019   22.6221 H   0  0  0  0  0
   13.9772  -18.7092   21.6028 H   0  0  0  0  0
   14.3381  -19.5412   23.1353 H   0  0  0  0  0
   13.6733  -17.8893   23.1540 H   0  0  0  0  0
   22.4773  -15.8177   23.8630 H   0  0  0  0  0
   22.7098  -13.7549   25.2092 H   0  0  0  0  0
   20.7335  -12.7850   26.3513 H   0  0  0  0  0
   18.4936  -13.8187   26.0837 H   0  0  0  0  0
   20.2524  -16.9065   23.6226 H   0  0  0  0  0
   16.1412  -10.8894   20.7347 H   0  0  0  0  0
   10.4916  -13.1118   24.2803 H   0  0  0  0  0
   10.3729  -11.6040   23.5807 H   0  0  0  0  0
    9.5889  -12.9048   22.8949 H   0  0  0  0  0
   15.1407  -16.3327   23.6091 H   0  0  0  0  0
   13.0526  -10.2782   17.6943 H   0  0  0  0  0
   16.8876  -10.9217   17.7010 H   0  0  0  0  0
  2  1  1  0  0  0
  1 27  1  0  0  0
  1 28  1  0  0  0
  2  3  1  0  0  0
 23  2  1  0  0  0
  3  4  1  0  0  0
  4  5  1  0  0  0
  5  6  1  0  0  0
  6 24  1  0  0  0
  7  8  1  0  0  0
  7  9  1  0  0  0
 25  7  1  0  0  0
  8 23  1  0  0  0
  8 29  2  0  0  0
 10  9  1  0  0  0
 11 10  1  0  0  0
 25 11  1  0  0  0
 14 12  1  0  0  0
 12 25  1  0  0  0
 12 30  2  0  0  0
 13 14  1  0  0  0
 21 13  1  0  0  0
 14 26  1  0  0  0
 15 16  1  0  0  0
 26 15  1  0  0  0
 15 31  2  0  0  0
 18 17  4  0  0  0
 17 22  4  0  0  0
 19 18  4  0  0  0
 20 19  4  0  0  0
 20 21  4  0  0  0
 21 22  4  0  0  0
  2 32  1  0  0  0
  3 33  1  0  0  0
  3 34  1  0  0  0
  4 35  1  0  0  0
  4 36  1  0  0  0
  5 37  1  0  0  0
  5 38  1  0  0  0
  6 39  1  0  0  0
  6 40  1  0  0  0
  7 41  1  0  0  0
  9 42  1  0  0  0
  9 43  1  0  0  0
 10 44  1  0  0  0
 10 45  1  0  0  0
 11 46  1  0  0  0
 11 47  1  0  0  0
 13 48  1  0  0  0
 13 49  1  0  0  0
 14 50  1  0  0  0
 16 51  1  0  0  0
 16 52  1  0  0  0
 16 53  1  0  0  0
 17 54  1  0  0  0
 18 55  1  0  0  0
 19 56  1  0  0  0
 20 57  1  0  0  0
 22 58  1  0  0  0
 23 59  1  0  0  0
 24 60  1  0  0  0
 24 61  1  0  0  0
 24 62  1  0  0  0
 26 63  1  0  0  0
 27 64  1  0  0  0
 28 65  1  0  0  0
M  END
$$$$
