1g6g_ligand
  -I-interpret- 

124123  0  0  0  0  0  0  0  0999 V2000
   -4.6920   17.1330    2.5160 N   0  3  0  0  0
   -4.5610   17.5590    1.0860 C   0  0  0  0  0
   -3.1650   18.1530    0.8350 C   0  0  0  0  0
   -2.4720   18.4960    1.7830 O   0  0  0  0  0
   -5.7290   18.4790    0.6610 C   0  0  0  0  0
   -5.9670   19.4990    1.6150 O   0  0  0  0  0
   -2.7970   18.3130   -0.4330 N   0  0  0  0  0
   -1.3960   18.6520   -0.7680 C   0  0  0  0  0
   -1.1520   20.0890   -1.2450 C   0  0  0  0  0
   -0.1400   20.3610   -1.9030 O   0  0  0  0  0
   -0.9040   17.6680   -1.8150 C   0  0  0  0  0
   -0.9930   16.1820   -1.4380 C   0  0  0  0  0
   -0.5130   15.2790   -2.5860 C   0  0  0  0  0
   -0.2260   15.9200   -0.1660 C   0  0  0  0  0
   -2.0570   21.0150   -0.9420 N   0  0  0  0  0
   -1.9090   22.3810   -1.4310 C   0  0  0  0  0
   -0.6630   23.0540   -0.8490 C   0  0  0  0  0
   -0.1450   22.6210    0.1850 O   0  0  0  0  0
   -3.1660   23.2270   -1.0790 C   0  0  0  0  0
   -3.3810   23.4400    0.4160 C   0  0  0  0  0
   -4.2470   22.3780    1.0600 C   0  0  0  0  0
   -4.3680   21.2490    0.5350 O   0  0  0  0  0
   -4.9230   22.6960    2.0710 O   0  0  0  0  0
   -0.1990   24.0880   -1.5210 N   0  0  0  0  0
    0.9070   24.9090   -0.9860 C   0  0  0  0  0
    0.6330   25.3450    0.4380 C   0  0  0  0  0
   -0.5440   25.6140    0.7950 O   0  0  0  0  0
    1.1150   26.1500   -1.8480 C   0  0  0  0  0
    2.2120   27.0430   -1.2490 C   0  0  0  0  0
    1.4980   25.7160   -3.2500 C   0  0  0  0  0
    1.5700   25.2260    1.3740 N   0  0  0  0  0
    1.4250   25.5900    2.7740 C   0  0  0  0  0
    2.8310   25.3690    3.3530 C   0  0  0  0  0
    2.7870   25.4690    4.8660 C   0  0  0  0  0
    3.2210   24.0420    3.0650 O   0  0  0  0  0
    4.5260   23.8140    2.1250 P   0  0  0  0  0
    5.7570   24.3760    2.9390 O   0  0  0  0  0
    4.3010   24.6350    0.7710 O   0  0  0  0  0
    4.6370   22.2220    1.9090 O   0  0  0  0  0
    1.0300   27.0630    2.9420 C   0  0  0  0  0
    1.5510   28.0150    2.1750 O   0  0  0  0  0
    0.1220   27.2280    3.9120 N   0  0  0  0  0
   -0.2720   28.5600    4.4490 C   0  0  0  0  0
    0.8870   29.1230    5.2550 C   0  0  0  0  0
    1.2610   28.5520    6.2770 O   0  0  0  0  0
   -1.5350   28.4110    5.3120 C   0  0  0  0  0
   -2.0440   29.6970    5.9430 C   0  0  0  0  0
   -3.1420   29.4430    6.9690 C   0  0  0  0  0
   -3.7450   28.3680    6.9350 O   0  0  0  0  0
   -3.3770   30.3180    7.8280 O   0  0  0  0  0
    1.4560   30.2200    4.7670 N   0  0  0  0  0
    2.6180   30.8510    5.3960 C   0  0  0  0  0
    2.2920   31.9080    6.4330 C   0  0  0  0  0
    1.5550   32.8700    6.1680 O   0  0  0  0  0
    3.5550   31.4310    4.3480 C   0  0  0  0  0
    2.8950   31.7620    7.6030 N   0  0  0  0  0
    2.7320   32.7550    8.6560 C   0  0  0  0  0
    3.2960   34.1080    8.2240 C   0  0  0  0  0
    2.7480   35.1560    8.6230 O   0  0  0  0  0
    3.4250   32.2890    9.9350 C   0  0  0  0  0
    2.7140   31.1410   10.5980 C   0  0  0  0  0
    1.5110   30.8940   10.3280 O   0  0  0  0  0
    3.3250   30.4100   11.4000 O   0  0  0  0  0
    4.3613   34.1682    7.4300 O   0  0  0  0  0
   -5.6213   16.7413    2.6691 H   0  0  0  0  0
   -3.9856   16.4276    2.7254 H   0  0  0  0  0
   -4.5580   17.9410    3.1239 H   0  0  0  0  0
   -4.6425   16.6859    0.4386 H   0  0  0  0  0
   -6.6303   17.8721    0.5753 H   0  0  0  0  0
   -5.4679   18.9497   -0.2868 H   0  0  0  0  0
   -6.6962   20.0487    1.3189 H   0  0  0  0  0
   -3.4841   18.2015   -1.1786 H   0  0  0  0  0
   -0.8371   18.5797    0.1650 H   0  0  0  0  0
    0.1542   17.8830   -1.9633 H   0  0  0  0  0
   -1.5460   17.8015   -2.6857 H   0  0  0  0  0
   -2.0399   15.9358   -1.2606 H   0  0  0  0  0
   -1.1342   15.4500   -3.4652 H   0  0  0  0  0
    0.5250   15.5139   -2.8217 H   0  0  0  0  0
   -0.5906   14.2351   -2.2822 H   0  0  0  0  0
    0.8200   16.1895   -0.3119 H   0  0  0  0  0
   -0.6477   16.5192    0.6410 H   0  0  0  0  0
   -0.2980   14.8627    0.0889 H   0  0  0  0  0
   -2.8601   20.7682   -0.3637 H   0  0  0  0  0
   -1.7989   22.3272   -2.5141 H   0  0  0  0  0
   -4.0335   22.6835   -1.4535 H   0  0  0  0  0
   -3.0257   24.2111   -1.5262 H   0  0  0  0  0
   -3.8890   24.3963    0.5406 H   0  0  0  0  0
   -2.4032   23.4004    0.8961 H   0  0  0  0  0
   -4.7007   23.5920    2.3343 H   0  0  0  0  0
   -0.6094   24.3253   -2.4241 H   0  0  0  0  0
    1.8047   24.2910   -1.0009 H   0  0  0  0  0
    0.1909   26.7270   -1.8823 H   0  0  0  0  0
    1.9190   27.3528   -0.2459 H   0  0  0  0  0
    3.1467   26.4845   -1.1997 H   0  0  0  0  0
    2.3459   27.9232   -1.8779 H   0  0  0  0  0
    2.4198   25.1356   -3.2102 H   0  0  0  0  0
    0.6998   25.1042   -3.6704 H   0  0  0  0  0
    1.6487   26.5974   -3.8734 H   0  0  0  0  0
    2.4708   24.8454    1.0839 H   0  0  0  0  0
    0.6453   25.0074    3.2647 H   0  0  0  0  0
    3.5094   26.1098    2.9298 H   0  0  0  0  0
    2.4303   26.4581    5.1533 H   0  0  0  0  0
    2.1116   24.7093    5.2596 H   0  0  0  0  0
    3.7876   25.3111    5.2685 H   0  0  0  0  0
    3.5482   24.2715    0.2990 H   0  0  0  0  0
    3.8755   21.9137    1.4124 H   0  0  0  0  0
   -0.3231   26.3980    4.3036 H   0  0  0  0  0
   -0.5002   29.2499    3.6365 H   0  0  0  0  0
   -1.2761   27.7414    6.1322 H   0  0  0  0  0
   -2.3246   28.0529    4.6515 H   0  0  0  0  0
   -2.4588   30.3209    5.1513 H   0  0  0  0  0
   -1.2089   30.1768    6.4533 H   0  0  0  0  0
   -2.8030   31.0730    7.6795 H   0  0  0  0  0
    1.0684   30.6388    3.9215 H   0  0  0  0  0
    3.1079   30.0426    5.9387 H   0  0  0  0  0
    3.9018   30.6333    3.6911 H   0  0  0  0  0
    3.0232   32.1806    3.7620 H   0  0  0  0  0
    4.4093   31.8934    4.8424 H   0  0  0  0  0
    3.4810   30.9438    7.7688 H   0  0  0  0  0
    1.6653   32.8708    8.8481 H   0  0  0  0  0
    3.4330   33.1253   10.6341 H   0  0  0  0  0
    4.4267   31.9520    9.6682 H   0  0  0  0  0
    1.1856   31.5426    9.6995 H   0  0  0  0  0
    4.6534   33.2781    7.2202 H   0  0  0  0  0
  2  1  1  0  0  0
  2  5  1  0  0  0
  3  2  1  0  0  0
  3  4  2  0  0  0
  5  6  1  0  0  0
  8  7  1  0  0  0
  8 11  1  0  0  0
  9  8  1  0  0  0
  9 10  2  0  0  0
 11 12  1  0  0  0
 12 13  1  0  0  0
 12 14  1  0  0  0
  7  3  1  0  0  0
 16 15  1  0  0  0
 16 19  1  0  0  0
 17 16  1  0  0  0
 17 18  2  0  0  0
 19 20  1  0  0  0
 20 21  1  0  0  0
 21 23  1  0  0  0
 21 22  2  0  0  0
 15  9  1  0  0  0
 24 25  1  0  0  0
 25 28  1  0  0  0
 25 26  1  0  0  0
 26 27  2  0  0  0
 28 30  1  0  0  0
 28 29  1  0  0  0
 17 24  1  0  0  0
 43 42  1  0  0  0
 43 46  1  0  0  0
 44 43  1  0  0  0
 44 45  2  0  0  0
 46 47  1  0  0  0
 47 48  1  0  0  0
 48 50  1  0  0  0
 48 49  2  0  0  0
 52 51  1  0  0  0
 52 55  1  0  0  0
 53 52  1  0  0  0
 53 54  2  0  0  0
 51 44  1  0  0  0
 56 57  1  0  0  0
 57 60  1  0  0  0
 57 58  1  0  0  0
 58 59  2  0  0  0
 60 61  1  0  0  0
 61 62  1  0  0  0
 61 63  2  0  0  0
 53 56  1  0  0  0
 31 32  1  0  0  0
 32 33  1  0  0  0
 32 40  1  0  0  0
 33 34  1  0  0  0
 33 35  1  0  0  0
 35 36  1  0  0  0
 36 37  2  0  0  0
 36 38  1  0  0  0
 36 39  1  0  0  0
 40 41  2  0  0  0
 58 64  1  0  0  0
 42 40  1  0  0  0
 31 26  1  0  0  0
  1 65  1  0  0  0
  1 66  1  0  0  0
  1 67  1  0  0  0
  2 68  1  0  0  0
  5 69  1  0  0  0
  5 70  1  0  0  0
  6 71  1  0  0  0
  7 72  1  0  0  0
  8 73  1  0  0  0
 11 74  1  0  0  0
 11 75  1  0  0  0
 12 76  1  0  0  0
 13 77  1  0  0  0
 13 78  1  0  0  0
 13 79  1  0  0  0
 14 80  1  0  0  0
 14 81  1  0  0  0
 14 82  1  0  0  0
 15 83  1  0  0  0
 16 84  1  0  0  0
 19 85  1  0  0  0
 19 86  1  0  0  0
 20 87  1  0  0  0
 20 88  1  0  0  0
 23 89  1  0  0  0
 24 90  1  0  0  0
 25 91  1  0  0  0
 28 92  1  0  0  0
 29 93  1  0  0  0
 29 94  1  0  0  0
 29 95  1  0  0  0
 30 96  1  0  0  0
 30 97  1  0  0  0
 30 98  1  0  0  0
 31 99  1  0  0  0
 32100  1  0  0  0
 33101  1  0  0  0
 34102  1  0  0  0
 34103  1  0  0  0
 34104  1  0  0  0
 38105  1  0  0  0
 39106  1  0  0  0
 42107  1  0  0  0
 43108  1  0  0  0
 46109  1  0  0  0
 46110  1  0  0  0
 47111  1  0  0  0
 47112  1  0  0  0
 50113  1  0  0  0
 51114  1  0  0  0
 52115  1  0  0  0
 55116  1  0  0  0
 55117  1  0  0  0
 55118  1  0  0  0
 56119  1  0  0  0
 57120  1  0  0  0
 60121  1  0  0  0
 60122  1  0  0  0
 62123  1  0  0  0
 64124  1  0  0  0
M  END
$$$$
