5edu_ligand
  -I-interpret- 

 44 44  0  0  0  0  0  0  0  0999 V2000
   -2.6760    1.7310   10.3130 O   0  0  0  0  0
   -3.5680    3.8130    8.9150 O   0  0  0  0  0
   -1.0750    7.5530    2.9690 O   0  0  0  0  0
   -1.8540    2.7660    9.8730 N   0  0  0  0  0
   -2.5010   13.5320    4.5170 N   0  0  0  0  0
   -1.1890    9.6210    4.1020 C   0  0  0  0  0
   -2.0240   10.1880    3.1460 C   0  0  0  0  0
   -2.4630   11.4990    3.2870 C   0  0  0  0  0
   -2.0670   12.2510    4.3870 C   0  0  0  0  0
   -1.2290   11.6840    5.3440 C   0  0  0  0  0
   -0.7910   10.3710    5.2020 C   0  0  0  0  0
   -0.7190    8.2050    3.9380 C   0  0  0  0  0
    0.1780    7.5780    4.9610 C   0  0  0  0  0
   -0.6160    6.5000    5.6590 C   0  0  0  0  0
   -0.3490    6.0280    6.8890 C   0  0  0  0  0
   -1.2260    4.9700    7.4250 C   0  0  0  0  0
   -1.4820    4.8480    8.7240 C   0  0  0  0  0
   -2.3780    3.7630    9.1720 C   0  0  0  0  0
    1.3640    6.9590    4.2310 C   0  0  0  0  0
    0.8020    6.5450    7.7030 C   0  0  0  0  0
   -3.3760   14.1160    3.5100 C   0  0  0  0  0
   -2.0940   14.3310    5.6610 C   0  0  0  0  0
   -2.1512    1.0927   10.8017 H   0  0  0  0  0
   -0.8570    2.7574   10.0881 H   0  0  0  0  0
   -2.3358    9.6015    2.2818 H   0  0  0  0  0
   -3.1182   11.9379    2.5346 H   0  0  0  0  0
   -0.9152   12.2709    6.2072 H   0  0  0  0  0
   -0.1357    9.9307    5.9536 H   0  0  0  0  0
    0.5378    8.3066    5.6875 H   0  0  0  0  0
   -1.4668    6.0739    5.1273 H   0  0  0  0  0
   -1.6805    4.2628    6.7312 H   0  0  0  0  0
   -1.0390    5.5356    9.4444 H   0  0  0  0  0
    1.0047    6.2044    3.5313 H   0  0  0  0  0
    1.8994    7.7363    3.6858 H   0  0  0  0  0
    2.0332    6.4951    4.9557 H   0  0  0  0  0
    1.7336    6.3698    7.1649 H   0  0  0  0  0
    0.6743    7.6142    7.8724 H   0  0  0  0  0
    0.8307    6.0250    8.6606 H   0  0  0  0  0
   -2.8721   14.1073    2.5435 H   0  0  0  0  0
   -4.2951   13.5335    3.4472 H   0  0  0  0  0
   -3.6134   15.1428    3.7882 H   0  0  0  0  0
   -2.4292   13.8470    6.5783 H   0  0  0  0  0
   -1.0077   14.4206    5.6720 H   0  0  0  0  0
   -2.5409   15.3225    5.5875 H   0  0  0  0  0
  4  1  1  0  0  0
 18  2  2  0  0  0
 12  3  2  0  0  0
 18  4  1  0  0  0
  9  5  1  0  0  0
  5 21  1  0  0  0
  5 22  1  0  0  0
  6  7  4  0  0  0
  6 11  4  0  0  0
 12  6  1  0  0  0
  7  8  4  0  0  0
  8  9  4  0  0  0
 10  9  4  0  0  0
 11 10  4  0  0  0
 13 12  1  0  0  0
 14 13  1  0  0  0
 13 19  1  0  0  0
 15 14  2  0  0  0
 16 15  1  0  0  0
 15 20  1  0  0  0
 17 16  2  0  0  0
 17 18  1  0  0  0
  1 23  1  0  0  0
  4 24  1  0  0  0
  7 25  1  0  0  0
  8 26  1  0  0  0
 10 27  1  0  0  0
 11 28  1  0  0  0
 13 29  1  0  0  0
 14 30  1  0  0  0
 16 31  1  0  0  0
 17 32  1  0  0  0
 19 33  1  0  0  0
 19 34  1  0  0  0
 19 35  1  0  0  0
 20 36  1  0  0  0
 20 37  1  0  0  0
 20 38  1  0  0  0
 21 39  1  0  0  0
 21 40  1  0  0  0
 21 41  1  0  0  0
 22 42  1  0  0  0
 22 43  1  0  0  0
 22 44  1  0  0  0
M  END
$$$$
