4b85_ligand
  -I-interpret- 

 38 38  0  0  0  0  0  0  0  0999 V2000
   28.0710   19.2670   11.9720 O   0  0  0  0  0
   29.4320   19.5210   12.2780 S   0  0  0  0  0
   30.2650   18.4030   12.5440 O   0  0  0  0  0
   29.5000   20.5300   13.5920 N   0  0  0  0  0
   28.5430   21.6640   13.6880 C   0  0  0  0  0
   27.3580   21.4590   14.6820 C   0  0  0  0  0
   26.8150   20.0490   14.5260 N   0  3  0  0  0
   25.5570   19.9610   13.6800 C   0  0  0  0  0
   24.9550   21.3520   13.4180 C   0  0  0  0  0
   30.0840   20.4060   11.0040 C   0  0  0  0  0
   29.3520   21.4050   10.3270 C   0  0  0  0  0
   29.9110   22.1340    9.2750 C   0  0  0  0  0
   31.2220   21.8480    8.8970 C   0  0  0  0  0
   31.9700   20.8770    9.5330 C   0  0  0  0  0
   31.3900   20.1670   10.5750 C   0  0  0  0  0
   26.6800   19.3360   15.8480 C   0  0  0  0  0
   27.3560   17.9710   15.7940 C   0  0  0  0  0
   31.9650   22.7080    7.6030 Cl  0  0  0  0  0
   30.1906   20.3745   14.3263 H   0  0  0  0  0
   28.1016   21.7828   12.6985 H   0  0  0  0  0
   29.1107   22.5197   14.0535 H   0  0  0  0  0
   26.5702   22.1808   14.4665 H   0  0  0  0  0
   27.7076   21.6058   15.7039 H   0  0  0  0  0
   27.5238   19.5462   13.9920 H   0  0  0  0  0
   24.8213   19.3620   14.2168 H   0  0  0  0  0
   25.8163   19.5111   12.7217 H   0  0  0  0  0
   24.7001   21.8211   14.3683 H   0  0  0  0  0
   25.6834   21.9683   12.8910 H   0  0  0  0  0
   24.0564   21.2489   12.8097 H   0  0  0  0  0
   28.3264   21.6124   10.6324 H   0  0  0  0  0
   29.3372   22.9064    8.7629 H   0  0  0  0  0
   32.9948   20.6724    9.2231 H   0  0  0  0  0
   31.9752   19.3957   11.0757 H   0  0  0  0  0
   25.6214   19.1970   16.0674 H   0  0  0  0  0
   27.1576   19.9358   16.6227 H   0  0  0  0  0
   26.8887   17.3661   15.0169 H   0  0  0  0  0
   28.4146   18.0999   15.5685 H   0  0  0  0  0
   27.2464   17.4743   16.7580 H   0  0  0  0  0
  1  2  2  0  0  0
  2  3  2  0  0  0
  2  4  1  0  0  0
  2 10  1  0  0  0
  4  5  1  0  0  0
  5  6  1  0  0  0
  6  7  1  0  0  0
  7  8  1  0  0  0
  7 16  1  0  0  0
  8  9  1  0  0  0
 10 11  4  0  0  0
 10 15  4  0  0  0
 11 12  4  0  0  0
 12 13  4  0  0  0
 13 14  4  0  0  0
 13 18  1  0  0  0
 14 15  4  0  0  0
 16 17  1  0  0  0
  4 19  1  0  0  0
  5 20  1  0  0  0
  5 21  1  0  0  0
  6 22  1  0  0  0
  6 23  1  0  0  0
  7 24  1  0  0  0
  8 25  1  0  0  0
  8 26  1  0  0  0
  9 27  1  0  0  0
  9 28  1  0  0  0
  9 29  1  0  0  0
 11 30  1  0  0  0
 12 31  1  0  0  0
 14 32  1  0  0  0
 15 33  1  0  0  0
 16 34  1  0  0  0
 16 35  1  0  0  0
 17 36  1  0  0  0
 17 37  1  0  0  0
 17 38  1  0  0  0
M  END
$$$$
