6dq6_ligand
  -I-interpret- 

 54 56  0  0  0  0  0  0  0  0999 V2000
  -28.3510   24.0040    5.9350 C   0  0  0  0  0
  -28.4340   21.5990    2.6360 C   0  0  0  0  0
  -27.5240   24.7660    3.7640 C   0  0  0  0  0
  -26.1250   25.0230    4.4940 C   0  0  0  0  0
  -25.0680   21.7780    0.4530 C   0  0  0  0  0
  -25.8520   22.9010   -1.6120 C   0  0  0  0  0
  -24.4660   20.9120   -1.6840 C   0  0  0  0  0
  -22.5070   19.1070    7.9630 C   0  0  0  0  0
  -22.5570   19.0050    6.4280 C   0  0  0  0  0
  -23.9580   18.6050    5.8740 C   0  0  0  0  0
  -24.5250   20.2220    3.8990 C   0  0  0  0  0
  -24.7740   21.3310    4.7870 C   0  0  0  0  0
  -25.1280   22.5970    4.1990 C   0  0  0  0  0
  -25.8380   23.4810    6.4940 C   0  0  0  0  0
  -27.3220   23.0520    6.6170 C   0  0  0  0  0
  -28.7560   21.2170    1.3650 C   0  0  0  0  0
  -24.9680   21.6320    2.0310 C   0  0  0  0  0
  -25.7960   22.8190   -0.1920 C   0  0  0  0  0
  -25.1710   21.9250   -2.3800 C   0  0  0  0  0
  -24.1700   18.9170    4.4100 N   0  0  0  0  0
  -25.3900   23.7990    5.0890 N   0  0  0  0  0
  -28.4870   23.8300    4.4540 N   0  0  0  0  0
  -25.2120   22.7310    2.8230 N   0  0  0  0  0
  -24.4280   20.8570   -0.3220 N   0  0  0  0  0
  -24.6280   20.3970    2.5340 N   0  0  0  0  0
  -23.4690   19.7100    8.5850 O   0  0  0  0  0
  -21.5350   18.6020    8.6490 O   0  0  0  0  0
  -30.4950   23.2610    2.9050 O   0  0  0  0  0
  -30.1210   21.8130    4.6690 O   0  0  0  0  0
  -29.4530   22.6490    3.6990 S   0  0  0  0  0
  -27.9976   25.0215    6.1017 H   0  0  0  0  0
  -29.3249   23.7787    6.3696 H   0  0  0  0  0
  -27.4874   21.2426    3.0422 H   0  0  0  0  0
  -27.2831   24.2986    2.8092 H   0  0  0  0  0
  -28.0235   25.7339    3.7229 H   0  0  0  0  0
  -26.3527   25.6679    5.3428 H   0  0  0  0  0
  -25.4615   25.4159    3.7236 H   0  0  0  0  0
  -26.4092   23.7008   -2.0998 H   0  0  0  0  0
  -23.9361   20.1509   -2.2567 H   0  0  0  0  0
  -21.8535   18.2279    6.1292 H   0  0  0  0  0
  -22.3162   19.9896    6.0272 H   0  0  0  0  0
  -24.6964   19.1811    6.4317 H   0  0  0  0  0
  -24.0465   17.5242    5.9845 H   0  0  0  0  0
  -24.6967   21.2146    5.8680 H   0  0  0  0  0
  -25.2346   22.6408    6.8376 H   0  0  0  0  0
  -25.7212   24.3932    7.0791 H   0  0  0  0  0
  -27.4101   22.0878    6.1163 H   0  0  0  0  0
  -27.5582   23.0488    7.6811 H   0  0  0  0  0
  -29.6925   21.5490    0.9169 H   0  0  0  0  0
  -28.0765   20.5801    0.7987 H   0  0  0  0  0
  -26.3174   23.5630    0.4102 H   0  0  0  0  0
  -25.1887   21.9523   -3.4695 H   0  0  0  0  0
  -24.0551   18.1573    3.7391 H   0  0  0  0  0
  -24.1111   20.0289    7.9465 H   0  0  0  0  0
  1 15  1  0  0  0
 22  1  1  0  0  0
  2 16  2  0  0  0
 30  2  1  0  0  0
  3  4  1  0  0  0
 22  3  1  0  0  0
  4 21  1  0  0  0
 17  5  1  0  0  0
  5 18  4  0  0  0
  5 24  4  0  0  0
 18  6  4  0  0  0
  6 19  4  0  0  0
  7 19  4  0  0  0
 24  7  4  0  0  0
  9  8  1  0  0  0
  8 26  1  0  0  0
  8 27  2  0  0  0
 10  9  1  0  0  0
 20 10  1  0  0  0
 12 11  4  0  0  0
 11 20  1  0  0  0
 11 25  4  0  0  0
 13 12  4  0  0  0
 21 13  1  0  0  0
 13 23  4  0  0  0
 15 14  1  0  0  0
 21 14  1  0  0  0
 23 17  4  0  0  0
 17 25  4  0  0  0
 22 30  1  0  0  0
 30 28  2  0  0  0
 30 29  2  0  0  0
  1 31  1  0  0  0
  1 32  1  0  0  0
  2 33  1  0  0  0
  3 34  1  0  0  0
  3 35  1  0  0  0
  4 36  1  0  0  0
  4 37  1  0  0  0
  6 38  1  0  0  0
  7 39  1  0  0  0
  9 40  1  0  0  0
  9 41  1  0  0  0
 10 42  1  0  0  0
 10 43  1  0  0  0
 12 44  1  0  0  0
 14 45  1  0  0  0
 14 46  1  0  0  0
 15 47  1  0  0  0
 15 48  1  0  0  0
 16 49  1  0  0  0
 16 50  1  0  0  0
 18 51  1  0  0  0
 19 52  1  0  0  0
 20 53  1  0  0  0
 26 54  1  0  0  0
M  END
$$$$
