3suv_ligand
  -I-interpret- 

 31 31  0  0  0  0  0  0  0  0999 V2000
   31.8880   20.0740  -18.0120 C   0  0  0  0  0
   33.0200   19.5080  -17.1690 C   0  0  0  0  0
   33.0660   19.7470  -15.9650 O   0  0  0  0  0
   33.9160   18.7580  -17.8360 N   0  0  0  0  0
   35.1130   18.1460  -17.2010 C   0  0  0  0  0
   35.9250   19.2500  -16.5020 C   0  0  0  0  0
   37.1890   18.6740  -15.9880 N   0  3  0  0  0
   36.8930   17.7430  -14.8750 C   0  0  0  0  0
   38.2060   17.2350  -14.2770 C   0  0  0  0  0
   39.0380   16.7230  -15.3240 O   0  0  0  0  0
   36.0390   16.5640  -15.3790 C   0  0  0  0  0
   35.5780   15.7870  -14.2640 O   0  0  0  0  0
   34.8120   16.9820  -16.2340 C   0  0  0  0  0
   34.4220   15.8340  -16.9920 O   0  0  0  0  0
   30.9349   19.7060  -17.6323 H   0  0  0  0  0
   31.9060   21.1625  -17.9585 H   0  0  0  0  0
   32.0145   19.7577  -19.0474 H   0  0  0  0  0
   33.7658   18.6005  -18.8325 H   0  0  0  0  0
   35.6918   17.6867  -18.0024 H   0  0  0  0  0
   35.3469   19.6605  -15.6741 H   0  0  0  0  0
   36.1481   20.0456  -17.2129 H   0  0  0  0  0
   37.7917   19.4248  -15.6511 H   0  0  0  0  0
   37.6606   18.1678  -16.7375 H   0  0  0  0  0
   36.3285   18.2681  -14.1045 H   0  0  0  0  0
   37.9965   16.4430  -13.5580 H   0  0  0  0  0
   38.7179   18.0547  -13.7729 H   0  0  0  0  0
   39.8622   16.4040  -14.9492 H   0  0  0  0  0
   36.6938   15.9844  -16.0297 H   0  0  0  0  0
   35.0467   15.0542  -14.5839 H   0  0  0  0  0
   34.0259   17.3324  -15.5652 H   0  0  0  0  0
   33.6623   16.0541  -17.5361 H   0  0  0  0  0
  1  2  1  0  0  0
  2  3  2  0  0  0
  2  4  1  0  0  0
  4  5  1  0  0  0
  5  6  1  0  0  0
  5 13  1  0  0  0
  6  7  1  0  0  0
  7  8  1  0  0  0
  8  9  1  0  0  0
  8 11  1  0  0  0
  9 10  1  0  0  0
 11 12  1  0  0  0
 11 13  1  0  0  0
 13 14  1  0  0  0
  1 15  1  0  0  0
  1 16  1  0  0  0
  1 17  1  0  0  0
  4 18  1  0  0  0
  5 19  1  0  0  0
  6 20  1  0  0  0
  6 21  1  0  0  0
  7 22  1  0  0  0
  7 23  1  0  0  0
  8 24  1  0  0  0
  9 25  1  0  0  0
  9 26  1  0  0  0
 10 27  1  0  0  0
 11 28  1  0  0  0
 12 29  1  0  0  0
 13 30  1  0  0  0
 14 31  1  0  0  0
M  END
$$$$
