6gvz_ligand
  -I-interpret- 

 75 78  0  0  0  0  0  0  0  0999 V2000
   -9.5860  -53.9240   16.2260 C   0  0  0  0  0
  -10.0130  -55.2900   15.6780 C   0  0  0  0  0
   -9.0450  -55.7710   14.6110 C   0  0  0  0  0
   -9.4520  -57.0470   14.1320 O   0  0  0  0  0
   -8.9950  -54.7280   13.5160 C   0  0  0  0  0
   -8.5990  -53.3330   14.0110 C   0  0  0  0  0
   -8.5000  -52.3290   12.8550 C   0  0  0  0  0
   -9.8400  -51.8390   12.3120 C   0  0  0  0  0
  -10.4310  -52.8680   11.5120 O   0  0  0  0  0
  -10.7890  -51.3860   13.4330 C   0  0  0  0  0
  -10.8950  -52.4270   14.5630 C   0  0  0  0  0
   -9.4990  -52.8110   15.1630 C   0  0  0  0  0
  -11.9440  -52.0060   15.6060 C   0  0  0  0  0
  -13.2720  -51.4920   15.0490 C   0  0  0  0  0
  -13.1170  -50.4050   13.9730 C   0  0  0  0  0
  -12.1860  -51.0080   12.9280 C   0  0  0  0  0
  -12.3270  -50.0410   11.7330 C   0  0  0  0  0
  -13.7960  -49.5740   11.7770 C   0  0  0  0  0
  -14.3770  -50.0580   13.1160 C   0  0  0  0  0
  -12.5370  -49.1250   14.6150 C   0  0  0  0  0
   -8.8260  -51.6100   15.8530 C   0  0  0  0  0
  -15.4290  -49.0850   13.6980 C   0  0  0  0  0
  -16.0010  -49.5670   15.0310 C   0  0  0  0  0
  -16.5640  -48.7640   12.7090 C   0  0  0  0  0
  -17.3770  -49.9670   12.2630 C   0  0  0  0  0
  -18.6320  -49.6310   11.4830 C   0  0  0  0  0
  -19.4270  -48.7650   11.8440 O   0  0  0  0  0
  -18.8340  -50.3450   10.3860 N   0  0  0  0  0
  -19.9880  -50.1380    9.5370 C   0  0  0  0  0
  -21.2970  -50.5900   10.1400 C   0  0  0  0  0
  -22.3520  -50.2210    9.5840 O   0  0  0  0  0
  -21.2890  -51.3160   11.1570 O   0  0  0  0  0
   -8.5871  -54.0452   16.6450 H   0  0  0  0  0
  -10.3427  -53.6182   16.9484 H   0  0  0  0  0
  -11.0048  -55.1963   15.2357 H   0  0  0  0  0
  -10.0196  -56.0100   16.4963 H   0  0  0  0  0
   -8.0401  -55.8940   15.0150 H   0  0  0  0  0
   -9.4679  -57.6712   14.8612 H   0  0  0  0  0
   -9.9967  -54.6514   13.0931 H   0  0  0  0  0
   -8.2390  -55.0456   12.7979 H   0  0  0  0  0
   -7.6029  -53.4363   14.4414 H   0  0  0  0  0
   -7.9957  -52.8406   12.0353 H   0  0  0  0  0
   -7.9773  -51.4540   13.2412 H   0  0  0  0  0
   -9.6601  -50.9607   11.6921 H   0  0  0  0  0
  -11.2739  -52.5613   11.1698 H   0  0  0  0  0
  -10.3359  -50.4816   13.8390 H   0  0  0  0  0
  -11.2616  -53.3580   14.1306 H   0  0  0  0  0
  -11.5057  -51.1795   16.1654 H   0  0  0  0  0
  -12.1791  -52.9005   16.1828 H   0  0  0  0  0
  -13.8226  -51.0500   15.8794 H   0  0  0  0  0
  -13.7780  -52.3383   14.5844 H   0  0  0  0  0
  -12.4578  -52.0160   12.6147 H   0  0  0  0  0
  -12.0828  -50.5253   10.7875 H   0  0  0  0  0
  -11.6324  -49.2040   11.8036 H   0  0  0  0  0
  -14.3586  -49.9860   10.9392 H   0  0  0  0  0
  -13.8599  -48.4888   11.6968 H   0  0  0  0  0
  -14.9997  -50.9501   13.0494 H   0  0  0  0  0
  -13.2129  -48.7725   15.3941 H   0  0  0  0  0
  -11.5630  -49.3478   15.0506 H   0  0  0  0  0
  -12.4274  -48.3548   13.8516 H   0  0  0  0  0
   -8.6799  -50.8104   15.1268 H   0  0  0  0  0
   -9.4625  -51.2547   16.6634 H   0  0  0  0  0
   -7.8610  -51.9178   16.2555 H   0  0  0  0  0
  -14.8857  -48.1583   13.8828 H   0  0  0  0  0
  -16.4814  -50.5352   14.8899 H   0  0  0  0  0
  -15.1943  -49.6627   15.7577 H   0  0  0  0  0
  -16.7338  -48.8456   15.3926 H   0  0  0  0  0
  -16.0981  -48.3474   11.8160 H   0  0  0  0  0
  -17.2502  -48.0900   13.2217 H   0  0  0  0  0
  -17.6953  -50.4868   13.1666 H   0  0  0  0  0
  -16.7394  -50.5522   11.6004 H   0  0  0  0  0
  -18.1555  -51.0629   10.1315 H   0  0  0  0  0
  -19.8309  -50.7292    8.6348 H   0  0  0  0  0
  -20.0694  -49.0648    9.3647 H   0  0  0  0  0
  -20.3817  -51.4820   11.4232 H   0  0  0  0  0
  1  2  1  0  0  0
  1 12  1  0  0  0
  2  3  1  0  0  0
  3  4  1  0  0  0
  3  5  1  0  0  0
  5  6  1  0  0  0
  6  7  1  0  0  0
  6 12  1  0  0  0
  7  8  1  0  0  0
  8  9  1  0  0  0
  8 10  1  0  0  0
 10 11  1  0  0  0
 10 16  1  0  0  0
 11 12  1  0  0  0
 11 13  1  0  0  0
 12 21  1  0  0  0
 13 14  1  0  0  0
 14 15  1  0  0  0
 15 16  1  0  0  0
 15 19  1  0  0  0
 15 20  1  0  0  0
 16 17  1  0  0  0
 17 18  1  0  0  0
 18 19  1  0  0  0
 19 22  1  0  0  0
 22 23  1  0  0  0
 22 24  1  0  0  0
 24 25  1  0  0  0
 25 26  1  0  0  0
 26 27  2  0  0  0
 26 28  1  0  0  0
 28 29  1  0  0  0
 29 30  1  0  0  0
 30 31  2  0  0  0
 30 32  1  0  0  0
  1 33  1  0  0  0
  1 34  1  0  0  0
  2 35  1  0  0  0
  2 36  1  0  0  0
  3 37  1  0  0  0
  4 38  1  0  0  0
  5 39  1  0  0  0
  5 40  1  0  0  0
  6 41  1  0  0  0
  7 42  1  0  0  0
  7 43  1  0  0  0
  8 44  1  0  0  0
  9 45  1  0  0  0
 10 46  1  0  0  0
 11 47  1  0  0  0
 13 48  1  0  0  0
 13 49  1  0  0  0
 14 50  1  0  0  0
 14 51  1  0  0  0
 16 52  1  0  0  0
 17 53  1  0  0  0
 17 54  1  0  0  0
 18 55  1  0  0  0
 18 56  1  0  0  0
 19 57  1  0  0  0
 20 58  1  0  0  0
 20 59  1  0  0  0
 20 60  1  0  0  0
 21 61  1  0  0  0
 21 62  1  0  0  0
 21 63  1  0  0  0
 22 64  1  0  0  0
 23 65  1  0  0  0
 23 66  1  0  0  0
 23 67  1  0  0  0
 24 68  1  0  0  0
 24 69  1  0  0  0
 25 70  1  0  0  0
 25 71  1  0  0  0
 28 72  1  0  0  0
 29 73  1  0  0  0
 29 74  1  0  0  0
 32 75  1  0  0  0
M  END
$$$$
