5mtx_ligand
  -I-interpret- 

 76 81  0  0  0  0  0  0  0  0999 V2000
   20.3180   12.0190  -27.2630 C   0  0  0  0  0
   19.5430   12.8650  -28.1830 C   0  0  0  0  0
   19.3750   12.2940  -29.5430 O   0  0  0  0  0
   20.0380   11.0900  -29.9790 C   0  0  0  0  0
   19.7790   10.0810  -28.8680 C   0  0  0  0  0
   20.4170   10.5700  -27.5990 N   0  3  0  0  0
   21.8500   10.2330  -27.3980 C   0  0  0  0  0
   22.2210    8.7710  -27.6490 C   0  0  0  0  0
   21.2900    7.8900  -26.8790 N   0  0  0  0  0
   21.0600    6.6460  -27.2440 C   0  0  0  0  0
   21.6690    6.1810  -28.2100 O   0  0  0  0  0
   20.1420    5.8550  -26.4390 C   0  0  0  0  0
   20.2450    4.4400  -26.4610 C   0  0  0  0  0
   19.3880    3.6320  -25.6890 C   0  0  0  0  0
   19.5770    2.2300  -25.7320 C   0  0  0  0  0
   19.8830    1.7490  -26.8250 O   0  0  0  0  0
   19.1810    6.4530  -25.6220 C   0  0  0  0  0
   18.3200    5.6300  -24.8530 C   0  0  0  0  0
   18.4180    4.2350  -24.9080 C   0  0  0  0  0
   17.5540    3.4910  -24.0660 C   0  0  0  0  0
   18.4270    2.9860  -22.9650 O   0  0  0  0  0
   19.2140    1.8970  -23.2680 C   0  0  0  0  0
   19.4900    1.1740  -22.1300 C   0  0  0  0  0
   19.6960    1.4990  -24.5260 C   0  0  0  0  0
   20.3780    0.2590  -24.5350 C   0  0  0  0  0
   20.6630   -0.4870  -23.3920 C   0  0  0  0  0
   20.2400   -0.0230  -22.1550 C   0  0  0  0  0
   20.4360   -0.6610  -20.9390 N   0  0  0  0  0
   21.1440   -1.8230  -20.6860 C   0  0  0  0  0
   20.5610   -2.7630  -19.7840 C   0  0  0  0  0
   22.4210   -2.1270  -21.2260 C   0  0  0  0  0
   23.0800   -3.3050  -20.8640 C   0  0  0  0  0
   22.5050   -4.1590  -19.9700 C   0  0  0  0  0
   23.1270   -5.2450  -19.6530 F   0  0  0  0  0
   21.2150   -3.8970  -19.4160 C   0  0  0  0  0
   20.7520   -4.7640  -18.4970 N   0  0  0  0  0
   19.4500   -5.2030  -18.4940 C   0  0  0  0  0
   18.6100   -4.8730  -19.3210 O   0  0  0  0  0
   19.0380   -6.0630  -17.4670 C   0  0  0  0  0
   19.3030   -5.7840  -16.1430 C   0  0  0  0  0
   18.8760   -6.6020  -15.0940 C   0  0  0  0  0
   18.1510   -7.7530  -15.3830 C   0  0  0  0  0
   17.8860   -8.0750  -16.7380 C   0  0  0  0  0
   18.3040   -7.2170  -17.7910 C   0  0  0  0  0
   19.8001   12.0681  -26.3052 H   0  0  0  0  0
   21.3379   12.4023  -27.2933 H   0  0  0  0  0
   20.0887   13.8021  -28.2937 H   0  0  0  0  0
   18.5463   12.9742  -27.7556 H   0  0  0  0  0
   21.1038   11.2495  -30.1427 H   0  0  0  0  0
   19.6588   10.7425  -30.9400 H   0  0  0  0  0
   20.2045    9.1160  -29.1434 H   0  0  0  0  0
   18.7052    9.9690  -28.7183 H   0  0  0  0  0
   19.8109   10.0326  -26.9791 H   0  0  0  0  0
   22.0736   10.4356  -26.3506 H   0  0  0  0  0
   22.4133   10.8254  -28.1190 H   0  0  0  0  0
   23.2463    8.5924  -27.3251 H   0  0  0  0  0
   22.1388    8.5496  -28.7131 H   0  0  0  0  0
   20.8224    8.2612  -26.0520 H   0  0  0  0  0
   21.0023    3.9691  -27.0878 H   0  0  0  0  0
   19.0937    7.5385  -25.5759 H   0  0  0  0  0
   17.5706    6.0906  -24.2094 H   0  0  0  0  0
   17.0698    2.6757  -24.6036 H   0  0  0  0  0
   16.7364    4.1028  -23.6847 H   0  0  0  0  0
   19.1159    1.5386  -21.1734 H   0  0  0  0  0
   20.7012   -0.1384  -25.4971 H   0  0  0  0  0
   21.2125   -1.4251  -23.4696 H   0  0  0  0  0
   20.0035   -0.2176  -20.1286 H   0  0  0  0  0
   19.5676   -2.5672  -19.3804 H   0  0  0  0  0
   22.8906   -1.4373  -21.9274 H   0  0  0  0  0
   24.0526   -3.5409  -21.2959 H   0  0  0  0  0
   21.3892   -5.1070  -17.7782 H   0  0  0  0  0
   19.8711   -4.8850  -15.9040 H   0  0  0  0  0
   19.1083   -6.3412  -14.0615 H   0  0  0  0  0
   17.7922   -8.3974  -14.5804 H   0  0  0  0  0
   17.3530   -8.9955  -16.9760 H   0  0  0  0  0
   18.0605   -7.4489  -18.8278 H   0  0  0  0  0
  1  2  1  0  0  0
  1  6  1  0  0  0
  2  3  1  0  0  0
  3  4  1  0  0  0
  4  5  1  0  0  0
  5  6  1  0  0  0
  6  7  1  0  0  0
  7  8  1  0  0  0
  8  9  1  0  0  0
  9 10  1  0  0  0
 10 11  2  0  0  0
 10 12  1  0  0  0
 12 13  4  0  0  0
 12 17  4  0  0  0
 13 14  4  0  0  0
 14 15  1  0  0  0
 14 19  4  0  0  0
 15 16  2  0  0  0
 15 24  1  0  0  0
 17 18  4  0  0  0
 18 19  4  0  0  0
 19 20  1  0  0  0
 20 21  1  0  0  0
 21 22  1  0  0  0
 22 23  4  0  0  0
 22 24  4  0  0  0
 23 27  4  0  0  0
 24 25  4  0  0  0
 25 26  4  0  0  0
 26 27  4  0  0  0
 27 28  1  0  0  0
 28 29  1  0  0  0
 29 30  4  0  0  0
 29 31  4  0  0  0
 30 35  4  0  0  0
 31 32  4  0  0  0
 32 33  4  0  0  0
 33 34  1  0  0  0
 33 35  4  0  0  0
 35 36  1  0  0  0
 36 37  1  0  0  0
 37 38  2  0  0  0
 37 39  1  0  0  0
 39 40  4  0  0  0
 39 44  4  0  0  0
 40 41  4  0  0  0
 41 42  4  0  0  0
 42 43  4  0  0  0
 43 44  4  0  0  0
  1 45  1  0  0  0
  1 46  1  0  0  0
  2 47  1  0  0  0
  2 48  1  0  0  0
  4 49  1  0  0  0
  4 50  1  0  0  0
  5 51  1  0  0  0
  5 52  1  0  0  0
  6 53  1  0  0  0
  7 54  1  0  0  0
  7 55  1  0  0  0
  8 56  1  0  0  0
  8 57  1  0  0  0
  9 58  1  0  0  0
 13 59  1  0  0  0
 17 60  1  0  0  0
 18 61  1  0  0  0
 20 62  1  0  0  0
 20 63  1  0  0  0
 23 64  1  0  0  0
 25 65  1  0  0  0
 26 66  1  0  0  0
 28 67  1  0  0  0
 30 68  1  0  0  0
 31 69  1  0  0  0
 32 70  1  0  0  0
 36 71  1  0  0  0
 40 72  1  0  0  0
 41 73  1  0  0  0
 42 74  1  0  0  0
 43 75  1  0  0  0
 44 76  1  0  0  0
M  END
$$$$
