1ec1_ligand
  -I-interpret- 

104107  0  0  0  0  0  0  0  0999 V2000
    9.6990   24.1970    2.0210 C   0  0  0  0  0
    8.8750   25.3280    1.7780 C   0  0  0  0  0
    7.4870   25.2680    2.0450 C   0  0  0  0  0
    6.9240   24.0700    2.5610 C   0  0  0  0  0
    7.7450   22.9490    2.8020 C   0  0  0  0  0
    9.1320   23.0130    2.5310 C   0  0  0  0  0
   16.1290   22.2560    8.4860 C   0  0  0  0  0
   15.2880   21.3820    9.2560 C   0  0  0  0  0
   15.8300   20.2190    9.8780 C   0  0  0  0  0
   17.2070   19.9410    9.7230 C   0  0  0  0  0
   18.0500   20.8170    8.9500 C   0  0  0  0  0
   17.5070   21.9760    8.3300 C   0  0  0  0  0
   15.5360   23.4680    7.8280 C   0  0  0  0  0
   14.4830   23.0790    6.8890 O   0  0  0  0  0
   14.9750   22.6310    5.6020 C   0  0  0  0  0
   13.9660   23.0370    4.5340 C   0  0  0  0  0
   13.6090   24.4890    4.6210 C   0  0  0  0  0
   12.2440   24.7750    3.9330 C   0  0  0  0  0
   11.1130   24.7390    4.9470 C   0  0  0  0  0
   10.8580   23.6700    5.5050 O   0  0  0  0  0
   10.4450   25.8700    5.1860 N   0  0  0  0  0
    9.3130   26.0080    6.1470 C   0  0  0  0  0
    9.7950   26.6620    7.5070 C   0  0  0  0  0
    8.6220   26.8450    8.5390 C   0  0  0  0  0
   10.9290   25.8670    8.2170 C   0  0  0  0  0
    8.3280   26.9390    5.4710 C   0  0  0  0  0
    8.7550   27.9790    4.9110 O   0  0  0  0  0
    7.0060   26.5550    5.5290 N   0  0  0  0  0
    6.0290   27.4130    4.9020 C   0  0  0  0  0
   11.9830   23.7760    2.8750 O   0  0  0  0  0
   11.1740   24.2640    1.7440 C   0  0  0  0  0
   14.7300   25.2090    4.0680 O   0  0  0  0  0
   14.4920   22.6890    3.2060 O   0  0  0  0  0
   15.1860   21.1770    5.4980 C   0  0  0  0  0
   14.2600   20.4330    5.8250 O   0  0  0  0  0
   16.3780   20.7550    5.0390 N   0  0  0  0  0
   16.7070   19.3610    4.8750 C   0  0  0  0  0
   16.7420   18.9890    3.3390 C   0  0  0  0  0
   15.3530   19.1990    2.6090 C   0  0  0  0  0
   17.2320   17.5220    3.0970 C   0  0  0  0  0
   18.0850   19.2010    5.4630 C   0  0  0  0  0
   19.0310   19.9390    5.0590 O   0  0  0  0  0
   18.1920   18.2380    6.3980 N   0  0  0  0  0
   19.5140   18.0360    6.9900 C   0  0  0  0  0
    2.8320   24.2220    2.6690 S   0  0  0  0  0
    3.5320   23.3990    4.0830 C   0  0  0  0  0
    4.8620   23.3490    4.0530 C   0  0  0  0  0
    5.4290   23.9890    2.8530 C   0  0  0  0  0
    4.4780   24.4830    2.0530 C   0  0  0  0  0
   19.4380   17.0920   11.6130 S   0  0  0  0  0
   19.0340   18.6610   10.8970 C   0  0  0  0  0
   17.8000   18.7100   10.3870 C   0  0  0  0  0
   17.0800   17.4330   10.5500 C   0  0  0  0  0
   17.8140   16.5110   11.1690 C   0  0  0  0  0
    9.3134   26.2451    1.3846 H   0  0  0  0  0
    6.8539   26.1349    1.8561 H   0  0  0  0  0
    7.3100   22.0313    3.1979 H   0  0  0  0  0
    9.7632   22.1441    2.7173 H   0  0  0  0  0
   14.2277   21.6096    9.3655 H   0  0  0  0  0
   15.1931   19.5556   10.4631 H   0  0  0  0  0
   19.1104   20.5901    8.8397 H   0  0  0  0  0
   18.1431   22.6388    7.7433 H   0  0  0  0  0
   16.3198   23.9936    7.2826 H   0  0  0  0  0
   15.1059   24.1121    8.5949 H   0  0  0  0  0
   15.9505   23.0988    5.4690 H   0  0  0  0  0
   13.0416   22.4853    4.7050 H   0  0  0  0  0
   13.4492   24.8214    5.6467 H   0  0  0  0  0
   12.2926   25.7694    3.4893 H   0  0  0  0  0
   10.7308   26.7034    4.6720 H   0  0  0  0  0
    8.8835   25.0357    6.3885 H   0  0  0  0  0
   10.1819   27.6341    7.2014 H   0  0  0  0  0
    7.8581   27.4921    8.1079 H   0  0  0  0  0
    8.1879   25.8722    8.7700 H   0  0  0  0  0
    9.0100   27.2971    9.4518 H   0  0  0  0  0
   10.5769   24.8614    8.4469 H   0  0  0  0  0
   11.7963   25.8082    7.5595 H   0  0  0  0  0
   11.2052   26.3766    9.1401 H   0  0  0  0  0
    6.7272   25.6937    5.9990 H   0  0  0  0  0
    6.0617   28.3986    5.3663 H   0  0  0  0  0
    6.2549   27.5028    3.8394 H   0  0  0  0  0
    5.0354   26.9831    5.0285 H   0  0  0  0  0
   11.4362   25.3073    1.5682 H   0  0  0  0  0
   11.3836   23.6303    0.8823 H   0  0  0  0  0
   14.5509   26.1516    4.1003 H   0  0  0  0  0
   13.8560   22.9450    2.5340 H   0  0  0  0  0
   17.0810   21.4530    4.7960 H   0  0  0  0  0
   15.9746   18.7145    5.3584 H   0  0  0  0  0
   17.4592   19.6849    2.9037 H   0  0  0  0  0
   14.5973   18.5713    3.0812 H   0  0  0  0  0
   15.0580   20.2455    2.6862 H   0  0  0  0  0
   15.4508   18.9243    1.5587 H   0  0  0  0  0
   18.2392   17.4061    3.4972 H   0  0  0  0  0
   16.5581   16.8277    3.5989 H   0  0  0  0  0
   17.2387   17.3144    2.0270 H   0  0  0  0  0
   17.3890   17.6759    6.6801 H   0  0  0  0  0
   20.2239   17.7678    6.2076 H   0  0  0  0  0
   19.8375   18.9564    7.4760 H   0  0  0  0  0
   19.4623   17.2337    7.7261 H   0  0  0  0  0
    2.9331   22.9788    4.8910 H   0  0  0  0  0
    5.4664   22.8846    4.8322 H   0  0  0  0  0
    4.6917   24.9955    1.1150 H   0  0  0  0  0
   19.7245   19.5041   10.8746 H   0  0  0  0  0
   16.0609   17.2633   10.2025 H   0  0  0  0  0
   17.4575   15.5033   11.3824 H   0  0  0  0  0
  1  2  4  0  0  0
  1  6  4  0  0  0
 31  1  1  0  0  0
  2  3  4  0  0  0
  3  4  4  0  0  0
  5  4  4  0  0  0
  4 48  1  0  0  0
  6  5  4  0  0  0
  8  7  4  0  0  0
 12  7  4  0  0  0
  7 13  1  0  0  0
  9  8  4  0  0  0
 10  9  4  0  0  0
 10 11  4  0  0  0
 11 12  4  0  0  0
 13 14  1  0  0  0
 14 15  1  0  0  0
 15 16  1  0  0  0
 16 17  1  0  0  0
 17 18  1  0  0  0
 18 19  1  0  0  0
 18 30  1  0  0  0
 19 20  2  0  0  0
 19 21  1  0  0  0
 21 22  1  0  0  0
 22 23  1  0  0  0
 22 26  1  0  0  0
 23 24  1  0  0  0
 23 25  1  0  0  0
 26 27  2  0  0  0
 26 28  1  0  0  0
 28 29  1  0  0  0
 30 31  1  0  0  0
 17 32  1  0  0  0
 16 33  1  0  0  0
 15 34  1  0  0  0
 34 35  2  0  0  0
 34 36  1  0  0  0
 36 37  1  0  0  0
 37 38  1  0  0  0
 37 41  1  0  0  0
 38 39  1  0  0  0
 38 40  1  0  0  0
 41 42  2  0  0  0
 41 43  1  0  0  0
 43 44  1  0  0  0
 45 46  4  0  0  0
 47 46  4  0  0  0
 48 47  4  0  0  0
 48 49  4  0  0  0
 49 45  4  0  0  0
 51 50  4  0  0  0
 50 54  4  0  0  0
 52 51  4  0  0  0
 10 52  1  0  0  0
 52 53  4  0  0  0
 53 54  4  0  0  0
  2 55  1  0  0  0
  3 56  1  0  0  0
  5 57  1  0  0  0
  6 58  1  0  0  0
  8 59  1  0  0  0
  9 60  1  0  0  0
 11 61  1  0  0  0
 12 62  1  0  0  0
 13 63  1  0  0  0
 13 64  1  0  0  0
 15 65  1  0  0  0
 16 66  1  0  0  0
 17 67  1  0  0  0
 18 68  1  0  0  0
 21 69  1  0  0  0
 22 70  1  0  0  0
 23 71  1  0  0  0
 24 72  1  0  0  0
 24 73  1  0  0  0
 24 74  1  0  0  0
 25 75  1  0  0  0
 25 76  1  0  0  0
 25 77  1  0  0  0
 28 78  1  0  0  0
 29 79  1  0  0  0
 29 80  1  0  0  0
 29 81  1  0  0  0
 31 82  1  0  0  0
 31 83  1  0  0  0
 32 84  1  0  0  0
 33 85  1  0  0  0
 36 86  1  0  0  0
 37 87  1  0  0  0
 38 88  1  0  0  0
 39 89  1  0  0  0
 39 90  1  0  0  0
 39 91  1  0  0  0
 40 92  1  0  0  0
 40 93  1  0  0  0
 40 94  1  0  0  0
 43 95  1  0  0  0
 44 96  1  0  0  0
 44 97  1  0  0  0
 44 98  1  0  0  0
 46 99  1  0  0  0
 47100  1  0  0  0
 49101  1  0  0  0
 51102  1  0  0  0
 53103  1  0  0  0
 54104  1  0  0  0
M  END
$$$$
