6cjs_ligand
  -I-interpret- 

 66 69  0  0  0  0  0  0  0  0999 V2000
   14.6780  -30.3060  -24.0350 C   0  0  0  0  0
   14.5530  -31.8230  -23.9080 C   0  0  0  0  0
   13.7530  -32.4600  -24.8930 O   0  0  0  0  0
   13.9330  -31.9910  -26.2220 C   0  0  0  0  0
   14.9100  -30.8080  -26.3680 C   0  0  0  0  0
   14.6640  -29.7990  -25.3690 N   0  3  0  0  0
   15.6620  -28.7360  -25.5080 C   0  0  0  0  0
   15.5450  -27.6720  -24.3830 C   0  0  0  0  0
   16.5980  -27.4640  -23.5070 C   0  0  0  0  0
   16.4990  -26.5130  -22.4920 C   0  0  0  0  0
   14.3940  -26.9140  -24.2450 C   0  0  0  0  0
   14.2850  -25.9590  -23.2500 C   0  0  0  0  0
   15.3390  -25.7660  -22.3510 C   0  0  0  0  0
   15.2660  -24.8140  -21.3180 C   0  0  0  0  0
   15.0530  -23.4660  -21.4800 C   0  0  0  0  0
   14.8030  -22.7630  -22.8110 C   0  0  0  0  0
   15.3050  -23.1300  -23.8260 O   0  0  0  0  0
   13.9120  -21.6320  -22.8420 N   0  0  0  0  0
   13.6770  -20.9790  -24.1100 C   0  0  0  0  0
   12.3730  -20.1830  -24.0330 C   0  0  0  0  0
   15.1240  -22.8700  -20.2560 N   0  0  0  0  0
   15.3750  -23.8750  -19.2810 O   0  0  0  0  0
   15.4570  -25.0420  -19.9460 C   0  0  0  0  0
   15.6970  -26.2850  -19.3680 C   0  0  0  0  0
   14.8010  -27.3360  -19.5820 C   0  0  0  0  0
   15.0490  -28.5630  -18.9910 C   0  0  0  0  0
   14.1030  -29.7420  -19.1790 C   0  0  0  0  0
   12.6650  -29.3230  -18.7540 C   0  0  0  0  0
   14.0280  -30.1990  -20.6270 C   0  0  0  0  0
   16.1880  -28.7180  -18.2140 C   0  0  0  0  0
   16.4710  -29.9480  -17.6740 O   0  0  0  0  0
   17.0720  -27.6840  -17.9960 C   0  0  0  0  0
   16.8200  -26.4510  -18.5670 C   0  0  0  0  0
   17.6820  -25.3560  -18.3810 O   0  0  0  0  0
   15.6453  -30.0372  -23.6105 H   0  0  0  0  0
   13.8106  -29.8794  -23.5313 H   0  0  0  0  0
   14.0714  -32.0136  -22.9489 H   0  0  0  0  0
   15.5595  -32.2259  -24.0203 H   0  0  0  0  0
   12.9602  -31.6403  -26.5666 H   0  0  0  0  0
   14.3529  -32.8186  -26.7938 H   0  0  0  0  0
   14.7703  -30.3623  -27.3529 H   0  0  0  0  0
   15.9267  -31.1802  -26.2420 H   0  0  0  0  0
   13.7231  -29.4391  -25.5290 H   0  0  0  0  0
   15.4974  -28.2388  -26.4639 H   0  0  0  0  0
   16.6514  -29.1890  -25.4452 H   0  0  0  0  0
   17.5118  -28.0488  -23.6121 H   0  0  0  0  0
   17.3339  -26.3566  -21.8089 H   0  0  0  0  0
   13.5616  -27.0723  -24.9306 H   0  0  0  0  0
   13.3794  -25.3581  -23.1668 H   0  0  0  0  0
   13.4583  -21.3002  -21.9909 H   0  0  0  0  0
   13.6019  -21.7280  -24.8984 H   0  0  0  0  0
   14.5041  -20.3048  -24.3327 H   0  0  0  0  0
   11.5480  -20.8601  -23.8115 H   0  0  0  0  0
   12.4519  -19.4343  -23.2448 H   0  0  0  0  0
   12.1932  -19.6894  -24.9881 H   0  0  0  0  0
   13.9189  -27.1915  -20.2058 H   0  0  0  0  0
   14.4896  -30.5577  -18.5681 H   0  0  0  0  0
   12.6702  -29.0228  -17.7062 H   0  0  0  0  0
   12.3341  -28.4876  -19.3710 H   0  0  0  0  0
   11.9876  -30.1663  -18.8883 H   0  0  0  0  0
   13.6708  -29.3774  -21.2479 H   0  0  0  0  0
   15.0191  -30.5049  -20.9619 H   0  0  0  0  0
   13.3405  -31.0412  -20.7057 H   0  0  0  0  0
   17.2844  -29.8942  -17.1670 H   0  0  0  0  0
   17.9589  -27.8365  -17.3810 H   0  0  0  0  0
   18.4084  -25.6155  -17.8095 H   0  0  0  0  0
  1  2  1  0  0  0
  1  6  1  0  0  0
  2  3  1  0  0  0
  3  4  1  0  0  0
  4  5  1  0  0  0
  5  6  1  0  0  0
  6  7  1  0  0  0
  7  8  1  0  0  0
  8  9  4  0  0  0
  8 11  4  0  0  0
  9 10  4  0  0  0
 10 13  4  0  0  0
 11 12  4  0  0  0
 12 13  4  0  0  0
 13 14  1  0  0  0
 14 15  4  0  0  0
 14 23  4  0  0  0
 15 16  1  0  0  0
 15 21  4  0  0  0
 16 17  2  0  0  0
 16 18  1  0  0  0
 18 19  1  0  0  0
 19 20  1  0  0  0
 21 22  4  0  0  0
 22 23  4  0  0  0
 23 24  1  0  0  0
 24 25  4  0  0  0
 24 33  4  0  0  0
 25 26  4  0  0  0
 26 27  1  0  0  0
 26 30  4  0  0  0
 27 28  1  0  0  0
 27 29  1  0  0  0
 30 31  1  0  0  0
 30 32  4  0  0  0
 32 33  4  0  0  0
 33 34  1  0  0  0
  1 35  1  0  0  0
  1 36  1  0  0  0
  2 37  1  0  0  0
  2 38  1  0  0  0
  4 39  1  0  0  0
  4 40  1  0  0  0
  5 41  1  0  0  0
  5 42  1  0  0  0
  6 43  1  0  0  0
  7 44  1  0  0  0
  7 45  1  0  0  0
  9 46  1  0  0  0
 10 47  1  0  0  0
 11 48  1  0  0  0
 12 49  1  0  0  0
 18 50  1  0  0  0
 19 51  1  0  0  0
 19 52  1  0  0  0
 20 53  1  0  0  0
 20 54  1  0  0  0
 20 55  1  0  0  0
 25 56  1  0  0  0
 27 57  1  0  0  0
 28 58  1  0  0  0
 28 59  1  0  0  0
 28 60  1  0  0  0
 29 61  1  0  0  0
 29 62  1  0  0  0
 29 63  1  0  0  0
 31 64  1  0  0  0
 32 65  1  0  0  0
 34 66  1  0  0  0
M  END
$$$$
