5iv4_ligand
  -I-interpret- 

 31 33  0  0  0  0  0  0  0  0999 V2000
   14.5810   26.4670   -2.9900 C   0  0  0  0  0
   14.8640   25.5960   -4.0130 C   0  0  0  0  0
   14.1510   24.4780   -4.1160 C   0  0  0  0  0
   13.1010   24.4330   -2.7710 S   0  0  0  0  0
   13.6610   25.9090   -2.2010 C   0  0  0  0  0
   13.0630   26.5770   -0.9170 C   0  0  0  0  0
   11.8870   27.3540   -1.2210 N   0  0  0  0  0
   12.1820   28.6200   -1.8670 C   0  0  0  0  0
   11.6800   29.8890   -1.1200 C   0  0  0  0  0
   13.1670   29.4970   -1.2320 C   0  0  0  0  0
   10.7390   26.7500   -1.4190 C   0  0  0  0  0
   10.6290   25.4680   -1.1020 N   0  0  0  0  0
    9.6280   27.3530   -2.0350 C   0  0  0  0  0
    8.4930   26.6390   -2.3120 C   0  0  0  0  0
    6.9640   27.2280   -2.9960 Cl  0  0  0  0  0
    8.4800   25.3500   -1.9960 N   0  0  0  0  0
    9.5630   24.7990   -1.4440 C   0  0  0  0  0
    9.5780   23.5120   -1.2230 N   0  0  0  0  0
   15.0320   27.4489   -2.8466 H   0  0  0  0  0
   15.6576   25.8165   -4.7269 H   0  0  0  0  0
   14.2234   23.7327   -4.9081 H   0  0  0  0  0
   13.8151   27.2424   -0.4931 H   0  0  0  0  0
   12.7837   25.7892   -0.2174 H   0  0  0  0  0
   12.0730   28.2178   -2.8742 H   0  0  0  0  0
   10.9397   30.2002   -0.3830 H   0  0  0  0  0
   11.0174   30.7440   -1.2545 H   0  0  0  0  0
   14.1019   29.9825   -1.5120 H   0  0  0  0  0
   14.0168   29.3874   -0.5583 H   0  0  0  0  0
    9.6712   28.4101   -2.2973 H   0  0  0  0  0
   10.3983   23.0765   -0.8013 H   0  0  0  0  0
    8.7694   22.9423   -1.4720 H   0  0  0  0  0
  1  2  4  0  0  0
  1  5  4  0  0  0
  2  3  4  0  0  0
  3  4  4  0  0  0
  4  5  4  0  0  0
  5  6  1  0  0  0
  6  7  1  0  0  0
  7  8  1  0  0  0
  7 11  1  0  0  0
  8  9  1  0  0  0
  8 10  1  0  0  0
  9 10  1  0  0  0
 11 12  4  0  0  0
 11 13  4  0  0  0
 12 17  4  0  0  0
 13 14  4  0  0  0
 14 15  1  0  0  0
 14 16  4  0  0  0
 16 17  4  0  0  0
 17 18  1  0  0  0
  1 19  1  0  0  0
  2 20  1  0  0  0
  3 21  1  0  0  0
  6 22  1  0  0  0
  6 23  1  0  0  0
  8 24  1  0  0  0
  9 25  1  0  0  0
  9 26  1  0  0  0
 10 27  1  0  0  0
 10 28  1  0  0  0
 13 29  1  0  0  0
 18 30  1  0  0  0
 18 31  1  0  0  0
M  END
$$$$
