7prc_ligand
  -I-interpret- 

 32 32  0  0  0  0  0  0  0  0999 V2000
  132.0550   70.7860   -2.6830 N   0  0  0  0  0
  131.5200   69.7050   -2.1990 C   0  0  0  0  0
  131.1710   69.7820   -0.4740 Cl  0  0  0  0  0
  131.2010   68.5720   -2.7680 N   0  0  0  0  0
  131.4810   68.5820   -4.1020 C   0  0  0  0  0
  132.0340   69.6060   -4.7680 N   0  0  0  0  0
  132.3000   70.6750   -4.0290 C   0  0  0  0  0
  131.1740   67.4980   -4.8070 N   0  0  0  0  0
  130.5390   66.2900   -4.2840 C   0  0  0  0  0
  131.4040   65.6450   -3.2890 C   0  0  0  0  0
  132.0690   65.0980   -2.4640 N   0  0  0  0  0
  129.2150   66.6890   -3.6510 C   0  0  0  0  0
  128.3000   67.2250   -4.7240 C   0  0  0  0  0
  130.3090   65.3050   -5.4500 C   0  0  0  0  0
  132.8510   71.7500   -4.6160 N   0  0  0  0  0
  133.1950   72.9960   -3.9250 C   0  0  0  0  0
  133.6730   74.0740   -4.8530 C   0  0  0  0  0
  131.4017   67.5102   -5.8012 H   0  0  0  0  0
  129.3849   67.4562   -2.8956 H   0  0  0  0  0
  128.7572   65.8205   -3.1774 H   0  0  0  0  0
  128.7614   68.0945   -5.1921 H   0  0  0  0  0
  128.1315   66.4531   -5.4749 H   0  0  0  0  0
  127.3483   67.5133   -4.2775 H   0  0  0  0  0
  129.6630   65.7700   -6.1947 H   0  0  0  0  0
  131.2668   65.0524   -5.9049 H   0  0  0  0  0
  129.8353   64.3995   -5.0709 H   0  0  0  0  0
  133.0442   71.6953   -5.6160 H   0  0  0  0  0
  134.0051   72.7754   -3.2299 H   0  0  0  0  0
  132.2935   73.3601   -3.4322 H   0  0  0  0  0
  134.5646   73.7309   -5.3778 H   0  0  0  0  0
  132.8899   74.3030   -5.5758 H   0  0  0  0  0
  133.9105   74.9684   -4.2771 H   0  0  0  0  0
  1  2  4  0  0  0
  1  7  4  0  0  0
  2  3  1  0  0  0
  2  4  4  0  0  0
  4  5  4  0  0  0
  5  6  4  0  0  0
  5  8  1  0  0  0
  6  7  4  0  0  0
  7 15  1  0  0  0
  8  9  1  0  0  0
  9 10  1  0  0  0
  9 12  1  0  0  0
  9 14  1  0  0  0
 10 11  3  0  0  0
 12 13  1  0  0  0
 15 16  1  0  0  0
 16 17  1  0  0  0
  8 18  1  0  0  0
 12 19  1  0  0  0
 12 20  1  0  0  0
 13 21  1  0  0  0
 13 22  1  0  0  0
 13 23  1  0  0  0
 14 24  1  0  0  0
 14 25  1  0  0  0
 14 26  1  0  0  0
 15 27  1  0  0  0
 16 28  1  0  0  0
 16 29  1  0  0  0
 17 30  1  0  0  0
 17 31  1  0  0  0
 17 32  1  0  0  0
M  END
$$$$
