6fui_ligand
  -I-interpret- 

 55 58  0  0  0  0  0  0  0  0999 V2000
    7.0090    9.7010    0.8850 N   0  0  0  0  0
    8.9910    8.5170    1.2110 C   0  0  0  0  0
    9.8400    9.7850    1.3250 C   0  0  0  0  0
   10.5330   10.0990    0.0140 C   0  0  0  0  0
    9.4250   10.5400   -0.8140 C   0  0  0  0  0
    3.1910    9.2470    1.8090 C   0  0  0  0  0
    8.3530    6.7390    2.5510 O   0  0  0  0  0
    8.5810    8.0250    2.5560 C   0  0  0  0  0
    8.5770    8.8170    3.5160 O   0  0  0  0  0
    8.4230    9.4660   -1.0300 C   0  0  0  0  0
    7.8520    8.7310    0.2550 C   0  0  0  0  0
    5.7620    9.4690    1.2330 C   0  0  0  0  0
    5.1730    8.2650    1.2220 N   0  0  0  0  0
    3.9450    8.0210    1.5250 C   0  0  0  0  0
    1.8380    9.1610    2.1090 C   0  0  0  0  0
    1.0990   10.3750    2.2900 C   0  0  0  0  0
    1.6910   11.6290    2.1640 C   0  0  0  0  0
    3.0090   11.7340    1.8450 C   0  0  0  0  0
    3.8090   10.5250    1.7420 C   0  0  0  0  0
    5.0620   10.6680    1.3480 N   0  0  0  0  0
    3.4080    6.7530    1.6470 N   0  0  0  0  0
    3.9320    5.5180    1.5190 C   0  0  0  0  0
    5.2770    5.2440    1.7010 C   0  0  0  0  0
    5.8120    3.9390    1.5510 C   0  0  0  0  0
    5.0190    2.9050    1.1630 C   0  0  0  0  0
    3.7310    3.1930    0.8380 C   0  0  0  0  0
    3.2370    4.4710    1.0840 C   0  0  0  0  0
    2.8810    2.0480    0.3220 C   0  0  0  0  0
    2.2360    1.3790    1.3760 N   0  3  0  0  0
    7.3974   10.6248    1.0749 H   0  0  0  0  0
    9.5909    7.7136    0.7835 H   0  0  0  0  0
   10.5990    9.6282    2.0914 H   0  0  0  0  0
    9.1874   10.6192    1.5825 H   0  0  0  0  0
   11.0730    9.2492   -0.4036 H   0  0  0  0  0
   11.3233   10.8435    0.1105 H   0  0  0  0  0
    9.8234   10.8321   -1.7856 H   0  0  0  0  0
    8.9304   11.3675   -0.3054 H   0  0  0  0  0
    8.4290    6.4052    1.6541 H   0  0  0  0  0
    8.9366    8.6959   -1.6055 H   0  0  0  0  0
    7.5660    9.9525   -1.4958 H   0  0  0  0  0
    7.3553    7.7936    0.0047 H   0  0  0  0  0
    1.3490    8.1915    2.2047 H   0  0  0  0  0
    0.0384   10.3150    2.5344 H   0  0  0  0  0
    1.0965   12.5290    2.3214 H   0  0  0  0  0
    3.4589   12.7111    1.6691 H   0  0  0  0  0
    2.4152    6.7519    1.8810 H   0  0  0  0  0
    5.9483    6.0599    1.9690 H   0  0  0  0  0
    6.8694    3.7633    1.7488 H   0  0  0  0  0
    5.4011    1.8853    1.1145 H   0  0  0  0  0
    2.1741    4.6294    0.9018 H   0  0  0  0  0
    3.5282    1.3398   -0.1953 H   0  0  0  0  0
    2.1232    2.4522   -0.3491 H   0  0  0  0  0
    1.6734    0.6162    0.9992 H   0  0  0  0  0
    2.9349    1.0032    2.0168 H   0  0  0  0  0
    1.6332    2.0337    1.8744 H   0  0  0  0  0
  1 11  1  0  0  0
 12  1  1  0  0  0
  2  3  1  0  0  0
  2  8  1  0  0  0
 11  2  1  0  0  0
  3  4  1  0  0  0
  5  4  1  0  0  0
 10  5  1  0  0  0
 14  6  4  0  0  0
  6 15  4  0  0  0
  6 19  4  0  0  0
  8  7  1  0  0  0
  8  9  2  0  0  0
 11 10  1  0  0  0
 13 12  4  0  0  0
 12 20  4  0  0  0
 13 14  4  0  0  0
 14 21  1  0  0  0
 15 16  4  0  0  0
 16 17  4  0  0  0
 17 18  4  0  0  0
 18 19  4  0  0  0
 19 20  4  0  0  0
 21 22  1  0  0  0
 22 23  4  0  0  0
 22 27  4  0  0  0
 23 24  4  0  0  0
 24 25  4  0  0  0
 25 26  4  0  0  0
 26 27  4  0  0  0
 26 28  1  0  0  0
 28 29  1  0  0  0
  1 30  1  0  0  0
  2 31  1  0  0  0
  3 32  1  0  0  0
  3 33  1  0  0  0
  4 34  1  0  0  0
  4 35  1  0  0  0
  5 36  1  0  0  0
  5 37  1  0  0  0
  7 38  1  0  0  0
 10 39  1  0  0  0
 10 40  1  0  0  0
 11 41  1  0  0  0
 15 42  1  0  0  0
 16 43  1  0  0  0
 17 44  1  0  0  0
 18 45  1  0  0  0
 21 46  1  0  0  0
 23 47  1  0  0  0
 24 48  1  0  0  0
 25 49  1  0  0  0
 27 50  1  0  0  0
 28 51  1  0  0  0
 28 52  1  0  0  0
 29 53  1  0  0  0
 29 54  1  0  0  0
 29 55  1  0  0  0
M  END
$$$$
