6h7u_ligand
  -I-interpret- 

 19 18  0  0  0  0  0  0  0  0999 V2000
   21.7310    4.7090   32.8500 C   0  0  0  0  0
   19.2370    4.8520   33.0330 C   0  0  0  0  0
   18.8370    5.9310   32.6500 O   0  0  0  0  0
   18.4540    3.5810   32.7640 C   0  0  0  0  0
   17.0100    3.7610   32.6200 N   0  3  0  0  0
   20.5340    4.7260   33.7880 C   0  0  0  0  0
   23.0520    4.7930   33.5590 C   0  0  0  0  0
   23.7870    5.7590   33.4720 O   0  0  0  0  0
   23.3370    3.7280   34.2720 O   0  0  0  0  0
   21.6514    5.5825   32.2029 H   0  0  0  0  0
   21.7096    3.7623   32.3102 H   0  0  0  0  0
   18.6049    2.9310   33.6259 H   0  0  0  0  0
   18.8168    3.1835   31.8161 H   0  0  0  0  0
   16.5719    2.8571   32.4426 H   0  0  0  0  0
   16.6312    4.1612   33.4784 H   0  0  0  0  0
   16.8232    4.3899   31.8389 H   0  0  0  0  0
   20.6299    5.5851   34.4519 H   0  0  0  0  0
   20.5189    3.7879   34.3428 H   0  0  0  0  0
   22.6206    3.0933   34.1976 H   0  0  0  0  0
  6  1  1  0  0  0
  1  7  1  0  0  0
  2  3  2  0  0  0
  2  4  1  0  0  0
  2  6  1  0  0  0
  4  5  1  0  0  0
  7  8  2  0  0  0
  7  9  1  0  0  0
  1 10  1  0  0  0
  1 11  1  0  0  0
  4 12  1  0  0  0
  4 13  1  0  0  0
  5 14  1  0  0  0
  5 15  1  0  0  0
  5 16  1  0  0  0
  6 17  1  0  0  0
  6 18  1  0  0  0
  9 19  1  0  0  0
M  END
$$$$
