5aqt_ligand
  -I-interpret- 

 37 39  0  0  0  0  0  0  0  0999 V2000
   58.9830   -3.4860  149.9030 O   0  0  0  0  0
   59.0540   -3.3860  148.4880 C   0  0  0  0  0
   59.8430   -2.1500  148.0720 C   0  0  0  0  0
   59.7590   -1.1170  149.0420 O   0  0  0  0  0
   59.2980   -1.6840  146.7220 C   0  0  0  0  0
   60.3660   -1.6890  145.6520 C   0  0  0  0  0
   61.0190   -2.9480  145.5820 O   0  0  0  0  0
   58.1460   -2.6500  146.4510 C   0  0  0  0  0
   57.6960   -3.1420  147.8270 C   0  0  0  0  0
   56.8810   -4.3290  147.6740 N   0  0  0  0  0
   55.6470   -4.4980  148.2480 C   0  0  0  0  0
   55.0070   -5.7870  148.1900 C   0  0  0  0  0
   55.5160   -6.9510  147.5660 C   0  0  0  0  0
   54.8290   -8.1250  147.6120 C   0  0  0  0  0
   53.6190   -8.2050  148.2660 C   0  0  0  0  0
   53.0820   -7.1100  148.8750 C   0  0  0  0  0
   53.7630   -5.8730  148.8550 C   0  0  0  0  0
   53.2030   -4.8070  149.5030 N   0  0  0  0  0
   53.9030   -3.6960  149.4680 C   0  0  0  0  0
   55.0830   -3.4690  148.8840 N   0  0  0  0  0
   59.8625   -3.6382  150.2564 H   0  0  0  0  0
   59.4963   -4.3338  148.1812 H   0  0  0  0  0
   60.9004   -2.4011  147.9892 H   0  0  0  0  0
   60.1070   -1.4356  149.8781 H   0  0  0  0  0
   58.9579   -0.6484  146.7242 H   0  0  0  0  0
   61.1061   -0.9270  145.8964 H   0  0  0  0  0
   59.8947   -1.4882  144.6899 H   0  0  0  0  0
   61.6900   -2.9215  144.8960 H   0  0  0  0  0
   58.4586   -3.4766  145.8130 H   0  0  0  0  0
   57.3322   -2.1619  145.9147 H   0  0  0  0  0
   57.0652   -2.4721  148.4114 H   0  0  0  0  0
   57.2487   -5.0892  147.1019 H   0  0  0  0  0
   56.4706   -6.9066  147.0418 H   0  0  0  0  0
   55.2400   -9.0103  147.1268 H   0  0  0  0  0
   53.0850   -9.1547  148.2968 H   0  0  0  0  0
   52.1199   -7.1898  149.3811 H   0  0  0  0  0
   53.4615   -2.8442  149.9853 H   0  0  0  0  0
  1  2  1  0  0  0
  2  3  1  0  0  0
  2  9  1  0  0  0
  3  4  1  0  0  0
  3  5  1  0  0  0
  5  6  1  0  0  0
  5  8  1  0  0  0
  6  7  1  0  0  0
  8  9  1  0  0  0
  9 10  1  0  0  0
 10 11  1  0  0  0
 11 12  4  0  0  0
 11 20  4  0  0  0
 12 13  4  0  0  0
 12 17  4  0  0  0
 13 14  4  0  0  0
 14 15  4  0  0  0
 15 16  4  0  0  0
 16 17  4  0  0  0
 17 18  4  0  0  0
 18 19  4  0  0  0
 19 20  4  0  0  0
  1 21  1  0  0  0
  2 22  1  0  0  0
  3 23  1  0  0  0
  4 24  1  0  0  0
  5 25  1  0  0  0
  6 26  1  0  0  0
  6 27  1  0  0  0
  7 28  1  0  0  0
  8 29  1  0  0  0
  8 30  1  0  0  0
  9 31  1  0  0  0
 10 32  1  0  0  0
 13 33  1  0  0  0
 14 34  1  0  0  0
 15 35  1  0  0  0
 16 36  1  0  0  0
 19 37  1  0  0  0
M  END
$$$$
