3lqi_ligand
  -I-interpret- 

165164  0  0  0  0  0  0  0  0999 V2000
   34.8750  -14.2330  -37.7620 N   0  3  0  0  0
   34.9730  -12.7630  -37.9940 C   0  0  0  0  0
   35.8140  -12.0980  -36.9110 C   0  0  0  0  0
   35.9420  -12.6210  -35.8040 O   0  0  0  0  0
   33.5840  -12.1560  -38.0180 C   0  0  0  0  0
   36.3860  -10.9410  -37.2330 N   0  0  0  0  0
   37.2140  -10.2110  -36.2790 C   0  0  0  0  0
   36.5550   -8.9020  -35.8560 C   0  0  0  0  0
   36.1000   -8.1220  -36.6960 O   0  0  0  0  0
   38.5840   -9.9090  -36.8820 C   0  0  0  0  0
   39.5740   -9.3560  -35.8730 C   0  0  0  0  0
   40.8520   -8.8960  -36.5430 C   0  0  0  0  0
   41.8710   -8.5200  -35.5690 N   0  0  0  0  0
   42.6460   -9.3880  -34.9260 C   0  0  0  0  0
   43.5450   -8.9550  -34.0520 N   0  0  0  0  0
   42.5350  -10.6870  -35.1680 N   0  0  0  0  0
   36.5190   -8.6630  -34.5480 N   0  0  0  0  0
   35.9100   -7.4580  -34.0050 C   0  0  0  0  0
   36.7670   -6.8530  -32.9010 C   0  0  0  0  0
   37.7390   -7.4570  -32.4480 O   0  0  0  0  0
   34.5130   -7.7580  -33.4210 C   0  0  0  0  0
   34.6470   -8.4650  -32.1800 O   0  0  0  0  0
   33.7100   -8.6070  -34.3870 C   0  0  0  0  0
   36.3940   -5.6560  -32.4670 N   0  0  0  0  0
   37.1230   -4.9650  -31.4130 C   0  0  0  0  0
   36.5170   -3.5770  -31.1810 C   0  0  0  0  0
   36.7830   -2.5850  -32.3120 C   0  0  0  0  0
   38.2500   -2.1660  -32.3560 C   0  0  0  0  0
   38.4980   -1.1280  -33.4400 C   0  0  0  0  0
   39.7970   -0.4380  -33.3000 N   0  3  0  0  0
   41.0110   -1.2670  -33.3230 C   0  0  0  0  0
   39.8760    0.5880  -34.3480 C   0  0  0  0  0
   37.1180   -5.7670  -30.1110 C   0  0  0  0  0
   37.9710   -5.5620  -29.2480 O   0  0  0  0  0
   36.1610   -6.6820  -29.9750 N   0  0  0  0  0
   36.0770   -7.5060  -28.7720 C   0  0  0  0  0
   37.0120   -8.7090  -28.8410 C   0  0  0  0  0
   37.5970   -9.1060  -27.8340 O   0  0  0  0  0
   34.6470   -8.0080  -28.5490 C   0  0  0  0  0
   33.6480   -6.9420  -28.1420 C   0  0  0  0  0
   32.4190   -7.5340  -27.4780 C   0  0  0  0  0
   32.2130   -8.7500  -27.4980 O   0  0  0  0  0
   31.5920   -6.6760  -26.8870 N   0  0  0  0  0
   37.1500   -9.2860  -30.0300 N   0  0  0  0  0
   38.0040  -10.4540  -30.2120 C   0  0  0  0  0
   39.4470  -10.0810  -30.5230 C   0  0  0  0  0
   40.3740  -10.8090  -30.1720 O   0  0  0  0  0
   37.4930  -11.3460  -31.3540 C   0  0  0  0  0
   37.7060  -10.6870  -32.6070 O   0  0  0  0  0
   36.0050  -11.6270  -31.1840 C   0  0  0  0  0
   39.6310   -8.9450  -31.1860 N   0  0  0  0  0
   40.9630   -8.4820  -31.5550 C   0  0  0  0  0
   41.8760   -8.3510  -30.3450 C   0  0  0  0  0
   43.1010   -8.3800  -30.4780 O   0  0  0  0  0
   40.8690   -7.1450  -32.2780 C   0  0  0  0  0
   41.2840   -8.2090  -29.1630 N   0  0  0  0  0
   42.0820   -8.0620  -27.9560 C   0  0  0  0  0
   41.2740   -8.2590  -26.6720 C   0  0  0  0  0
   40.0780   -7.9670  -26.6290 O   0  0  0  0  0
   42.7430   -6.6800  -27.9560 C   0  0  0  0  0
   43.8550   -6.5270  -26.9460 C   0  0  0  0  0
   44.4890   -5.1460  -27.0010 C   0  0  0  0  0
   45.2440   -4.8910  -25.7790 N   0  0  0  0  0
   46.0220   -3.8340  -25.5710 C   0  0  0  0  0
   46.1670   -2.9080  -26.5100 N   0  0  0  0  0
   46.6480   -3.7020  -24.4100 N   0  0  0  0  0
   41.9610   -8.7680  -25.6470 N   0  0  0  0  0
   41.4350   -9.0400  -24.3020 C   0  0  0  0  0
   41.8960  -10.3960  -23.7810 C   0  0  0  0  0
   41.1360  -11.0290  -23.0160 O   0  0  0  0  0
   39.9030   -8.9760  -24.2520 C   0  0  0  0  0
   39.3510   -7.5850  -23.9590 C   0  0  0  0  0
   37.8850   -7.6430  -23.5820 C   0  0  0  0  0
   37.2710   -6.2520  -23.5180 C   0  0  0  0  0
   37.9660   -5.3550  -22.5520 N   0  3  0  0  0
   43.0290  -10.7940  -24.1260 O   0  0  0  0  0
   35.8116  -14.6368  -37.7467 H   0  0  0  0  0
   34.4146  -14.4050  -36.8682 H   0  0  0  0  0
   34.3320  -14.6591  -38.5130 H   0  0  0  0  0
   35.4590  -12.5947  -38.9550 H   0  0  0  0  0
   33.1065  -12.3061  -37.0497 H   0  0  0  0  0
   33.6589  -11.0887  -38.2261 H   0  0  0  0  0
   32.9915  -12.6384  -38.7954 H   0  0  0  0  0
   36.2427  -10.5560  -38.1666 H   0  0  0  0  0
   37.3307  -10.8443  -35.3996 H   0  0  0  0  0
   38.4447   -9.1538  -37.6555 H   0  0  0  0  0
   38.9903  -10.8458  -37.2635 H   0  0  0  0  0
   39.8213  -10.1458  -35.1637 H   0  0  0  0  0
   39.1179   -8.5001  -35.3755 H   0  0  0  0  0
   40.6230   -8.0223  -37.1531 H   0  0  0  0  0
   41.2394   -9.7196  -37.1428 H   0  0  0  0  0
   41.9969   -7.5278  -35.3686 H   0  0  0  0  0
   44.1481   -9.6206  -33.5686 H   0  0  0  0  0
   43.6332   -7.9565  -33.8634 H   0  0  0  0  0
   41.8537  -11.0225  -35.8489 H   0  0  0  0  0
   36.9295   -9.3430  -33.9080 H   0  0  0  0  0
   35.8239   -6.7513  -34.8304 H   0  0  0  0  0
   33.9966   -6.8125  -33.2554 H   0  0  0  0  0
   33.7754   -8.6486  -31.8219 H   0  0  0  0  0
   33.5949   -8.0721  -35.3297 H   0  0  0  0  0
   34.2323   -9.5474  -34.5629 H   0  0  0  0  0
   32.7276   -8.8097  -33.9605 H   0  0  0  0  0
   35.5765   -5.2089  -32.8819 H   0  0  0  0  0
   38.1590   -4.8577  -31.7343 H   0  0  0  0  0
   36.9764   -3.1704  -30.2800 H   0  0  0  0  0
   35.4367   -3.7039  -31.1100 H   0  0  0  0  0
   36.1753   -1.6963  -32.1415 H   0  0  0  0  0
   36.5328   -3.0651  -33.2580 H   0  0  0  0  0
   38.8551   -3.0460  -32.5742 H   0  0  0  0  0
   38.5148   -1.7306  -31.3925 H   0  0  0  0  0
   37.7141   -0.3748  -33.3612 H   0  0  0  0  0
   38.5014   -1.6465  -34.3988 H   0  0  0  0  0
   39.7966   -0.0565  -32.3540 H   0  0  0  0  0
   40.9749   -1.9846  -32.5034 H   0  0  0  0  0
   41.0675   -1.8000  -34.2721 H   0  0  0  0  0
   41.8874   -0.6288  -33.2105 H   0  0  0  0  0
   39.8032    0.1127  -35.3262 H   0  0  0  0  0
   39.0561    1.2956  -34.2245 H   0  0  0  0  0
   40.8271    1.1145  -34.2683 H   0  0  0  0  0
   35.4771   -6.8095  -30.7209 H   0  0  0  0  0
   36.3796   -6.8705  -27.9397 H   0  0  0  0  0
   34.6904   -8.7267  -27.7306 H   0  0  0  0  0
   34.3041   -8.4127  -29.5012 H   0  0  0  0  0
   33.3279   -6.4155  -29.0411 H   0  0  0  0  0
   34.1331   -6.2770  -27.4274 H   0  0  0  0  0
   30.7481   -7.0162  -26.4261 H   0  0  0  0  0
   31.8018   -5.6778  -26.8947 H   0  0  0  0  0
   36.6483   -8.9041  -30.8318 H   0  0  0  0  0
   37.9699  -10.9904  -29.2637 H   0  0  0  0  0
   38.0385  -12.2894  -31.3315 H   0  0  0  0  0
   37.3863  -11.2454  -33.3194 H   0  0  0  0  0
   35.8387  -12.1354  -30.2343 H   0  0  0  0  0
   35.4553  -10.6859  -31.1949 H   0  0  0  0  0
   35.6604  -12.2600  -32.0017 H   0  0  0  0  0
   38.8200   -8.3825  -31.4434 H   0  0  0  0  0
   41.3973   -9.2297  -32.2186 H   0  0  0  0  0
   40.2674   -7.2623  -33.1793 H   0  0  0  0  0
   40.4028   -6.4104  -31.6215 H   0  0  0  0  0
   41.8698   -6.8087  -32.5489 H   0  0  0  0  0
   40.2658   -8.2031  -29.1024 H   0  0  0  0  0
   42.8368   -8.8483  -27.9670 H   0  0  0  0  0
   41.9717   -5.9542  -27.6982 H   0  0  0  0  0
   43.1819   -6.5330  -28.9429 H   0  0  0  0  0
   44.6249   -7.2646  -27.1726 H   0  0  0  0  0
   43.4333   -6.6689  -25.9509 H   0  0  0  0  0
   43.7041   -4.3961  -27.0992 H   0  0  0  0  0
   45.1643   -5.0965  -27.8552 H   0  0  0  0  0
   45.1690   -5.5762  -25.0271 H   0  0  0  0  0
   46.7596   -2.0958  -26.3381 H   0  0  0  0  0
   45.6859   -3.0083  -27.4038 H   0  0  0  0  0
   46.5307   -4.4089  -23.6841 H   0  0  0  0  0
   42.9429   -8.9888  -25.8128 H   0  0  0  0  0
   41.8357   -8.2545  -23.6613 H   0  0  0  0  0
   40.3229  -10.5337  -22.8927 H   0  0  0  0  0
   39.5778   -9.6304  -23.4433 H   0  0  0  0  0
   39.5343   -9.2703  -25.2346 H   0  0  0  0  0
   39.4548   -6.9744  -24.8559 H   0  0  0  0  0
   39.9075   -7.1596  -23.1239 H   0  0  0  0  0
   37.7992   -8.1042  -22.5981 H   0  0  0  0  0
   37.3557   -8.2198  -24.3404 H   0  0  0  0  0
   36.2376   -6.3592  -23.1884 H   0  0  0  0  0
   37.3563   -5.8046  -24.5083 H   0  0  0  0  0
   37.5130   -4.4411  -22.5520 H   0  0  0  0  0
   37.9165   -5.7603  -21.6173 H   0  0  0  0  0
   38.9426   -5.2517  -22.8278 H   0  0  0  0  0
  1  2  1  0  0  0
  2  3  1  0  0  0
  2  5  1  0  0  0
  3  4  2  0  0  0
  3  6  1  0  0  0
  6  7  1  0  0  0
  7  8  1  0  0  0
  7 10  1  0  0  0
  8  9  2  0  0  0
  8 17  1  0  0  0
 10 11  1  0  0  0
 11 12  1  0  0  0
 12 13  1  0  0  0
 13 14  1  0  0  0
 14 15  1  0  0  0
 14 16  2  0  0  0
 17 18  1  0  0  0
 18 19  1  0  0  0
 18 21  1  0  0  0
 19 20  2  0  0  0
 19 24  1  0  0  0
 21 22  1  0  0  0
 21 23  1  0  0  0
 24 25  1  0  0  0
 25 26  1  0  0  0
 25 33  1  0  0  0
 26 27  1  0  0  0
 27 28  1  0  0  0
 28 29  1  0  0  0
 29 30  1  0  0  0
 30 31  1  0  0  0
 30 32  1  0  0  0
 33 34  2  0  0  0
 33 35  1  0  0  0
 35 36  1  0  0  0
 36 37  1  0  0  0
 36 39  1  0  0  0
 37 38  2  0  0  0
 37 44  1  0  0  0
 39 40  1  0  0  0
 40 41  1  0  0  0
 41 42  2  0  0  0
 41 43  1  0  0  0
 44 45  1  0  0  0
 45 46  1  0  0  0
 45 48  1  0  0  0
 46 47  2  0  0  0
 46 51  1  0  0  0
 48 49  1  0  0  0
 48 50  1  0  0  0
 51 52  1  0  0  0
 52 53  1  0  0  0
 52 55  1  0  0  0
 53 54  2  0  0  0
 53 56  1  0  0  0
 56 57  1  0  0  0
 57 58  1  0  0  0
 57 60  1  0  0  0
 58 59  2  0  0  0
 58 67  1  0  0  0
 60 61  1  0  0  0
 61 62  1  0  0  0
 62 63  1  0  0  0
 63 64  1  0  0  0
 64 65  1  0  0  0
 64 66  2  0  0  0
 67 68  1  0  0  0
 68 69  1  0  0  0
 68 71  1  0  0  0
 69 70  1  0  0  0
 69 76  2  0  0  0
 71 72  1  0  0  0
 72 73  1  0  0  0
 73 74  1  0  0  0
 74 75  1  0  0  0
  1 77  1  0  0  0
  1 78  1  0  0  0
  1 79  1  0  0  0
  2 80  1  0  0  0
  5 81  1  0  0  0
  5 82  1  0  0  0
  5 83  1  0  0  0
  6 84  1  0  0  0
  7 85  1  0  0  0
 10 86  1  0  0  0
 10 87  1  0  0  0
 11 88  1  0  0  0
 11 89  1  0  0  0
 12 90  1  0  0  0
 12 91  1  0  0  0
 13 92  1  0  0  0
 15 93  1  0  0  0
 15 94  1  0  0  0
 16 95  1  0  0  0
 17 96  1  0  0  0
 18 97  1  0  0  0
 21 98  1  0  0  0
 22 99  1  0  0  0
 23100  1  0  0  0
 23101  1  0  0  0
 23102  1  0  0  0
 24103  1  0  0  0
 25104  1  0  0  0
 26105  1  0  0  0
 26106  1  0  0  0
 27107  1  0  0  0
 27108  1  0  0  0
 28109  1  0  0  0
 28110  1  0  0  0
 29111  1  0  0  0
 29112  1  0  0  0
 30113  1  0  0  0
 31114  1  0  0  0
 31115  1  0  0  0
 31116  1  0  0  0
 32117  1  0  0  0
 32118  1  0  0  0
 32119  1  0  0  0
 35120  1  0  0  0
 36121  1  0  0  0
 39122  1  0  0  0
 39123  1  0  0  0
 40124  1  0  0  0
 40125  1  0  0  0
 43126  1  0  0  0
 43127  1  0  0  0
 44128  1  0  0  0
 45129  1  0  0  0
 48130  1  0  0  0
 49131  1  0  0  0
 50132  1  0  0  0
 50133  1  0  0  0
 50134  1  0  0  0
 51135  1  0  0  0
 52136  1  0  0  0
 55137  1  0  0  0
 55138  1  0  0  0
 55139  1  0  0  0
 56140  1  0  0  0
 57141  1  0  0  0
 60142  1  0  0  0
 60143  1  0  0  0
 61144  1  0  0  0
 61145  1  0  0  0
 62146  1  0  0  0
 62147  1  0  0  0
 63148  1  0  0  0
 65149  1  0  0  0
 65150  1  0  0  0
 66151  1  0  0  0
 67152  1  0  0  0
 68153  1  0  0  0
 70154  1  0  0  0
 71155  1  0  0  0
 71156  1  0  0  0
 72157  1  0  0  0
 72158  1  0  0  0
 73159  1  0  0  0
 73160  1  0  0  0
 74161  1  0  0  0
 74162  1  0  0  0
 75163  1  0  0  0
 75164  1  0  0  0
 75165  1  0  0  0
M  END
$$$$
