### 
### Created by X-TOOL on Sun Sep  9 21:51:19 2018
### 

@<TRIPOS>MOLECULE
3lqi_ligand
  166   165     1     0     0
SMALL
GAST_HUCK


@<TRIPOS>ATOM
      1 N          34.8750  -14.2330  -37.7620 N.4       1 NON         0.2377
      2 CA         34.9730  -12.7630  -37.9940 C.3       1 NON         0.0621
      3 C          35.8140  -12.0980  -36.9110 C.2       1 NON         0.2264
      4 O          35.9420  -12.6210  -35.8040 O.2       1 NON        -0.3907
      5 CB         33.5840  -12.1560  -38.0180 C.3       1 NON        -0.0040
      6 N          36.3860  -10.9410  -37.2330 N.am      1 NON        -0.2610
      7 CA         37.2140  -10.2110  -36.2790 C.3       1 NON         0.1312
      8 C          36.5550   -8.9020  -35.8560 C.2       1 NON         0.2040
      9 O          36.1000   -8.1220  -36.6960 O.2       1 NON        -0.3944
     10 CB         38.5840   -9.9090  -36.8820 C.3       1 NON        -0.0092
     11 CG         39.5740   -9.3560  -35.8730 C.3       1 NON        -0.0156
     12 CD         40.8520   -8.8960  -36.5430 C.3       1 NON         0.0627
     13 NE         41.8710   -8.5200  -35.5690 N.pl3     1 NON        -0.2723
     14 CZ         42.6460   -9.3880  -34.9260 C.cat     1 NON         0.2882
     15 NH1        43.5450   -8.9550  -34.0520 N.pl3     1 NON        -0.2849
     16 NH2        42.5350  -10.6870  -35.1680 N.pl3     1 NON        -0.2849
     17 N          36.5190   -8.6630  -34.5480 N.am      1 NON        -0.2613
     18 CA         35.9100   -7.4580  -34.0050 C.3       1 NON         0.1565
     19 C          36.7670   -6.8530  -32.9010 C.2       1 NON         0.2065
     20 O          37.7390   -7.4570  -32.4480 O.2       1 NON        -0.3943
     21 CB         34.5130   -7.7580  -33.4210 C.3       1 NON         0.0924
     22 OG1        34.6470   -8.4650  -32.1800 O.3       1 NON        -0.3874
     23 CG2        33.7100   -8.6070  -34.3870 C.3       1 NON        -0.0346
     24 N          36.3940   -5.6560  -32.4670 N.am      1 NON        -0.2637
     25 CA         37.1230   -4.9650  -31.4130 C.3       1 NON         0.1310
     26 CB         36.5170   -3.5770  -31.1810 C.3       1 NON        -0.0122
     27 CG         36.7830   -2.5850  -32.3120 C.3       1 NON        -0.0440
     28 CD         38.2500   -2.1660  -32.3560 C.3       1 NON        -0.0123
     29 CE         38.4980   -1.1280  -33.4400 C.3       1 NON        -0.0324
     30 NZ         39.7970   -0.4380  -33.3000 N.4       1 NON         0.2309
     31 CH1        41.0110   -1.2670  -33.3230 C.3       1 NON        -0.0433
     32 CH2        39.8760    0.5880  -34.3480 C.3       1 NON        -0.0433
     33 C          37.1180   -5.7670  -30.1110 C.2       1 NON         0.2039
     34 O          37.9710   -5.5620  -29.2480 O.2       1 NON        -0.3944
     35 N          36.1610   -6.6820  -29.9750 N.am      1 NON        -0.2636
     36 CA         36.0770   -7.5060  -28.7720 C.3       1 NON         0.1330
     37 C          37.0120   -8.7090  -28.8410 C.2       1 NON         0.2041
     38 O          37.5970   -9.1060  -27.8340 O.2       1 NON        -0.3944
     39 CB         34.6470   -8.0080  -28.5490 C.3       1 NON         0.0045
     40 CG         33.6480   -6.9420  -28.1420 C.3       1 NON         0.0412
     41 CD         32.4190   -7.5340  -27.4780 C.2       1 NON         0.1737
     42 OE1        32.2130   -8.7500  -27.4980 O.2       1 NON        -0.3973
     43 NE2        31.5920   -6.6760  -26.8870 N.am      1 NON        -0.3009
     44 N          37.1500   -9.2860  -30.0300 N.am      1 NON        -0.2613
     45 CA         38.0040  -10.4540  -30.2120 C.3       1 NON         0.1565
     46 C          39.4470  -10.0810  -30.5230 C.2       1 NON         0.2065
     47 O          40.3740  -10.8090  -30.1720 O.2       1 NON        -0.3943
     48 CB         37.4930  -11.3460  -31.3540 C.3       1 NON         0.0924
     49 OG1        37.7060  -10.6870  -32.6070 O.3       1 NON        -0.3874
     50 CG2        36.0050  -11.6270  -31.1840 C.3       1 NON        -0.0346
     51 N          39.6310   -8.9450  -31.1860 N.am      1 NON        -0.2639
     52 CA         40.9630   -8.4820  -31.5550 C.3       1 NON         0.1282
     53 C          41.8760   -8.3510  -30.3450 C.2       1 NON         0.2036
     54 O          43.1010   -8.3800  -30.4780 O.2       1 NON        -0.3944
     55 CB         40.8690   -7.1450  -32.2780 C.3       1 NON        -0.0244
     56 N          41.2840   -8.2090  -29.1630 N.am      1 NON        -0.2637
     57 CA         42.0820   -8.0620  -27.9560 C.3       1 NON         0.1310
     58 C          41.2740   -8.2590  -26.6720 C.2       1 NON         0.2033
     59 O          40.0780   -7.9670  -26.6290 O.2       1 NON        -0.3944
     60 CB         42.7430   -6.6800  -27.9560 C.3       1 NON        -0.0092
     61 CG         43.8550   -6.5270  -26.9460 C.3       1 NON        -0.0156
     62 CD         44.4890   -5.1460  -27.0010 C.3       1 NON         0.0627
     63 NE         45.2440   -4.8910  -25.7790 N.pl3     1 NON        -0.2723
     64 CZ         46.0220   -3.8340  -25.5710 C.cat     1 NON         0.2882
     65 NH1        46.1670   -2.9080  -26.5100 N.pl3     1 NON        -0.2849
     66 NH2        46.6480   -3.7020  -24.4100 N.pl3     1 NON        -0.2849
     67 N          41.9610   -8.7680  -25.6470 N.am      1 NON        -0.2695
     68 CA         41.4350   -9.0400  -24.3020 C.3       1 NON         0.0944
     69 C          41.8960  -10.3960  -23.7810 C.2       1 NON         0.0601
     70 O          41.1360  -11.0290  -23.0160 O.co2     1 NON        -0.5666
     71 CB         39.9030   -8.9760  -24.2520 C.3       1 NON        -0.0177
     72 CG         39.3510   -7.5850  -23.9590 C.3       1 NON        -0.0446
     73 CD         37.8850   -7.6430  -23.5820 C.3       1 NON        -0.0125
     74 CE         37.2710   -6.2520  -23.5180 C.3       1 NON        -0.0354
     75 NZ         37.9660   -5.3550  -22.5520 N.4       1 NON         0.2185
     76 OXT        43.0290  -10.7940  -24.1260 O.co2     1 NON        -0.5666
     77 H1         34.3155  -14.6513  -38.4887 H         1 NON         0.2015
     78 H2         34.4450  -14.4039  -36.8665 H         1 NON         0.2015
     79 H3         35.7982  -14.6374  -37.7741 H         1 NON         0.2015
     80 H4         35.4537  -12.5906  -38.9683 H         1 NON         0.1095
     81 H5         33.6605  -11.0721  -38.1893 H         1 NON         0.0310
     82 H6         33.0864  -12.3407  -37.0545 H         1 NON         0.0310
     83 H7         32.9973  -12.6146  -38.8276 H         1 NON         0.0310
     84 H8         36.2455  -10.5636  -38.1483 H         1 NON         0.1884
     85 H9         37.3502  -10.8398  -35.3868 H         1 NON         0.0800
     86 H10        38.4563   -9.1704  -37.6870 H         1 NON         0.0313
     87 H11        38.9946  -10.8399  -37.3002 H         1 NON         0.0313
     88 H12        39.8164  -10.1419  -35.1426 H         1 NON         0.0301
     89 H13        39.1154   -8.5016  -35.3537 H         1 NON         0.0301
     90 H14        40.6279   -8.0257  -37.1773 H         1 NON         0.0689
     91 H15        41.2410   -9.7141  -37.1670 H         1 NON         0.0689
     92 H16        41.9981   -7.5181  -35.3666 H         1 NON         0.2642
     93 H17        44.1451   -9.6280  -33.5542 H         1 NON         0.2615
     94 H18        43.6430   -7.9457  -33.8712 H         1 NON         0.2615
     95 H19        41.8381  -11.0268  -35.8460 H         1 NON         0.2615
     96 H20        43.1457  -11.3562  -34.6780 H         1 NON         0.2615
     97 H21        36.9214   -9.3296  -33.9206 H         1 NON         0.1884
     98 H22        35.8074   -6.7250  -34.8187 H         1 NON         0.0826
     99 H23        33.9846   -6.8093  -33.2455 H         1 NON         0.0639
    100 H24        33.7845   -8.6467  -31.8256 H         1 NON         0.2101
    101 H25        32.7183   -8.8123  -33.9576 H         1 NON         0.0257
    102 H26        34.2360   -9.5565  -34.5653 H         1 NON         0.0257
    103 H27        33.5930   -8.0682  -35.3388 H         1 NON         0.0257
    104 H28        35.5925   -5.2177  -32.8738 H         1 NON         0.1883
    105 H29        38.1666   -4.8417  -31.7381 H         1 NON         0.0800
    106 H30        36.9409   -3.1653  -30.2532 H         1 NON         0.0312
    107 H31        35.4286   -3.6893  -31.0686 H         1 NON         0.0312
    108 H32        36.1607   -1.6913  -32.1572 H         1 NON         0.0269
    109 H33        36.5170   -3.0556  -33.2700 H         1 NON         0.0269
    110 H34        38.8693   -3.0518  -32.5603 H         1 NON         0.0317
    111 H35        38.5299   -1.7396  -31.3814 H         1 NON         0.0317
    112 H36        37.6963   -0.3762  -33.3940 H         1 NON         0.0814
    113 H37        38.4732   -1.6311  -34.4179 H         1 NON         0.0814
    114 H38        39.7854    0.0244  -32.4044 H         1 NON         0.2028
    115 H39        41.8963   -0.6240  -33.2096 H         1 NON         0.0777
    116 H40        41.0692   -1.8055  -34.2804 H         1 NON         0.0777
    117 H41        40.9759   -1.9917  -32.4962 H         1 NON         0.0777
    118 H42        38.9656    1.2051  -34.3263 H         1 NON         0.0777
    119 H43        39.9663    0.1022  -35.3307 H         1 NON         0.0777
    120 H44        40.7551    1.2252  -34.1718 H         1 NON         0.0777
    121 H45        35.4905   -6.8070  -30.7063 H         1 NON         0.1883
    122 H46        36.3701   -6.8851  -27.9126 H         1 NON         0.0801
    123 H47        34.6731   -8.7709  -27.7570 H         1 NON         0.0337
    124 H48        34.2958   -8.4643  -29.4862 H         1 NON         0.0337
    125 H49        33.3342   -6.3890  -29.0396 H         1 NON         0.0504
    126 H50        34.1339   -6.2515  -27.4370 H         1 NON         0.0504
    127 H51        30.7658   -7.0098  -26.4332 H         1 NON         0.1814
    128 H52        31.7965   -5.6972  -26.8965 H         1 NON         0.1814
    129 H53        36.6582   -8.9116  -30.8161 H         1 NON         0.1884
    130 H54        37.9869  -11.0325  -29.2765 H         1 NON         0.0826
    131 H55        38.0447  -12.2976  -31.3431 H         1 NON         0.0639
    132 H56        37.2347   -9.8622  -32.6139 H         1 NON         0.2101
    133 H57        35.6560  -12.2658  -32.0087 H         1 NON         0.0257
    134 H58        35.4490  -10.6779  -31.1949 H         1 NON         0.0257
    135 H59        35.8358  -12.1401  -30.2259 H         1 NON         0.0257
    136 H60        38.8359   -8.3935  -31.4384 H         1 NON         0.1883
    137 H61        41.4048   -9.2205  -32.2401 H         1 NON         0.0797
    138 H62        41.8785   -6.8046  -32.5519 H         1 NON         0.0277
    139 H63        40.3987   -6.4026  -31.6164 H         1 NON         0.0277
    140 H64        40.2621   -7.2620  -33.1879 H         1 NON         0.0277
    141 H65        40.2858   -8.2032  -29.1036 H         1 NON         0.1883
    142 H66        42.8715   -8.8277  -27.9763 H         1 NON         0.0800
    143 H67        41.9709   -5.9281  -27.7358 H         1 NON         0.0313
    144 H68        43.1588   -6.4962  -28.9576 H         1 NON         0.0313
    145 H69        44.6286   -7.2812  -27.1526 H         1 NON         0.0301
    146 H70        43.4444   -6.6893  -25.9385 H         1 NON         0.0301
    147 H71        43.6995   -4.3873  -27.1056 H         1 NON         0.0689
    148 H72        45.1670   -5.0913  -27.8654 H         1 NON         0.0689
    149 H73        45.1682   -5.5829  -25.0197 H         1 NON         0.2642
    150 H74        46.7722   -2.0921  -26.3396 H         1 NON         0.2615
    151 H75        45.6744   -3.0050  -27.4093 H         1 NON         0.2615
    152 H76        46.5363   -4.4201  -23.6801 H         1 NON         0.2615
    153 H77        47.2461   -2.8813  -24.2378 H         1 NON         0.2615
    154 H78        42.9237   -8.9845  -25.8095 H         1 NON         0.1875
    155 H79        41.8292   -8.2636  -23.6298 H         1 NON         0.0726
    156 H80        39.5534   -9.6600  -23.4647 H         1 NON         0.0305
    157 H81        39.5108   -9.3061  -25.2252 H         1 NON         0.0305
    158 H82        39.4659   -6.9577  -24.8553 H         1 NON         0.0269
    159 H83        39.9178   -7.1425  -23.1266 H         1 NON         0.0269
    160 H84        37.7878   -8.1224  -22.5968 H         1 NON         0.0317
    161 H85        37.3456   -8.2377  -24.3340 H         1 NON         0.0317
    162 H86        36.2182   -6.3467  -23.2139 H         1 NON         0.0813
    163 H87        37.3242   -5.7985  -24.5187 H         1 NON         0.0813
    164 H88        37.5191   -4.4515  -22.5512 H         1 NON         0.1994
    165 H89        38.9312   -5.2521  -22.8236 H         1 NON         0.1994
    166 H90        37.9177   -5.7546  -21.6278 H         1 NON         0.1994
@<TRIPOS>BOND
     1    1    2 1  
     2    2    3 1  
     3    2    5 1  
     4    3    4 2  
     5    3    6 am 
     6    6    7 1  
     7    7    8 1  
     8    7   10 1  
     9    8    9 2  
    10    8   17 am 
    11   10   11 1  
    12   11   12 1  
    13   12   13 1  
    14   13   14 ar 
    15   14   15 ar 
    16   14   16 ar 
    17   17   18 1  
    18   18   19 1  
    19   18   21 1  
    20   19   20 2  
    21   19   24 am 
    22   21   22 1  
    23   21   23 1  
    24   24   25 1  
    25   25   26 1  
    26   25   33 1  
    27   26   27 1  
    28   27   28 1  
    29   28   29 1  
    30   29   30 1  
    31   30   31 1  
    32   30   32 1  
    33   33   34 2  
    34   33   35 am 
    35   35   36 1  
    36   36   37 1  
    37   36   39 1  
    38   37   38 2  
    39   37   44 am 
    40   39   40 1  
    41   40   41 1  
    42   41   42 2  
    43   41   43 am 
    44   44   45 1  
    45   45   46 1  
    46   45   48 1  
    47   46   47 2  
    48   46   51 am 
    49   48   49 1  
    50   48   50 1  
    51   51   52 1  
    52   52   53 1  
    53   52   55 1  
    54   53   54 2  
    55   53   56 am 
    56   56   57 1  
    57   57   58 1  
    58   57   60 1  
    59   58   59 2  
    60   58   67 am 
    61   60   61 1  
    62   61   62 1  
    63   62   63 1  
    64   63   64 ar 
    65   64   65 ar 
    66   64   66 ar 
    67   67   68 1  
    68   68   69 1  
    69   68   71 1  
    70   69   70 ar 
    71   69   76 ar 
    72   71   72 1  
    73   72   73 1  
    74   73   74 1  
    75   74   75 1  
    76    1   77 1  
    77    1   78 1  
    78    1   79 1  
    79    2   80 1  
    80    5   81 1  
    81    5   82 1  
    82    5   83 1  
    83    6   84 1  
    84    7   85 1  
    85   10   86 1  
    86   10   87 1  
    87   11   88 1  
    88   11   89 1  
    89   12   90 1  
    90   12   91 1  
    91   13   92 1  
    92   15   93 1  
    93   15   94 1  
    94   16   95 1  
    95   16   96 1  
    96   17   97 1  
    97   18   98 1  
    98   21   99 1  
    99   22  100 1  
   100   23  101 1  
   101   23  102 1  
   102   23  103 1  
   103   24  104 1  
   104   25  105 1  
   105   26  106 1  
   106   26  107 1  
   107   27  108 1  
   108   27  109 1  
   109   28  110 1  
   110   28  111 1  
   111   29  112 1  
   112   29  113 1  
   113   30  114 1  
   114   31  115 1  
   115   31  116 1  
   116   31  117 1  
   117   32  118 1  
   118   32  119 1  
   119   32  120 1  
   120   35  121 1  
   121   36  122 1  
   122   39  123 1  
   123   39  124 1  
   124   40  125 1  
   125   40  126 1  
   126   43  127 1  
   127   43  128 1  
   128   44  129 1  
   129   45  130 1  
   130   48  131 1  
   131   49  132 1  
   132   50  133 1  
   133   50  134 1  
   134   50  135 1  
   135   51  136 1  
   136   52  137 1  
   137   55  138 1  
   138   55  139 1  
   139   55  140 1  
   140   56  141 1  
   141   57  142 1  
   142   60  143 1  
   143   60  144 1  
   144   61  145 1  
   145   61  146 1  
   146   62  147 1  
   147   62  148 1  
   148   63  149 1  
   149   65  150 1  
   150   65  151 1  
   151   66  152 1  
   152   66  153 1  
   153   67  154 1  
   154   68  155 1  
   155   71  156 1  
   156   71  157 1  
   157   72  158 1  
   158   72  159 1  
   159   73  160 1  
   160   73  161 1  
   161   74  162 1  
   162   74  163 1  
   163   75  164 1  
   164   75  165 1  
   165   75  166 1  
@<TRIPOS>SUBSTRUCTURE
     1 NON         1

