2ajb_ligand
  -I-interpret- 

 59 59  0  0  0  0  0  0  0  0999 V2000
   -6.0990   19.4950    7.2280 N   0  3  0  0  0
   -6.8320   19.8800    6.0270 C   0  0  0  0  0
   -6.3920   21.3060    5.6060 C   0  0  0  0  0
   -4.8890   21.4830    5.3160 C   0  0  0  0  0
   -6.8080   22.2970    6.7100 C   0  0  0  0  0
   -7.2150   21.5880    4.3290 C   0  0  0  0  0
   -6.5460   18.8790    4.9000 C   0  0  0  0  0
   -5.4100   18.4980    4.6830 O   0  0  0  0  0
   -7.5900   18.4360    4.1840 N   0  0  0  0  0
   -7.4440   17.4730    3.0800 C   0  0  0  0  0
   -6.9690   18.0450    1.7040 C   0  0  0  0  0
   -7.8330   18.8560    1.2800 O   0  0  0  0  0
   -8.8310   16.8330    2.9990 C   0  0  0  0  0
   -9.7300   17.9440    3.4290 C   0  0  0  0  0
   -8.9960   18.5210    4.6100 C   0  0  0  0  0
   -5.6850   18.7340    1.8780 N   0  3  0  0  0
   -5.1680   19.6300    0.8390 C   0  0  0  0  0
   -3.6640   19.4320    0.6520 C   0  0  0  0  0
   -2.9500   19.3300    1.6720 O   0  0  0  0  0
   -5.4470   21.1160    1.1710 C   0  0  0  0  0
   -5.3680   21.9600   -0.1010 C   0  0  0  0  0
   -4.4400   21.6300    2.1870 C   0  0  0  0  0
   -5.6710   23.4290    0.1200 C   0  0  0  0  0
   -3.2190   19.3800   -0.5140 O   0  0  0  0  0
   -6.2935   20.1642    7.9728 H   0  0  0  0  0
   -6.3938   18.5635    7.5208 H   0  0  0  0  0
   -5.0990   19.4891    7.0273 H   0  0  0  0  0
   -7.9032   19.8764    6.2283 H   0  0  0  0  0
   -4.5868   20.7869    4.5335 H   0  0  0  0  0
   -4.7017   22.5051    4.9870 H   0  0  0  0  0
   -4.3191   21.2817    6.2231 H   0  0  0  0  0
   -6.6196   23.3159    6.3717 H   0  0  0  0  0
   -7.8695   22.1746    6.9251 H   0  0  0  0  0
   -6.2281   22.0991    7.6115 H   0  0  0  0  0
   -8.2759   21.4667    4.5479 H   0  0  0  0  0
   -7.0260   22.6080    3.9944 H   0  0  0  0  0
   -6.9216   20.8875    3.5471 H   0  0  0  0  0
   -6.6319   16.7774    3.2915 H   0  0  0  0  0
   -6.8440   17.2338    0.9868 H   0  0  0  0  0
   -7.5487   19.2119    0.4350 H   0  0  0  0  0
   -8.9261   15.9435    3.6218 H   0  0  0  0  0
   -9.0677   16.4550    2.0044 H   0  0  0  0  0
  -10.7366   17.6067    3.6759 H   0  0  0  0  0
   -9.9114   18.6750    2.6411 H   0  0  0  0  0
   -9.3082   19.5369    4.8519 H   0  0  0  0  0
   -9.1938   17.9858    5.5387 H   0  0  0  0  0
   -5.0005   17.9789    1.9190 H   0  0  0  0  0
   -5.8367   19.3447    2.6808 H   0  0  0  0  0
   -5.6884   19.3770   -0.0847 H   0  0  0  0  0
   -3.5010   19.3986    2.4551 H   0  0  0  0  0
   -6.4484   21.1940    1.5944 H   0  0  0  0  0
   -6.1158   21.5744   -0.7940 H   0  0  0  0  0
   -4.3461   21.8913   -0.4739 H   0  0  0  0  0
   -4.5153   21.0412    3.1012 H   0  0  0  0  0
   -3.4340   21.5400    1.7771 H   0  0  0  0  0
   -4.6511   22.6761    2.4087 H   0  0  0  0  0
   -6.6805   23.5347    0.5172 H   0  0  0  0  0
   -4.9548   23.8437    0.8294 H   0  0  0  0  0
   -5.5947   23.9611   -0.8283 H   0  0  0  0  0
  1  2  1  0  0  0
  2  3  1  0  0  0
  2  7  1  0  0  0
  3  4  1  0  0  0
  3  5  1  0  0  0
  3  6  1  0  0  0
  7  8  2  0  0  0
  7  9  1  0  0  0
  9 10  1  0  0  0
  9 15  1  0  0  0
 10 11  1  0  0  0
 10 13  1  0  0  0
 11 12  1  0  0  0
 11 16  1  0  0  0
 13 14  1  0  0  0
 14 15  1  0  0  0
 16 17  1  0  0  0
 17 18  1  0  0  0
 17 20  1  0  0  0
 18 19  1  0  0  0
 18 24  2  0  0  0
 20 21  1  0  0  0
 20 22  1  0  0  0
 21 23  1  0  0  0
  1 25  1  0  0  0
  1 26  1  0  0  0
  1 27  1  0  0  0
  2 28  1  0  0  0
  4 29  1  0  0  0
  4 30  1  0  0  0
  4 31  1  0  0  0
  5 32  1  0  0  0
  5 33  1  0  0  0
  5 34  1  0  0  0
  6 35  1  0  0  0
  6 36  1  0  0  0
  6 37  1  0  0  0
 10 38  1  0  0  0
 11 39  1  0  0  0
 12 40  1  0  0  0
 13 41  1  0  0  0
 13 42  1  0  0  0
 14 43  1  0  0  0
 14 44  1  0  0  0
 15 45  1  0  0  0
 15 46  1  0  0  0
 16 47  1  0  0  0
 16 48  1  0  0  0
 17 49  1  0  0  0
 19 50  1  0  0  0
 20 51  1  0  0  0
 21 52  1  0  0  0
 21 53  1  0  0  0
 22 54  1  0  0  0
 22 55  1  0  0  0
 22 56  1  0  0  0
 23 57  1  0  0  0
 23 58  1  0  0  0
 23 59  1  0  0  0
M  END
$$$$
