6eya_ligand
  -I-interpret- 

 51 55  0  0  0  0  0  0  0  0999 V2000
   65.9470   34.3770   23.9460 C   0  0  0  0  0
   64.7540   34.0340   24.6450 C   0  0  0  0  0
   64.8000   33.3560   25.8530 C   0  0  0  0  0
   63.5460   34.3180   24.0970 O   0  0  0  0  0
   67.2470   33.4330   25.7700 C   0  0  0  0  0
   66.0430   33.0690   26.4340 C   0  0  0  0  0
   68.3350   32.9760   26.6340 C   0  0  0  0  0
   69.8190   33.1860   26.4500 C   0  0  0  0  0
   70.4980   32.5730   25.2550 C   0  0  0  0  0
   70.9100   33.4260   24.2440 C   0  0  0  0  0
   71.9900   31.6010   23.0750 C   0  0  0  0  0
   70.8720   31.2240   25.2020 C   0  0  0  0  0
   71.9870   29.3250   23.9660 C   0  0  0  0  0
   69.6250   37.3410   24.1460 C   0  0  0  0  0
   68.7190   36.8780   23.2000 C   0  0  0  0  0
   66.8610   37.4540   24.6580 C   0  0  0  0  0
   66.4460   36.3760   22.4970 N   0  0  0  0  0
   69.1500   37.8530   25.3550 C   0  0  0  0  0
   68.8160   39.1130   27.1700 C   0  0  0  0  0
   67.1920   34.0500   24.5150 C   0  0  0  0  0
   65.8370   35.1520   22.6750 C   0  0  0  0  0
   65.0860   34.7120   21.8150 O   0  0  0  0  0
   66.4080   32.4750   27.6110 N   0  0  0  0  0
   67.7960   32.4850   27.7140 N   0  0  0  0  0
   71.6190   30.7600   24.1040 C   0  0  0  0  0
   71.6350   32.9290   23.1610 C   0  0  0  0  0
   67.3340   36.9210   23.4500 C   0  0  0  0  0
   66.2930   37.1140   21.2320 C   0  0  0  0  0
   67.7700   37.8970   25.6130 C   0  0  0  0  0
   67.5810   38.4400   26.8470 O   0  0  0  0  0
   69.8110   38.3760   26.4330 O   0  0  0  0  0
   63.8781   33.0488   26.3467 H   0  0  0  0  0
   62.8501   34.0249   24.6898 H   0  0  0  0  0
   70.2804   32.7058   27.3130 H   0  0  0  0  0
   69.9370   34.2617   26.3197 H   0  0  0  0  0
   70.6671   34.4874   24.2950 H   0  0  0  0  0
   72.5485   31.2249   22.2179 H   0  0  0  0  0
   70.5873   30.5414   26.0027 H   0  0  0  0  0
   71.5215   28.9165   23.0690 H   0  0  0  0  0
   73.0705   29.2350   23.8878 H   0  0  0  0  0
   71.6377   28.7759   24.8404 H   0  0  0  0  0
   70.6960   37.3049   23.9464 H   0  0  0  0  0
   69.0842   36.4773   22.2544 H   0  0  0  0  0
   65.7896   37.5205   24.8469 H   0  0  0  0  0
   69.0156   39.1230   28.2415 H   0  0  0  0  0
   68.7966   40.1688   26.8999 H   0  0  0  0  0
   68.1132   34.2772   23.9784 H   0  0  0  0  0
   71.9283   33.6095   22.3617 H   0  0  0  0  0
   66.6822   36.5110   20.4117 H   0  0  0  0  0
   65.2373   37.3243   21.0609 H   0  0  0  0  0
   66.8467   38.0511   21.2903 H   0  0  0  0  0
  1  2  4  0  0  0
  1 20  4  0  0  0
 21  1  1  0  0  0
  2  3  4  0  0  0
  2  4  1  0  0  0
  3  6  4  0  0  0
  5  6  4  0  0  0
  5  7  4  0  0  0
 20  5  4  0  0  0
  6 23  4  0  0  0
  7  8  1  0  0  0
  7 24  4  0  0  0
  8  9  1  0  0  0
  9 10  4  0  0  0
  9 12  4  0  0  0
 10 26  4  0  0  0
 25 11  4  0  0  0
 26 11  4  0  0  0
 12 25  4  0  0  0
 25 13  1  0  0  0
 14 15  4  0  0  0
 18 14  4  0  0  0
 15 27  4  0  0  0
 16 27  4  0  0  0
 29 16  4  0  0  0
 17 21  1  0  0  0
 27 17  1  0  0  0
 17 28  1  0  0  0
 18 29  4  0  0  0
 31 18  1  0  0  0
 19 30  1  0  0  0
 19 31  1  0  0  0
 21 22  2  0  0  0
 23 24  4  0  0  0
 29 30  1  0  0  0
  3 32  1  0  0  0
  4 33  1  0  0  0
  8 34  1  0  0  0
  8 35  1  0  0  0
 10 36  1  0  0  0
 11 37  1  0  0  0
 12 38  1  0  0  0
 13 39  1  0  0  0
 13 40  1  0  0  0
 13 41  1  0  0  0
 14 42  1  0  0  0
 15 43  1  0  0  0
 16 44  1  0  0  0
 19 45  1  0  0  0
 19 46  1  0  0  0
 20 47  1  0  0  0
 26 48  1  0  0  0
 28 49  1  0  0  0
 28 50  1  0  0  0
 28 51  1  0  0  0
M  END
$$$$
