6qe5_ligand
  -I-interpret- 

 47 49  0  0  0  0  0  0  0  0999 V2000
   -4.9740    1.7740    3.1050 N   0  3  0  0  0
   -5.8760    0.7600    3.6630 C   0  0  0  0  0
   -7.1510    0.5830    2.8310 C   0  0  0  0  0
   -7.9160    1.8540    2.4440 C   0  0  0  0  0
   -9.3800    1.4390    1.4610 S   0  0  0  0  0
   -5.1400   -0.5760    3.7690 C   0  0  0  0  0
   -4.2200   -0.8350    2.9930 O   0  0  0  0  0
   -5.4420   -1.4010    4.6340 O   0  0  0  0  0
   -9.8510    3.1720    1.1200 C   0  0  0  0  0
  -10.3860    3.9030    2.3510 C   0  0  0  0  0
  -10.5740    5.2910    2.0990 O   0  0  0  0  0
  -11.7410    3.4260    2.8840 C   0  0  0  0  0
  -11.5370    3.0120    4.2190 O   0  0  0  0  0
  -12.6390    4.6640    2.8220 C   0  0  0  0  0
  -13.5770    4.7770    3.8660 O   0  0  0  0  0
  -11.6270    5.7830    2.9390 C   0  0  0  0  0
  -11.9340    7.0660    2.3100 N   0  0  0  0  0
  -12.7060    7.3360    1.2100 C   0  0  0  0  0
  -12.5680    8.6550    0.9230 N   0  0  0  0  0
  -11.7030    9.2120    1.8070 C   0  0  0  0  0
  -11.1890   10.4880    1.9950 C   0  0  0  0  0
  -11.5260   11.5190    1.2160 N   0  0  0  0  0
  -10.2910   10.7080    3.0150 N   0  0  0  0  0
   -9.8900    9.6980    3.8570 C   0  0  0  0  0
  -10.4060    8.4370    3.6650 N   0  0  0  0  0
  -11.2840    8.2060    2.6680 C   0  0  0  0  0
   -5.4669    2.6643    3.0352 H   0  0  0  0  0
   -4.1638    1.8795    3.7156 H   0  0  0  0  0
   -4.6666    1.4805    2.1778 H   0  0  0  0  0
   -6.1817    1.1050    4.6507 H   0  0  0  0  0
   -7.8333    0.0046    3.4539 H   0  0  0  0  0
   -6.8315    0.1319    1.8916 H   0  0  0  0  0
   -7.2621    2.4945    1.8522 H   0  0  0  0  0
   -8.2330    2.3668    3.3521 H   0  0  0  0  0
   -6.1708   -1.0610    5.1583 H   0  0  0  0  0
  -10.6446    3.1580    0.3729 H   0  0  0  0  0
   -8.9567    3.6980    0.7858 H   0  0  0  0  0
   -9.6123    3.6874    3.0878 H   0  0  0  0  0
  -12.1829    2.5994    2.3276 H   0  0  0  0  0
  -12.3683    2.7049    4.5882 H   0  0  0  0  0
  -13.2554    4.6526    1.9231 H   0  0  0  0  0
  -14.0927    5.5778    3.7460 H   0  0  0  0  0
  -11.4866    5.9819    4.0015 H   0  0  0  0  0
  -13.3203    6.6200    0.6640 H   0  0  0  0  0
  -12.1843   11.3846    0.4486 H   0  0  0  0  0
  -11.1251   12.4409    1.3884 H   0  0  0  0  0
   -9.1785    9.8920    4.6596 H   0  0  0  0  0
  1  2  1  0  0  0
  2  3  1  0  0  0
  2  6  1  0  0  0
  3  4  1  0  0  0
  4  5  1  0  0  0
  5  9  1  0  0  0
  6  7  2  0  0  0
  6  8  1  0  0  0
  9 10  1  0  0  0
 10 11  1  0  0  0
 10 12  1  0  0  0
 11 16  1  0  0  0
 12 13  1  0  0  0
 12 14  1  0  0  0
 14 15  1  0  0  0
 14 16  1  0  0  0
 16 17  1  0  0  0
 17 18  4  0  0  0
 17 26  4  0  0  0
 18 19  4  0  0  0
 19 20  4  0  0  0
 20 21  4  0  0  0
 20 26  4  0  0  0
 21 22  1  0  0  0
 21 23  4  0  0  0
 23 24  4  0  0  0
 24 25  4  0  0  0
 25 26  4  0  0  0
  1 27  1  0  0  0
  1 28  1  0  0  0
  1 29  1  0  0  0
  2 30  1  0  0  0
  3 31  1  0  0  0
  3 32  1  0  0  0
  4 33  1  0  0  0
  4 34  1  0  0  0
  8 35  1  0  0  0
  9 36  1  0  0  0
  9 37  1  0  0  0
 10 38  1  0  0  0
 12 39  1  0  0  0
 13 40  1  0  0  0
 14 41  1  0  0  0
 15 42  1  0  0  0
 16 43  1  0  0  0
 18 44  1  0  0  0
 22 45  1  0  0  0
 22 46  1  0  0  0
 24 47  1  0  0  0
M  END
$$$$
