1fbm_ligand
  -I-interpret- 

 57 57  0  0  0  0  0  0  0  0999 V2000
   29.2390   47.8000   -1.9220 C   0  0  0  0  0
   28.9030   48.3950   -0.5190 C   0  0  0  0  0
   29.8370   48.0100    0.6180 C   0  0  0  0  0
   30.9540   47.1010    0.1370 C   0  0  0  0  0
   31.4960   47.4840   -1.2560 C   0  0  0  0  0
   30.7540   47.8990   -2.3400 C   0  0  0  0  0
   31.2540   47.2950   -3.6040 C   0  0  0  0  0
   32.3640   47.8120   -4.2770 C   0  0  0  0  0
   32.7730   47.1160   -5.5070 C   0  0  0  0  0
   33.8520   47.7870   -6.0120 C   0  0  0  0  0
   34.2860   47.1070   -7.2360 C   0  0  0  0  0
   35.3740   47.7250   -7.8060 C   0  0  0  0  0
   35.8410   46.9840   -8.9890 C   0  0  0  0  0
   36.9270   47.6230   -9.5430 C   0  0  0  0  0
   37.3720   46.8840  -10.7320 C   0  0  0  0  0
   38.4460   47.4980  -11.2990 O   0  0  0  0  0
   28.5690   48.8340   -2.7680 C   0  0  0  0  0
   28.5080   46.4700   -2.0600 C   0  0  0  0  0
   33.0100   47.3970   -1.2340 C   0  0  0  0  0
   31.8870   45.8980   -5.7960 C   0  0  0  0  0
   36.2760   45.5520   -8.6320 C   0  0  0  0  0
   27.9214   48.0041   -0.2509 H   0  0  0  0  0
   28.9805   49.4773   -0.6220 H   0  0  0  0  0
   29.2597   47.4774    1.3737 H   0  0  0  0  0
   30.2818   48.9193    1.0224 H   0  0  0  0  0
   30.5496   46.0912    0.0668 H   0  0  0  0  0
   31.7774   47.1877    0.8459 H   0  0  0  0  0
   30.7996   47.5119   -2.0940 H   0  0  0  0  0
   30.8728   48.9469   -2.6156 H   0  0  0  0  0
   30.7409   46.4261   -4.0161 H   0  0  0  0  0
   32.9000   48.6870   -3.9092 H   0  0  0  0  0
   34.3110   48.6756   -5.5786 H   0  0  0  0  0
   33.4641   47.1324   -7.9515 H   0  0  0  0  0
   34.5681   46.0860   -6.9787 H   0  0  0  0  0
   36.1805   47.7591   -7.0736 H   0  0  0  0  0
   35.0841   48.7295   -8.1142 H   0  0  0  0  0
   35.0067   46.9432   -9.6893 H   0  0  0  0  0
   37.7369   47.6632   -8.8146 H   0  0  0  0  0
   36.6469   48.6372   -9.8279 H   0  0  0  0  0
   36.5578   46.8537  -11.4560 H   0  0  0  0  0
   37.6562   45.8742  -10.4361 H   0  0  0  0  0
   38.7240   47.0034  -12.0734 H   0  0  0  0  0
   28.5887   48.5170   -3.8107 H   0  0  0  0  0
   27.5356   48.9538   -2.4428 H   0  0  0  0  0
   29.0959   49.7827   -2.6654 H   0  0  0  0  0
   27.4746   46.5894   -1.7346 H   0  0  0  0  0
   28.5276   46.1525   -3.1026 H   0  0  0  0  0
   29.0008   45.7201   -1.4412 H   0  0  0  0  0
   33.3441   46.7037   -2.0059 H   0  0  0  0  0
   33.4322   48.3840   -1.4229 H   0  0  0  0  0
   33.3380   47.0410   -0.2574 H   0  0  0  0  0
   31.4110   46.0193   -6.7690 H   0  0  0  0  0
   32.5003   44.9969   -5.7999 H   0  0  0  0  0
   31.1222   45.8152   -5.0237 H   0  0  0  0  0
   37.0903   45.5907   -7.9085 H   0  0  0  0  0
   35.4314   45.0137   -8.2019 H   0  0  0  0  0
   36.6133   45.0407   -9.5336 H   0  0  0  0  0
  1  2  1  0  0  0
  1  6  1  0  0  0
  1 17  1  0  0  0
  1 18  1  0  0  0
  2  3  1  0  0  0
  3  4  1  0  0  0
  4  5  1  0  0  0
  5  6  1  0  0  0
  5 19  1  0  0  0
  6  7  1  0  0  0
  7  8  2  0  0  0
  8  9  1  0  0  0
  9 10  2  0  0  0
  9 20  1  0  0  0
 10 11  1  0  0  0
 11 12  1  0  0  0
 12 13  1  0  0  0
 13 14  1  0  0  0
 13 21  1  0  0  0
 14 15  1  0  0  0
 15 16  1  0  0  0
  2 22  1  0  0  0
  2 23  1  0  0  0
  3 24  1  0  0  0
  3 25  1  0  0  0
  4 26  1  0  0  0
  4 27  1  0  0  0
  5 28  1  0  0  0
  6 29  1  0  0  0
  7 30  1  0  0  0
  8 31  1  0  0  0
 10 32  1  0  0  0
 11 33  1  0  0  0
 11 34  1  0  0  0
 12 35  1  0  0  0
 12 36  1  0  0  0
 13 37  1  0  0  0
 14 38  1  0  0  0
 14 39  1  0  0  0
 15 40  1  0  0  0
 15 41  1  0  0  0
 16 42  1  0  0  0
 17 43  1  0  0  0
 17 44  1  0  0  0
 17 45  1  0  0  0
 18 46  1  0  0  0
 18 47  1  0  0  0
 18 48  1  0  0  0
 19 49  1  0  0  0
 19 50  1  0  0  0
 19 51  1  0  0  0
 20 52  1  0  0  0
 20 53  1  0  0  0
 20 54  1  0  0  0
 21 55  1  0  0  0
 21 56  1  0  0  0
 21 57  1  0  0  0
M  END
$$$$
