4ch2_ligand
  -I-interpret- 

141144  0  0  0  0  0  0  0  0999 V2000
  -28.1980  -21.0490  -12.1000 N   0  3  0  0  0
  -26.9840  -20.3840  -12.6520 C   0  0  0  0  0
  -26.0520  -19.8330  -11.5370 C   0  0  0  0  0
  -26.0670  -20.2370  -10.3880 O   0  0  0  0  0
  -27.3260  -19.2880  -13.6860 C   0  0  0  0  0
  -26.0620  -18.7770  -14.4250 C   0  0  0  0  0
  -25.1570  -19.6100  -14.6640 O   0  0  0  0  0
  -25.9140  -17.5710  -14.7170 O   0  0  0  0  0
  -25.1950  -18.9090  -11.8890 N   0  0  0  0  0
  -24.0760  -18.5870  -11.0450 C   0  0  0  0  0
  -24.5320  -17.7670   -9.7810 C   0  0  0  0  0
  -24.1090  -18.0040   -8.6490 O   0  0  0  0  0
  -23.1250  -17.7400  -11.8960 C   0  0  0  0  0
  -21.8510  -17.1950  -11.3220 C   0  0  0  0  0
  -20.8320  -18.2590  -11.0110 C   0  0  0  0  0
  -21.3390  -16.2180  -12.3280 C   0  0  0  0  0
  -25.3520  -16.7850  -10.0320 N   0  0  0  0  0
  -25.8470  -15.8310   -9.0190 C   0  0  0  0  0
  -27.3530  -15.9180   -8.9320 C   0  0  0  0  0
  -28.0770  -16.1580   -9.9240 O   0  0  0  0  0
  -25.4910  -14.4140   -9.3930 C   0  0  0  0  0
  -24.0850  -14.0400   -9.2900 C   0  0  0  0  0
  -23.4030  -13.9560   -8.0430 C   0  0  0  0  0
  -23.3870  -13.6570  -10.4130 C   0  0  0  0  0
  -22.0720  -13.6230   -7.9340 C   0  0  0  0  0
  -22.0770  -13.2700  -10.2850 C   0  0  0  0  0
  -21.3680  -13.2580   -9.0680 C   0  0  0  0  0
  -20.0520  -12.8980   -8.9820 O   0  0  0  0  0
  -19.2240  -11.7860   -9.8420 P   0  0  0  0  0
  -20.2200  -10.7410  -10.3110 O   0  0  0  0  0
  -18.8230  -12.6990  -10.9810 O   0  0  0  0  0
  -18.0850  -11.3740   -8.9540 O   0  0  0  0  0
  -27.8930  -15.7380   -7.7140 N   0  0  0  0  0
  -29.2940  -15.6540   -7.5260 C   0  0  0  0  0
  -29.7970  -14.3360   -8.1270 C   0  0  0  0  0
  -29.2870  -13.2630   -7.8160 O   0  0  0  0  0
  -29.5500  -15.6380   -6.0070 C   0  0  0  0  0
  -30.9710  -15.6860   -5.6310 C   0  0  0  0  0
  -31.6760  -16.6720   -5.8740 O   0  0  0  0  0
  -31.4270  -14.7010   -5.0350 O   0  0  0  0  0
  -30.8430  -14.4590   -8.9610 N   0  0  0  0  0
  -31.5510  -13.2720   -9.5380 C   0  0  0  0  0
  -30.5900  -12.2330  -10.0730 C   0  0  0  0  0
  -30.6300  -11.0710   -9.6600 O   0  0  0  0  0
  -32.4610  -12.5100   -8.5310 C   0  0  0  0  0
  -33.6410  -13.2900   -8.0630 C   0  0  0  0  0
  -33.8870  -13.5180   -6.6980 C   0  0  0  0  0
  -34.5900  -13.7700   -8.9860 C   0  0  0  0  0
  -35.0050  -14.2860   -6.3030 C   0  0  0  0  0
  -35.6780  -14.5130   -8.5820 C   0  0  0  0  0
  -35.9040  -14.7990   -7.2320 C   0  0  0  0  0
  -37.0050  -15.5180   -6.7770 O   0  0  0  0  0
  -38.4630  -15.2440   -7.4070 P   0  0  0  0  0
  -38.6600  -13.7080   -7.1740 O   0  0  0  0  0
  -39.2950  -16.2150   -6.6010 O   0  0  0  0  0
  -38.5050  -15.4470   -8.9080 O   0  0  0  0  0
  -29.6790  -12.6410  -10.9450 N   0  0  0  0  0
  -28.7350  -11.6970  -11.5450 C   0  0  0  0  0
  -28.4000  -12.3330  -12.8740 C   0  0  0  0  0
  -28.2090  -13.5730  -12.9080 O   0  0  0  0  0
  -27.4800  -11.4830  -10.7330 C   0  0  0  0  0
  -26.6550  -10.4150  -11.4250 C   0  0  0  0  0
  -25.6910  -10.8370  -12.3590 C   0  0  0  0  0
  -26.7890   -9.0530  -11.0980 C   0  0  0  0  0
  -24.9170   -9.8770  -13.0070 C   0  0  0  0  0
  -25.9930   -8.0920  -11.7570 C   0  0  0  0  0
  -25.0470   -8.5180  -12.6920 C   0  0  0  0  0
  -24.2890   -7.6400  -13.4370 O   0  0  0  0  0
  -23.3190   -6.4460  -12.9920 P   0  0  0  0  0
  -22.8860   -6.0070  -14.3680 O   0  0  0  0  0
  -22.1630   -6.9650  -12.1400 O   0  0  0  0  0
  -24.2460   -5.4960  -12.2800 O   0  0  0  0  0
  -28.4400  -11.5280  -13.9820 N   0  0  0  0  0
  -28.8300  -10.0830  -14.0470 C   0  0  0  0  0
  -30.3310   -9.7990  -13.8740 C   0  0  0  0  0
  -31.1438  -10.7512  -14.0164 O   0  0  0  0  0
  -28.3630   -9.6430  -15.4680 C   0  0  0  0  0
  -28.3250  -10.9010  -16.2810 C   0  0  0  0  0
  -28.0560  -12.0540  -15.3130 C   0  0  0  0  0
  -30.7393   -8.6398  -13.5960 O   0  0  0  0  0
  -27.9173  -21.7607  -11.4254 H   0  0  0  0  0
  -28.7847  -20.3540  -11.6384 H   0  0  0  0  0
  -28.7200  -21.4859  -12.8596 H   0  0  0  0  0
  -26.4338  -21.1629  -13.1799 H   0  0  0  0  0
  -27.7765  -18.4478  -13.1576 H   0  0  0  0  0
  -28.0052  -19.7142  -14.4244 H   0  0  0  0  0
  -25.4408  -20.4806  -14.3758 H   0  0  0  0  0
  -25.3219  -18.4122  -12.7707 H   0  0  0  0  0
  -23.5978  -19.4966  -10.6817 H   0  0  0  0  0
  -23.7075  -16.8508  -12.1370 H   0  0  0  0  0
  -22.7916  -18.4225  -12.6777 H   0  0  0  0  0
  -22.0441  -16.7238  -10.3583 H   0  0  0  0  0
  -21.2474  -18.9566  -10.2838 H   0  0  0  0  0
  -20.5770  -18.7945  -11.9255 H   0  0  0  0  0
  -19.9365  -17.7934  -10.5994 H   0  0  0  0  0
  -21.1606  -16.7312  -13.2729 H   0  0  0  0  0
  -22.0770  -15.4294  -12.4750 H   0  0  0  0  0
  -20.4069  -15.7825  -11.9680 H   0  0  0  0  0
  -25.6734  -16.6676  -10.9929 H   0  0  0  0  0
  -25.3843  -16.0877   -8.0660 H   0  0  0  0  0
  -26.0229  -13.7757   -8.6875 H   0  0  0  0  0
  -25.7526  -14.3077  -10.4458 H   0  0  0  0  0
  -23.9618  -14.1655   -7.1309 H   0  0  0  0  0
  -23.8686  -13.6611  -11.3908 H   0  0  0  0  0
  -21.5769  -13.6466   -6.9632 H   0  0  0  0  0
  -21.5502  -12.9508  -11.1843 H   0  0  0  0  0
  -20.8825  -11.1585  -10.8664 H   0  0  0  0  0
  -19.5989  -12.9185  -11.5020 H   0  0  0  0  0
  -27.2776  -15.6599   -6.9043 H   0  0  0  0  0
  -29.8051  -16.4907   -8.0022 H   0  0  0  0  0
  -29.1490  -14.6994   -5.6245 H   0  0  0  0  0
  -29.0790  -16.5297   -5.5934 H   0  0  0  0  0
  -30.7378  -14.0398   -4.9379 H   0  0  0  0  0
  -31.1664  -15.3938   -9.2100 H   0  0  0  0  0
  -32.1584  -13.7175  -10.3258 H   0  0  0  0  0
  -32.8421  -11.6280   -9.0457 H   0  0  0  0  0
  -31.8539  -12.2877   -7.6535 H   0  0  0  0  0
  -33.2164  -13.1030   -5.9456 H   0  0  0  0  0
  -34.4609  -13.5485  -10.0454 H   0  0  0  0  0
  -35.1672  -14.4815   -5.2430 H   0  0  0  0  0
  -36.3772  -14.8856   -9.3306 H   0  0  0  0  0
  -38.0689  -13.2195   -7.7515 H   0  0  0  0  0
  -37.9508  -14.7892   -9.3344 H   0  0  0  0  0
  -29.6352  -13.6272  -11.2017 H   0  0  0  0  0
  -29.1741  -10.7021  -11.6183 H   0  0  0  0  0
  -26.9132  -12.4113  -10.6616 H   0  0  0  0  0
  -27.7338  -11.1678   -9.7209 H   0  0  0  0  0
  -25.5522  -11.8970  -12.5719 H   0  0  0  0  0
  -27.5054   -8.7412  -10.3380 H   0  0  0  0  0
  -24.2014  -10.1869  -13.7685 H   0  0  0  0  0
  -26.1149   -7.0310  -11.5391 H   0  0  0  0  0
  -22.3009   -6.6685  -14.7443 H   0  0  0  0  0
  -21.6227   -7.5606  -12.6644 H   0  0  0  0  0
  -28.3742   -9.5384  -13.2201 H   0  0  0  0  0
  -27.3879   -9.1570  -15.4364 H   0  0  0  0  0
  -29.0393   -8.9063  -15.9015 H   0  0  0  0  0
  -27.5443  -10.8454  -17.0396 H   0  0  0  0  0
  -29.2698  -11.0500  -16.8038 H   0  0  0  0  0
  -28.6245  -12.9460  -15.5763 H   0  0  0  0  0
  -27.0134  -12.3707  -15.3388 H   0  0  0  0  0
  -29.9885   -8.0457  -13.5254 H   0  0  0  0  0
  1  2  1  0  0  0
  2  3  1  0  0  0
  2  5  1  0  0  0
  3  4  2  0  0  0
  3  9  1  0  0  0
  5  6  1  0  0  0
  6  7  1  0  0  0
  6  8  2  0  0  0
  9 10  1  0  0  0
 10 11  1  0  0  0
 10 13  1  0  0  0
 11 12  2  0  0  0
 11 17  1  0  0  0
 13 14  1  0  0  0
 14 15  1  0  0  0
 14 16  1  0  0  0
 17 18  1  0  0  0
 18 19  1  0  0  0
 18 21  1  0  0  0
 19 20  2  0  0  0
 19 33  1  0  0  0
 21 22  1  0  0  0
 22 23  4  0  0  0
 22 24  4  0  0  0
 23 25  4  0  0  0
 24 26  4  0  0  0
 25 27  4  0  0  0
 26 27  4  0  0  0
 27 28  1  0  0  0
 28 29  1  0  0  0
 29 30  1  0  0  0
 29 31  1  0  0  0
 29 32  2  0  0  0
 33 34  1  0  0  0
 34 35  1  0  0  0
 34 37  1  0  0  0
 35 36  2  0  0  0
 35 41  1  0  0  0
 37 38  1  0  0  0
 38 39  2  0  0  0
 38 40  1  0  0  0
 41 42  1  0  0  0
 42 43  1  0  0  0
 42 45  1  0  0  0
 43 44  2  0  0  0
 43 57  1  0  0  0
 45 46  1  0  0  0
 46 47  4  0  0  0
 46 48  4  0  0  0
 47 49  4  0  0  0
 48 50  4  0  0  0
 49 51  4  0  0  0
 50 51  4  0  0  0
 51 52  1  0  0  0
 52 53  1  0  0  0
 53 54  1  0  0  0
 53 55  2  0  0  0
 53 56  1  0  0  0
 57 58  1  0  0  0
 58 59  1  0  0  0
 58 61  1  0  0  0
 59 60  2  0  0  0
 59 73  1  0  0  0
 61 62  1  0  0  0
 62 63  4  0  0  0
 62 64  4  0  0  0
 63 65  4  0  0  0
 64 66  4  0  0  0
 65 67  4  0  0  0
 66 67  4  0  0  0
 67 68  1  0  0  0
 68 69  1  0  0  0
 69 70  1  0  0  0
 69 71  1  0  0  0
 69 72  2  0  0  0
 73 74  1  0  0  0
 73 79  1  0  0  0
 74 75  1  0  0  0
 74 77  1  0  0  0
 75 76  2  0  0  0
 77 78  1  0  0  0
 78 79  1  0  0  0
 75 80  1  0  0  0
  1 81  1  0  0  0
  1 82  1  0  0  0
  1 83  1  0  0  0
  2 84  1  0  0  0
  5 85  1  0  0  0
  5 86  1  0  0  0
  7 87  1  0  0  0
  9 88  1  0  0  0
 10 89  1  0  0  0
 13 90  1  0  0  0
 13 91  1  0  0  0
 14 92  1  0  0  0
 15 93  1  0  0  0
 15 94  1  0  0  0
 15 95  1  0  0  0
 16 96  1  0  0  0
 16 97  1  0  0  0
 16 98  1  0  0  0
 17 99  1  0  0  0
 18100  1  0  0  0
 21101  1  0  0  0
 21102  1  0  0  0
 23103  1  0  0  0
 24104  1  0  0  0
 25105  1  0  0  0
 26106  1  0  0  0
 30107  1  0  0  0
 31108  1  0  0  0
 33109  1  0  0  0
 34110  1  0  0  0
 37111  1  0  0  0
 37112  1  0  0  0
 40113  1  0  0  0
 41114  1  0  0  0
 42115  1  0  0  0
 45116  1  0  0  0
 45117  1  0  0  0
 47118  1  0  0  0
 48119  1  0  0  0
 49120  1  0  0  0
 50121  1  0  0  0
 54122  1  0  0  0
 56123  1  0  0  0
 57124  1  0  0  0
 58125  1  0  0  0
 61126  1  0  0  0
 61127  1  0  0  0
 63128  1  0  0  0
 64129  1  0  0  0
 65130  1  0  0  0
 66131  1  0  0  0
 70132  1  0  0  0
 71133  1  0  0  0
 74134  1  0  0  0
 77135  1  0  0  0
 77136  1  0  0  0
 78137  1  0  0  0
 78138  1  0  0  0
 79139  1  0  0  0
 79140  1  0  0  0
 80141  1  0  0  0
M  END
$$$$
