### 
### Created by X-TOOL on Mon Sep 10 21:13:12 2018
### 

@<TRIPOS>MOLECULE
4ch2_ligand
  132   135     1     0     0
SMALL
GAST_HUCK


@<TRIPOS>ATOM
      1 N         -28.1980  -21.0490  -12.1000 N.4       1 ASP         0.2391
      2 CA        -26.9840  -20.3840  -12.6520 C.3       1 ASP         0.0764
      3 C         -26.0520  -19.8330  -11.5370 C.2       1 ASP         0.2284
      4 O         -26.0670  -20.2370  -10.3880 O.2       1 ASP        -0.3906
      5 CB        -27.3260  -19.2880  -13.6860 C.3       1 ASP         0.0607
      6 CG        -26.0620  -18.7770  -14.4250 C.2       1 ASP         0.0425
      7 OD1       -25.1570  -19.6100  -14.6640 O.co2     1 ASP        -0.5686
      8 OD2       -25.9140  -17.5710  -14.7170 O.co2     1 ASP        -0.5686
      9 N         -25.1950  -18.9090  -11.8890 N.am      1 LEU        -0.2609
     10 CA        -24.0760  -18.5870  -11.0450 C.3       1 LEU         0.1313
     11 C         -24.5320  -17.7670   -9.7810 C.2       1 LEU         0.2041
     12 O         -24.1090  -18.0040   -8.6490 O.2       1 LEU        -0.3944
     13 CB        -23.1250  -17.7400  -11.8960 C.3       1 LEU        -0.0101
     14 CG        -21.8510  -17.1950  -11.3220 C.3       1 LEU        -0.0425
     15 CD1       -20.8320  -18.2590  -11.0110 C.3       1 LEU        -0.0625
     16 CD2       -21.3390  -16.2180  -12.3280 C.3       1 LEU        -0.0625
     17 N         -25.3520  -16.7850  -10.0320 N.am      1 PTR        -0.2607
     18 CA        -25.8470  -15.8310   -9.0190 C.3       1 PTR         0.1468
     19 C         -27.3530  -15.9180   -8.9320 C.2       1 PTR         0.2075
     20 O         -28.0770  -16.1580   -9.9240 O.2       1 PTR        -0.3941
     21 CB        -25.4910  -14.4140   -9.3930 C.3       1 PTR         0.0400
     22 CG        -24.0850  -14.0400   -9.2900 C.ar      1 PTR        -0.0004
     23 CD1       -23.4030  -13.9560   -8.0430 C.ar      1 PTR        -0.0239
     24 CD2       -23.3870  -13.6570  -10.4130 C.ar      1 PTR        -0.0239
     25 CE1       -22.0720  -13.6230   -7.9340 C.ar      1 PTR         0.0115
     26 CE2       -22.0770  -13.2700  -10.2850 C.ar      1 PTR         0.0115
     27 CZ        -21.3680  -13.2580   -9.0680 C.ar      1 PTR         0.1728
     28 OH        -20.0520  -12.8980   -8.9820 O.3       1 PTR        -0.2040
     29 P         -19.2240  -11.7860   -9.8420 P.3       1 PTR         0.1348
     30 O1P       -20.2200  -10.7410  -10.3110 O.co2     1 PTR        -0.6653
     31 O2P       -18.8230  -12.6990  -10.9810 O.co2     1 PTR        -0.6653
     32 O3P       -18.0850  -11.3740   -8.9540 O.co2     1 PTR        -0.6653
     33 N         -27.8930  -15.7380   -7.7140 N.am      1 ASP        -0.2619
     34 CA        -29.2940  -15.6540   -7.5260 C.3       1 ASP         0.1423
     35 C         -29.7970  -14.3360   -8.1270 C.2       1 ASP         0.2058
     36 O         -29.2870  -13.2630   -7.8160 O.2       1 ASP        -0.3942
     37 CB        -29.5500  -15.6380   -6.0070 C.3       1 ASP         0.0406
     38 CG        -30.9710  -15.6860   -5.6310 C.2       1 ASP         0.0393
     39 OD1       -31.6760  -16.6720   -5.8740 O.co2     1 ASP        -0.5688
     40 OD2       -31.4270  -14.7010   -5.0350 O.co2     1 ASP        -0.5688
     41 N         -30.8430  -14.4590   -8.9610 N.am      1 PTR        -0.2606
     42 CA        -31.5510  -13.2720   -9.5380 C.3       1 PTR         0.1468
     43 C         -30.5900  -12.2330  -10.0730 C.2       1 PTR         0.2076
     44 O         -30.6300  -11.0710   -9.6600 O.2       1 PTR        -0.3941
     45 CB        -32.4610  -12.5100   -8.5310 C.3       1 PTR         0.0400
     46 CG        -33.6410  -13.2900   -8.0630 C.ar      1 PTR        -0.0004
     47 CD1       -33.8870  -13.5180   -6.6980 C.ar      1 PTR        -0.0239
     48 CD2       -34.5900  -13.7700   -8.9860 C.ar      1 PTR        -0.0239
     49 CE1       -35.0050  -14.2860   -6.3030 C.ar      1 PTR         0.0115
     50 CE2       -35.6780  -14.5130   -8.5820 C.ar      1 PTR         0.0115
     51 CZ        -35.9040  -14.7990   -7.2320 C.ar      1 PTR         0.1728
     52 OH        -37.0050  -15.5180   -6.7770 O.3       1 PTR        -0.2040
     53 P         -38.4630  -15.2440   -7.4070 P.3       1 PTR         0.1348
     54 O1P       -38.6600  -13.7080   -7.1740 O.co2     1 PTR        -0.6653
     55 O2P       -39.2950  -16.2150   -6.6010 O.co2     1 PTR        -0.6653
     56 O3P       -38.5050  -15.4470   -8.9080 O.co2     1 PTR        -0.6653
     57 N         -29.6790  -12.6410  -10.9450 N.am      1 PTR        -0.2605
     58 CA        -28.7350  -11.6970  -11.5450 C.3       1 PTR         0.1470
     59 C         -28.4000  -12.3330  -12.8740 C.2       1 PTR         0.2094
     60 O         -28.2090  -13.5730  -12.9080 O.2       1 PTR        -0.3939
     61 CB        -27.4800  -11.4830  -10.7330 C.3       1 PTR         0.0400
     62 CG        -26.6550  -10.4150  -11.4250 C.ar      1 PTR        -0.0004
     63 CD1       -25.6910  -10.8370  -12.3590 C.ar      1 PTR        -0.0239
     64 CD2       -26.7890   -9.0530  -11.0980 C.ar      1 PTR        -0.0239
     65 CE1       -24.9170   -9.8770  -13.0070 C.ar      1 PTR         0.0115
     66 CE2       -25.9930   -8.0920  -11.7570 C.ar      1 PTR         0.0115
     67 CZ        -25.0470   -8.5180  -12.6920 C.ar      1 PTR         0.1728
     68 OH        -24.2890   -7.6400  -13.4370 O.3       1 PTR        -0.2040
     69 P         -23.3190   -6.4460  -12.9920 P.3       1 PTR         0.1348
     70 O1P       -22.8860   -6.0070  -14.3680 O.co2     1 PTR        -0.6653
     71 O2P       -22.1630   -6.9650  -12.1400 O.co2     1 PTR        -0.6653
     72 O3P       -24.2460   -5.4960  -12.2800 O.co2     1 PTR        -0.6653
     73 N         -28.4400  -11.5280  -13.9820 N.am      1 PRO        -0.2553
     74 CA        -28.8300  -10.0830  -14.0470 C.3       1 PRO         0.0972
     75 C         -30.3310   -9.7990  -13.8740 C.2       1 PRO         0.0603
     76 O         -31.1438  -10.7512  -14.0164 O.co2     1 PRO        -0.5666
     77 CB        -28.3630   -9.6430  -15.4680 C.3       1 PRO        -0.0159
     78 CG        -28.3250  -10.9010  -16.2810 C.3       1 PRO        -0.0288
     79 CD        -28.0560  -12.0540  -15.3130 C.3       1 PRO         0.0362
     80 O         -30.7393   -8.6398  -13.5960 O.co2     1 PRO        -0.5666
     81 H1        -28.7691  -21.3886  -12.8580 H         1 ASP         0.2016
     82 H2        -28.7250  -20.3861  -11.5532 H         1 ASP         0.2016
     83 H3        -27.9212  -21.8221  -11.5154 H         1 ASP         0.2016
     84 H4        -26.4169  -21.1601  -13.1869 H         1 ASP         0.1117
     85 H5        -27.7997  -18.4428  -13.1652 H         1 ASP         0.0512
     86 H6        -28.0271  -19.7026  -14.4253 H         1 ASP         0.0512
     87 H7        -25.3194  -18.4219  -12.7535 H         1 LEU         0.1885
     88 H8        -23.5747  -19.5098  -10.7178 H         1 LEU         0.0800
     89 H9        -23.7059  -16.8738  -12.2456 H         1 LEU         0.0315
     90 H10       -22.8389  -18.3614  -12.7574 H         1 LEU         0.0315
     91 H11       -22.0797  -16.6654  -10.3854 H         1 LEU         0.0298
     92 H12       -19.9277  -17.7904  -10.5955 H         1 LEU         0.0232
     93 H13       -20.5738  -18.8002  -11.9332 H         1 LEU         0.0232
     94 H14       -21.2500  -18.9637  -10.2771 H         1 LEU         0.0232
     95 H15       -22.1100  -15.4593  -12.5277 H         1 LEU         0.0232
     96 H16       -21.0945  -16.7466  -13.2611 H         1 LEU         0.0232
     97 H17       -20.4353  -15.7281  -11.9365 H         1 LEU         0.0232
     98 H18       -25.6671  -16.6699  -10.9741 H         1 PTR         0.1886
     99 H19       -25.4022  -16.0770   -8.0435 H         1 PTR         0.0840
    100 H20       -26.0629  -13.7426   -8.7356 H         1 PTR         0.0584
    101 H21       -25.8014  -14.2573  -10.4366 H         1 PTR         0.0584
    102 H22       -23.9587  -14.1643   -7.1359 H         1 PTR         0.0703
    103 H23       -23.8660  -13.6611  -11.3854 H         1 PTR         0.0703
    104 H24       -21.5797  -13.6465   -6.9685 H         1 PTR         0.0736
    105 H25       -21.5531  -12.9526  -11.1793 H         1 PTR         0.0736
    106 H26       -27.2896  -15.6614   -6.9202 H         1 ASP         0.1885
    107 H27       -29.8018  -16.5085   -7.9972 H         1 ASP         0.0819
    108 H28       -29.1157  -14.7154   -5.5944 H         1 ASP         0.0478
    109 H29       -29.0470  -16.5102   -5.5639 H         1 ASP         0.0478
    110 H30       -31.1601  -15.3754   -9.2052 H         1 PTR         0.1886
    111 H31       -32.1768  -13.6386  -10.3650 H         1 PTR         0.0840
    112 H32       -32.8247  -11.5941   -9.0196 H         1 PTR         0.0584
    113 H33       -31.8549  -12.2415   -7.6532 H         1 PTR         0.0584
    114 H34       -33.2200  -13.1053   -5.9497 H         1 PTR         0.0703
    115 H35       -34.4616  -13.5498  -10.0396 H         1 PTR         0.0703
    116 H36       -35.1663  -14.4805   -5.2489 H         1 PTR         0.0736
    117 H37       -36.3733  -14.8836   -9.3265 H         1 PTR         0.0736
    118 H38       -29.6360  -13.6079  -11.1966 H         1 PTR         0.1886
    119 H39       -29.2244  -10.7233  -11.6942 H         1 PTR         0.0840
    120 H40       -26.9068  -12.4201  -10.6765 H         1 PTR         0.0584
    121 H41       -27.7434  -11.1525   -9.7175 H         1 PTR         0.0584
    122 H42       -25.5530  -11.8911  -12.5707 H         1 PTR         0.0703
    123 H43       -27.5015   -8.7429  -10.3422 H         1 PTR         0.0703
    124 H44       -24.2053  -10.1852  -13.7643 H         1 PTR         0.0736
    125 H45       -26.1142   -7.0368  -11.5403 H         1 PTR         0.0736
    126 H46       -28.2848   -9.5231  -13.2729 H         1 PRO         0.0728
    127 H47       -27.3639   -9.1852  -15.4203 H         1 PRO         0.0306
    128 H48       -29.0748   -8.9255  -15.9022 H         1 PRO         0.0306
    129 H49       -27.5216  -10.8421  -17.0301 H         1 PRO         0.0286
    130 H50       -29.2892  -11.0516  -16.7885 H         1 PRO         0.0286
    131 H51       -28.6674  -12.9302  -15.5746 H         1 PRO         0.0524
    132 H52       -26.9918  -12.3319  -15.3276 H         1 PRO         0.0524
@<TRIPOS>BOND
     1    1    2 1  
     2    2    3 1  
     3    2    5 1  
     4    3    4 2  
     5    3    9 am 
     6    5    6 1  
     7    6    7 ar 
     8    6    8 ar 
     9    9   10 1  
    10   10   11 1  
    11   10   13 1  
    12   11   12 2  
    13   11   17 am 
    14   13   14 1  
    15   14   15 1  
    16   14   16 1  
    17   17   18 1  
    18   18   19 1  
    19   18   21 1  
    20   19   20 2  
    21   19   33 am 
    22   21   22 1  
    23   22   23 ar 
    24   22   24 ar 
    25   23   25 ar 
    26   24   26 ar 
    27   25   27 ar 
    28   26   27 ar 
    29   27   28 1  
    30   28   29 1  
    31   29   30 ar 
    32   29   31 ar 
    33   29   32 ar 
    34   33   34 1  
    35   34   35 1  
    36   34   37 1  
    37   35   36 2  
    38   35   41 am 
    39   37   38 1  
    40   38   39 ar 
    41   38   40 ar 
    42   41   42 1  
    43   42   43 1  
    44   42   45 1  
    45   43   44 2  
    46   43   57 am 
    47   45   46 1  
    48   46   47 ar 
    49   46   48 ar 
    50   47   49 ar 
    51   48   50 ar 
    52   49   51 ar 
    53   50   51 ar 
    54   51   52 1  
    55   52   53 1  
    56   53   54 ar 
    57   53   55 ar 
    58   53   56 ar 
    59   57   58 1  
    60   58   59 1  
    61   58   61 1  
    62   59   60 2  
    63   59   73 am 
    64   61   62 1  
    65   62   63 ar 
    66   62   64 ar 
    67   63   65 ar 
    68   64   66 ar 
    69   65   67 ar 
    70   66   67 ar 
    71   67   68 1  
    72   68   69 1  
    73   69   70 ar 
    74   69   71 ar 
    75   69   72 ar 
    76   73   74 1  
    77   73   79 1  
    78   74   75 1  
    79   74   77 1  
    80   75   76 ar 
    81   77   78 1  
    82   78   79 1  
    83   75   80 ar 
    84    1   81 1  
    85    1   82 1  
    86    1   83 1  
    87    2   84 1  
    88    5   85 1  
    89    5   86 1  
    90    9   87 1  
    91   10   88 1  
    92   13   89 1  
    93   13   90 1  
    94   14   91 1  
    95   15   92 1  
    96   15   93 1  
    97   15   94 1  
    98   16   95 1  
    99   16   96 1  
   100   16   97 1  
   101   17   98 1  
   102   18   99 1  
   103   21  100 1  
   104   21  101 1  
   105   23  102 1  
   106   24  103 1  
   107   25  104 1  
   108   26  105 1  
   109   33  106 1  
   110   34  107 1  
   111   37  108 1  
   112   37  109 1  
   113   41  110 1  
   114   42  111 1  
   115   45  112 1  
   116   45  113 1  
   117   47  114 1  
   118   48  115 1  
   119   49  116 1  
   120   50  117 1  
   121   57  118 1  
   122   58  119 1  
   123   61  120 1  
   124   61  121 1  
   125   63  122 1  
   126   64  123 1  
   127   65  124 1  
   128   66  125 1  
   129   74  126 1  
   130   77  127 1  
   131   77  128 1  
   132   78  129 1  
   133   78  130 1  
   134   79  131 1  
   135   79  132 1  
@<TRIPOS>SUBSTRUCTURE
     1 ASP         1

