4mm7_ligand
  -I-interpret- 

 45 46  0  0  0  0  0  0  0  0999 V2000
  179.7940  -15.8310  100.4100 O   0  0  0  0  0
  180.0480  -16.7060   99.3170 C   0  0  0  0  0
  180.2760  -15.8850   98.0560 C   0  0  0  0  0
  178.7980  -17.5500   99.1620 C   0  0  0  0  0
  177.5890  -16.6830   98.8480 C   0  0  0  0  0
  177.8020  -15.8500   97.5980 C   0  0  0  0  0
  179.0680  -15.0290   97.7140 C   0  0  0  0  0
  181.3180  -17.5080   99.6450 C   0  0  0  0  0
  181.5770  -17.5920  101.1410 C   0  0  0  0  0
  183.0120  -17.4290  101.3240 N   0  3  0  0  0
  183.5180  -16.3280  102.1180 C   0  0  0  0  0
  183.9660  -18.3440  100.7250 C   0  0  0  0  0
  181.3420  -18.8850   99.0810 C   0  0  0  0  0
  180.9760  -19.9830   99.8530 C   0  0  0  0  0
  181.0050  -21.2550   99.2990 C   0  0  0  0  0
  181.4170  -21.4410   97.9870 C   0  0  0  0  0
  181.4480  -22.6940   97.4550 O   0  0  0  0  0
  181.7970  -20.3510   97.2190 C   0  0  0  0  0
  181.7610  -19.0810   97.7720 C   0  0  0  0  0
  179.0035  -15.3169  100.2299 H   0  0  0  0  0
  180.4552  -16.5711   97.2282 H   0  0  0  0  0
  181.1266  -15.2249   98.2260 H   0  0  0  0  0
  178.6152  -18.0785  100.0976 H   0  0  0  0  0
  178.9488  -18.2498   98.3400 H   0  0  0  0  0
  177.4257  -16.0063   99.6868 H   0  0  0  0  0
  176.7326  -17.3366   98.6822 H   0  0  0  0  0
  176.9543  -15.1761   97.4741 H   0  0  0  0  0
  177.8909  -16.5167   96.7403 H   0  0  0  0  0
  179.2520  -14.5506   96.7520 H   0  0  0  0  0
  178.9293  -14.3020   98.5142 H   0  0  0  0  0
  182.1110  -16.9391   99.1596 H   0  0  0  0  0
  181.2394  -18.5478  101.5416 H   0  0  0  0  0
  181.0258  -16.8184  101.6757 H   0  0  0  0  0
  182.2751  -18.0472  100.9846 H   0  0  0  0  0
  183.1983  -15.3850  101.6747 H   0  0  0  0  0
  183.1281  -16.4044  103.1330 H   0  0  0  0  0
  184.6070  -16.3691  102.1416 H   0  0  0  0  0
  183.7826  -19.3524  101.0960 H   0  0  0  0  0
  183.8517  -18.3279   99.6411 H   0  0  0  0  0
  184.9777  -18.0366  100.9896 H   0  0  0  0  0
  180.6676  -19.8446  100.8893 H   0  0  0  0  0
  180.7022  -22.1136   99.8983 H   0  0  0  0  0
  181.7537  -22.6471   96.5462 H   0  0  0  0  0
  182.1216  -20.4920   96.1881 H   0  0  0  0  0
  182.0658  -18.2242   97.1711 H   0  0  0  0  0
  1  2  1  0  0  0
  2  3  1  0  0  0
  2  4  1  0  0  0
  2  8  1  0  0  0
  3  7  1  0  0  0
  4  5  1  0  0  0
  5  6  1  0  0  0
  6  7  1  0  0  0
  8  9  1  0  0  0
  8 13  1  0  0  0
  9 10  1  0  0  0
 10 11  1  0  0  0
 10 12  1  0  0  0
 13 14  4  0  0  0
 13 19  4  0  0  0
 14 15  4  0  0  0
 15 16  4  0  0  0
 16 17  1  0  0  0
 16 18  4  0  0  0
 18 19  4  0  0  0
  1 20  1  0  0  0
  3 21  1  0  0  0
  3 22  1  0  0  0
  4 23  1  0  0  0
  4 24  1  0  0  0
  5 25  1  0  0  0
  5 26  1  0  0  0
  6 27  1  0  0  0
  6 28  1  0  0  0
  7 29  1  0  0  0
  7 30  1  0  0  0
  8 31  1  0  0  0
  9 32  1  0  0  0
  9 33  1  0  0  0
 10 34  1  0  0  0
 11 35  1  0  0  0
 11 36  1  0  0  0
 11 37  1  0  0  0
 12 38  1  0  0  0
 12 39  1  0  0  0
 12 40  1  0  0  0
 14 41  1  0  0  0
 15 42  1  0  0  0
 17 43  1  0  0  0
 18 44  1  0  0  0
 19 45  1  0  0  0
M  END
$$$$
