4xu1_ligand
  -I-interpret- 

 67 71  0  0  0  0  0  0  0  0999 V2000
   -6.4090   -1.2410   11.9340 C   0  0  0  0  0
   -6.1060   -1.4760   13.2700 C   0  0  0  0  0
   -7.1360   -1.7330   14.1630 C   0  0  0  0  0
   -4.2490   -1.1200   12.1750 C   0  0  0  0  0
   -8.3970   -1.7550   13.6950 N   0  0  0  0  0
   -7.6990   -1.2720   11.5140 N   0  0  0  0  0
   -2.7030  -10.7730   13.9520 C   0  0  0  0  0
   -1.4720  -10.0230   13.6850 N   0  0  0  0  0
   -0.5650  -10.2340   14.6390 C   0  0  0  0  0
    0.5180   -9.6640   14.6960 O   0  0  0  0  0
   -1.0110  -11.1230   15.5400 N   0  0  0  0  0
   -2.3820  -11.4960   15.2620 C   0  0  0  0  0
   -3.2810  -10.9890   16.3910 C   0  0  0  0  0
   -3.8610   -9.4020   15.8640 S   0  0  0  0  0
   -3.9380   -9.8840   14.1580 C   0  0  0  0  0
   -4.0190   -8.6830   13.2170 C   0  0  0  0  0
   -4.2560   -9.0980   11.7610 C   0  0  0  0  0
   -4.5800   -7.8990   10.8670 C   0  0  0  0  0
   -4.7830   -8.3380    9.4160 C   0  0  0  0  0
   -5.2250   -7.1640    8.5700 C   0  0  0  0  0
   -6.2760   -6.5990    8.8170 O   0  0  0  0  0
   -4.4010   -6.8460    7.5850 N   0  0  0  0  0
   -4.7200   -5.6430    6.5690 S   0  0  0  0  0
   -6.0240   -5.8330    6.0020 O   0  0  0  0  0
   -3.7490   -5.6160    5.5160 O   0  0  0  0  0
   -4.8330   -4.3380    7.3250 O   0  0  0  0  0
   -3.7330   -3.7190    7.9660 C   0  0  0  0  0
   -4.2320   -2.2890    8.1010 C   0  0  0  0  0
   -4.7390   -2.1140    9.4240 O   0  0  0  0  0
   -3.0840   -1.3400    7.8140 C   0  0  0  0  0
   -3.5070   -0.0100    8.1870 N   0  3  0  0  0
   -4.0010    0.2260    9.5280 C   0  0  0  0  0
   -5.0960   -0.7850    9.8550 C   0  0  0  0  0
   -5.2570   -1.0110   11.3020 N   0  0  0  0  0
   -4.7590   -1.3830   13.3870 N   0  0  0  0  0
   -8.6680   -1.5320   12.4010 C   0  0  0  0  0
   -6.9050   -1.9890   15.4830 N   0  0  0  0  0
   -3.1900   -1.0129   11.9402 H   0  0  0  0  0
   -2.9584  -11.4168   13.1103 H   0  0  0  0  0
   -1.3283   -9.4191   12.8757 H   0  0  0  0  0
   -0.4584  -11.4869   16.3163 H   0  0  0  0  0
   -2.5336  -12.5728   15.1869 H   0  0  0  0  0
   -2.7367  -10.9210   17.3329 H   0  0  0  0  0
   -4.1087  -11.6731   16.5781 H   0  0  0  0  0
   -4.8483  -10.4324   13.9158 H   0  0  0  0  0
   -3.0689   -8.1510   13.2661 H   0  0  0  0  0
   -4.8583   -8.0631   13.5323 H   0  0  0  0  0
   -5.1053   -9.7807   11.7357 H   0  0  0  0  0
   -3.3445   -9.5645   11.3874 H   0  0  0  0  0
   -3.7471   -7.1970   10.9072 H   0  0  0  0  0
   -5.4990   -7.4341   11.2241 H   0  0  0  0  0
   -5.5510   -9.1108    9.3818 H   0  0  0  0  0
   -3.8413   -8.7238    9.0256 H   0  0  0  0  0
   -3.5395   -7.3793    7.4674 H   0  0  0  0  0
   -2.7979   -3.8062    7.4127 H   0  0  0  0  0
   -3.4634   -4.1803    8.9161 H   0  0  0  0  0
   -5.0313   -2.0785    7.3905 H   0  0  0  0  0
   -2.8225   -1.3713    6.7563 H   0  0  0  0  0
   -2.2014   -1.6303    8.3840 H   0  0  0  0  0
   -4.2999    0.1918    7.5779 H   0  0  0  0  0
   -2.6649    0.5611    8.1152 H   0  0  0  0  0
   -4.4087    1.2349    9.5916 H   0  0  0  0  0
   -3.1829    0.1169   10.2399 H   0  0  0  0  0
   -5.9766   -0.3607    9.3726 H   0  0  0  0  0
   -9.7036   -1.5631   12.0623 H   0  0  0  0  0
   -5.9502   -1.9956   15.8418 H   0  0  0  0  0
   -7.6871   -2.1738   16.1111 H   0  0  0  0  0
  1  2  4  0  0  0
  1  6  4  0  0  0
 34  1  4  0  0  0
  2  3  4  0  0  0
 35  2  4  0  0  0
  3  5  4  0  0  0
  3 37  1  0  0  0
 34  4  4  0  0  0
  4 35  4  0  0  0
 36  5  4  0  0  0
  6 36  4  0  0  0
  7  8  1  0  0  0
  7 12  1  0  0  0
 15  7  1  0  0  0
  8  9  1  0  0  0
  9 10  2  0  0  0
 11  9  1  0  0  0
 12 11  1  0  0  0
 13 12  1  0  0  0
 14 13  1  0  0  0
 15 14  1  0  0  0
 16 15  1  0  0  0
 17 16  1  0  0  0
 18 17  1  0  0  0
 19 18  1  0  0  0
 20 19  1  0  0  0
 20 21  2  0  0  0
 22 20  1  0  0  0
 23 22  1  0  0  0
 23 24  2  0  0  0
 23 25  2  0  0  0
 26 23  1  0  0  0
 27 26  1  0  0  0
 28 27  1  0  0  0
 29 28  1  0  0  0
 28 30  1  0  0  0
 33 29  1  0  0  0
 31 30  1  0  0  0
 32 31  1  0  0  0
 33 32  1  0  0  0
 33 34  1  0  0  0
  4 38  1  0  0  0
  7 39  1  0  0  0
  8 40  1  0  0  0
 11 41  1  0  0  0
 12 42  1  0  0  0
 13 43  1  0  0  0
 13 44  1  0  0  0
 15 45  1  0  0  0
 16 46  1  0  0  0
 16 47  1  0  0  0
 17 48  1  0  0  0
 17 49  1  0  0  0
 18 50  1  0  0  0
 18 51  1  0  0  0
 19 52  1  0  0  0
 19 53  1  0  0  0
 22 54  1  0  0  0
 27 55  1  0  0  0
 27 56  1  0  0  0
 28 57  1  0  0  0
 30 58  1  0  0  0
 30 59  1  0  0  0
 31 60  1  0  0  0
 31 61  1  0  0  0
 32 62  1  0  0  0
 32 63  1  0  0  0
 33 64  1  0  0  0
 36 65  1  0  0  0
 37 66  1  0  0  0
 37 67  1  0  0  0
M  END
$$$$
