### 
### Created by X-TOOL on Mon Sep 10 21:12:49 2018
### 

@<TRIPOS>MOLECULE
1kyn_ligand
   42    45     1     0     0
SMALL
GAST_HUCK


@<TRIPOS>ATOM
      1 P1         27.8380   29.9660  -10.0090 P.3       1 KTP         0.0920
      2 O1         28.8980   30.5040   -9.1280 O.co2     1 KTP        -0.5590
      3 O2         27.8300   32.3130  -13.3310 O.2       1 KTP        -0.3738
      4 C1         27.0030   31.2560  -11.1260 C.3       1 KTP         0.1393
      5 C2         27.7890   32.4570  -12.1650 C.2       1 KTP         0.1641
      6 O3         28.5770   28.8080  -10.8530 O.co2     1 KTP        -0.5590
      7 O4         26.7670   29.2760   -9.0320 O.co2     1 KTP        -0.5590
      8 C3         28.5230   33.7920  -11.8940 C.ar      1 KTP         0.0369
      9 C4         28.6370   34.2440  -10.5640 C.ar      1 KTP        -0.0337
     10 C5         29.2880   35.4500  -10.2510 C.ar      1 KTP        -0.0112
     11 C6         29.3870   35.8780   -8.9140 C.ar      1 KTP        -0.0516
     12 C7         30.0440   37.0900   -8.6120 C.ar      1 KTP        -0.0595
     13 C8         30.6060   37.8890   -9.6640 C.ar      1 KTP        -0.0597
     14 C9         30.5140   37.4670  -11.0220 C.ar      1 KTP        -0.0523
     15 C10        29.8660   36.2640  -11.3270 C.ar      1 KTP        -0.0150
     16 C11        29.7610   35.8340  -12.6540 C.ar      1 KTP        -0.0508
     17 C12        29.0990   34.6130  -12.9350 C.ar      1 KTP        -0.0442
     18 C13        26.2530   29.2250  -12.5800 C.ar      1 KTP        -0.0567
     19 C14        25.9220   30.4300  -11.9150 C.ar      1 KTP         0.0038
     20 C15        24.5210   30.8960  -11.9800 C.ar      1 KTP        -0.0084
     21 C16        24.1010   32.0970  -11.3460 C.ar      1 KTP        -0.0546
     22 C17        22.7360   32.5220  -11.4280 C.ar      1 KTP        -0.0625
     23 C18        21.7790   31.7400  -12.1500 C.ar      1 KTP        -0.0629
     24 C19        22.1850   30.5220  -12.7970 C.ar      1 KTP        -0.0568
     25 C20        23.5310   30.0950  -12.7240 C.ar      1 KTP        -0.0238
     26 C21        23.9270   28.9020  -13.3610 C.ar      1 KTP        -0.0627
     27 C22        25.2830   28.4680  -13.2910 C.ar      1 KTP        -0.0701
     28 H1         26.4563   31.8922  -10.4144 H         1 KTP         0.0881
     29 H2         28.2129   33.6480   -9.7640 H         1 KTP         0.0699
     30 H3         28.9598   35.2784   -8.1183 H         1 KTP         0.0637
     31 H4         30.1245   37.4187   -7.5822 H         1 KTP         0.0622
     32 H5         31.1045   38.8210   -9.4233 H         1 KTP         0.0630
     33 H6         30.9423   38.0726  -11.8125 H         1 KTP         0.0627
     34 H7         30.1810   36.4278  -13.4578 H         1 KTP         0.0627
     35 H8         29.0220   34.2837  -13.9649 H         1 KTP         0.0653
     36 H9         27.2764   28.8692  -12.5459 H         1 KTP         0.0536
     37 H10        24.8190   32.6952  -10.7967 H         1 KTP         0.0628
     38 H11        22.4262   33.4397  -10.9413 H         1 KTP         0.0602
     39 H12        20.7470   32.0665  -12.2090 H         1 KTP         0.0616
     40 H13        21.4582   29.9302  -13.3416 H         1 KTP         0.0609
     41 H14        23.1984   28.3126  -13.9058 H         1 KTP         0.0546
     42 H15        25.5777   27.5497  -13.7859 H         1 KTP         0.0596
@<TRIPOS>BOND
     1    1    2 ar 
     2    4    1 1  
     3    1    6 ar 
     4    1    7 ar 
     5    5    3 2  
     6    4   19 1  
     7    5    8 1  
     8    8    9 ar 
     9    8   17 ar 
    10    9   10 ar 
    11   10   11 ar 
    12   10   15 ar 
    13   11   12 ar 
    14   12   13 ar 
    15   14   13 ar 
    16   15   14 ar 
    17   16   15 ar 
    18   17   16 ar 
    19   19   18 ar 
    20   18   27 ar 
    21   19   20 ar 
    22   20   21 ar 
    23   20   25 ar 
    24   21   22 ar 
    25   22   23 ar 
    26   24   23 ar 
    27   25   24 ar 
    28   25   26 ar 
    29   27   26 ar 
    30    5    4 1  
    31    4   28 1  
    32    9   29 1  
    33   11   30 1  
    34   12   31 1  
    35   13   32 1  
    36   14   33 1  
    37   16   34 1  
    38   17   35 1  
    39   18   36 1  
    40   21   37 1  
    41   22   38 1  
    42   23   39 1  
    43   24   40 1  
    44   26   41 1  
    45   27   42 1  
@<TRIPOS>SUBSTRUCTURE
     1 KTP         1

