5xmt_ligand
  -I-interpret- 

 53 56  0  0  0  0  0  0  0  0999 V2000
  -26.9690   34.9460   60.0820 C   0  0  0  0  0
  -26.0770   34.0360   59.6020 C   0  0  0  0  0
  -24.8440   33.5760   60.3720 C   0  0  0  0  0
  -24.8410   34.1730   61.7550 C   0  0  0  0  0
  -25.8150   35.1620   62.2220 C   0  0  0  0  0
  -23.9800   34.0350   62.9830 C   0  0  0  0  0
  -22.7710   33.1700   63.2300 C   0  0  0  0  0
  -23.6200   34.1490   59.6120 C   0  0  0  0  0
  -22.2680   33.5540   60.0360 C   0  0  0  0  0
  -24.8560   32.0350   60.4520 C   0  0  0  0  0
  -24.3870   31.2410   59.3870 C   0  0  0  0  0
  -24.3690   29.8450   59.4130 C   0  0  0  0  0
  -25.3480   29.9250   61.6130 C   0  0  0  0  0
  -27.7980   27.3580   60.8080 N   0  0  0  0  0
  -27.3140   27.7560   61.7680 C   0  0  0  0  0
  -26.7790   28.2010   62.8300 C   0  0  0  0  0
  -27.2000   27.5890   63.9970 C   0  0  0  0  0
  -26.6760   28.0020   65.2060 C   0  0  0  0  0
  -25.7400   29.0400   65.2390 C   0  0  0  0  0
  -25.3170   29.6490   64.0620 C   0  0  0  0  0
  -25.8420   29.2340   62.8380 C   0  0  0  0  0
  -24.8550   29.1880   60.5400 C   0  0  0  0  0
  -23.8220   29.1140   58.1920 C   0  0  0  0  0
  -23.8010   27.7910   58.3170 F   0  0  0  0  0
  -22.5920   29.5300   57.9420 F   0  0  0  0  0
  -24.5520   29.4140   57.1290 F   0  0  0  0  0
  -25.3460   31.3310   61.5700 C   0  0  0  0  0
  -23.5100   35.6890   59.6090 C   0  0  0  0  0
  -26.2500   33.5600   58.4480 C   0  0  0  0  0
  -26.4130   33.1190   57.3830 N   0  0  0  0  0
  -28.0440   35.3630   59.3970 N   0  0  0  0  0
  -24.5200   34.8580   63.9120 N   0  0  0  0  0
  -25.6540   35.5680   63.4970 N   0  0  0  0  0
  -26.8130   35.5660   61.3860 O   0  0  0  0  0
  -23.0448   32.1219   63.1087 H   0  0  0  0  0
  -21.9893   33.4277   62.5154 H   0  0  0  0  0
  -22.4075   33.3369   64.2440 H   0  0  0  0  0
  -23.8355   33.8279   58.5929 H   0  0  0  0  0
  -21.4976   33.8675   59.3316 H   0  0  0  0  0
  -22.0142   33.9078   61.0353 H   0  0  0  0  0
  -22.3367   32.4662   60.0408 H   0  0  0  0  0
  -24.0178   31.7442   58.4933 H   0  0  0  0  0
  -27.9386   26.7881   63.9625 H   0  0  0  0  0
  -26.9911   27.5203   66.1316 H   0  0  0  0  0
  -25.3382   29.3750   66.1953 H   0  0  0  0  0
  -24.5770   30.4486   64.0961 H   0  0  0  0  0
  -24.8495   28.0988   60.5821 H   0  0  0  0  0
  -25.7329   31.8896   62.4223 H   0  0  0  0  0
  -23.2519   36.0355   60.6097 H   0  0  0  0  0
  -22.7353   35.9953   58.9060 H   0  0  0  0  0
  -24.4654   36.1196   59.3091 H   0  0  0  0  0
  -28.2281   34.9953   58.4635 H   0  0  0  0  0
  -28.6775   36.0478   59.8095 H   0  0  0  0  0
  2  1  2  0  0  0
  1 31  1  0  0  0
  1 34  1  0  0  0
  3  2  1  0  0  0
  2 29  1  0  0  0
  3  4  1  0  0  0
  3  8  1  0  0  0
 10  3  1  0  0  0
  4  5  4  0  0  0
  4  6  4  0  0  0
  5 33  4  0  0  0
  5 34  1  0  0  0
  6  7  1  0  0  0
  6 32  4  0  0  0
  8  9  1  0  0  0
  8 28  1  0  0  0
 10 11  4  0  0  0
 27 10  4  0  0  0
 12 11  4  0  0  0
 22 12  4  0  0  0
 12 23  1  0  0  0
 21 13  1  0  0  0
 13 22  4  0  0  0
 13 27  4  0  0  0
 15 14  3  0  0  0
 16 15  1  0  0  0
 16 17  4  0  0  0
 16 21  4  0  0  0
 17 18  4  0  0  0
 18 19  4  0  0  0
 19 20  4  0  0  0
 20 21  4  0  0  0
 23 24  1  0  0  0
 23 25  1  0  0  0
 23 26  1  0  0  0
 29 30  3  0  0  0
 32 33  4  0  0  0
  7 35  1  0  0  0
  7 36  1  0  0  0
  7 37  1  0  0  0
  8 38  1  0  0  0
  9 39  1  0  0  0
  9 40  1  0  0  0
  9 41  1  0  0  0
 11 42  1  0  0  0
 17 43  1  0  0  0
 18 44  1  0  0  0
 19 45  1  0  0  0
 20 46  1  0  0  0
 22 47  1  0  0  0
 27 48  1  0  0  0
 28 49  1  0  0  0
 28 50  1  0  0  0
 28 51  1  0  0  0
 31 52  1  0  0  0
 31 53  1  0  0  0
M  END
$$$$
