4dgb_ligand
  -I-interpret- 

 82 84  0  0  0  0  0  0  0  0999 V2000
   10.7800    7.8380   19.6210 N   0  3  0  0  0
   12.2280    7.9670   19.3940 C   0  0  0  0  0
   12.8270    7.1180   18.2600 C   0  0  0  0  0
   13.8470    7.5190   17.7040 O   0  0  0  0  0
   12.8490    7.5650   20.7450 C   0  0  0  0  0
   11.7050    7.1010   21.6160 C   0  0  0  0  0
   10.4590    7.7100   21.0520 C   0  0  0  0  0
   12.2340    5.9670   17.9300 N   0  0  0  0  0
   12.7640    5.1060   16.8500 C   0  0  0  0  0
   13.8780    4.1850   17.3350 C   0  0  0  0  0
   14.3890    4.3920   18.4400 O   0  0  0  0  0
   14.2710    3.1660   16.5180 N   0  0  0  0  0
   15.3210    2.2630   17.0050 C   0  0  0  0  0
   16.5340    3.0310   17.5150 C   0  0  0  0  0
   16.8910    4.0730   16.9520 O   0  0  0  0  0
   15.6820    1.4140   15.7680 C   0  0  0  0  0
   15.0980    2.1500   14.5950 C   0  0  0  0  0
   13.8620    2.8060   15.1490 C   0  0  0  0  0
   17.1380    2.5260   18.5860 N   0  0  0  0  0
   18.2760    3.1910   19.2050 C   0  0  0  0  0
   19.4930    3.1150   18.2830 C   0  0  0  0  0
   19.6990    2.1050   17.6160 O   0  0  0  0  0
   18.6170    2.5480   20.5520 C   0  0  0  0  0
   17.5450    2.5610   21.6450 C   0  0  0  0  0
   18.0070    1.6850   22.8070 C   0  0  0  0  0
   17.2420    3.9920   22.0940 C   0  0  0  0  0
   20.3060    4.1830   18.2510 N   0  0  0  0  0
   21.5020    4.2140   17.3870 C   0  0  0  0  0
   22.6970    3.4110   17.9210 C   0  0  0  0  0
   23.7030    3.2920   17.2200 O   0  0  0  0  0
   21.8400    5.7010   17.3270 C   0  0  0  0  0
   21.3590    6.2370   18.6370 C   0  0  0  0  0
   20.1020    5.4710   18.9470 C   0  0  0  0  0
   22.5860    2.8700   19.1380 N   0  0  0  0  0
   23.6370    2.0200   19.7230 C   0  0  0  0  0
   23.0390    1.0060   20.7030 C   0  0  0  0  0
   21.8990    1.1740   21.1500 O   0  0  0  0  0
   24.7070    2.8840   20.4240 C   0  0  0  0  0
   23.6710   -0.0050   21.0530 O   0  0  0  0  0
   10.4547    6.9975   19.1434 H   0  0  0  0  0
   10.3239    8.6778   19.2644 H   0  0  0  0  0
   12.4439    8.9826   19.0624 H   0  0  0  0  0
   13.3733    8.4048   21.2009 H   0  0  0  0  0
   13.5894    6.7755   20.6168 H   0  0  0  0  0
   11.8544    7.4108   22.6503 H   0  0  0  0  0
   11.6374    6.0131   21.6207 H   0  0  0  0  0
    9.5701    7.1066   21.2359 H   0  0  0  0  0
   10.2031    8.6620   21.5170 H   0  0  0  0  0
   11.3967    5.6753   18.4343 H   0  0  0  0  0
   13.1745    5.7523   16.0742 H   0  0  0  0  0
   11.9476    4.4838   16.4834 H   0  0  0  0  0
   14.9878    1.6608   17.8502 H   0  0  0  0  0
   15.2821    0.4030   15.8457 H   0  0  0  0  0
   16.7604    1.2915   15.6673 H   0  0  0  0  0
   14.8720    1.4837   13.7625 H   0  0  0  0  0
   15.7956    2.8749   14.1756 H   0  0  0  0  0
   13.5382    3.6658   14.5624 H   0  0  0  0  0
   12.9881    2.1550   15.1241 H   0  0  0  0  0
   16.7960    1.6513   18.9840 H   0  0  0  0  0
   18.0087    4.2344   19.3722 H   0  0  0  0  0
   19.4449    3.1339   20.9513 H   0  0  0  0  0
   18.7951    1.4951   20.3335 H   0  0  0  0  0
   16.6143    2.1528   21.2511 H   0  0  0  0  0
   18.1592    0.6652   22.4534 H   0  0  0  0  0
   18.9431    2.0762   23.2055 H   0  0  0  0  0
   17.2474    1.6903   23.5887 H   0  0  0  0  0
   18.1505    4.4481   22.4874 H   0  0  0  0  0
   16.8829    4.5702   21.2426 H   0  0  0  0  0
   16.4775    3.9735   22.8707 H   0  0  0  0  0
   21.2978    3.7495   16.4223 H   0  0  0  0  0
   21.3669    6.1974   16.4798 H   0  0  0  0  0
   22.9053    5.8758   17.1762 H   0  0  0  0  0
   21.1709    7.3094   18.5851 H   0  0  0  0  0
   22.1072    6.1105   19.4195 H   0  0  0  0  0
   19.9400    5.3475   20.0178 H   0  0  0  0  0
   19.2027    5.9893   18.6141 H   0  0  0  0  0
   21.7425    3.0524   19.6817 H   0  0  0  0  0
   24.1144    1.4682   18.9133 H   0  0  0  0  0
   25.1608    3.5582   19.6976 H   0  0  0  0  0
   24.2393    3.4654   21.2185 H   0  0  0  0  0
   25.4738    2.2364   20.8491 H   0  0  0  0  0
   24.5334   -0.0038   20.6313 H   0  0  0  0  0
  1  2  1  0  0  0
  1  7  1  0  0  0
  2  3  1  0  0  0
  2  5  1  0  0  0
  3  4  2  0  0  0
  3  8  1  0  0  0
  5  6  1  0  0  0
  6  7  1  0  0  0
  8  9  1  0  0  0
  9 10  1  0  0  0
 10 11  2  0  0  0
 10 12  1  0  0  0
 12 13  1  0  0  0
 12 18  1  0  0  0
 13 14  1  0  0  0
 13 16  1  0  0  0
 14 15  2  0  0  0
 14 19  1  0  0  0
 16 17  1  0  0  0
 17 18  1  0  0  0
 19 20  1  0  0  0
 20 21  1  0  0  0
 20 23  1  0  0  0
 21 22  2  0  0  0
 21 27  1  0  0  0
 23 24  1  0  0  0
 24 25  1  0  0  0
 24 26  1  0  0  0
 27 28  1  0  0  0
 27 33  1  0  0  0
 28 29  1  0  0  0
 28 31  1  0  0  0
 29 30  2  0  0  0
 29 34  1  0  0  0
 31 32  1  0  0  0
 32 33  1  0  0  0
 34 35  1  0  0  0
 35 36  1  0  0  0
 35 38  1  0  0  0
 36 37  2  0  0  0
 36 39  1  0  0  0
  1 40  1  0  0  0
  1 41  1  0  0  0
  2 42  1  0  0  0
  5 43  1  0  0  0
  5 44  1  0  0  0
  6 45  1  0  0  0
  6 46  1  0  0  0
  7 47  1  0  0  0
  7 48  1  0  0  0
  8 49  1  0  0  0
  9 50  1  0  0  0
  9 51  1  0  0  0
 13 52  1  0  0  0
 16 53  1  0  0  0
 16 54  1  0  0  0
 17 55  1  0  0  0
 17 56  1  0  0  0
 18 57  1  0  0  0
 18 58  1  0  0  0
 19 59  1  0  0  0
 20 60  1  0  0  0
 23 61  1  0  0  0
 23 62  1  0  0  0
 24 63  1  0  0  0
 25 64  1  0  0  0
 25 65  1  0  0  0
 25 66  1  0  0  0
 26 67  1  0  0  0
 26 68  1  0  0  0
 26 69  1  0  0  0
 28 70  1  0  0  0
 31 71  1  0  0  0
 31 72  1  0  0  0
 32 73  1  0  0  0
 32 74  1  0  0  0
 33 75  1  0  0  0
 33 76  1  0  0  0
 34 77  1  0  0  0
 35 78  1  0  0  0
 38 79  1  0  0  0
 38 80  1  0  0  0
 38 81  1  0  0  0
 39 82  1  0  0  0
M  END
$$$$
