### 
### Created by X-TOOL on Tue Oct 16 15:17:48 2018
### 

@<TRIPOS>MOLECULE
5uwj_ligand
  204   203     1     0     0
SMALL
GAST_HUCK


@<TRIPOS>ATOM
      1 N         -47.2450   70.6570   32.6690 N.4       1 VAL         0.2381
      2 CA        -46.0860   70.3620   31.8340 C.3       1 VAL         0.0673
      3 C         -45.8360   71.5060   30.8710 C.2       1 VAL         0.2270
      4 O         -44.7030   71.9580   30.7080 O.2       1 VAL        -0.3907
      5 CB        -46.2700   69.0510   31.0600 C.3       1 VAL         0.0139
      6 CG1       -44.9860   68.6870   30.3120 C.3       1 VAL        -0.0553
      7 CG2       -46.6830   67.9450   32.0060 C.3       1 VAL        -0.0553
      8 N         -46.9030   71.9600   30.2110 N.am      1 VAL        -0.2595
      9 CA        -46.7760   73.0880   29.3010 C.3       1 VAL         0.1424
     10 C         -46.2420   74.3230   30.0130 C.2       1 VAL         0.2056
     11 O         -45.6920   75.2160   29.3580 O.2       1 VAL        -0.3943
     12 CB        -48.1270   73.3920   28.6530 C.3       1 VAL         0.0406
     13 CG        -47.9870   74.0780   27.3070 C.2       1 VAL         0.0393
     14 OD1       -46.9320   74.7020   27.0650 O.co2     1 VAL        -0.5688
     15 OD2       -48.9300   73.9910   26.4920 O.co2     1 VAL        -0.5688
     16 N         -46.3840   74.3850   31.3390 N.am      1 VAL        -0.2635
     17 CA        -45.8450   75.5120   32.0910 C.3       1 VAL         0.1330
     18 C         -44.3220   75.5370   32.0160 C.2       1 VAL         0.2040
     19 O         -43.7170   76.6140   31.9680 O.2       1 VAL        -0.3944
     20 CB        -46.3200   75.4510   33.5440 C.3       1 VAL         0.0045
     21 CG        -47.8320   75.2600   33.7170 C.3       1 VAL         0.0412
     22 CD        -48.6420   76.4830   33.3190 C.2       1 VAL         0.1737
     23 OE1       -48.0900   77.5180   32.9450 O.2       1 VAL        -0.3973
     24 NE2       -49.9640   76.3670   33.4020 N.am      1 VAL        -0.3009
     25 N         -43.6850   74.3650   32.0130 N.am      1 VAL        -0.2637
     26 CA        -42.2730   74.2850   31.6620 C.3       1 VAL         0.1312
     27 C         -42.0410   75.0130   30.3470 C.2       1 VAL         0.2039
     28 O         -42.7270   74.7570   29.3540 O.2       1 VAL        -0.3944
     29 CB        -41.8230   72.8260   31.5240 C.3       1 VAL        -0.0101
     30 CG        -41.8440   71.8700   32.7220 C.3       1 VAL        -0.0425
     31 CD1       -41.8820   70.4400   32.2060 C.3       1 VAL        -0.0625
     32 CD2       -40.6340   72.0630   33.6280 C.3       1 VAL        -0.0625
     33 N         -41.0810   75.9290   30.3420 N.am      1 VAL        -0.2637
     34 CA        -40.7530   76.6870   29.1440 C.3       1 VAL         0.1311
     35 C         -39.3970   76.2130   28.6250 C.2       1 VAL         0.2039
     36 O         -38.3980   76.9310   28.6620 O.2       1 VAL        -0.3944
     37 CB        -40.7630   78.2010   29.4410 C.3       1 VAL        -0.0092
     38 CG        -42.0330   78.7250   30.1380 C.3       1 VAL        -0.0156
     39 CD        -43.2990   78.5260   29.2990 C.3       1 VAL         0.0627
     40 NE        -44.1760   79.7020   29.3240 N.pl3     1 VAL        -0.2723
     41 CZ        -45.2350   79.8590   30.1180 C.cat     1 VAL         0.2882
     42 NH1       -45.9540   80.9740   30.0460 N.pl3     1 VAL        -0.2849
     43 NH2       -45.5890   78.9160   30.9840 N.pl3     1 VAL        -0.2849
     44 N         -39.3730   74.9700   28.1390 N.am      1 VAL        -0.2637
     45 CA        -38.1220   74.3800   27.6720 C.3       1 VAL         0.1312
     46 C         -37.6460   75.0130   26.3700 C.2       1 VAL         0.2039
     47 O         -36.4400   75.0250   26.0950 O.2       1 VAL        -0.3944
     48 CB        -38.2880   72.8700   27.4980 C.3       1 VAL        -0.0101
     49 CG        -37.0140   72.0840   27.1750 C.3       1 VAL        -0.0425
     50 CD1       -36.9570   70.7950   27.9800 C.3       1 VAL        -0.0625
     51 CD2       -36.9290   71.7760   25.6900 C.3       1 VAL        -0.0625
     52 N         -38.5680   75.5380   25.5560 N.am      1 VAL        -0.2636
     53 CA        -38.1720   76.2240   24.3290 C.3       1 VAL         0.1325
     54 C         -37.2430   77.3980   24.6020 C.2       1 VAL         0.2040
     55 O         -36.5070   77.8120   23.7000 O.2       1 VAL        -0.3944
     56 CB        -39.4040   76.7140   23.5590 C.3       1 VAL        -0.0008
     57 CG        -40.3640   77.5810   24.3640 C.3       1 VAL         0.0044
     58 CD        -41.3430   76.7690   25.1900 C.2       1 VAL         0.0350
     59 OE1       -41.7910   75.7020   24.7160 O.co2     1 VAL        -0.5690
     60 OE2       -41.6560   77.1970   26.3200 O.co2     1 VAL        -0.5690
     61 N         -37.2550   77.9410   25.8200 N.am      1 VAL        -0.2637
     62 CA        -36.3700   79.0430   26.1740 C.3       1 VAL         0.1311
     63 C         -34.9650   78.5860   26.5360 C.2       1 VAL         0.2039
     64 O         -34.0610   79.4260   26.6060 O.2       1 VAL        -0.3944
     65 CB        -36.9430   79.8300   27.3510 C.3       1 VAL        -0.0092
     66 CG        -38.3040   80.4330   27.1030 C.3       1 VAL        -0.0156
     67 CD        -38.7830   81.1300   28.3550 C.3       1 VAL         0.0627
     68 NE        -40.1590   81.5970   28.2490 N.pl3     1 VAL        -0.2723
     69 CZ        -40.8250   82.1760   29.2420 C.cat     1 VAL         0.2882
     70 NH1       -40.2410   82.3600   30.4200 N.pl3     1 VAL        -0.2849
     71 NH2       -42.0780   82.5720   29.0600 N.pl3     1 VAL        -0.2849
     72 N         -34.7630   77.2940   26.7900 N.am      1 VAL        -0.2637
     73 CA        -33.4360   76.7980   27.1190 C.3       1 VAL         0.1312
     74 C         -32.4260   77.2850   26.0910 C.2       1 VAL         0.2039
     75 O         -32.6340   77.1470   24.8830 O.2       1 VAL        -0.3944
     76 CB        -33.4430   75.2680   27.1740 C.3       1 VAL        -0.0101
     77 CG        -32.0980   74.6220   27.5180 C.3       1 VAL        -0.0425
     78 CD1       -31.5580   75.1530   28.8330 C.3       1 VAL        -0.0625
     79 CD2       -32.2220   73.1080   27.5800 C.3       1 VAL        -0.0625
     80 N         -31.3310   77.8650   26.5740 N.am      1 VAL        -0.2636
     81 CA        -30.3380   78.4550   25.6930 C.3       1 VAL         0.1330
     82 C         -28.9410   78.1310   26.1980 C.2       1 VAL         0.2035
     83 O         -28.7330   77.8750   27.3870 O.2       1 VAL        -0.3944
     84 CB        -30.5230   79.9720   25.5870 C.3       1 VAL         0.0045
     85 CG        -30.1410   80.5280   24.2330 C.3       1 VAL         0.0412
     86 CD        -30.5450   81.9740   24.0630 C.2       1 VAL         0.1737
     87 OE1       -31.0850   82.5930   24.9810 O.2       1 VAL        -0.3973
     88 NE2       -30.2900   82.5220   22.8800 N.am      1 VAL        -0.3009
     89 N         -27.9880   78.1400   25.2720 N.am      1 VAL        -0.2692
     90 CA        -26.5900   77.8870   25.5850 C.3       1 VAL         0.0969
     91 C         -25.7650   79.1050   25.1800 C.2       1 VAL         0.0604
     92 O         -25.4020   79.9320   26.0170 O.co2     1 VAL        -0.5666
     93 CB        -26.0940   76.6020   24.8860 C.3       1 VAL        -0.0092
     94 CG1       -26.7560   75.3770   25.5270 C.3       1 VAL        -0.0497
     95 CG2       -24.5660   76.5000   24.9390 C.3       1 VAL        -0.0588
     96 CD1       -26.3770   74.0490   24.8940 C.3       1 VAL        -0.0649
     97 OXT       -25.4510   79.2950   24.0030 O.co2     1 VAL        -0.5666
     98 H1        -47.0919   71.5225   33.1626 H         1 VAL         0.2015
     99 H2        -47.3794   69.9107   33.3331 H         1 VAL         0.2015
    100 H3        -48.0646   70.7418   32.0884 H         1 VAL         0.2015
    101 H4        -45.2076   70.2561   32.4876 H         1 VAL         0.1101
    102 H5        -47.0720   69.1918   30.3204 H         1 VAL         0.0376
    103 H6        -45.1358   67.7455   29.7632 H         1 VAL         0.0236
    104 H7        -44.1640   68.5645   31.0326 H         1 VAL         0.0236
    105 H8        -44.7351   69.4891   29.6023 H         1 VAL         0.0236
    106 H9        -47.6068   68.2349   32.5280 H         1 VAL         0.0236
    107 H10       -45.8838   67.7748   32.7424 H         1 VAL         0.0236
    108 H11       -46.8588   67.0211   31.4355 H         1 VAL         0.0236
    109 H12       -47.7930   71.5234   30.3423 H         1 VAL         0.1886
    110 H13       -46.0635   72.8132   28.5093 H         1 VAL         0.0819
    111 H14       -48.7004   74.0478   29.3247 H         1 VAL         0.0478
    112 H15       -48.6707   72.4463   28.5116 H         1 VAL         0.0478
    113 H16       -46.8643   73.6520   31.8208 H         1 VAL         0.1883
    114 H17       -46.2257   76.4411   31.6418 H         1 VAL         0.0801
    115 H18       -46.0350   76.3919   34.0374 H         1 VAL         0.0337
    116 H19       -45.8100   74.6098   34.0361 H         1 VAL         0.0337
    117 H20       -48.0368   75.0345   34.7740 H         1 VAL         0.0504
    118 H21       -48.1505   74.4121   33.0928 H         1 VAL         0.0504
    119 H22       -50.5502   77.1381   33.1535 H         1 VAL         0.1814
    120 H23       -50.3721   75.5086   33.7129 H         1 VAL         0.1814
    121 H24       -44.1822   73.5316   32.2544 H         1 VAL         0.1883
    122 H25       -41.6804   74.7674   32.4532 H         1 VAL         0.0800
    123 H26       -40.7834   72.8533   31.1657 H         1 VAL         0.0315
    124 H27       -42.4647   72.3737   30.7535 H         1 VAL         0.0315
    125 H28       -42.7529   72.0638   33.3105 H         1 VAL         0.0298
    126 H29       -41.8974   69.7434   33.0572 H         1 VAL         0.0232
    127 H30       -40.9902   70.2482   31.5913 H         1 VAL         0.0232
    128 H31       -42.7859   70.2940   31.5964 H         1 VAL         0.0232
    129 H32       -40.6137   73.0991   33.9968 H         1 VAL         0.0232
    130 H33       -39.7144   71.8578   33.0603 H         1 VAL         0.0232
    131 H34       -40.7005   71.3715   34.4808 H         1 VAL         0.0232
    132 H35       -40.5696   76.1030   31.1835 H         1 VAL         0.1883
    133 H36       -41.5128   76.4834   28.3751 H         1 VAL         0.0800
    134 H37       -40.6539   78.7358   28.4860 H         1 VAL         0.0313
    135 H38       -39.9024   78.4265   30.0879 H         1 VAL         0.0313
    136 H39       -41.9075   79.8000   30.3342 H         1 VAL         0.0301
    137 H40       -42.1562   78.1902   31.0913 H         1 VAL         0.0301
    138 H41       -43.8538   77.6629   29.6956 H         1 VAL         0.0689
    139 H42       -43.0053   78.3262   28.2579 H         1 VAL         0.0689
    140 H43       -43.9550   80.4699   28.6741 H         1 VAL         0.2642
    141 H44       -46.7730   81.0990   30.6579 H         1 VAL         0.2615
    142 H45       -45.6923   81.7133   29.3783 H         1 VAL         0.2615
    143 H46       -45.0411   78.0464   31.0510 H         1 VAL         0.2615
    144 H47       -46.4114   79.0544   31.5885 H         1 VAL         0.2615
    145 H48       -40.2189   74.4386   28.0944 H         1 VAL         0.1883
    146 H49       -37.3533   74.5587   28.4383 H         1 VAL         0.0800
    147 H50       -39.0026   72.7028   26.6786 H         1 VAL         0.0315
    148 H51       -38.7027   72.4676   28.4340 H         1 VAL         0.0315
    149 H52       -36.1480   72.7038   27.4505 H         1 VAL         0.0298
    150 H53       -36.0353   70.2483   27.7320 H         1 VAL         0.0232
    151 H54       -37.8299   70.1716   27.7363 H         1 VAL         0.0232
    152 H55       -36.9645   71.0327   29.0540 H         1 VAL         0.0232
    153 H56       -36.9711   72.7146   25.1179 H         1 VAL         0.0232
    154 H57       -37.7723   71.1319   25.4002 H         1 VAL         0.0232
    155 H58       -35.9821   71.2586   25.4764 H         1 VAL         0.0232
    156 H59       -39.5372   75.4602   25.7895 H         1 VAL         0.1883
    157 H60       -37.6334   75.5019   23.6978 H         1 VAL         0.0801
    158 H61       -39.9571   75.8322   23.2035 H         1 VAL         0.0330
    159 H62       -39.0560   77.3010   22.6963 H         1 VAL         0.0330
    160 H63       -40.9333   78.2139   23.6674 H         1 VAL         0.0433
    161 H64       -39.7770   78.2180   25.0420 H         1 VAL         0.0433
    162 H65       -37.8870   77.5830   26.5073 H         1 VAL         0.1883
    163 H66       -36.2999   79.7115   25.3032 H         1 VAL         0.0800
    164 H67       -36.2451   80.6459   27.5900 H         1 VAL         0.0313
    165 H68       -37.0212   79.1502   28.2123 H         1 VAL         0.0313
    166 H69       -39.0136   79.6373   26.8323 H         1 VAL         0.0301
    167 H70       -38.2381   81.1608   26.2809 H         1 VAL         0.0301
    168 H71       -38.1318   81.9955   28.5466 H         1 VAL         0.0689
    169 H72       -38.7146   80.4260   29.1974 H         1 VAL         0.0689
    170 H73       -40.6449   81.4706   27.3496 H         1 VAL         0.2642
    171 H74       -40.7603   82.8093   31.1877 H         1 VAL         0.2615
    172 H75       -39.2686   82.0535   30.5662 H         1 VAL         0.2615
    173 H76       -42.5352   82.4313   28.1478 H         1 VAL         0.2615
    174 H77       -42.5936   83.0201   29.8309 H         1 VAL         0.2615
    175 H78       -35.5333   76.6573   26.7540 H         1 VAL         0.1883
    176 H79       -33.1486   77.1854   28.1076 H         1 VAL         0.0800
    177 H80       -33.7584   74.8935   26.1890 H         1 VAL         0.0315
    178 H81       -34.1740   74.9581   27.9354 H         1 VAL         0.0315
    179 H82       -31.3826   74.8778   26.7226 H         1 VAL         0.0298
    180 H83       -30.5935   74.6725   29.0540 H         1 VAL         0.0232
    181 H84       -32.2720   74.9300   29.6395 H         1 VAL         0.0232
    182 H85       -31.4169   76.2414   28.7587 H         1 VAL         0.0232
    183 H86       -32.6139   72.7327   26.6231 H         1 VAL         0.0232
    184 H87       -32.9094   72.8293   28.3923 H         1 VAL         0.0232
    185 H88       -31.2325   72.6665   27.7694 H         1 VAL         0.0232
    186 H89       -31.1884   77.8956   27.5633 H         1 VAL         0.1883
    187 H90       -30.4595   78.0196   24.6902 H         1 VAL         0.0801
    188 H91       -29.8967   80.4545   26.3519 H         1 VAL         0.0337
    189 H92       -31.5804   80.2089   25.7760 H         1 VAL         0.0337
    190 H93       -30.6366   79.9300   23.4541 H         1 VAL         0.0504
    191 H94       -29.0500   80.4511   24.1157 H         1 VAL         0.0504
    192 H95       -30.5347   83.4762   22.7078 H         1 VAL         0.1814
    193 H96       -29.8534   81.9803   22.1617 H         1 VAL         0.1814
    194 H97       -28.2416   78.3280   24.3231 H         1 VAL         0.1875
    195 H98       -26.4923   77.7448   26.6714 H         1 VAL         0.0729
    196 H99       -26.3958   76.6443   23.8291 H         1 VAL         0.0338
    197 H100      -27.8467   75.4958   25.4479 H         1 VAL         0.0267
    198 H101      -26.4665   75.3463   26.5878 H         1 VAL         0.0267
    199 H102      -24.1226   77.3919   24.4723 H         1 VAL         0.0234
    200 H103      -24.2394   75.6011   24.3955 H         1 VAL         0.0234
    201 H104      -24.2390   76.4338   25.9872 H         1 VAL         0.0234
    202 H105      -26.8968   73.2323   25.4163 H         1 VAL         0.0230
    203 H106      -25.2898   73.9018   24.9736 H         1 VAL         0.0230
    204 H107      -26.6700   74.0512   23.8338 H         1 VAL         0.0230
@<TRIPOS>BOND
     1    1    2 1  
     2    2    3 1  
     3    2    5 1  
     4    3    4 2  
     5    3    8 am 
     6    5    6 1  
     7    5    7 1  
     8    8    9 1  
     9    9   10 1  
    10    9   12 1  
    11   10   11 2  
    12   10   16 am 
    13   12   13 1  
    14   13   14 ar 
    15   13   15 ar 
    16   16   17 1  
    17   17   18 1  
    18   17   20 1  
    19   18   19 2  
    20   18   25 am 
    21   20   21 1  
    22   21   22 1  
    23   22   23 2  
    24   22   24 am 
    25   25   26 1  
    26   26   27 1  
    27   26   29 1  
    28   27   28 2  
    29   27   33 am 
    30   29   30 1  
    31   30   31 1  
    32   30   32 1  
    33   33   34 1  
    34   34   35 1  
    35   34   37 1  
    36   35   36 2  
    37   35   44 am 
    38   37   38 1  
    39   38   39 1  
    40   39   40 1  
    41   40   41 ar 
    42   41   42 ar 
    43   41   43 ar 
    44   44   45 1  
    45   45   46 1  
    46   45   48 1  
    47   46   47 2  
    48   46   52 am 
    49   48   49 1  
    50   49   50 1  
    51   49   51 1  
    52   52   53 1  
    53   53   54 1  
    54   53   56 1  
    55   54   55 2  
    56   54   61 am 
    57   56   57 1  
    58   57   58 1  
    59   58   59 ar 
    60   58   60 ar 
    61   61   62 1  
    62   62   63 1  
    63   62   65 1  
    64   63   64 2  
    65   63   72 am 
    66   65   66 1  
    67   66   67 1  
    68   67   68 1  
    69   68   69 ar 
    70   69   70 ar 
    71   69   71 ar 
    72   72   73 1  
    73   73   74 1  
    74   73   76 1  
    75   74   75 2  
    76   74   80 am 
    77   76   77 1  
    78   77   78 1  
    79   77   79 1  
    80   80   81 1  
    81   81   82 1  
    82   81   84 1  
    83   82   83 2  
    84   82   89 am 
    85   84   85 1  
    86   85   86 1  
    87   86   87 2  
    88   86   88 am 
    89   89   90 1  
    90   90   91 1  
    91   90   93 1  
    92   91   92 ar 
    93   91   97 ar 
    94   93   94 1  
    95   93   95 1  
    96   94   96 1  
    97    1   98 1  
    98    1   99 1  
    99    1  100 1  
   100    2  101 1  
   101    5  102 1  
   102    6  103 1  
   103    6  104 1  
   104    6  105 1  
   105    7  106 1  
   106    7  107 1  
   107    7  108 1  
   108    8  109 1  
   109    9  110 1  
   110   12  111 1  
   111   12  112 1  
   112   16  113 1  
   113   17  114 1  
   114   20  115 1  
   115   20  116 1  
   116   21  117 1  
   117   21  118 1  
   118   24  119 1  
   119   24  120 1  
   120   25  121 1  
   121   26  122 1  
   122   29  123 1  
   123   29  124 1  
   124   30  125 1  
   125   31  126 1  
   126   31  127 1  
   127   31  128 1  
   128   32  129 1  
   129   32  130 1  
   130   32  131 1  
   131   33  132 1  
   132   34  133 1  
   133   37  134 1  
   134   37  135 1  
   135   38  136 1  
   136   38  137 1  
   137   39  138 1  
   138   39  139 1  
   139   40  140 1  
   140   42  141 1  
   141   42  142 1  
   142   43  143 1  
   143   43  144 1  
   144   44  145 1  
   145   45  146 1  
   146   48  147 1  
   147   48  148 1  
   148   49  149 1  
   149   50  150 1  
   150   50  151 1  
   151   50  152 1  
   152   51  153 1  
   153   51  154 1  
   154   51  155 1  
   155   52  156 1  
   156   53  157 1  
   157   56  158 1  
   158   56  159 1  
   159   57  160 1  
   160   57  161 1  
   161   61  162 1  
   162   62  163 1  
   163   65  164 1  
   164   65  165 1  
   165   66  166 1  
   166   66  167 1  
   167   67  168 1  
   168   67  169 1  
   169   68  170 1  
   170   70  171 1  
   171   70  172 1  
   172   71  173 1  
   173   71  174 1  
   174   72  175 1  
   175   73  176 1  
   176   76  177 1  
   177   76  178 1  
   178   77  179 1  
   179   78  180 1  
   180   78  181 1  
   181   78  182 1  
   182   79  183 1  
   183   79  184 1  
   184   79  185 1  
   185   80  186 1  
   186   81  187 1  
   187   84  188 1  
   188   84  189 1  
   189   85  190 1  
   190   85  191 1  
   191   88  192 1  
   192   88  193 1  
   193   89  194 1  
   194   90  195 1  
   195   93  196 1  
   196   94  197 1  
   197   94  198 1  
   198   95  199 1  
   199   95  200 1  
   200   95  201 1  
   201   96  202 1  
   202   96  203 1  
   203   96  204 1  
@<TRIPOS>SUBSTRUCTURE
     1 VAL         1

