5uwj_ligand
  -I-interpret- 

205204  0  0  0  0  0  0  0  0999 V2000
  -47.2450   70.6570   32.6690 N   0  3  0  0  0
  -46.0860   70.3620   31.8340 C   0  0  0  0  0
  -45.8360   71.5060   30.8710 C   0  0  0  0  0
  -44.7030   71.9580   30.7080 O   0  0  0  0  0
  -46.2700   69.0510   31.0600 C   0  0  0  0  0
  -44.9860   68.6870   30.3120 C   0  0  0  0  0
  -46.6830   67.9450   32.0060 C   0  0  0  0  0
  -46.9030   71.9600   30.2110 N   0  0  0  0  0
  -46.7760   73.0880   29.3010 C   0  0  0  0  0
  -46.2420   74.3230   30.0130 C   0  0  0  0  0
  -45.6920   75.2160   29.3580 O   0  0  0  0  0
  -48.1270   73.3920   28.6530 C   0  0  0  0  0
  -47.9870   74.0780   27.3070 C   0  0  0  0  0
  -46.9320   74.7020   27.0650 O   0  0  0  0  0
  -48.9300   73.9910   26.4920 O   0  0  0  0  0
  -46.3840   74.3850   31.3390 N   0  0  0  0  0
  -45.8450   75.5120   32.0910 C   0  0  0  0  0
  -44.3220   75.5370   32.0160 C   0  0  0  0  0
  -43.7170   76.6140   31.9680 O   0  0  0  0  0
  -46.3200   75.4510   33.5440 C   0  0  0  0  0
  -47.8320   75.2600   33.7170 C   0  0  0  0  0
  -48.6420   76.4830   33.3190 C   0  0  0  0  0
  -48.0900   77.5180   32.9450 O   0  0  0  0  0
  -49.9640   76.3670   33.4020 N   0  0  0  0  0
  -43.6850   74.3650   32.0130 N   0  0  0  0  0
  -42.2730   74.2850   31.6620 C   0  0  0  0  0
  -42.0410   75.0130   30.3470 C   0  0  0  0  0
  -42.7270   74.7570   29.3540 O   0  0  0  0  0
  -41.8230   72.8260   31.5240 C   0  0  0  0  0
  -41.8440   71.8700   32.7220 C   0  0  0  0  0
  -41.8820   70.4400   32.2060 C   0  0  0  0  0
  -40.6340   72.0630   33.6280 C   0  0  0  0  0
  -41.0810   75.9290   30.3420 N   0  0  0  0  0
  -40.7530   76.6870   29.1440 C   0  0  0  0  0
  -39.3970   76.2130   28.6250 C   0  0  0  0  0
  -38.3980   76.9310   28.6620 O   0  0  0  0  0
  -40.7630   78.2010   29.4410 C   0  0  0  0  0
  -42.0330   78.7250   30.1380 C   0  0  0  0  0
  -43.2990   78.5260   29.2990 C   0  0  0  0  0
  -44.1760   79.7020   29.3240 N   0  0  0  0  0
  -45.2350   79.8590   30.1180 C   0  0  0  0  0
  -45.9540   80.9740   30.0460 N   0  0  0  0  0
  -45.5890   78.9160   30.9840 N   0  0  0  0  0
  -39.3730   74.9700   28.1390 N   0  0  0  0  0
  -38.1220   74.3800   27.6720 C   0  0  0  0  0
  -37.6460   75.0130   26.3700 C   0  0  0  0  0
  -36.4400   75.0250   26.0950 O   0  0  0  0  0
  -38.2880   72.8700   27.4980 C   0  0  0  0  0
  -37.0140   72.0840   27.1750 C   0  0  0  0  0
  -36.9570   70.7950   27.9800 C   0  0  0  0  0
  -36.9290   71.7760   25.6900 C   0  0  0  0  0
  -38.5680   75.5380   25.5560 N   0  0  0  0  0
  -38.1720   76.2240   24.3290 C   0  0  0  0  0
  -37.2430   77.3980   24.6020 C   0  0  0  0  0
  -36.5070   77.8120   23.7000 O   0  0  0  0  0
  -39.4040   76.7140   23.5590 C   0  0  0  0  0
  -40.3640   77.5810   24.3640 C   0  0  0  0  0
  -41.3430   76.7690   25.1900 C   0  0  0  0  0
  -41.7910   75.7020   24.7160 O   0  0  0  0  0
  -41.6560   77.1970   26.3200 O   0  0  0  0  0
  -37.2550   77.9410   25.8200 N   0  0  0  0  0
  -36.3700   79.0430   26.1740 C   0  0  0  0  0
  -34.9650   78.5860   26.5360 C   0  0  0  0  0
  -34.0610   79.4260   26.6060 O   0  0  0  0  0
  -36.9430   79.8300   27.3510 C   0  0  0  0  0
  -38.3040   80.4330   27.1030 C   0  0  0  0  0
  -38.7830   81.1300   28.3550 C   0  0  0  0  0
  -40.1590   81.5970   28.2490 N   0  0  0  0  0
  -40.8250   82.1760   29.2420 C   0  0  0  0  0
  -40.2410   82.3600   30.4200 N   0  0  0  0  0
  -42.0780   82.5720   29.0600 N   0  0  0  0  0
  -34.7630   77.2940   26.7900 N   0  0  0  0  0
  -33.4360   76.7980   27.1190 C   0  0  0  0  0
  -32.4260   77.2850   26.0910 C   0  0  0  0  0
  -32.6340   77.1470   24.8830 O   0  0  0  0  0
  -33.4430   75.2680   27.1740 C   0  0  0  0  0
  -32.0980   74.6220   27.5180 C   0  0  0  0  0
  -31.5580   75.1530   28.8330 C   0  0  0  0  0
  -32.2220   73.1080   27.5800 C   0  0  0  0  0
  -31.3310   77.8650   26.5740 N   0  0  0  0  0
  -30.3380   78.4550   25.6930 C   0  0  0  0  0
  -28.9410   78.1310   26.1980 C   0  0  0  0  0
  -28.7330   77.8750   27.3870 O   0  0  0  0  0
  -30.5230   79.9720   25.5870 C   0  0  0  0  0
  -30.1410   80.5280   24.2330 C   0  0  0  0  0
  -30.5450   81.9740   24.0630 C   0  0  0  0  0
  -31.0850   82.5930   24.9810 O   0  0  0  0  0
  -30.2900   82.5220   22.8800 N   0  0  0  0  0
  -27.9880   78.1400   25.2720 N   0  0  0  0  0
  -26.5900   77.8870   25.5850 C   0  0  0  0  0
  -25.7650   79.1050   25.1800 C   0  0  0  0  0
  -25.4020   79.9320   26.0170 O   0  0  0  0  0
  -26.0940   76.6020   24.8860 C   0  0  0  0  0
  -26.7560   75.3770   25.5270 C   0  0  0  0  0
  -24.5660   76.5000   24.9390 C   0  0  0  0  0
  -26.3770   74.0490   24.8940 C   0  0  0  0  0
  -25.4510   79.2950   24.0030 O   0  0  0  0  0
  -47.0890   71.5329   33.1679 H   0  0  0  0  0
  -48.0737   70.7425   32.0804 H   0  0  0  0  0
  -47.3800   69.9012   33.3405 H   0  0  0  0  0
  -45.2219   70.2445   32.4880 H   0  0  0  0  0
  -47.0607   69.1825   30.3213 H   0  0  0  0  0
  -44.1824   68.5242   31.0302 H   0  0  0  0  0
  -45.1489   67.7770   29.7346 H   0  0  0  0  0
  -44.7151   69.5015   29.6402 H   0  0  0  0  0
  -46.8568   67.0301   31.4395 H   0  0  0  0  0
  -45.8903   67.7773   32.7351 H   0  0  0  0  0
  -47.5984   68.2335   32.5226 H   0  0  0  0  0
  -47.8108   71.5147   30.3449 H   0  0  0  0  0
  -46.0586   72.8164   28.5266 H   0  0  0  0  0
  -48.6738   74.0624   29.3160 H   0  0  0  0  0
  -48.6439   72.4455   28.4950 H   0  0  0  0  0
  -49.6380   73.4702   26.8780 H   0  0  0  0  0
  -46.8739   73.6374   31.8304 H   0  0  0  0  0
  -46.2143   76.4354   31.6448 H   0  0  0  0  0
  -46.0669   76.4078   34.0008 H   0  0  0  0  0
  -45.8370   74.5865   33.9995 H   0  0  0  0  0
  -48.0212   75.0691   34.7734 H   0  0  0  0  0
  -48.1365   74.4381   33.0690 H   0  0  0  0  0
  -50.5618   77.1543   33.1507 H   0  0  0  0  0
  -50.3803   75.4907   33.7170 H   0  0  0  0  0
  -44.1922   73.5150   32.2593 H   0  0  0  0  0
  -41.6906   74.7507   32.4570 H   0  0  0  0  0
  -40.7664   72.9009   31.2670 H   0  0  0  0  0
  -42.5447   72.3936   30.8310 H   0  0  0  0  0
  -42.7307   72.0852   33.3182 H   0  0  0  0  0
  -42.7781   70.2967   31.6021 H   0  0  0  0  0
  -40.9979   70.2512   31.5971 H   0  0  0  0  0
  -41.8972   69.7507   33.0503 H   0  0  0  0  0
  -39.7227   71.8772   33.0595 H   0  0  0  0  0
  -40.6251   73.0848   34.0074 H   0  0  0  0  0
  -40.6917   71.3646   34.4629 H   0  0  0  0  0
  -40.5593   76.1064   31.2004 H   0  0  0  0  0
  -41.5026   76.5156   28.3715 H   0  0  0  0  0
  -40.7024   78.7089   28.4785 H   0  0  0  0  0
  -39.9321   78.3919   30.1202 H   0  0  0  0  0
  -41.9061   79.7954   30.3002 H   0  0  0  0  0
  -42.1576   78.1670   31.0660 H   0  0  0  0  0
  -43.8514   77.6840   29.7160 H   0  0  0  0  0
  -42.9959   78.3528   28.2664 H   0  0  0  0  0
  -43.9571   80.4624   28.6804 H   0  0  0  0  0
  -46.7659   81.0972   30.6510 H   0  0  0  0  0
  -45.6940   81.7067   29.3857 H   0  0  0  0  0
  -45.0473   78.0542   31.0493 H   0  0  0  0  0
  -40.2358   74.4279   28.0935 H   0  0  0  0  0
  -37.3609   74.5758   28.4273 H   0  0  0  0  0
  -38.9550   72.7327   26.6469 H   0  0  0  0  0
  -38.6461   72.4904   28.4549 H   0  0  0  0  0
  -36.1608   72.7045   27.4492 H   0  0  0  0  0
  -36.9646   71.0319   29.0439 H   0  0  0  0  0
  -37.8224   70.1782   27.7377 H   0  0  0  0  0
  -36.0433   70.2542   27.7334 H   0  0  0  0  0
  -37.7930   71.1813   25.3936 H   0  0  0  0  0
  -36.9181   72.7091   25.1267 H   0  0  0  0  0
  -36.0151   71.2173   25.4878 H   0  0  0  0  0
  -39.5566   75.4586   25.7942 H   0  0  0  0  0
  -37.6293   75.4976   23.7242 H   0  0  0  0  0
  -39.9598   75.8263   23.2569 H   0  0  0  0  0
  -39.0373   77.3298   22.7378 H   0  0  0  0  0
  -40.9405   78.1809   23.6598 H   0  0  0  0  0
  -39.7707   78.1850   25.0505 H   0  0  0  0  0
  -41.4229   75.5627   23.8404 H   0  0  0  0  0
  -37.8996   77.5758   26.5211 H   0  0  0  0  0
  -36.3017   79.6712   25.2859 H   0  0  0  0  0
  -36.2595   80.6571   27.5426 H   0  0  0  0  0
  -37.0524   79.1289   28.1784 H   0  0  0  0  0
  -39.0071   79.6443   26.8351 H   0  0  0  0  0
  -38.2384   81.1544   26.2885 H   0  0  0  0  0
  -38.1465   81.9999   28.5174 H   0  0  0  0  0
  -38.7356   80.4136   29.1751 H   0  0  0  0  0
  -40.6401   81.4718   27.3584 H   0  0  0  0  0
  -40.7555   82.8042   31.1805 H   0  0  0  0  0
  -39.2778   82.0572   30.5646 H   0  0  0  0  0
  -42.5310   82.4320   28.1569 H   0  0  0  0  0
  -35.5487   76.6446   26.7533 H   0  0  0  0  0
  -33.1498   77.1805   28.0987 H   0  0  0  0  0
  -33.7113   74.9201   26.1764 H   0  0  0  0  0
  -34.1371   74.9864   27.9658 H   0  0  0  0  0
  -31.3966   74.8821   26.7253 H   0  0  0  0  0
  -31.4187   76.2315   28.7581 H   0  0  0  0  0
  -32.2664   74.9314   29.6312 H   0  0  0  0  0
  -30.6023   74.6762   29.0509 H   0  0  0  0  0
  -32.9480   72.8353   28.3459 H   0  0  0  0  0
  -32.5542   72.7320   26.6123 H   0  0  0  0  0
  -31.2524   72.6751   27.8260 H   0  0  0  0  0
  -31.1855   77.8962   27.5831 H   0  0  0  0  0
  -30.4691   78.0303   24.6977 H   0  0  0  0  0
  -29.8731   80.4358   26.3290 H   0  0  0  0  0
  -31.5798   80.1869   25.7452 H   0  0  0  0  0
  -30.6588   79.9436   23.4724 H   0  0  0  0  0
  -29.0565   80.4699   24.1406 H   0  0  0  0  0
  -30.5434   83.4940   22.7029 H   0  0  0  0  0
  -29.8408   81.9707   22.1488 H   0  0  0  0  0
  -28.2467   78.3317   24.3042 H   0  0  0  0  0
  -26.4761   77.7259   26.6570 H   0  0  0  0  0
  -26.3777   76.6413   23.8343 H   0  0  0  0  0
  -27.8322   75.4942   25.3999 H   0  0  0  0  0
  -26.4225   75.3416   26.5641 H   0  0  0  0  0
  -24.1279   77.3623   24.4364 H   0  0  0  0  0
  -24.2403   76.4798   25.9790 H   0  0  0  0  0
  -24.2466   75.5855   24.4391 H   0  0  0  0  0
  -26.6678   74.0525   23.8435 H   0  0  0  0  0
  -25.2996   73.9044   24.9735 H   0  0  0  0  0
  -26.8926   73.2406   25.4124 H   0  0  0  0  0
  -25.7952   78.5806   23.4618 H   0  0  0  0  0
  1  2  1  0  0  0
  2  3  1  0  0  0
  2  5  1  0  0  0
  3  4  2  0  0  0
  3  8  1  0  0  0
  5  6  1  0  0  0
  5  7  1  0  0  0
  8  9  1  0  0  0
  9 10  1  0  0  0
  9 12  1  0  0  0
 10 11  2  0  0  0
 10 16  1  0  0  0
 12 13  1  0  0  0
 13 14  2  0  0  0
 13 15  1  0  0  0
 16 17  1  0  0  0
 17 18  1  0  0  0
 17 20  1  0  0  0
 18 19  2  0  0  0
 18 25  1  0  0  0
 20 21  1  0  0  0
 21 22  1  0  0  0
 22 23  2  0  0  0
 22 24  1  0  0  0
 25 26  1  0  0  0
 26 27  1  0  0  0
 26 29  1  0  0  0
 27 28  2  0  0  0
 27 33  1  0  0  0
 29 30  1  0  0  0
 30 31  1  0  0  0
 30 32  1  0  0  0
 33 34  1  0  0  0
 34 35  1  0  0  0
 34 37  1  0  0  0
 35 36  2  0  0  0
 35 44  1  0  0  0
 37 38  1  0  0  0
 38 39  1  0  0  0
 39 40  1  0  0  0
 40 41  1  0  0  0
 41 42  1  0  0  0
 41 43  2  0  0  0
 44 45  1  0  0  0
 45 46  1  0  0  0
 45 48  1  0  0  0
 46 47  2  0  0  0
 46 52  1  0  0  0
 48 49  1  0  0  0
 49 50  1  0  0  0
 49 51  1  0  0  0
 52 53  1  0  0  0
 53 54  1  0  0  0
 53 56  1  0  0  0
 54 55  2  0  0  0
 54 61  1  0  0  0
 56 57  1  0  0  0
 57 58  1  0  0  0
 58 59  1  0  0  0
 58 60  2  0  0  0
 61 62  1  0  0  0
 62 63  1  0  0  0
 62 65  1  0  0  0
 63 64  2  0  0  0
 63 72  1  0  0  0
 65 66  1  0  0  0
 66 67  1  0  0  0
 67 68  1  0  0  0
 68 69  1  0  0  0
 69 70  1  0  0  0
 69 71  2  0  0  0
 72 73  1  0  0  0
 73 74  1  0  0  0
 73 76  1  0  0  0
 74 75  2  0  0  0
 74 80  1  0  0  0
 76 77  1  0  0  0
 77 78  1  0  0  0
 77 79  1  0  0  0
 80 81  1  0  0  0
 81 82  1  0  0  0
 81 84  1  0  0  0
 82 83  2  0  0  0
 82 89  1  0  0  0
 84 85  1  0  0  0
 85 86  1  0  0  0
 86 87  2  0  0  0
 86 88  1  0  0  0
 89 90  1  0  0  0
 90 91  1  0  0  0
 90 93  1  0  0  0
 91 92  2  0  0  0
 91 97  1  0  0  0
 93 94  1  0  0  0
 93 95  1  0  0  0
 94 96  1  0  0  0
  1 98  1  0  0  0
  1 99  1  0  0  0
  1100  1  0  0  0
  2101  1  0  0  0
  5102  1  0  0  0
  6103  1  0  0  0
  6104  1  0  0  0
  6105  1  0  0  0
  7106  1  0  0  0
  7107  1  0  0  0
  7108  1  0  0  0
  8109  1  0  0  0
  9110  1  0  0  0
 12111  1  0  0  0
 12112  1  0  0  0
 15113  1  0  0  0
 16114  1  0  0  0
 17115  1  0  0  0
 20116  1  0  0  0
 20117  1  0  0  0
 21118  1  0  0  0
 21119  1  0  0  0
 24120  1  0  0  0
 24121  1  0  0  0
 25122  1  0  0  0
 26123  1  0  0  0
 29124  1  0  0  0
 29125  1  0  0  0
 30126  1  0  0  0
 31127  1  0  0  0
 31128  1  0  0  0
 31129  1  0  0  0
 32130  1  0  0  0
 32131  1  0  0  0
 32132  1  0  0  0
 33133  1  0  0  0
 34134  1  0  0  0
 37135  1  0  0  0
 37136  1  0  0  0
 38137  1  0  0  0
 38138  1  0  0  0
 39139  1  0  0  0
 39140  1  0  0  0
 40141  1  0  0  0
 42142  1  0  0  0
 42143  1  0  0  0
 43144  1  0  0  0
 44145  1  0  0  0
 45146  1  0  0  0
 48147  1  0  0  0
 48148  1  0  0  0
 49149  1  0  0  0
 50150  1  0  0  0
 50151  1  0  0  0
 50152  1  0  0  0
 51153  1  0  0  0
 51154  1  0  0  0
 51155  1  0  0  0
 52156  1  0  0  0
 53157  1  0  0  0
 56158  1  0  0  0
 56159  1  0  0  0
 57160  1  0  0  0
 57161  1  0  0  0
 59162  1  0  0  0
 61163  1  0  0  0
 62164  1  0  0  0
 65165  1  0  0  0
 65166  1  0  0  0
 66167  1  0  0  0
 66168  1  0  0  0
 67169  1  0  0  0
 67170  1  0  0  0
 68171  1  0  0  0
 70172  1  0  0  0
 70173  1  0  0  0
 71174  1  0  0  0
 72175  1  0  0  0
 73176  1  0  0  0
 76177  1  0  0  0
 76178  1  0  0  0
 77179  1  0  0  0
 78180  1  0  0  0
 78181  1  0  0  0
 78182  1  0  0  0
 79183  1  0  0  0
 79184  1  0  0  0
 79185  1  0  0  0
 80186  1  0  0  0
 81187  1  0  0  0
 84188  1  0  0  0
 84189  1  0  0  0
 85190  1  0  0  0
 85191  1  0  0  0
 88192  1  0  0  0
 88193  1  0  0  0
 89194  1  0  0  0
 90195  1  0  0  0
 93196  1  0  0  0
 94197  1  0  0  0
 94198  1  0  0  0
 95199  1  0  0  0
 95200  1  0  0  0
 95201  1  0  0  0
 96202  1  0  0  0
 96203  1  0  0  0
 96204  1  0  0  0
 97205  1  0  0  0
M  END
$$$$
