4mx5_ligand
  -I-interpret- 

 31 32  0  0  0  0  0  0  0  0999 V2000
   24.2010  -10.0330   -6.5600 N   0  0  0  0  0
   23.8690   -8.7500   -6.4310 C   0  0  0  0  0
   24.1900   -8.0540   -5.3140 N   0  0  0  0  0
   23.0240   -8.1620   -7.3750 N   0  0  0  0  0
   22.7190   -8.8790   -8.5100 C   0  0  0  0  0
   21.9160   -8.3120   -9.2950 O   0  0  0  0  0
   22.8000  -10.9820   -9.7330 N   0  0  0  0  0
   23.2670  -12.2560   -9.8350 C   0  0  0  0  0
   24.2020  -12.6990   -8.8690 C   0  0  0  0  0
   24.4240  -11.9810   -7.7600 N   0  0  0  0  0
   23.0730  -10.2130   -8.6350 C   0  0  0  0  0
   23.9400  -10.7170   -7.6610 C   0  0  0  0  0
   24.7430  -14.0140   -9.0310 C   0  0  0  0  0
   25.5380  -14.4810   -8.2200 O   0  0  0  0  0
   24.6650  -14.5640  -10.2770 N   0  0  0  0  0
   25.1940  -15.8940  -10.5340 C   0  0  0  0  0
   26.5260  -15.7860  -11.3210 C   0  0  0  0  0
   27.4580  -14.7380  -10.8460 N   0  0  0  0  0
   28.7090  -15.0260  -10.4280 C   0  0  0  0  0
   29.4350  -14.0940  -10.0090 O   0  0  0  0  0
   29.1510  -16.2170  -10.4670 O   0  0  0  0  0
   24.6710  -10.5024   -5.7859 H   0  0  0  0  0
   23.8159   -7.1157   -5.1726 H   0  0  0  0  0
   22.9315  -12.9150  -10.6358 H   0  0  0  0  0
   24.2316  -14.0374  -11.0355 H   0  0  0  0  0
   24.4727  -16.4615  -11.1221 H   0  0  0  0  0
   25.3756  -16.3993   -9.5854 H   0  0  0  0  0
   26.2626  -15.5280  -12.3467 H   0  0  0  0  0
   27.0395  -16.7396  -11.1980 H   0  0  0  0  0
   27.1448  -13.7673  -10.8342 H   0  0  0  0  0
   28.4695  -16.7989  -10.8113 H   0  0  0  0  0
  2  1  1  0  0  0
  1 12  1  0  0  0
  2  3  2  0  0  0
  4  2  4  0  0  0
  5  4  1  0  0  0
  5  6  2  0  0  0
 11  5  1  0  0  0
  7  8  4  0  0  0
  7 11  4  0  0  0
  8  9  4  0  0  0
  9 10  4  0  0  0
  9 13  1  0  0  0
 10 12  4  0  0  0
 11 12  4  0  0  0
 13 14  2  0  0  0
 13 15  1  0  0  0
 15 16  1  0  0  0
 16 17  1  0  0  0
 17 18  1  0  0  0
 18 19  1  0  0  0
 19 20  2  0  0  0
 19 21  1  0  0  0
  1 22  1  0  0  0
  3 23  1  0  0  0
  8 24  1  0  0  0
 15 25  1  0  0  0
 16 26  1  0  0  0
 16 27  1  0  0  0
 17 28  1  0  0  0
 17 29  1  0  0  0
 18 30  1  0  0  0
 21 31  1  0  0  0
M  END
$$$$
