2xhx_ligand
  -I-interpret- 

 43 45  0  0  0  0  0  0  0  0999 V2000
   14.4960    0.2930   10.6960 C   0  0  0  0  0
   14.2290   -0.4780    9.4040 C   0  0  0  0  0
   12.8260   -0.1170    8.9130 C   0  0  0  0  0
   14.3500   -1.9990    9.6510 C   0  0  0  0  0
   15.3730   -2.7250    9.0530 C   0  0  0  0  0
   15.5160   -4.0870    9.2550 C   0  0  0  0  0
   16.6230   -4.8290    8.5900 C   0  0  0  0  0
   17.3400   -5.5640    9.2570 O   0  0  0  0  0
   16.7870   -4.6610    7.2330 N   0  0  0  0  0
   18.0480   -4.9270    6.5190 C   0  0  0  0  0
   17.5620   -5.3820    5.1710 C   0  0  0  0  0
   18.2620   -5.9570    4.1200 C   0  0  0  0  0
   17.6030   -6.3020    2.9620 C   0  0  0  0  0
   16.2430   -6.0740    2.8420 C   0  0  0  0  0
   15.5420   -5.5010    3.8810 C   0  0  0  0  0
   16.1960   -5.1520    5.0490 C   0  0  0  0  0
   15.6570   -4.5210    6.3000 C   0  0  0  0  0
   14.6250   -4.7510   10.0720 C   0  0  0  0  0
   13.6060   -4.0690   10.6810 C   0  0  0  0  0
   15.2390   -0.0040    8.3530 C   0  0  0  0  0
   13.4570   -2.7080   10.4840 C   0  0  0  0  0
   12.4260   -2.0770   11.1130 O   0  0  0  0  0
   15.5131    0.0933   11.0332 H   0  0  0  0  0
   14.3759    1.3606   10.5119 H   0  0  0  0  0
   13.7888   -0.0269   11.4612 H   0  0  0  0  0
   12.7545    0.9629    8.7833 H   0  0  0  0  0
   12.6373   -0.6120    7.9604 H   0  0  0  0  0
   12.0899   -0.4456    9.6467 H   0  0  0  0  0
   16.0824   -2.2077    8.4070 H   0  0  0  0  0
   18.6774   -5.6630    7.0192 H   0  0  0  0  0
   18.7038   -4.0579    6.4679 H   0  0  0  0  0
   19.3334   -6.1354    4.2114 H   0  0  0  0  0
   18.1532   -6.7557    2.1377 H   0  0  0  0  0
   15.7250   -6.3485    1.9231 H   0  0  0  0  0
   14.4712   -5.3226    3.7824 H   0  0  0  0  0
   15.3432   -3.4868    6.1581 H   0  0  0  0  0
   14.7427   -4.9934    6.6593 H   0  0  0  0  0
   14.7326   -5.8236   10.2335 H   0  0  0  0  0
   12.9072   -4.6022   11.3256 H   0  0  0  0  0
   16.2498   -0.2211    8.6984 H   0  0  0  0  0
   15.0551   -0.5248    7.4133 H   0  0  0  0  0
   15.1279    1.0698    8.2025 H   0  0  0  0  0
   11.9304   -2.7151   11.6315 H   0  0  0  0  0
  1  2  1  0  0  0
  2  3  1  0  0  0
  2  4  1  0  0  0
  2 20  1  0  0  0
  4  5  4  0  0  0
  4 21  4  0  0  0
  5  6  4  0  0  0
  6  7  1  0  0  0
  6 18  4  0  0  0
  7  8  2  0  0  0
  7  9  1  0  0  0
  9 10  1  0  0  0
  9 17  1  0  0  0
 10 11  1  0  0  0
 11 12  4  0  0  0
 11 16  4  0  0  0
 12 13  4  0  0  0
 13 14  4  0  0  0
 14 15  4  0  0  0
 15 16  4  0  0  0
 16 17  1  0  0  0
 18 19  4  0  0  0
 19 21  4  0  0  0
 21 22  1  0  0  0
  1 23  1  0  0  0
  1 24  1  0  0  0
  1 25  1  0  0  0
  3 26  1  0  0  0
  3 27  1  0  0  0
  3 28  1  0  0  0
  5 29  1  0  0  0
 10 30  1  0  0  0
 10 31  1  0  0  0
 12 32  1  0  0  0
 13 33  1  0  0  0
 14 34  1  0  0  0
 15 35  1  0  0  0
 17 36  1  0  0  0
 17 37  1  0  0  0
 18 38  1  0  0  0
 19 39  1  0  0  0
 20 40  1  0  0  0
 20 41  1  0  0  0
 20 42  1  0  0  0
 22 43  1  0  0  0
M  END
$$$$
