3s53_ligand
  -I-interpret- 

 75 78  0  0  0  0  0  0  0  0999 V2000
   -1.2440    8.3360   29.7810 N   0  0  0  0  0
   -0.8030    8.5720   31.0660 C   0  0  0  0  0
    0.4490    8.0710   31.4570 C   0  0  0  0  0
    0.9160    8.3050   32.7560 C   0  0  0  0  0
    0.1540    9.1080   33.6220 C   0  0  0  0  0
   -1.1190    9.5580   33.2650 C   0  0  0  0  0
   -1.6240    9.2630   31.9770 C   0  0  0  0  0
    0.7610    9.3110   35.3580 S   0  0  0  0  0
    2.3390    9.1590   35.2590 O   0  0  0  0  0
    0.4090   10.7540   35.8810 O   0  0  0  0  0
    0.1140    8.0290   36.4110 N   0  0  0  0  0
   -1.3590    7.9720   36.6140 C   0  0  0  0  0
   -1.7940    7.5460   38.0440 C   0  0  0  0  0
   -1.2610    8.6020   39.0030 C   0  0  0  0  0
   -3.3170    7.5300   38.0270 C   0  0  0  0  0
    0.8010    6.6770   36.2480 C   0  0  0  0  0
    1.5450    6.2760   37.5920 C   0  0  0  0  0
    2.0420    4.9460   37.4960 O   0  0  0  0  0
    2.7300    7.2540   37.8760 C   0  0  0  0  0
    3.2130    7.1380   39.2160 N   0  0  0  0  0
    3.0130    8.0430   40.2250 C   0  0  0  0  0
    2.5170    9.2020   40.0700 O   0  0  0  0  0
    3.4170    7.5250   41.5080 O   0  0  0  0  0
    3.4780    8.5330   42.5940 C   0  0  0  0  0
    3.0180    7.7640   43.8750 C   0  0  0  0  0
    4.0850    6.8150   44.1540 O   0  0  0  0  0
    5.2600    7.5420   43.7840 C   0  0  0  0  0
    6.1770    6.6890   43.0700 O   0  0  0  0  0
    6.2860    7.3260   41.7750 C   0  0  0  0  0
    6.0380    8.8360   42.0080 C   0  0  0  0  0
    4.9330    8.7360   43.0190 C   0  0  0  0  0
    3.9630    7.0410   36.9160 C   0  0  0  0  0
    6.2770    7.3910   37.9630 C   0  0  0  0  0
    7.3630    8.2190   38.3560 C   0  0  0  0  0
    7.2310    9.6040   38.1820 C   0  0  0  0  0
    6.1460   10.1320   37.4660 C   0  0  0  0  0
    5.0530    9.3100   37.0870 C   0  0  0  0  0
    5.1470    7.9240   37.3220 C   0  0  0  0  0
   -0.6633    7.8051   29.1319 H   0  0  0  0  0
   -2.1509    8.6924   29.4795 H   0  0  0  0  0
    1.0551    7.5021   30.7519 H   0  0  0  0  0
    1.8577    7.8703   33.0911 H   0  0  0  0  0
   -1.7180   10.1314   33.9725 H   0  0  0  0  0
   -2.6323    9.5658   31.6946 H   0  0  0  0  0
   -1.7481    7.2226   35.9247 H   0  0  0  0  0
   -1.7438    8.9784   36.4491 H   0  0  0  0  0
   -1.4169    6.5706   38.3513 H   0  0  0  0  0
   -0.1745    8.6452   38.9266 H   0  0  0  0  0
   -1.6836    9.5727   38.7438 H   0  0  0  0  0
   -1.5447    8.3413   40.0226 H   0  0  0  0  0
   -3.6868    8.5253   37.7807 H   0  0  0  0  0
   -3.6633    6.8169   37.2789 H   0  0  0  0  0
   -3.6870    7.2364   39.0093 H   0  0  0  0  0
    1.5311    6.7422   35.4413 H   0  0  0  0  0
    0.0511    5.9209   36.0155 H   0  0  0  0  0
    0.8295    6.3388   38.4119 H   0  0  0  0  0
    2.4897    4.7132   38.3127 H   0  0  0  0  0
    2.3056    8.2430   37.7032 H   0  0  0  0  0
    3.7565    6.3050   39.4420 H   0  0  0  0  0
    2.9458    9.4305   42.2787 H   0  0  0  0  0
    2.0630    7.2616   43.7212 H   0  0  0  0  0
    2.8529    8.4412   44.7130 H   0  0  0  0  0
    5.7514    7.8769   44.6975 H   0  0  0  0  0
    5.5598    6.9141   41.0743 H   0  0  0  0  0
    7.2690    7.1543   41.3363 H   0  0  0  0  0
    5.7928    9.4064   41.1121 H   0  0  0  0  0
    6.9110    9.4015   42.3338 H   0  0  0  0  0
    4.9225    9.7185   43.4908 H   0  0  0  0  0
    3.6630    7.3088   35.9029 H   0  0  0  0  0
    4.2726    5.9977   36.9767 H   0  0  0  0  0
    6.3221    6.3205   38.1632 H   0  0  0  0  0
    8.2711    7.7904   38.7799 H   0  0  0  0  0
    7.9772   10.2758   38.6063 H   0  0  0  0  0
    6.1426   11.1883   37.1971 H   0  0  0  0  0
    4.1637    9.7398   36.6260 H   0  0  0  0  0
  2  1  1  0  0  0
  3  2  4  0  0  0
  7  2  4  0  0  0
  4  3  4  0  0  0
  5  4  4  0  0  0
  5  6  4  0  0  0
  8  5  1  0  0  0
  6  7  4  0  0  0
  8  9  2  0  0  0
  8 10  2  0  0  0
 11  8  1  0  0  0
 11 12  1  0  0  0
 16 11  1  0  0  0
 12 13  1  0  0  0
 13 14  1  0  0  0
 13 15  1  0  0  0
 17 16  1  0  0  0
 17 18  1  0  0  0
 19 17  1  0  0  0
 19 20  1  0  0  0
 32 19  1  0  0  0
 20 21  1  0  0  0
 21 22  2  0  0  0
 21 23  1  0  0  0
 23 24  1  0  0  0
 24 25  1  0  0  0
 24 31  1  0  0  0
 25 26  1  0  0  0
 27 26  1  0  0  0
 27 28  1  0  0  0
 31 27  1  0  0  0
 29 28  1  0  0  0
 30 29  1  0  0  0
 31 30  1  0  0  0
 38 32  1  0  0  0
 33 34  4  0  0  0
 33 38  4  0  0  0
 34 35  4  0  0  0
 35 36  4  0  0  0
 36 37  4  0  0  0
 37 38  4  0  0  0
  1 39  1  0  0  0
  1 40  1  0  0  0
  3 41  1  0  0  0
  4 42  1  0  0  0
  6 43  1  0  0  0
  7 44  1  0  0  0
 12 45  1  0  0  0
 12 46  1  0  0  0
 13 47  1  0  0  0
 14 48  1  0  0  0
 14 49  1  0  0  0
 14 50  1  0  0  0
 15 51  1  0  0  0
 15 52  1  0  0  0
 15 53  1  0  0  0
 16 54  1  0  0  0
 16 55  1  0  0  0
 17 56  1  0  0  0
 18 57  1  0  0  0
 19 58  1  0  0  0
 20 59  1  0  0  0
 24 60  1  0  0  0
 25 61  1  0  0  0
 25 62  1  0  0  0
 27 63  1  0  0  0
 29 64  1  0  0  0
 29 65  1  0  0  0
 30 66  1  0  0  0
 30 67  1  0  0  0
 31 68  1  0  0  0
 32 69  1  0  0  0
 32 70  1  0  0  0
 33 71  1  0  0  0
 34 72  1  0  0  0
 35 73  1  0  0  0
 36 74  1  0  0  0
 37 75  1  0  0  0
M  END
$$$$
