2r3t_ligand
  -I-interpret- 

 79 83  0  0  0  0  0  0  0  0999 V2000
   -8.8560   15.2040  -14.5190 C   0  0  0  0  0
  -16.6750   24.2070  -22.0810 O   0  0  0  0  0
   -5.3090   14.6220  -15.4730 N   0  0  0  0  0
  -14.0280   23.7510  -21.1890 C   0  0  0  0  0
   -6.9840   13.1880  -15.0080 O   0  0  0  0  0
  -17.1320   25.4280  -20.2760 N   0  0  0  0  0
   -7.2560   16.7100  -15.6670 C   0  0  0  0  0
   -7.5770   15.4330  -15.1340 C   0  0  0  0  0
  -15.0750   23.7590  -18.9610 C   0  0  0  0  0
  -15.0980   24.0630  -20.3340 C   0  0  0  0  0
  -13.2480   18.2880  -15.1280 C   0  0  0  0  0
  -16.3710   24.5780  -20.9630 C   0  0  0  0  0
  -10.5910   18.8980  -14.8950 S   0  0  0  0  0
   -6.6000   14.3370  -15.2080 C   0  0  0  0  0
  -11.3000   22.2570  -18.5320 S   0  0  0  0  0
  -10.0180   20.0970  -15.4980 O   0  0  0  0  0
  -11.4040   22.5550  -17.1220 O   0  0  0  0  0
  -14.0340   19.6180  -14.9870 C   0  0  0  0  0
  -13.3550   20.7890  -14.5110 C   0  0  0  0  0
  -15.4240   19.6830  -15.3130 C   0  0  0  0  0
   -9.8060   16.2640  -14.4470 C   0  0  0  0  0
  -12.8310   23.2050  -20.6520 C   0  0  0  0  0
   -8.2030   17.7640  -15.5770 C   0  0  0  0  0
  -13.8760   23.2230  -18.4170 C   0  0  0  0  0
  -12.3390   17.4940  -18.1480 C   0  0  0  0  0
  -13.7340   17.9410  -18.4250 N   0  3  0  0  0
  -11.7160   18.6200  -17.3100 C   0  0  0  0  0
  -12.4380   19.9220  -17.8440 C   0  0  0  0  0
  -13.7880   19.4270  -18.4500 C   0  0  0  0  0
   -9.4750   17.5470  -14.9670 C   0  0  0  0  0
  -12.7730   22.9430  -19.2640 C   0  0  0  0  0
  -11.9680   18.5480  -15.8340 N   0  0  0  0  0
  -14.1250   21.9950  -14.4160 C   0  0  0  0  0
  -16.1880   20.8870  -15.2230 C   0  0  0  0  0
  -15.5070   22.0490  -14.7570 C   0  0  0  0  0
  -11.5950   20.6110  -18.8790 N   0  0  0  0  0
  -11.1050   19.9900  -20.1360 C   0  0  0  0  0
   -9.7930   19.2250  -20.0450 C   0  0  0  0  0
   -8.8670   19.5250  -19.0210 C   0  0  0  0  0
   -7.6590   18.7640  -18.9940 C   0  0  0  0  0
   -7.4070   17.7830  -19.9920 C   0  0  0  0  0
   -9.5610   18.2190  -21.0240 C   0  0  0  0  0
   -8.3600   17.4650  -20.9910 C   0  0  0  0  0
  -10.2400   22.7050  -19.4280 O   0  0  0  0  0
  -11.0080   18.9390  -13.4720 O   0  0  0  0  0
   -9.0983   14.2234  -14.1093 H   0  0  0  0  0
   -4.6188   13.8720  -15.5119 H   0  0  0  0  0
   -5.0226   15.5876  -15.6345 H   0  0  0  0  0
  -14.1156   23.9272  -22.2611 H   0  0  0  0  0
  -17.9951   25.7854  -20.6856 H   0  0  0  0  0
  -16.8518   25.7216  -19.3402 H   0  0  0  0  0
   -6.2895   16.8795  -16.1417 H   0  0  0  0  0
  -15.9497   23.9292  -18.3333 H   0  0  0  0  0
  -13.8405   17.5723  -15.6978 H   0  0  0  0  0
  -13.0429   17.8784  -14.1389 H   0  0  0  0  0
  -12.3011   20.7630  -14.2340 H   0  0  0  0  0
  -15.9238   18.7731  -15.6452 H   0  0  0  0  0
  -10.7830   16.0927  -13.9951 H   0  0  0  0  0
  -11.9771   22.9931  -21.2955 H   0  0  0  0  0
   -7.9565   18.7474  -15.9772 H   0  0  0  0  0
  -13.8040   23.0268  -17.3472 H   0  0  0  0  0
  -11.7813   17.3212  -19.0684 H   0  0  0  0  0
  -12.3190   16.5407  -17.6199 H   0  0  0  0  0
  -14.3526   17.5923  -17.6928 H   0  0  0  0  0
  -14.0328   17.5764  -19.3295 H   0  0  0  0  0
  -10.6321   18.5759  -17.4166 H   0  0  0  0  0
  -12.6014   20.6524  -17.0515 H   0  0  0  0  0
  -14.6364   19.7991  -17.8757 H   0  0  0  0  0
  -13.9222   19.7983  -19.4660 H   0  0  0  0  0
  -13.6343   22.9046  -14.0698 H   0  0  0  0  0
  -17.2424   20.9155  -15.4979 H   0  0  0  0  0
  -16.0496   22.9894  -14.6605 H   0  0  0  0  0
  -10.9294   20.8110  -20.8311 H   0  0  0  0  0
  -11.8609   19.2613  -20.4286 H   0  0  0  0  0
   -9.0659   20.3031  -18.2840 H   0  0  0  0  0
   -6.9269   18.9359  -18.2049 H   0  0  0  0  0
   -6.4510   17.2594  -19.9884 H   0  0  0  0  0
  -10.3046   18.0281  -21.7978 H   0  0  0  0  0
   -8.1763   16.6671  -21.7106 H   0  0  0  0  0
  1  8  4  0  0  0
 21  1  4  0  0  0
 12  2  2  0  0  0
 14  3  1  0  0  0
  4 10  4  0  0  0
 22  4  4  0  0  0
 14  5  2  0  0  0
 12  6  1  0  0  0
  7  8  4  0  0  0
 23  7  4  0  0  0
  8 14  1  0  0  0
  9 10  4  0  0  0
 24  9  4  0  0  0
 10 12  1  0  0  0
 11 18  1  0  0  0
 32 11  1  0  0  0
 13 16  2  0  0  0
 13 30  1  0  0  0
 32 13  1  0  0  0
 13 45  2  0  0  0
 15 17  2  0  0  0
 15 31  1  0  0  0
 36 15  1  0  0  0
 15 44  2  0  0  0
 18 19  4  0  0  0
 18 20  4  0  0  0
 19 33  4  0  0  0
 20 34  4  0  0  0
 30 21  4  0  0  0
 31 22  4  0  0  0
 30 23  4  0  0  0
 31 24  4  0  0  0
 26 25  1  0  0  0
 27 25  1  0  0  0
 29 26  1  0  0  0
 28 27  1  0  0  0
 27 32  1  0  0  0
 28 29  1  0  0  0
 28 36  1  0  0  0
 33 35  4  0  0  0
 34 35  4  0  0  0
 36 37  1  0  0  0
 37 38  1  0  0  0
 38 39  4  0  0  0
 38 42  4  0  0  0
 39 40  4  0  0  0
 40 41  4  0  0  0
 41 43  4  0  0  0
 42 43  4  0  0  0
  1 46  1  0  0  0
  3 47  1  0  0  0
  3 48  1  0  0  0
  4 49  1  0  0  0
  6 50  1  0  0  0
  6 51  1  0  0  0
  7 52  1  0  0  0
  9 53  1  0  0  0
 11 54  1  0  0  0
 11 55  1  0  0  0
 19 56  1  0  0  0
 20 57  1  0  0  0
 21 58  1  0  0  0
 22 59  1  0  0  0
 23 60  1  0  0  0
 24 61  1  0  0  0
 25 62  1  0  0  0
 25 63  1  0  0  0
 26 64  1  0  0  0
 26 65  1  0  0  0
 27 66  1  0  0  0
 28 67  1  0  0  0
 29 68  1  0  0  0
 29 69  1  0  0  0
 33 70  1  0  0  0
 34 71  1  0  0  0
 35 72  1  0  0  0
 37 73  1  0  0  0
 37 74  1  0  0  0
 39 75  1  0  0  0
 40 76  1  0  0  0
 41 77  1  0  0  0
 42 78  1  0  0  0
 43 79  1  0  0  0
M  END
$$$$
