2h23_ligand
  -I-interpret- 

 47 49  0  0  0  0  0  0  0  0999 V2000
   71.0850  132.9670   50.9430 N   0  3  0  0  0
   69.7460  132.6790   51.4690 C   0  0  0  0  0
   69.2720  133.8340   52.4020 C   0  0  0  0  0
   69.7350  133.7380   53.8290 C   0  0  0  0  0
   68.7790  132.6310   54.9320 S   0  0  0  0  0
   68.7440  132.4420   50.2910 C   0  0  0  0  0
   67.5240  132.3440   50.5380 O   0  0  0  0  0
   69.1720  132.3460   49.1120 O   0  0  0  0  0
   70.1360  131.6860   55.6100 C   0  0  0  0  0
   70.5640  130.4930   54.7690 C   0  0  0  0  0
   71.4030  130.9560   53.6680 O   0  0  0  0  0
   71.4380  129.4750   55.5010 C   0  0  0  0  0
   70.7030  128.4750   56.1960 O   0  0  0  0  0
   72.3180  128.9210   54.4000 C   0  0  0  0  0
   71.8060  127.8480   53.6290 O   0  0  0  0  0
   72.6100  130.2100   53.6330 C   0  0  0  0  0
   73.7440  130.9960   54.2060 N   0  0  0  0  0
   73.7430  132.1720   54.9520 C   0  0  0  0  0
   74.9280  132.5940   55.3050 N   0  0  0  0  0
   75.7880  131.6390   54.7610 C   0  0  0  0  0
   77.2140  131.4860   54.7720 C   0  0  0  0  0
   78.0340  132.3370   55.3850 N   0  0  0  0  0
   77.7620  130.4060   54.1240 N   0  0  0  0  0
   76.9440  129.5240   53.4930 C   0  0  0  0  0
   75.5870  129.5580   53.4110 N   0  0  0  0  0
   75.0680  130.6490   54.0730 C   0  0  0  0  0
   71.7285  133.1195   51.7196 H   0  0  0  0  0
   71.4064  132.1769   50.3836 H   0  0  0  0  0
   71.0477  133.8041   50.3614 H   0  0  0  0  0
   69.7830  131.7667   52.0643 H   0  0  0  0  0
   68.1831  133.7909   52.4236 H   0  0  0  0  0
   69.6937  134.7544   51.9982 H   0  0  0  0  0
   69.6314  134.7397   54.2461 H   0  0  0  0  0
   70.7431  133.3254   53.7903 H   0  0  0  0  0
   70.1268  132.4456   49.1103 H   0  0  0  0  0
   69.8002  131.2930   56.5696 H   0  0  0  0  0
   70.9927  132.3575   55.6665 H   0  0  0  0  0
   69.6280  130.0219   54.4688 H   0  0  0  0  0
   72.0103  129.9292   56.3099 H   0  0  0  0  0
   71.3134  127.8741   56.6295 H   0  0  0  0  0
   73.1957  128.3929   54.7727 H   0  0  0  0  0
   72.4550  127.5907   52.9701 H   0  0  0  0  0
   72.9256  129.9774   52.6160 H   0  0  0  0  0
   72.8268  132.6983   55.2199 H   0  0  0  0  0
   77.6546  133.1453   55.8780 H   0  0  0  0  0
   79.0417  132.1807   55.3616 H   0  0  0  0  0
   77.4340  128.6889   52.9924 H   0  0  0  0  0
  1  2  1  0  0  0
  2  3  1  0  0  0
  2  6  1  0  0  0
  3  4  1  0  0  0
  4  5  1  0  0  0
  5  9  1  0  0  0
  6  7  2  0  0  0
  6  8  1  0  0  0
  9 10  1  0  0  0
 10 11  1  0  0  0
 10 12  1  0  0  0
 11 16  1  0  0  0
 12 13  1  0  0  0
 12 14  1  0  0  0
 14 15  1  0  0  0
 14 16  1  0  0  0
 16 17  1  0  0  0
 17 18  4  0  0  0
 17 26  4  0  0  0
 18 19  4  0  0  0
 19 20  4  0  0  0
 20 21  4  0  0  0
 20 26  4  0  0  0
 21 22  1  0  0  0
 21 23  4  0  0  0
 23 24  4  0  0  0
 24 25  4  0  0  0
 25 26  4  0  0  0
  1 27  1  0  0  0
  1 28  1  0  0  0
  1 29  1  0  0  0
  2 30  1  0  0  0
  3 31  1  0  0  0
  3 32  1  0  0  0
  4 33  1  0  0  0
  4 34  1  0  0  0
  8 35  1  0  0  0
  9 36  1  0  0  0
  9 37  1  0  0  0
 10 38  1  0  0  0
 12 39  1  0  0  0
 13 40  1  0  0  0
 14 41  1  0  0  0
 15 42  1  0  0  0
 16 43  1  0  0  0
 18 44  1  0  0  0
 22 45  1  0  0  0
 22 46  1  0  0  0
 24 47  1  0  0  0
M  END
$$$$
