3n2p_ligand
  -I-interpret- 

 35 36  0  0  0  0  0  0  0  0999 V2000
   -5.4610    2.3780   15.8890 C   0  0  0  0  0
   -5.3270   -0.3280   16.1250 N   0  0  0  0  0
   -7.3870    0.9760   16.7930 O   0  0  0  0  0
   -5.9410    0.9640   16.8390 S   0  0  0  0  0
   -4.1630    2.4900   15.4090 C   0  0  0  0  0
   -5.3590    1.0960   18.1770 O   0  0  0  0  0
   -3.8120    3.5980   14.6450 C   0  0  0  0  0
   -4.7720    4.5670   14.4060 C   0  0  0  0  0
   -6.0650    4.4680   14.8770 C   0  0  0  0  0
   -6.4130    3.3530   15.6390 C   0  0  0  0  0
   -4.3580    5.6910   13.5850 N   0  0  0  0  0
   -5.2390    6.3380   12.6440 C   0  0  0  0  0
   -6.4510    6.1820   12.5680 O   0  0  0  0  0
   -4.6130    7.4150   11.9430 N   0  0  0  0  0
   -5.1860    8.3130   10.9980 C   0  0  0  0  0
   -6.3740    7.9840   10.3530 C   0  0  0  0  0
   -6.8900    8.8770    9.4080 C   0  0  0  0  0
   -6.2520   10.0770    9.1560 C   0  0  0  0  0
   -5.0540   10.3820    9.8010 C   0  0  0  0  0
   -4.5210    9.5020   10.7460 C   0  0  0  0  0
   -8.1120    8.5820    8.7350 N   0  0  0  0  0
   -8.6190    9.4650    7.9200 O   0  0  0  0  0
   -8.6660    7.4290    8.8750 O   0  0  0  0  0
   -5.9463   -1.0222   15.7067 H   0  0  0  0  0
   -4.3160   -0.4581   16.0878 H   0  0  0  0  0
   -3.4263    1.7172   15.6287 H   0  0  0  0  0
   -2.8039    3.7013   14.2434 H   0  0  0  0  0
   -6.7984    5.2442   14.6584 H   0  0  0  0  0
   -7.4237    3.2497   16.0339 H   0  0  0  0  0
   -3.4033    6.0378   13.6778 H   0  0  0  0  0
   -3.6241    7.5596   12.1468 H   0  0  0  0  0
   -6.8910    7.0514   10.5789 H   0  0  0  0  0
   -6.6863   10.7864    8.4516 H   0  0  0  0  0
   -4.5318   11.3098    9.5672 H   0  0  0  0  0
   -3.5997    9.7461   11.2749 H   0  0  0  0  0
  1  4  1  0  0  0
  1  5  4  0  0  0
  1 10  4  0  0  0
  4  2  1  0  0  0
  4  3  2  0  0  0
  4  6  2  0  0  0
  5  7  4  0  0  0
  7  8  4  0  0  0
  8  9  4  0  0  0
  8 11  1  0  0  0
  9 10  4  0  0  0
 11 12  1  0  0  0
 12 13  2  0  0  0
 12 14  1  0  0  0
 14 15  1  0  0  0
 15 16  4  0  0  0
 15 20  4  0  0  0
 16 17  4  0  0  0
 17 18  4  0  0  0
 17 21  1  0  0  0
 18 19  4  0  0  0
 19 20  4  0  0  0
 21 22  2  0  0  0
 21 23  2  0  0  0
  2 24  1  0  0  0
  2 25  1  0  0  0
  5 26  1  0  0  0
  7 27  1  0  0  0
  9 28  1  0  0  0
 10 29  1  0  0  0
 11 30  1  0  0  0
 14 31  1  0  0  0
 16 32  1  0  0  0
 18 33  1  0  0  0
 19 34  1  0  0  0
 20 35  1  0  0  0
M  END
$$$$
