4km2_ligand
  -I-interpret- 

 39 40  0  0  0  0  0  0  0  0999 V2000
   14.6580    2.6980   21.1010 C   0  0  0  0  0
   15.6810    3.4550   21.6490 N   0  0  0  0  0
   16.9070    3.4650   21.0230 C   0  0  0  0  0
   17.8780    4.2600   21.5880 N   0  0  0  0  0
   17.1890    2.7230   19.9350 N   0  0  0  0  0
   16.2150    1.9470   19.4260 C   0  0  0  0  0
   16.5310    1.2740   18.3300 N   0  0  0  0  0
   14.8770    1.9520   19.9840 C   0  0  0  0  0
   13.7120    1.1080   19.4330 C   0  0  0  0  0
   12.8440    1.9090   18.4670 C   0  0  0  0  0
   12.4880    1.2300   17.2970 C   0  0  0  0  0
   11.6020    1.8800   16.4200 C   0  0  0  0  0
   11.1630    1.3960   15.2110 O   0  0  0  0  0
   11.4210    0.0230   14.9830 C   0  0  0  0  0
   11.1320    3.1720   16.6530 C   0  0  0  0  0
   10.2540    3.8790   15.8220 O   0  0  0  0  0
    8.9060    3.3910   15.8540 C   0  0  0  0  0
   11.4650    3.8120   17.8340 C   0  0  0  0  0
   10.9270    5.0460   18.0710 O   0  0  0  0  0
   11.2990    5.7260   19.2390 C   0  0  0  0  0
   12.3660    3.2270   18.7440 C   0  0  0  0  0
   13.6726    2.7000   21.5670 H   0  0  0  0  0
   17.6694    4.8016   22.4268 H   0  0  0  0  0
   18.8063    4.3076   21.1680 H   0  0  0  0  0
   17.4637    1.3643   17.9272 H   0  0  0  0  0
   15.8416    0.6654   17.8887 H   0  0  0  0  0
   13.0911    0.7904   20.2707 H   0  0  0  0  0
   14.1286    0.2562   18.8955 H   0  0  0  0  0
   12.8812    0.2381   17.0744 H   0  0  0  0  0
   12.4960   -0.1540   15.0175 H   0  0  0  0  0
   10.9288   -0.5707   15.7533 H   0  0  0  0  0
   11.0362   -0.2599   14.0032 H   0  0  0  0  0
    8.8900    2.3501   15.5310 H   0  0  0  0  0
    8.5188    3.4633   16.8703 H   0  0  0  0  0
    8.2881    3.9899   15.1849 H   0  0  0  0  0
   11.0224    5.1299   20.1086 H   0  0  0  0  0
   12.3769    5.8881   19.2359 H   0  0  0  0  0
   10.7859    6.6869   19.2775 H   0  0  0  0  0
   12.6900    3.7645   19.6352 H   0  0  0  0  0
  1  2  4  0  0  0
  1  8  4  0  0  0
  2  3  4  0  0  0
  3  4  1  0  0  0
  3  5  4  0  0  0
  5  6  4  0  0  0
  6  7  1  0  0  0
  6  8  4  0  0  0
  8  9  1  0  0  0
  9 10  1  0  0  0
 10 11  4  0  0  0
 10 21  4  0  0  0
 11 12  4  0  0  0
 12 13  1  0  0  0
 12 15  4  0  0  0
 13 14  1  0  0  0
 15 16  1  0  0  0
 15 18  4  0  0  0
 16 17  1  0  0  0
 18 19  1  0  0  0
 18 21  4  0  0  0
 19 20  1  0  0  0
  1 22  1  0  0  0
  4 23  1  0  0  0
  4 24  1  0  0  0
  7 25  1  0  0  0
  7 26  1  0  0  0
  9 27  1  0  0  0
  9 28  1  0  0  0
 11 29  1  0  0  0
 14 30  1  0  0  0
 14 31  1  0  0  0
 14 32  1  0  0  0
 17 33  1  0  0  0
 17 34  1  0  0  0
 17 35  1  0  0  0
 20 36  1  0  0  0
 20 37  1  0  0  0
 20 38  1  0  0  0
 21 39  1  0  0  0
M  END
$$$$
