### 
### Created by X-TOOL on Mon Sep 10 21:13:05 2018
### 

@<TRIPOS>MOLECULE
2kpl_ligand
  197   196     1     0     0
SMALL
GAST_HUCK


@<TRIPOS>ATOM
      1 N         131.3240   13.7970    3.3150 N.4       1 ARG         0.2379
      2 CA        131.9940   14.1920    2.0830 C.3       1 ARG         0.0651
      3 C         131.1860   13.7080    0.8810 C.2       1 ARG         0.2268
      4 O         130.7330   14.5140    0.0620 O.2       1 ARG        -0.3907
      5 CB        133.4140   13.6110    2.0340 C.3       1 ARG         0.0110
      6 CG        134.3040   14.1590    0.9110 C.3       1 ARG        -0.0125
      7 CD        134.6980   15.6300    1.1330 C.3       1 ARG         0.0629
      8 NE        133.5640   16.5760    1.0550 N.pl3     1 ARG        -0.2723
      9 CZ        133.2490   17.4780    2.0050 C.cat     1 ARG         0.2882
     10 NH1       133.9070   17.5000    3.1540 N.pl3     1 ARG        -0.2849
     11 NH2       132.2620   18.3420    1.7990 N.pl3     1 ARG        -0.2849
     12 N         131.0060   12.4040    0.7800 N.am      1 SER        -0.2589
     13 CA        130.2460   11.8120   -0.2850 C.3       1 SER         0.1540
     14 C         128.7640   11.7370    0.1060 C.2       1 SER         0.2063
     15 O         128.4310   11.6010    1.2920 O.2       1 SER        -0.3943
     16 CB        130.8520   10.4460   -0.5900 C.3       1 SER         0.0843
     17 OG        131.3590    9.8410    0.5990 O.3       1 SER        -0.3903
     18 N         127.8900   11.8490   -0.8750 N.am      1 SER        -0.2615
     19 CA        126.4740   11.9200   -0.6130 C.3       1 SER         0.1539
     20 C         125.7370   10.7530   -1.2920 C.2       1 SER         0.2062
     21 O         125.0950    9.9480   -0.6210 O.2       1 SER        -0.3943
     22 CB        125.9380   13.2820   -1.0900 C.3       1 SER         0.0843
     23 OG        124.6460   13.5730   -0.5700 O.3       1 SER        -0.3903
     24 N         125.8580   10.6310   -2.6080 N.am      1 ARG        -0.2637
     25 CA        125.1720    9.5680   -3.3240 C.3       1 ARG         0.1311
     26 C         125.8700    8.2260   -3.1570 C.2       1 ARG         0.2040
     27 O         126.7210    7.8420   -3.9720 O.2       1 ARG        -0.3944
     28 CB        124.9820    9.8820   -4.8200 C.3       1 ARG        -0.0092
     29 CG        123.9970   10.9980   -5.1410 C.3       1 ARG        -0.0156
     30 CD        122.5920   10.6900   -4.6240 C.3       1 ARG         0.0627
     31 NE        122.0390    9.4150   -5.1260 N.pl3     1 ARG        -0.2723
     32 CZ        120.8190    8.9460   -4.7880 C.cat     1 ARG         0.2882
     33 NH1       119.9540    9.7330   -4.1610 N.pl3     1 ARG        -0.2849
     34 NH2       120.4550    7.7160   -5.1270 N.pl3     1 ARG        -0.2849
     35 N         125.5360    7.5580   -2.0910 N.am      1 THR        -0.2613
     36 CA        125.9690    6.2300   -1.8320 C.3       1 THR         0.1565
     37 C         124.9910    5.5650   -0.8780 C.2       1 THR         0.2065
     38 O         124.8010    5.9960    0.2650 O.2       1 THR        -0.3943
     39 CB        127.4580    6.1340   -1.3390 C.3       1 THR         0.0924
     40 OG1       127.8530    4.7660   -1.1260 O.3       1 THR        -0.3874
     41 CG2       127.7380    6.9400   -0.0960 C.3       1 THR        -0.0346
     42 N         124.3150    4.5780   -1.3870 N.am      1 ARG        -0.2636
     43 CA        123.3350    3.8530   -0.6270 C.3       1 ARG         0.1311
     44 C         123.9600    2.9310    0.4110 C.2       1 ARG         0.2039
     45 O         124.7920    2.0830    0.0860 O.2       1 ARG        -0.3944
     46 CB        122.3130    3.1700   -1.5400 C.3       1 ARG        -0.0092
     47 CG        122.8330    2.5120   -2.7960 C.3       1 ARG        -0.0156
     48 CD        121.6550    2.0710   -3.6600 C.3       1 ARG         0.0627
     49 NE        120.6980    3.1800   -3.8830 N.pl3     1 ARG        -0.2723
     50 CZ        119.5080    3.0900   -4.5070 C.cat     1 ARG         0.2882
     51 NH1       119.1500    1.9750   -5.1360 N.pl3     1 ARG        -0.2849
     52 NH2       118.6820    4.1180   -4.4970 N.pl3     1 ARG        -0.2849
     53 N         123.5360    3.1030    1.6660 N.am      1 ARG        -0.2637
     54 CA        124.1630    2.4340    2.8050 C.3       1 ARG         0.1311
     55 C         123.5410    1.0940    3.0880 C.2       1 ARG         0.2039
     56 O         122.3270    0.9290    2.9730 O.2       1 ARG        -0.3944
     57 CB        124.0360    3.2960    4.0560 C.3       1 ARG        -0.0092
     58 CG        124.5570    4.7020    3.8970 C.3       1 ARG        -0.0156
     59 CD        126.0290    4.7350    3.5330 C.3       1 ARG         0.0627
     60 NE        126.4850    6.1060    3.3310 N.pl3     1 ARG        -0.2723
     61 CZ        127.7600    6.5170    3.4010 C.cat     1 ARG         0.2882
     62 NH1       128.7340    5.6560    3.6640 N.pl3     1 ARG        -0.2849
     63 NH2       128.0520    7.7850    3.1980 N.pl3     1 ARG        -0.2849
     64 N         124.3790    0.1620    3.4720 N.am      1 GLU        -0.2636
     65 CA        123.9760   -1.1760    3.8180 C.3       1 GLU         0.1325
     66 C         123.3730   -1.1670    5.2110 C.2       1 GLU         0.2041
     67 O         124.0650   -0.9190    6.2070 O.2       1 GLU        -0.3944
     68 CB        125.1930   -2.0930    3.8140 C.3       1 GLU        -0.0008
     69 CG        124.8790   -3.5690    4.0000 C.3       1 GLU         0.0044
     70 CD        124.2570   -4.1900    2.7820 C.2       1 GLU         0.0350
     71 OE1       125.0020   -4.4500    1.8140 O.co2     1 GLU        -0.5690
     72 OE2       123.0370   -4.4740    2.7700 O.co2     1 GLU        -0.5690
     73 N         122.1190   -1.3810    5.2710 N.am      1 THR        -0.2613
     74 CA        121.4080   -1.4620    6.4960 C.3       1 THR         0.1565
     75 C         120.8750   -2.8930    6.5960 C.2       1 THR         0.2065
     76 O         119.8260   -3.2110    6.0670 O.2       1 THR        -0.3943
     77 CB        120.2330   -0.4370    6.4940 C.3       1 THR         0.0924
     78 OG1       120.7260    0.8400    6.0080 O.3       1 THR        -0.3874
     79 CG2       119.6490   -0.2460    7.9110 C.3       1 THR        -0.0346
     80 N         121.6560   -3.7720    7.1620 N.am      1 GLN        -0.2635
     81 CA        121.2270   -5.1460    7.3170 C.3       1 GLN         0.1330
     82 C         120.2440   -5.2730    8.4670 C.2       1 GLN         0.2035
     83 O         120.5850   -5.0390    9.6300 O.2       1 GLN        -0.3944
     84 CB        122.4100   -6.1430    7.4390 C.3       1 GLN         0.0045
     85 CG        123.3500   -5.9800    8.6260 C.3       1 GLN         0.0412
     86 CD        124.1740   -4.7020    8.5780 C.2       1 GLN         0.1737
     87 OE1       124.4880   -4.1870    7.5070 O.2       1 GLN        -0.3973
     88 NE2       124.5380   -4.1880    9.7140 N.am      1 GLN        -0.3009
     89 N         119.0270   -5.6120    8.1530 N.am      1 VAL        -0.2692
     90 CA        118.0020   -5.6570    9.1450 C.3       1 VAL         0.0967
     91 C         117.4680   -7.0460    9.2880 C.2       1 VAL         0.0603
     92 O         116.8990   -7.3680   10.3530 O.co2     1 VAL        -0.5666
     93 CB        116.8440   -4.6750    8.8670 C.3       1 VAL        -0.0118
     94 CG1       117.3590   -3.2840    8.7380 C.3       1 VAL        -0.0590
     95 CG2       116.0850   -5.0400    7.6240 C.3       1 VAL        -0.0590
     96 OXT       117.6400   -7.8350    8.3530 O.co2     1 VAL        -0.5666
     97 H1        131.8596   14.1178    4.1064 H         1 ARG         0.2015
     98 H2        131.2452   12.7926    3.3475 H         1 ARG         0.2015
     99 H3        130.4038   14.2074    3.3435 H         1 ARG         0.2015
    100 H4        132.0596   15.2895    2.0501 H         1 ARG         0.1098
    101 H5        133.3321   12.5219    1.9028 H         1 ARG         0.0347
    102 H6        133.9045   13.8288    2.9942 H         1 ARG         0.0347
    103 H7        133.7587   14.0802   -0.0410 H         1 ARG         0.0302
    104 H8        135.2204   13.5527    0.8600 H         1 ARG         0.0302
    105 H9        135.4350   15.9100    0.3660 H         1 ARG         0.0689
    106 H10       135.1544   15.7190    2.1299 H         1 ARG         0.0689
    107 H11       132.9717   16.5429    0.2130 H         1 ARG         0.2642
    108 H12       133.6605   18.1925    3.8755 H         1 ARG         0.2615
    109 H13       134.6653   16.8246    3.3262 H         1 ARG         0.2615
    110 H14       131.7456   18.3310    0.9079 H         1 ARG         0.2615
    111 H15       132.0128   19.0232    2.5303 H         1 ARG         0.2615
    112 H16       131.4139   11.8066    1.4705 H         1 SER         0.1885
    113 H17       130.3319   12.4414   -1.1830 H         1 SER         0.0823
    114 H18       131.6736   10.5685   -1.3111 H         1 SER         0.0606
    115 H19       130.0775    9.7962   -1.0235 H         1 SER         0.0606
    116 H20       131.7312    8.9929    0.3875 H         1 SER         0.2097
    117 H21       128.2159   11.8854   -1.8197 H         1 SER         0.1884
    118 H22       126.3128   11.8428    0.4724 H         1 SER         0.0823
    119 H23       125.8821   13.2737   -2.1885 H         1 SER         0.0606
    120 H24       126.6344   14.0686   -0.7642 H         1 SER         0.0606
    121 H25       124.0343   12.9030   -0.8516 H         1 SER         0.2097
    122 H26       126.4283   11.2785   -3.1134 H         1 ARG         0.1883
    123 H27       124.1702    9.4768   -2.8791 H         1 ARG         0.0800
    124 H28       124.6277    8.9659   -5.3152 H         1 ARG         0.0313
    125 H29       125.9612   10.1666   -5.2325 H         1 ARG         0.0313
    126 H30       123.9527   11.1292   -6.2322 H         1 ARG         0.0301
    127 H31       124.3508   11.9289   -4.6738 H         1 ARG         0.0301
    128 H32       121.9216   11.5050   -4.9343 H         1 ARG         0.0689
    129 H33       122.6288   10.6436   -3.5256 H         1 ARG         0.0689
    130 H34       122.6157    8.8535   -5.7687 H         1 ARG         0.2642
    131 H35       119.0236    9.3738   -3.9038 H         1 ARG         0.2615
    132 H36       120.2130   10.7031   -3.9315 H         1 ARG         0.2615
    133 H37       121.1197    7.0980   -5.6139 H         1 ARG         0.2615
    134 H38       119.5077    7.3791   -4.9032 H         1 ARG         0.2615
    135 H39       124.9437    8.0028   -1.4192 H         1 THR         0.1884
    136 H40       125.9211    5.6823   -2.7847 H         1 THR         0.0826
    137 H41       128.0881    6.5434   -2.1423 H         1 THR         0.0639
    138 H42       128.7551    4.7406   -0.8293 H         1 THR         0.2101
    139 H43       128.7948    6.8234    0.1863 H         1 THR         0.0257
    140 H44       127.0979    6.5832    0.7243 H         1 THR         0.0257
    141 H45       127.5257    8.0014   -0.2917 H         1 THR         0.0257
    142 H46       124.4825    4.3153   -2.3372 H         1 ARG         0.1883
    143 H47       122.7724    4.6054   -0.0549 H         1 ARG         0.0800
    144 H48       121.5820    3.9330   -1.8458 H         1 ARG         0.0313
    145 H49       121.8070    2.3943   -0.9465 H         1 ARG         0.0313
    146 H50       123.4398    1.6349   -2.5270 H         1 ARG         0.0301
    147 H51       123.4519    3.2280   -3.3566 H         1 ARG         0.0301
    148 H52       121.1325    1.2443   -3.1565 H         1 ARG         0.0689
    149 H53       122.0350    1.7262   -4.6330 H         1 ARG         0.0689
    150 H54       120.9686    4.1079   -3.5269 H         1 ARG         0.2642
    151 H55       118.2365    1.9211   -5.6088 H         1 ARG         0.2615
    152 H56       119.7861    1.1650   -5.1505 H         1 ARG         0.2615
    153 H57       118.9478    4.9875   -4.0131 H         1 ARG         0.2615
    154 H58       117.7711    4.0514   -4.9731 H         1 ARG         0.2615
    155 H59       122.7607    3.7122    1.8328 H         1 ARG         0.1883
    156 H60       125.2288    2.2868    2.5762 H         1 ARG         0.0800
    157 H61       124.5979    2.8103    4.8674 H         1 ARG         0.0313
    158 H62       122.9719    3.3519    4.3291 H         1 ARG         0.0313
    159 H63       124.4155    5.2407    4.8456 H         1 ARG         0.0301
    160 H64       123.9852    5.2029    3.1020 H         1 ARG         0.0301
    161 H65       126.1835    4.1638    2.6057 H         1 ARG         0.0689
    162 H66       126.6115    4.2780    4.3466 H         1 ARG         0.0689
    163 H67       125.7700    6.8159    3.1173 H         1 ARG         0.2642
    164 H68       129.7097    5.9821    3.7155 H         1 ARG         0.2615
    165 H69       128.5147    4.6613    3.8167 H         1 ARG         0.2615
    166 H70       127.3014    8.4599    2.9932 H         1 ARG         0.2615
    167 H71       129.0310    8.1018    3.2440 H         1 ARG         0.2615
    168 H72       125.3504    0.3929    3.5276 H         1 GLU         0.1883
    169 H73       123.2341   -1.5397    3.0919 H         1 GLU         0.0801
    170 H74       125.8605   -1.7796    4.6302 H         1 GLU         0.0330
    171 H75       125.7098   -1.9718    2.8506 H         1 GLU         0.0330
    172 H76       124.1818   -3.6763    4.8440 H         1 GLU         0.0433
    173 H77       125.8144   -4.1014    4.2270 H         1 GLU         0.0433
    174 H78       121.6129   -1.4971    4.4164 H         1 THR         0.1884
    175 H79       122.0790   -1.2484    7.3411 H         1 THR         0.0826
    176 H80       119.4391   -0.8025    5.8261 H         1 THR         0.0639
    177 H81       121.4210    1.1476    6.5780 H         1 THR         0.2101
    178 H82       118.8247    0.4813    7.8728 H         1 THR         0.0257
    179 H83       120.4351    0.1258    8.5846 H         1 THR         0.0257
    180 H84       119.2712   -1.2091    8.2848 H         1 THR         0.0257
    181 H85       122.5584   -3.4942    7.4914 H         1 GLN         0.1883
    182 H86       120.6843   -5.4159    6.3990 H         1 GLN         0.0801
    183 H87       123.0149   -6.0494    6.5250 H         1 GLN         0.0337
    184 H88       121.9830   -7.1552    7.4941 H         1 GLN         0.0337
    185 H89       124.0387   -6.8375    8.6448 H         1 GLN         0.0504
    186 H90       122.7490   -5.9721    9.5473 H         1 GLN         0.0504
    187 H91       125.0808   -3.3483    9.7319 H         1 GLN         0.1814
    188 H92       124.2754   -4.6320   10.5707 H         1 GLN         0.1814
    189 H93       118.8077   -5.8437    7.2052 H         1 VAL         0.1875
    190 H94       118.4588   -5.3676   10.1029 H         1 VAL         0.0729
    191 H95       116.1504   -4.7148    9.7198 H         1 VAL         0.0336
    192 H96       116.5208   -2.5996    8.5404 H         1 VAL         0.0234
    193 H97       118.0768   -3.2344    7.9059 H         1 VAL         0.0234
    194 H98       117.8598   -2.9903    9.6723 H         1 VAL         0.0234
    195 H99       115.7030   -6.0674    7.7161 H         1 VAL         0.0234
    196 H100      116.7539   -4.9742    6.7533 H         1 VAL         0.0234
    197 H101      115.2419   -4.3459    7.4920 H         1 VAL         0.0234
@<TRIPOS>BOND
     1    1    2 1  
     2    2    3 1  
     3    2    5 1  
     4    3    4 2  
     5    3   12 am 
     6    5    6 1  
     7    6    7 1  
     8    7    8 1  
     9    8    9 ar 
    10    9   10 ar 
    11    9   11 ar 
    12   12   13 1  
    13   13   14 1  
    14   13   16 1  
    15   14   15 2  
    16   14   18 am 
    17   16   17 1  
    18   18   19 1  
    19   19   20 1  
    20   19   22 1  
    21   20   21 2  
    22   20   24 am 
    23   22   23 1  
    24   24   25 1  
    25   25   26 1  
    26   25   28 1  
    27   26   27 2  
    28   26   35 am 
    29   28   29 1  
    30   29   30 1  
    31   30   31 1  
    32   31   32 ar 
    33   32   33 ar 
    34   32   34 ar 
    35   35   36 1  
    36   36   37 1  
    37   36   39 1  
    38   37   38 2  
    39   37   42 am 
    40   39   40 1  
    41   39   41 1  
    42   42   43 1  
    43   43   44 1  
    44   43   46 1  
    45   44   45 2  
    46   44   53 am 
    47   46   47 1  
    48   47   48 1  
    49   48   49 1  
    50   49   50 ar 
    51   50   51 ar 
    52   50   52 ar 
    53   53   54 1  
    54   54   55 1  
    55   54   57 1  
    56   55   56 2  
    57   55   64 am 
    58   57   58 1  
    59   58   59 1  
    60   59   60 1  
    61   60   61 ar 
    62   61   62 ar 
    63   61   63 ar 
    64   64   65 1  
    65   65   66 1  
    66   65   68 1  
    67   66   67 2  
    68   66   73 am 
    69   68   69 1  
    70   69   70 1  
    71   70   71 ar 
    72   70   72 ar 
    73   73   74 1  
    74   74   75 1  
    75   74   77 1  
    76   75   76 2  
    77   75   80 am 
    78   77   78 1  
    79   77   79 1  
    80   80   81 1  
    81   81   82 1  
    82   81   84 1  
    83   82   83 2  
    84   82   89 am 
    85   84   85 1  
    86   85   86 1  
    87   86   87 2  
    88   86   88 am 
    89   89   90 1  
    90   90   91 1  
    91   90   93 1  
    92   91   92 ar 
    93   91   96 ar 
    94   93   94 1  
    95   93   95 1  
    96    1   97 1  
    97    1   98 1  
    98    1   99 1  
    99    2  100 1  
   100    5  101 1  
   101    5  102 1  
   102    6  103 1  
   103    6  104 1  
   104    7  105 1  
   105    7  106 1  
   106    8  107 1  
   107   10  108 1  
   108   10  109 1  
   109   11  110 1  
   110   11  111 1  
   111   12  112 1  
   112   13  113 1  
   113   16  114 1  
   114   16  115 1  
   115   17  116 1  
   116   18  117 1  
   117   19  118 1  
   118   22  119 1  
   119   22  120 1  
   120   23  121 1  
   121   24  122 1  
   122   25  123 1  
   123   28  124 1  
   124   28  125 1  
   125   29  126 1  
   126   29  127 1  
   127   30  128 1  
   128   30  129 1  
   129   31  130 1  
   130   33  131 1  
   131   33  132 1  
   132   34  133 1  
   133   34  134 1  
   134   35  135 1  
   135   36  136 1  
   136   39  137 1  
   137   40  138 1  
   138   41  139 1  
   139   41  140 1  
   140   41  141 1  
   141   42  142 1  
   142   43  143 1  
   143   46  144 1  
   144   46  145 1  
   145   47  146 1  
   146   47  147 1  
   147   48  148 1  
   148   48  149 1  
   149   49  150 1  
   150   51  151 1  
   151   51  152 1  
   152   52  153 1  
   153   52  154 1  
   154   53  155 1  
   155   54  156 1  
   156   57  157 1  
   157   57  158 1  
   158   58  159 1  
   159   58  160 1  
   160   59  161 1  
   161   59  162 1  
   162   60  163 1  
   163   62  164 1  
   164   62  165 1  
   165   63  166 1  
   166   63  167 1  
   167   64  168 1  
   168   65  169 1  
   169   68  170 1  
   170   68  171 1  
   171   69  172 1  
   172   69  173 1  
   173   73  174 1  
   174   74  175 1  
   175   77  176 1  
   176   78  177 1  
   177   79  178 1  
   178   79  179 1  
   179   79  180 1  
   180   80  181 1  
   181   81  182 1  
   182   84  183 1  
   183   84  184 1  
   184   85  185 1  
   185   85  186 1  
   186   88  187 1  
   187   88  188 1  
   188   89  189 1  
   189   90  190 1  
   190   93  191 1  
   191   94  192 1  
   192   94  193 1  
   193   94  194 1  
   194   95  195 1  
   195   95  196 1  
   196   95  197 1  
@<TRIPOS>SUBSTRUCTURE
     1 ARG         1

