2kpl_ligand
  -I-interpret- 

195194  0  0  0  0  0  0  0  0999 V2000
  131.3240   13.7970    3.3150 N   0  3  0  0  0
  131.9940   14.1920    2.0830 C   0  0  0  0  0
  131.1860   13.7080    0.8810 C   0  0  0  0  0
  130.7330   14.5140    0.0620 O   0  0  0  0  0
  133.4140   13.6110    2.0340 C   0  0  0  0  0
  134.3040   14.1590    0.9110 C   0  0  0  0  0
  134.6980   15.6300    1.1330 C   0  0  0  0  0
  133.5640   16.5760    1.0550 N   0  0  0  0  0
  133.2490   17.4780    2.0050 C   0  0  0  0  0
  133.9070   17.5000    3.1540 N   0  0  0  0  0
  132.2620   18.3420    1.7990 N   0  0  0  0  0
  131.0060   12.4040    0.7800 N   0  0  0  0  0
  130.2460   11.8120   -0.2850 C   0  0  0  0  0
  128.7640   11.7370    0.1060 C   0  0  0  0  0
  128.4310   11.6010    1.2920 O   0  0  0  0  0
  130.8520   10.4460   -0.5900 C   0  0  0  0  0
  131.3590    9.8410    0.5990 O   0  0  0  0  0
  127.8900   11.8490   -0.8750 N   0  0  0  0  0
  126.4740   11.9200   -0.6130 C   0  0  0  0  0
  125.7370   10.7530   -1.2920 C   0  0  0  0  0
  125.0950    9.9480   -0.6210 O   0  0  0  0  0
  125.9380   13.2820   -1.0900 C   0  0  0  0  0
  124.6460   13.5730   -0.5700 O   0  0  0  0  0
  125.8580   10.6310   -2.6080 N   0  0  0  0  0
  125.1720    9.5680   -3.3240 C   0  0  0  0  0
  125.8700    8.2260   -3.1570 C   0  0  0  0  0
  126.7210    7.8420   -3.9720 O   0  0  0  0  0
  124.9820    9.8820   -4.8200 C   0  0  0  0  0
  123.9970   10.9980   -5.1410 C   0  0  0  0  0
  122.5920   10.6900   -4.6240 C   0  0  0  0  0
  122.0390    9.4150   -5.1260 N   0  0  0  0  0
  120.8190    8.9460   -4.7880 C   0  0  0  0  0
  119.9540    9.7330   -4.1610 N   0  0  0  0  0
  120.4550    7.7160   -5.1270 N   0  0  0  0  0
  125.5360    7.5580   -2.0910 N   0  0  0  0  0
  125.9690    6.2300   -1.8320 C   0  0  0  0  0
  124.9910    5.5650   -0.8780 C   0  0  0  0  0
  124.8010    5.9960    0.2650 O   0  0  0  0  0
  127.4580    6.1340   -1.3390 C   0  0  0  0  0
  127.8530    4.7660   -1.1260 O   0  0  0  0  0
  127.7380    6.9400   -0.0960 C   0  0  0  0  0
  124.3150    4.5780   -1.3870 N   0  0  0  0  0
  123.3350    3.8530   -0.6270 C   0  0  0  0  0
  123.9600    2.9310    0.4110 C   0  0  0  0  0
  124.7920    2.0830    0.0860 O   0  0  0  0  0
  122.3130    3.1700   -1.5400 C   0  0  0  0  0
  122.8330    2.5120   -2.7960 C   0  0  0  0  0
  121.6550    2.0710   -3.6600 C   0  0  0  0  0
  120.6980    3.1800   -3.8830 N   0  0  0  0  0
  119.5080    3.0900   -4.5070 C   0  0  0  0  0
  119.1500    1.9750   -5.1360 N   0  0  0  0  0
  118.6820    4.1180   -4.4970 N   0  0  0  0  0
  123.5360    3.1030    1.6660 N   0  0  0  0  0
  124.1630    2.4340    2.8050 C   0  0  0  0  0
  123.5410    1.0940    3.0880 C   0  0  0  0  0
  122.3270    0.9290    2.9730 O   0  0  0  0  0
  124.0360    3.2960    4.0560 C   0  0  0  0  0
  124.5570    4.7020    3.8970 C   0  0  0  0  0
  126.0290    4.7350    3.5330 C   0  0  0  0  0
  126.4850    6.1060    3.3310 N   0  0  0  0  0
  127.7600    6.5170    3.4010 C   0  0  0  0  0
  128.7340    5.6560    3.6640 N   0  0  0  0  0
  128.0520    7.7850    3.1980 N   0  0  0  0  0
  124.3790    0.1620    3.4720 N   0  0  0  0  0
  123.9760   -1.1760    3.8180 C   0  0  0  0  0
  123.3730   -1.1670    5.2110 C   0  0  0  0  0
  124.0650   -0.9190    6.2070 O   0  0  0  0  0
  125.1930   -2.0930    3.8140 C   0  0  0  0  0
  124.8790   -3.5690    4.0000 C   0  0  0  0  0
  124.2570   -4.1900    2.7820 C   0  0  0  0  0
  125.0020   -4.4500    1.8140 O   0  0  0  0  0
  123.0370   -4.4740    2.7700 O   0  0  0  0  0
  122.1190   -1.3810    5.2710 N   0  0  0  0  0
  121.4080   -1.4620    6.4960 C   0  0  0  0  0
  120.8750   -2.8930    6.5960 C   0  0  0  0  0
  119.8260   -3.2110    6.0670 O   0  0  0  0  0
  120.2330   -0.4370    6.4940 C   0  0  0  0  0
  120.7260    0.8400    6.0080 O   0  0  0  0  0
  119.6490   -0.2460    7.9110 C   0  0  0  0  0
  121.6560   -3.7720    7.1620 N   0  0  0  0  0
  121.2270   -5.1460    7.3170 C   0  0  0  0  0
  120.2440   -5.2730    8.4670 C   0  0  0  0  0
  120.5850   -5.0390    9.6300 O   0  0  0  0  0
  122.4100   -6.1430    7.4390 C   0  0  0  0  0
  123.3500   -5.9800    8.6260 C   0  0  0  0  0
  124.1740   -4.7020    8.5780 C   0  0  0  0  0
  124.4880   -4.1870    7.5070 O   0  0  0  0  0
  124.5380   -4.1880    9.7140 N   0  0  0  0  0
  119.0270   -5.6120    8.1530 N   0  0  0  0  0
  118.0020   -5.6570    9.1450 C   0  0  0  0  0
  117.4680   -7.0460    9.2880 C   0  0  0  0  0
  116.8990   -7.3680   10.3530 O   0  0  0  0  0
  116.8440   -4.6750    8.8670 C   0  0  0  0  0
  117.3590   -3.2840    8.7380 C   0  0  0  0  0
  116.0850   -5.0400    7.6240 C   0  0  0  0  0
  117.6400   -7.8350    8.3530 O   0  0  0  0  0
  130.3834   14.1912    3.3305 H   0  0  0  0  0
  131.2683   12.7795    3.3591 H   0  0  0  0  0
  131.8529   14.1447    4.1148 H   0  0  0  0  0
  132.0659   15.2792    2.0531 H   0  0  0  0  0
  133.3088   12.5407    1.8566 H   0  0  0  0  0
  133.8951   13.8794    2.9745 H   0  0  0  0  0
  133.7427   14.0990   -0.0214 H   0  0  0  0  0
  135.2186   13.5664    0.8883 H   0  0  0  0  0
  135.3983   15.8995    0.3424 H   0  0  0  0  0
  135.1126   15.7051    2.1383 H   0  0  0  0  0
  132.9775   16.5432    0.2211 H   0  0  0  0  0
  134.6580   16.8311    3.3245 H   0  0  0  0  0
  132.0152   19.0165    2.5232 H   0  0  0  0  0
  131.7506   18.3312    0.9165 H   0  0  0  0  0
  131.4220   11.7946    1.4843 H   0  0  0  0  0
  130.2906   12.4171   -1.1905 H   0  0  0  0  0
  131.6719   10.5745   -1.2967 H   0  0  0  0  0
  130.0780    9.8033   -1.0094 H   0  0  0  0  0
  131.7352    8.9840    0.3853 H   0  0  0  0  0
  128.2224   11.8862   -1.8386 H   0  0  0  0  0
  126.2962   11.8318    0.4588 H   0  0  0  0  0
  125.8634   13.2515   -2.1770 H   0  0  0  0  0
  126.6229   14.0540   -0.7391 H   0  0  0  0  0
  124.3568   14.4288   -0.8949 H   0  0  0  0  0
  126.4397   11.2915   -3.1236 H   0  0  0  0  0
  124.1824    9.5027   -2.8717 H   0  0  0  0  0
  124.5822    8.9767   -5.2769 H   0  0  0  0  0
  125.9525   10.2106   -5.1919 H   0  0  0  0  0
  123.9451   11.1048   -6.2245 H   0  0  0  0  0
  124.3458   11.9097   -4.6560 H   0  0  0  0  0
  121.9356   11.4882   -4.9705 H   0  0  0  0  0
  122.6544   10.6127   -3.5385 H   0  0  0  0  0
  122.6101    8.8590   -5.7625 H   0  0  0  0  0
  119.0180    9.3909   -3.9435 H   0  0  0  0  0
  120.2250   10.6801   -3.8965 H   0  0  0  0  0
  121.0984    7.1185   -5.6461 H   0  0  0  0  0
  124.9318    8.0117   -1.4058 H   0  0  0  0  0
  125.9701    5.6871   -2.7772 H   0  0  0  0  0
  128.0531    6.5668   -2.1431 H   0  0  0  0  0
  128.7646    4.7403   -0.8262 H   0  0  0  0  0
  127.5273    7.9915   -0.2912 H   0  0  0  0  0
  127.1031    6.5855    0.7160 H   0  0  0  0  0
  128.7853    6.8237    0.1827 H   0  0  0  0  0
  124.4858    4.3101   -2.3562 H   0  0  0  0  0
  122.7715    4.5777   -0.0393 H   0  0  0  0  0
  121.6449    3.9622   -1.8780 H   0  0  0  0  0
  121.8782    2.3665   -0.9455 H   0  0  0  0  0
  123.4354    1.6434   -2.5300 H   0  0  0  0  0
  123.4473    3.2207   -3.3514 H   0  0  0  0  0
  121.1334    1.2638   -3.1457 H   0  0  0  0  0
  122.0391    1.7474   -4.6274 H   0  0  0  0  0
  120.9660    4.0988   -3.5304 H   0  0  0  0  0
  118.2452    1.9214   -5.6038 H   0  0  0  0  0
  119.7801    1.1730   -5.1508 H   0  0  0  0  0
  118.9450    4.9789   -4.0173 H   0  0  0  0  0
  122.7452    3.7243    1.8361 H   0  0  0  0  0
  125.2109    2.2844    2.5449 H   0  0  0  0  0
  124.6313    2.8198    4.8351 H   0  0  0  0  0
  122.9733    3.3721    4.2863 H   0  0  0  0  0
  124.4333    5.2174    4.8495 H   0  0  0  0  0
  123.9994    5.1793    3.0912 H   0  0  0  0  0
  126.1737    4.1776    2.6075 H   0  0  0  0  0
  126.6015    4.2918    4.3478 H   0  0  0  0  0
  125.7769    6.8090    3.1194 H   0  0  0  0  0
  129.7010    5.9776    3.7078 H   0  0  0  0  0
  128.5161    4.6722    3.8224 H   0  0  0  0  0
  127.3095    8.4521    2.9881 H   0  0  0  0  0
  125.3698    0.3975    3.5287 H   0  0  0  0  0
  123.2445   -1.5341    3.0936 H   0  0  0  0  0
  125.8178   -1.7937    4.6555 H   0  0  0  0  0
  125.6638   -1.9901    2.8363 H   0  0  0  0  0
  124.1670   -3.6579    4.8205 H   0  0  0  0  0
  125.8173   -4.0876    4.1968 H   0  0  0  0  0
  122.6371   -4.1975    3.5978 H   0  0  0  0  0
  121.6027   -1.4995    4.3993 H   0  0  0  0  0
  122.0474   -1.2271    7.3469 H   0  0  0  0  0
  119.4425   -0.8190    5.8480 H   0  0  0  0  0
  120.0086    1.4779    6.0033 H   0  0  0  0  0
  119.2750   -1.2009    8.2802 H   0  0  0  0  0
  120.4289    0.1224    8.5774 H   0  0  0  0  0
  118.8323    0.4749    7.8719 H   0  0  0  0  0
  122.5764   -3.4886    7.4980 H   0  0  0  0  0
  120.7096   -5.4266    6.3996 H   0  0  0  0  0
  123.0246   -5.9775    6.5541 H   0  0  0  0  0
  121.9535   -7.1254    7.5600 H   0  0  0  0  0
  124.0459   -6.8188    8.6099 H   0  0  0  0  0
  122.7366   -5.9402    9.5261 H   0  0  0  0  0
  125.0985   -3.3360    9.7320 H   0  0  0  0  0
  124.2633   -4.6364   10.5880 H   0  0  0  0  0
  118.8033   -5.8483    7.1863 H   0  0  0  0  0
  118.4683   -5.3438   10.0791 H   0  0  0  0  0
  116.8708   -6.6099   10.9413 H   0  0  0  0  0
  116.1621   -4.7385    9.7150 H   0  0  0  0  0
  117.8550   -2.9942    9.6643 H   0  0  0  0  0
  118.0701   -3.2362    7.9133 H   0  0  0  0  0
  116.5276   -2.6068    8.5423 H   0  0  0  0  0
  116.7607   -5.0222    6.7689 H   0  0  0  0  0
  115.6655   -6.0397    7.7364 H   0  0  0  0  0
  115.2798   -4.3222    7.4675 H   0  0  0  0  0
  1  2  1  0  0  0
  2  3  1  0  0  0
  2  5  1  0  0  0
  3  4  2  0  0  0
  3 12  1  0  0  0
  5  6  1  0  0  0
  6  7  1  0  0  0
  7  8  1  0  0  0
  8  9  1  0  0  0
  9 10  2  0  0  0
  9 11  1  0  0  0
 12 13  1  0  0  0
 13 14  1  0  0  0
 13 16  1  0  0  0
 14 15  2  0  0  0
 14 18  1  0  0  0
 16 17  1  0  0  0
 18 19  1  0  0  0
 19 20  1  0  0  0
 19 22  1  0  0  0
 20 21  2  0  0  0
 20 24  1  0  0  0
 22 23  1  0  0  0
 24 25  1  0  0  0
 25 26  1  0  0  0
 25 28  1  0  0  0
 26 27  2  0  0  0
 26 35  1  0  0  0
 28 29  1  0  0  0
 29 30  1  0  0  0
 30 31  1  0  0  0
 31 32  1  0  0  0
 32 33  1  0  0  0
 32 34  2  0  0  0
 35 36  1  0  0  0
 36 37  1  0  0  0
 36 39  1  0  0  0
 37 38  2  0  0  0
 37 42  1  0  0  0
 39 40  1  0  0  0
 39 41  1  0  0  0
 42 43  1  0  0  0
 43 44  1  0  0  0
 43 46  1  0  0  0
 44 45  2  0  0  0
 44 53  1  0  0  0
 46 47  1  0  0  0
 47 48  1  0  0  0
 48 49  1  0  0  0
 49 50  1  0  0  0
 50 51  1  0  0  0
 50 52  2  0  0  0
 53 54  1  0  0  0
 54 55  1  0  0  0
 54 57  1  0  0  0
 55 56  2  0  0  0
 55 64  1  0  0  0
 57 58  1  0  0  0
 58 59  1  0  0  0
 59 60  1  0  0  0
 60 61  1  0  0  0
 61 62  1  0  0  0
 61 63  2  0  0  0
 64 65  1  0  0  0
 65 66  1  0  0  0
 65 68  1  0  0  0
 66 67  2  0  0  0
 66 73  1  0  0  0
 68 69  1  0  0  0
 69 70  1  0  0  0
 70 71  2  0  0  0
 70 72  1  0  0  0
 73 74  1  0  0  0
 74 75  1  0  0  0
 74 77  1  0  0  0
 75 76  2  0  0  0
 75 80  1  0  0  0
 77 78  1  0  0  0
 77 79  1  0  0  0
 80 81  1  0  0  0
 81 82  1  0  0  0
 81 84  1  0  0  0
 82 83  2  0  0  0
 82 89  1  0  0  0
 84 85  1  0  0  0
 85 86  1  0  0  0
 86 87  2  0  0  0
 86 88  1  0  0  0
 89 90  1  0  0  0
 90 91  1  0  0  0
 90 93  1  0  0  0
 91 92  1  0  0  0
 91 96  2  0  0  0
 93 94  1  0  0  0
 93 95  1  0  0  0
  1 97  1  0  0  0
  1 98  1  0  0  0
  1 99  1  0  0  0
  2100  1  0  0  0
  5101  1  0  0  0
  5102  1  0  0  0
  6103  1  0  0  0
  6104  1  0  0  0
  7105  1  0  0  0
  7106  1  0  0  0
  8107  1  0  0  0
 10108  1  0  0  0
 11109  1  0  0  0
 11110  1  0  0  0
 12111  1  0  0  0
 13112  1  0  0  0
 16113  1  0  0  0
 16114  1  0  0  0
 17115  1  0  0  0
 18116  1  0  0  0
 19117  1  0  0  0
 22118  1  0  0  0
 22119  1  0  0  0
 23120  1  0  0  0
 24121  1  0  0  0
 25122  1  0  0  0
 28123  1  0  0  0
 28124  1  0  0  0
 29125  1  0  0  0
 29126  1  0  0  0
 30127  1  0  0  0
 30128  1  0  0  0
 31129  1  0  0  0
 33130  1  0  0  0
 33131  1  0  0  0
 34132  1  0  0  0
 35133  1  0  0  0
 36134  1  0  0  0
 39135  1  0  0  0
 40136  1  0  0  0
 41137  1  0  0  0
 41138  1  0  0  0
 41139  1  0  0  0
 42140  1  0  0  0
 43141  1  0  0  0
 46142  1  0  0  0
 46143  1  0  0  0
 47144  1  0  0  0
 47145  1  0  0  0
 48146  1  0  0  0
 48147  1  0  0  0
 49148  1  0  0  0
 51149  1  0  0  0
 51150  1  0  0  0
 52151  1  0  0  0
 53152  1  0  0  0
 54153  1  0  0  0
 57154  1  0  0  0
 57155  1  0  0  0
 58156  1  0  0  0
 58157  1  0  0  0
 59158  1  0  0  0
 59159  1  0  0  0
 60160  1  0  0  0
 62161  1  0  0  0
 62162  1  0  0  0
 63163  1  0  0  0
 64164  1  0  0  0
 65165  1  0  0  0
 68166  1  0  0  0
 68167  1  0  0  0
 69168  1  0  0  0
 69169  1  0  0  0
 72170  1  0  0  0
 73171  1  0  0  0
 74172  1  0  0  0
 77173  1  0  0  0
 78174  1  0  0  0
 79175  1  0  0  0
 79176  1  0  0  0
 79177  1  0  0  0
 80178  1  0  0  0
 81179  1  0  0  0
 84180  1  0  0  0
 84181  1  0  0  0
 85182  1  0  0  0
 85183  1  0  0  0
 88184  1  0  0  0
 88185  1  0  0  0
 89186  1  0  0  0
 90187  1  0  0  0
 92188  1  0  0  0
 93189  1  0  0  0
 94190  1  0  0  0
 94191  1  0  0  0
 94192  1  0  0  0
 95193  1  0  0  0
 95194  1  0  0  0
 95195  1  0  0  0
M  END
$$$$
