5afj_ligand
  -I-interpret- 

 34 35  0  0  0  0  0  0  0  0999 V2000
   11.5740   30.9420   11.0240 C   0  0  0  0  0
   12.2840   32.0860   10.3900 N   0  3  0  0  0
   11.4980   32.7130    9.3650 C   0  0  0  0  0
   11.3370   34.1920    9.5200 C   0  0  0  0  0
   10.2050   34.3600   10.4630 C   0  0  0  0  0
   10.9950   34.7520    8.3320 O   0  0  0  0  0
   12.5490   34.9230    9.9860 C   0  0  0  0  0
   12.5870   36.1550   10.0180 O   0  0  0  0  0
   13.7740   34.1160   10.4230 C   0  0  0  0  0
   13.5820   32.6340   10.6280 C   0  0  0  0  0
   14.7330   31.7980   11.0390 C   0  0  0  0  0
   15.0250   31.5910   12.3770 C   0  0  0  0  0
   16.0910   30.8300   12.7140 C   0  0  0  0  0
   16.8740   30.2690   11.7090 C   0  0  0  0  0
   18.4040   29.1630   12.1550 Br  0  0  0  0  0
   16.5920   30.4710   10.4060 C   0  0  0  0  0
   15.5120   31.2430   10.0600 C   0  0  0  0  0
   12.1512   30.0296   10.8740 H   0  0  0  0  0
   11.4627   31.1317   12.0916 H   0  0  0  0  0
   10.5898   30.8297   10.5691 H   0  0  0  0  0
   12.9583   31.7870   11.0945 H   0  0  0  0  0
   10.5003   32.2773    9.4183 H   0  0  0  0  0
   12.0163   32.5469    8.4206 H   0  0  0  0  0
   10.4881   33.9716   11.4413 H   0  0  0  0  0
    9.9588   35.4184   10.5482 H   0  0  0  0  0
    9.3390   33.8131   10.0902 H   0  0  0  0  0
   10.2139   34.3140    7.9861 H   0  0  0  0  0
   14.0615   34.5156   11.3955 H   0  0  0  0  0
   14.4976   34.2126    9.6136 H   0  0  0  0  0
   13.6789   31.7545   11.2645 H   0  0  0  0  0
   14.4012   32.0374   13.1514 H   0  0  0  0  0
   16.3347   30.6576   13.7623 H   0  0  0  0  0
   17.2175   30.0242    9.6332 H   0  0  0  0  0
   15.2753   31.4137    9.0098 H   0  0  0  0  0
  1  2  1  0  0  0
  2  3  1  0  0  0
  2 10  1  0  0  0
  3  4  1  0  0  0
  4  5  1  0  0  0
  4  6  1  0  0  0
  4  7  1  0  0  0
  7  8  2  0  0  0
  7  9  1  0  0  0
  9 10  1  0  0  0
 10 11  1  0  0  0
 11 12  4  0  0  0
 11 17  4  0  0  0
 12 13  4  0  0  0
 13 14  4  0  0  0
 14 15  1  0  0  0
 14 16  4  0  0  0
 16 17  4  0  0  0
  1 18  1  0  0  0
  1 19  1  0  0  0
  1 20  1  0  0  0
  2 21  1  0  0  0
  3 22  1  0  0  0
  3 23  1  0  0  0
  5 24  1  0  0  0
  5 25  1  0  0  0
  5 26  1  0  0  0
  6 27  1  0  0  0
  9 28  1  0  0  0
  9 29  1  0  0  0
 10 30  1  0  0  0
 12 31  1  0  0  0
 13 32  1  0  0  0
 16 33  1  0  0  0
 17 34  1  0  0  0
M  END
$$$$
