5iu2_ligand
  -I-interpret- 

 63 69  0  0  0  0  0  0  0  0999 V2000
  -21.4730   10.8310   -6.6370 C   0  0  0  0  0
  -21.9770   10.5250   -8.9840 C   0  0  0  0  0
  -21.3880   10.3700  -10.3700 C   0  0  0  0  0
  -15.1030    9.7920   -2.8040 C   0  0  0  0  0
  -16.3000    9.8840   -3.5070 C   0  0  0  0  0
  -13.0330    7.9290   -0.7480 C   0  0  0  0  0
  -11.0960    8.2780   -1.5820 C   0  0  0  0  0
   -9.7620    8.4080   -1.9650 C   0  0  0  0  0
  -10.2110    9.1460   -4.0900 C   0  0  0  0  0
   -9.8690    9.6230   -5.4190 C   0  0  0  0  0
  -12.0200    9.8380   -6.1290 C   0  0  0  0  0
  -12.4980    9.3900   -4.9300 C   0  0  0  0  0
  -11.6130    9.0640   -3.8710 C   0  0  0  0  0
  -12.0180    8.5930   -2.5820 C   0  0  0  0  0
  -12.9610   10.2570   -7.1990 C   0  0  0  0  0
  -14.2060   10.8060   -6.8810 C   0  0  0  0  0
  -15.0930   11.1780   -7.8770 C   0  0  0  0  0
  -14.7520   11.0240   -9.2070 C   0  0  0  0  0
  -13.5220   10.4930   -9.5410 C   0  0  0  0  0
  -12.6370   10.1010   -8.5480 C   0  0  0  0  0
  -10.7030    9.9640   -6.3770 N   0  0  0  0  0
   -9.2930    8.8410   -3.1180 N   0  0  0  0  0
  -11.7620    7.8340   -0.4410 N   0  0  0  0  0
  -13.2760    8.4060   -2.0190 N   0  0  0  0  0
  -14.5410    8.5250   -2.6270 C   0  0  0  0  0
  -15.1580    7.3920   -3.1660 C   0  0  0  0  0
  -16.3690    7.4930   -3.8280 C   0  0  0  0  0
  -16.9550    8.7480   -4.0030 C   0  0  0  0  0
  -18.1670    8.9920   -4.6460 N   0  0  0  0  0
  -17.2460   11.3050   -3.8430 S   0  0  0  0  0
  -18.4280   10.2680   -4.6160 C   0  0  0  0  0
  -19.5020   10.8430   -5.1680 N   0  0  0  0  0
  -20.7050   10.1110   -5.5480 C   0  0  0  0  0
  -20.9060   10.6390   -7.9790 N   0  3  0  0  0
  -20.0130   11.7540   -8.3420 C   0  0  0  0  0
  -19.4640   11.5510   -9.7340 C   0  0  0  0  0
  -20.5120   11.4530  -10.6980 O   0  0  0  0  0
  -21.4347   11.8974   -6.4146 H   0  0  0  0  0
  -22.4846   10.4252   -6.6476 H   0  0  0  0  0
  -22.5843    9.6488   -8.7569 H   0  0  0  0  0
  -22.5862   11.4284   -8.9568 H   0  0  0  0  0
  -22.2054   10.3595  -11.0909 H   0  0  0  0  0
  -20.8137    9.4440  -10.3971 H   0  0  0  0  0
  -14.6179   10.6820   -2.4031 H   0  0  0  0  0
  -13.8302    7.6543   -0.0572 H   0  0  0  0  0
   -9.0186    8.1170   -1.2228 H   0  0  0  0  0
   -8.8064    9.7074   -5.6467 H   0  0  0  0  0
  -13.5730    9.2818   -4.7857 H   0  0  0  0  0
  -14.4824   10.9431   -5.8356 H   0  0  0  0  0
  -16.0646   11.5942   -7.6106 H   0  0  0  0  0
  -15.4509   11.3204   -9.9892 H   0  0  0  0  0
  -13.2455   10.3815  -10.5894 H   0  0  0  0  0
  -11.6766    9.6657   -8.8241 H   0  0  0  0  0
  -14.6796    6.4180   -3.0636 H   0  0  0  0  0
  -16.8619    6.5990   -4.2101 H   0  0  0  0  0
  -19.4785   11.8494   -5.3324 H   0  0  0  0  0
  -20.4087    9.1319   -5.9244 H   0  0  0  0  0
  -21.3477   10.0249   -4.6718 H   0  0  0  0  0
  -20.3648    9.7746   -7.9627 H   0  0  0  0  0
  -19.1850   11.7927   -7.6342 H   0  0  0  0  0
  -20.5769   12.6864   -8.3135 H   0  0  0  0  0
  -18.8923   10.6231   -9.7487 H   0  0  0  0  0
  -18.8391   12.4072   -9.9879 H   0  0  0  0  0
 33  1  1  0  0  0
  1 34  1  0  0  0
  2  3  1  0  0  0
 34  2  1  0  0  0
  3 37  1  0  0  0
  5  4  4  0  0  0
  4 25  4  0  0  0
  5 28  4  0  0  0
 30  5  4  0  0  0
  6 23  4  0  0  0
 24  6  4  0  0  0
  7  8  4  0  0  0
 14  7  4  0  0  0
  7 23  4  0  0  0
  8 22  4  0  0  0
  9 10  4  0  0  0
 13  9  4  0  0  0
  9 22  4  0  0  0
 10 21  4  0  0  0
 12 11  4  0  0  0
 11 15  1  0  0  0
 11 21  4  0  0  0
 13 12  4  0  0  0
 14 13  4  0  0  0
 24 14  4  0  0  0
 15 16  4  0  0  0
 15 20  4  0  0  0
 16 17  4  0  0  0
 17 18  4  0  0  0
 19 18  4  0  0  0
 20 19  4  0  0  0
 25 24  1  0  0  0
 25 26  4  0  0  0
 27 26  4  0  0  0
 28 27  4  0  0  0
 29 28  4  0  0  0
 31 29  4  0  0  0
 31 30  4  0  0  0
 32 31  1  0  0  0
 32 33  1  0  0  0
 34 35  1  0  0  0
 35 36  1  0  0  0
 36 37  1  0  0  0
  1 38  1  0  0  0
  1 39  1  0  0  0
  2 40  1  0  0  0
  2 41  1  0  0  0
  3 42  1  0  0  0
  3 43  1  0  0  0
  4 44  1  0  0  0
  6 45  1  0  0  0
  8 46  1  0  0  0
 10 47  1  0  0  0
 12 48  1  0  0  0
 16 49  1  0  0  0
 17 50  1  0  0  0
 18 51  1  0  0  0
 19 52  1  0  0  0
 20 53  1  0  0  0
 26 54  1  0  0  0
 27 55  1  0  0  0
 32 56  1  0  0  0
 33 57  1  0  0  0
 33 58  1  0  0  0
 34 59  1  0  0  0
 35 60  1  0  0  0
 35 61  1  0  0  0
 36 62  1  0  0  0
 36 63  1  0  0  0
M  END
$$$$
