6hgy_ligand
  -I-interpret- 

118120  0  0  0  0  0  0  0  0999 V2000
    5.5510  -21.9830   12.8820 C   0  0  0  0  0
    4.1680  -21.3780   12.7850 C   0  0  0  0  0
    3.5710  -21.1460   14.1670 C   0  0  0  0  0
    2.2090  -20.4710   14.0560 C   0  0  0  0  0
    1.5940  -20.2250   15.4280 C   0  0  0  0  0
    0.1970  -19.6370   15.2830 C   0  0  0  0  0
   -0.3960  -19.3630   16.6430 C   0  0  0  0  0
   -1.6140  -18.8390   16.7370 C   0  0  0  0  0
   -4.5430  -15.2200   17.6930 C   0  0  0  0  0
   -5.9150  -15.1730   18.3420 C   0  0  0  0  0
   -6.2080  -16.0140   19.4340 C   0  0  0  0  0
   -7.4710  -15.9670   20.0460 C   0  0  0  0  0
   -8.4500  -15.0750   19.5790 C   0  0  0  0  0
   -6.8970  -14.2760   17.8840 C   0  0  0  0  0
   -4.5300  -14.2120   15.2340 C   0  0  0  0  0
   -5.8250  -10.6070   16.0230 C   0  0  0  0  0
   -2.6420  -11.7640   14.0850 C   0  0  0  0  0
   -1.2300  -11.9500   12.0330 C   0  0  0  0  0
   -0.6910  -13.3600   11.7650 C   0  0  0  0  0
   -2.3900  -15.3160   11.6250 C   0  0  0  0  0
   -3.7420  -15.6330   11.0120 C   0  0  0  0  0
   -2.4020  -18.5200   15.4870 C   0  0  0  0  0
   -3.6210  -17.7090   15.8680 C   0  0  0  0  0
   -4.6250  -18.3150   16.2150 O   0  0  0  0  0
   -3.5210  -16.3360   15.7920 N   0  0  0  0  0
   -4.5870  -15.4210   16.1630 C   0  0  0  0  0
   -8.1600  -14.2280   18.4970 C   0  0  0  0  0
   -9.6750  -15.0340   20.1770 O   0  0  0  0  0
   -4.9290  -14.4400   14.1070 O   0  0  0  0  0
   -4.0790  -12.9870   15.5870 N   0  0  0  0  0
   -4.0260  -11.8280   14.6890 C   0  0  0  0  0
   -4.3980  -10.5450   15.4680 C   0  0  0  0  0
   -4.2300   -9.2200   14.7030 C   0  0  0  0  0
   -1.7140  -11.5120   14.8440 O   0  0  0  0  0
   -2.5080  -11.9860   12.7600 N   0  0  0  0  0
   -1.6060  -14.2070   11.0740 O   0  0  0  0  0
   -1.9320  -15.9600   12.5550 O   0  0  0  0  0
   -3.8920  -17.1320   10.6920 C   0  0  0  0  0
   -5.2810  -17.4590   10.1950 C   0  0  0  0  0
   -6.3570  -17.5220   11.0950 C   0  0  0  0  0
   -7.6490  -17.8330   10.6340 C   0  0  0  0  0
   -7.8710  -18.0860    9.2690 C   0  0  0  0  0
   -6.7920  -18.0230    8.3710 C   0  0  0  0  0
   -5.5020  -17.7140    8.8350 C   0  0  0  0  0
   -9.1270  -18.3850    8.8250 O   0  0  0  0  0
   -3.9080  -14.6570    9.9360 N   0  0  0  0  0
   -3.4450  -14.7290    8.6770 C   0  0  0  0  0
   -2.8250  -15.6790    8.2210 O   0  0  0  0  0
   -3.6600  -13.5190    7.8000 C   0  0  0  0  0
   -2.2950  -13.0010    7.6110 N   0  0  0  0  0
   -1.5680  -12.1690    8.4060 C   0  0  0  0  0
   -0.4350  -11.8690    8.0570 O   0  0  0  0  0
   -2.1170  -11.5510    9.6920 C   0  0  0  0  0
   -1.2500  -11.0060   10.8230 C   0  0  0  0  0
   -4.3990  -13.8600    6.4910 C   0  0  0  0  0
   -4.2990  -12.7300    5.4510 C   0  0  0  0  0
   -5.8570  -14.2940    6.7550 C   0  0  0  0  0
    6.2038  -21.3074   13.4348 H   0  0  0  0  0
    5.4922  -22.9395   13.4014 H   0  0  0  0  0
    5.9502  -22.1365   11.8794 H   0  0  0  0  0
    3.5240  -22.0671   12.2387 H   0  0  0  0  0
    4.2426  -20.4189   12.2725 H   0  0  0  0  0
    4.2397  -20.5010   14.7370 H   0  0  0  0  0
    3.4492  -22.1077   14.6653 H   0  0  0  0  0
    1.5443  -21.1255   13.4921 H   0  0  0  0  0
    2.3396  -19.5098   13.5589 H   0  0  0  0  0
    2.2204  -19.5228   15.9781 H   0  0  0  0  0
    1.5277  -21.1722   15.9633 H   0  0  0  0  0
   -0.4368  -20.3487   14.7540 H   0  0  0  0  0
    0.2591  -18.7023   14.7257 H   0  0  0  0  0
    0.1718  -19.5937   17.5444 H   0  0  0  0  0
   -2.0456  -18.6389   17.7177 H   0  0  0  0  0
   -4.0102  -16.0705   18.1183 H   0  0  0  0  0
   -4.0599  -14.2614   17.8821 H   0  0  0  0  0
   -5.4507  -16.7043   19.8054 H   0  0  0  0  0
   -7.6922  -16.6250   20.8863 H   0  0  0  0  0
   -6.6763  -13.6133   17.0472 H   0  0  0  0  0
   -6.5292  -10.7231   15.1991 H   0  0  0  0  0
   -5.9134  -11.4562   16.7006 H   0  0  0  0  0
   -6.0439   -9.6856   16.5627 H   0  0  0  0  0
   -0.4895  -11.4905   12.6876 H   0  0  0  0  0
   -0.4914  -13.8199   12.7328 H   0  0  0  0  0
    0.1922  -13.2549   11.1350 H   0  0  0  0  0
   -4.5903  -15.5120   11.6857 H   0  0  0  0  0
   -2.7126  -19.4453   15.0017 H   0  0  0  0  0
   -1.7813  -17.9490   14.7965 H   0  0  0  0  0
   -2.6446  -15.9380   15.4545 H   0  0  0  0  0
   -5.5993  -15.7918   16.0024 H   0  0  0  0  0
   -8.9159  -13.5325   18.1324 H   0  0  0  0  0
  -10.2211  -14.3762   19.7403 H   0  0  0  0  0
   -3.7527  -12.8598   16.5450 H   0  0  0  0  0
   -4.7490  -11.9208   13.8786 H   0  0  0  0  0
   -3.6642  -10.5333   16.2739 H   0  0  0  0  0
   -4.9502   -9.1799   13.8858 H   0  0  0  0  0
   -4.4026   -8.3853   15.3824 H   0  0  0  0  0
   -3.2186   -9.1598   14.3010 H   0  0  0  0  0
   -3.3520  -12.1931   12.2259 H   0  0  0  0  0
   -3.7110  -17.6987   11.6053 H   0  0  0  0  0
   -3.1772  -17.3903    9.9107 H   0  0  0  0  0
   -6.1904  -17.3292   12.1548 H   0  0  0  0  0
   -8.4806  -17.8780   11.3372 H   0  0  0  0  0
   -6.9562  -18.2145    7.3106 H   0  0  0  0  0
   -4.6690  -17.6725    8.1333 H   0  0  0  0  0
   -9.1040  -18.5284    7.8761 H   0  0  0  0  0
   -4.4404  -13.8190   10.1699 H   0  0  0  0  0
   -4.3180  -12.7711    8.2424 H   0  0  0  0  0
   -1.8255  -13.3108    6.7601 H   0  0  0  0  0
   -2.6215  -12.3940   10.1643 H   0  0  0  0  0
   -2.6234  -10.6568    9.3286 H   0  0  0  0  0
   -0.2300  -10.9025   10.4528 H   0  0  0  0  0
   -1.6648  -10.0498   11.1418 H   0  0  0  0  0
   -3.8900  -14.7184    6.0526 H   0  0  0  0  0
   -4.7395  -11.8210    5.8606 H   0  0  0  0  0
   -3.2510  -12.5510    5.2105 H   0  0  0  0  0
   -4.8359  -13.0205    4.5480 H   0  0  0  0  0
   -5.8618  -15.1779    7.3928 H   0  0  0  0  0
   -6.3918  -13.4838    7.2507 H   0  0  0  0  0
   -6.3431  -14.5256    5.8073 H   0  0  0  0  0
  2  1  1  0  0  0
  3  2  1  0  0  0
  4  3  1  0  0  0
  5  4  1  0  0  0
  6  5  1  0  0  0
  7  6  1  0  0  0
  8  7  2  0  0  0
 22  8  1  0  0  0
  9 10  1  0  0  0
 26  9  1  0  0  0
 10 11  4  0  0  0
 10 14  4  0  0  0
 11 12  4  0  0  0
 12 13  4  0  0  0
 27 13  4  0  0  0
 13 28  1  0  0  0
 14 27  4  0  0  0
 15 26  1  0  0  0
 15 29  2  0  0  0
 30 15  1  0  0  0
 32 16  1  0  0  0
 31 17  1  0  0  0
 17 34  2  0  0  0
 17 35  1  0  0  0
 18 19  1  0  0  0
 35 18  1  0  0  0
 18 54  1  0  0  0
 19 36  1  0  0  0
 20 21  1  0  0  0
 36 20  1  0  0  0
 20 37  2  0  0  0
 21 38  1  0  0  0
 21 46  1  0  0  0
 23 22  1  0  0  0
 23 24  2  0  0  0
 25 23  1  0  0  0
 26 25  1  0  0  0
 31 30  1  0  0  0
 31 32  1  0  0  0
 32 33  1  0  0  0
 38 39  1  0  0  0
 39 40  4  0  0  0
 39 44  4  0  0  0
 40 41  4  0  0  0
 41 42  4  0  0  0
 42 43  4  0  0  0
 42 45  1  0  0  0
 43 44  4  0  0  0
 46 47  1  0  0  0
 47 48  2  0  0  0
 47 49  1  0  0  0
 49 50  1  0  0  0
 49 55  1  0  0  0
 50 51  1  0  0  0
 51 52  2  0  0  0
 51 53  1  0  0  0
 53 54  1  0  0  0
 55 56  1  0  0  0
 55 57  1  0  0  0
  1 58  1  0  0  0
  1 59  1  0  0  0
  1 60  1  0  0  0
  2 61  1  0  0  0
  2 62  1  0  0  0
  3 63  1  0  0  0
  3 64  1  0  0  0
  4 65  1  0  0  0
  4 66  1  0  0  0
  5 67  1  0  0  0
  5 68  1  0  0  0
  6 69  1  0  0  0
  6 70  1  0  0  0
  7 71  1  0  0  0
  8 72  1  0  0  0
  9 73  1  0  0  0
  9 74  1  0  0  0
 11 75  1  0  0  0
 12 76  1  0  0  0
 14 77  1  0  0  0
 16 78  1  0  0  0
 16 79  1  0  0  0
 16 80  1  0  0  0
 18 81  1  0  0  0
 19 82  1  0  0  0
 19 83  1  0  0  0
 21 84  1  0  0  0
 22 85  1  0  0  0
 22 86  1  0  0  0
 25 87  1  0  0  0
 26 88  1  0  0  0
 27 89  1  0  0  0
 28 90  1  0  0  0
 30 91  1  0  0  0
 31 92  1  0  0  0
 32 93  1  0  0  0
 33 94  1  0  0  0
 33 95  1  0  0  0
 33 96  1  0  0  0
 35 97  1  0  0  0
 38 98  1  0  0  0
 38 99  1  0  0  0
 40100  1  0  0  0
 41101  1  0  0  0
 43102  1  0  0  0
 44103  1  0  0  0
 45104  1  0  0  0
 46105  1  0  0  0
 49106  1  0  0  0
 50107  1  0  0  0
 53108  1  0  0  0
 53109  1  0  0  0
 54110  1  0  0  0
 54111  1  0  0  0
 55112  1  0  0  0
 56113  1  0  0  0
 56114  1  0  0  0
 56115  1  0  0  0
 57116  1  0  0  0
 57117  1  0  0  0
 57118  1  0  0  0
M  END
$$$$
