6mbo_ligand
  -I-interpret- 

 92 96  0  0  0  0  0  0  0  0999 V2000
  -18.4590   16.7950    5.7060 C   0  0  0  0  0
  -17.7070   18.1280    7.3950 C   0  0  0  0  0
  -13.4550   10.0450    6.8800 C   0  0  0  0  0
  -10.9810    9.2910    6.6950 C   0  0  0  0  0
  -10.3170    8.2950    3.7140 C   0  0  0  0  0
   -9.7560    7.4940    2.5330 C   0  0  0  0  0
   -8.8100    6.4660    0.3620 C   0  0  0  0  0
   -7.5260    7.9770    3.2020 C   0  0  0  0  0
  -11.2640   14.4940    7.4210 C   0  0  0  0  0
  -12.6170   12.5890    7.8320 C   0  0  0  0  0
  -14.0010   12.3180    7.6780 C   0  0  0  0  0
  -15.0400   14.4520    7.1890 C   0  0  0  0  0
  -16.0800   15.4410    7.8150 C   0  0  0  0  0
  -16.4950   16.5850    6.8420 C   0  0  0  0  0
  -19.4950   17.6090    5.8450 C   0  0  0  0  0
  -19.0650   18.6410    6.8020 C   0  0  0  0  0
  -14.4170   11.0620    7.2120 C   0  0  0  0  0
  -12.1040   10.3310    7.0270 C   0  0  0  0  0
   -9.3710    8.4890    4.7990 C   0  0  0  0  0
   -8.0850    7.6780    1.0000 C   0  0  0  0  0
   -6.5530    7.6060    0.8340 C   0  0  0  0  0
   -8.0260    8.8220    4.3800 C   0  0  0  0  0
  -12.1080    6.9170    6.6340 C   0  0  0  0  0
  -13.5630    7.3860    6.7720 C   0  0  0  0  0
  -14.6620    6.2480    6.8240 C   0  0  0  0  0
  -15.2560    6.4190    5.4250 C   0  0  0  0  0
  -16.2790    5.3180    5.1320 C   0  0  0  0  0
  -17.3500    5.2010    6.2250 C   0  0  0  0  0
  -16.7650    5.1430    7.6420 C   0  0  0  0  0
  -15.7540    6.2600    7.8980 C   0  0  0  0  0
  -11.6720   11.6020    7.5080 C   0  0  0  0  0
  -17.6120   16.9230    7.0410 N   0  0  0  0  0
   -9.8960    9.6060    5.6640 N   0  3  0  0  0
   -8.4810    8.0170    2.1190 N   0  3  0  0  0
  -11.1440    7.9010    7.1450 N   0  3  0  0  0
  -13.9210    8.7360    6.3810 N   0  0  0  0  0
  -12.1700   13.8390    8.3030 O   0  0  0  0  0
  -14.9830   13.3070    8.0120 O   0  0  0  0  0
  -18.2338   16.1638    4.8464 H   0  0  0  0  0
  -17.6860   18.2255    8.4804 H   0  0  0  0  0
  -16.8662   18.7168    7.0281 H   0  0  0  0  0
  -10.3657    9.6831    7.5048 H   0  0  0  0  0
  -11.1589    7.7314    4.1160 H   0  0  0  0  0
  -10.5838    9.2824    3.3373 H   0  0  0  0  0
  -10.4527    7.5655    1.6978 H   0  0  0  0  0
   -9.6263    6.4569    2.8423 H   0  0  0  0  0
   -8.5891    6.4325   -0.7049 H   0  0  0  0  0
   -8.4639    5.5470    0.8350 H   0  0  0  0  0
   -9.8852    6.5690    0.5087 H   0  0  0  0  0
   -7.4017    6.9451    3.5303 H   0  0  0  0  0
   -6.5743    8.3781    2.8536 H   0  0  0  0  0
  -10.3835   13.8680    7.2760 H   0  0  0  0  0
  -11.7522   14.6644    6.4615 H   0  0  0  0  0
  -10.9652   15.4492    7.8528 H   0  0  0  0  0
  -14.0590   14.9233    7.1283 H   0  0  0  0  0
  -15.3410   14.1766    6.1782 H   0  0  0  0  0
  -15.6173   15.8999    8.6887 H   0  0  0  0  0
  -16.9763   14.8703    8.0577 H   0  0  0  0  0
  -16.4157   16.2207    5.8178 H   0  0  0  0  0
  -15.8362   17.4384    7.0023 H   0  0  0  0  0
  -20.4644   17.5306    5.3528 H   0  0  0  0  0
  -18.9467   19.6097    6.3165 H   0  0  0  0  0
  -19.8087   18.7933    7.5842 H   0  0  0  0  0
  -15.4811   10.8542    7.1002 H   0  0  0  0  0
   -9.2909    7.5374    5.3245 H   0  0  0  0  0
   -8.4006    8.5332    0.4025 H   0  0  0  0  0
   -6.1210    8.5872    1.0306 H   0  0  0  0  0
   -6.1462    6.8807    1.5387 H   0  0  0  0  0
   -6.3132    7.2993   -0.1841 H   0  0  0  0  0
   -8.0314    9.8632    4.0576 H   0  0  0  0  0
   -7.3632    8.6322    5.2242 H   0  0  0  0  0
  -11.9037    6.7678    5.5738 H   0  0  0  0  0
  -11.9943    6.0031    7.2171 H   0  0  0  0  0
  -13.5848    7.6864    7.8195 H   0  0  0  0  0
  -14.2019    5.3000    7.1025 H   0  0  0  0  0
  -14.4523    6.3570    4.6913 H   0  0  0  0  0
  -15.7548    7.3866    5.3702 H   0  0  0  0  0
  -15.7453    4.3689    5.0826 H   0  0  0  0  0
  -16.7803    5.5664    4.1966 H   0  0  0  0  0
  -17.8951    4.2725    6.0548 H   0  0  0  0  0
  -17.9812    6.0876    6.1647 H   0  0  0  0  0
  -16.2510    4.1887    7.7569 H   0  0  0  0  0
  -17.5845    5.2594    8.3513 H   0  0  0  0  0
  -16.2701    7.2196    7.8689 H   0  0  0  0  0
  -15.2939    6.1056    8.8740 H   0  0  0  0  0
  -10.6079   11.8075    7.6242 H   0  0  0  0  0
   -9.0932    9.9164    6.2113 H   0  0  0  0  0
  -10.3306   10.2616    5.0146 H   0  0  0  0  0
   -8.6237    9.0080    1.9240 H   0  0  0  0  0
  -11.4744    8.0332    8.1009 H   0  0  0  0  0
  -10.2575    7.4875    6.8561 H   0  0  0  0  0
  -14.6129    8.7903    5.6336 H   0  0  0  0  0
  1 15  2  0  0  0
 32  1  1  0  0  0
  2 16  1  0  0  0
 32  2  1  0  0  0
  3 17  4  0  0  0
 18  3  4  0  0  0
  3 36  1  0  0  0
  4 18  1  0  0  0
  4 33  1  0  0  0
 35  4  1  0  0  0
  5  6  1  0  0  0
 19  5  1  0  0  0
  6 34  1  0  0  0
 20  7  1  0  0  0
 22  8  1  0  0  0
  8 34  1  0  0  0
 37  9  1  0  0  0
 10 11  4  0  0  0
 31 10  4  0  0  0
 10 37  1  0  0  0
 17 11  4  0  0  0
 11 38  1  0  0  0
 12 13  1  0  0  0
 38 12  1  0  0  0
 13 14  1  0  0  0
 14 32  1  0  0  0
 16 15  1  0  0  0
 18 31  4  0  0  0
 19 22  1  0  0  0
 33 19  1  0  0  0
 20 21  1  0  0  0
 34 20  1  0  0  0
 23 24  1  0  0  0
 23 35  1  0  0  0
 24 25  1  0  0  0
 24 36  1  0  0  0
 25 26  1  0  0  0
 25 30  1  0  0  0
 26 27  1  0  0  0
 27 28  1  0  0  0
 28 29  1  0  0  0
 29 30  1  0  0  0
  1 39  1  0  0  0
  2 40  1  0  0  0
  2 41  1  0  0  0
  4 42  1  0  0  0
  5 43  1  0  0  0
  5 44  1  0  0  0
  6 45  1  0  0  0
  6 46  1  0  0  0
  7 47  1  0  0  0
  7 48  1  0  0  0
  7 49  1  0  0  0
  8 50  1  0  0  0
  8 51  1  0  0  0
  9 52  1  0  0  0
  9 53  1  0  0  0
  9 54  1  0  0  0
 12 55  1  0  0  0
 12 56  1  0  0  0
 13 57  1  0  0  0
 13 58  1  0  0  0
 14 59  1  0  0  0
 14 60  1  0  0  0
 15 61  1  0  0  0
 16 62  1  0  0  0
 16 63  1  0  0  0
 17 64  1  0  0  0
 19 65  1  0  0  0
 20 66  1  0  0  0
 21 67  1  0  0  0
 21 68  1  0  0  0
 21 69  1  0  0  0
 22 70  1  0  0  0
 22 71  1  0  0  0
 23 72  1  0  0  0
 23 73  1  0  0  0
 24 74  1  0  0  0
 25 75  1  0  0  0
 26 76  1  0  0  0
 26 77  1  0  0  0
 27 78  1  0  0  0
 27 79  1  0  0  0
 28 80  1  0  0  0
 28 81  1  0  0  0
 29 82  1  0  0  0
 29 83  1  0  0  0
 30 84  1  0  0  0
 30 85  1  0  0  0
 31 86  1  0  0  0
 33 87  1  0  0  0
 33 88  1  0  0  0
 34 89  1  0  0  0
 35 90  1  0  0  0
 35 91  1  0  0  0
 36 92  1  0  0  0
M  END
$$$$
