6a80_ligand
  -I-interpret- 

 15 14  0  0  0  0  0  0  0  0999 V2000
   22.4100  -21.2700  -13.2560 N   0  3  0  0  0
   22.5130  -19.9000  -12.9120 C   0  0  0  0  0
   23.7910  -19.4010  -13.3580 C   0  0  0  0  0
   23.9760  -18.2570  -13.7860 O   0  0  0  0  0
   22.5610  -19.7950  -11.3940 C   0  0  0  0  0
   24.1570  -20.3200  -10.7270 S   0  0  0  0  0
   24.6320  -20.2550  -13.0610 O   0  0  0  0  0
   22.3764  -21.3628  -14.2712 H   0  0  0  0  0
   23.2208  -21.7721  -12.8942 H   0  0  0  0  0
   21.5589  -21.6583  -12.8495 H   0  0  0  0  0
   21.6783  -19.3541  -13.3518 H   0  0  0  0  0
   23.1287  -17.8278  -13.9255 H   0  0  0  0  0
   21.7897  -20.4466  -10.9833 H   0  0  0  0  0
   22.4043  -18.7517  -11.1200 H   0  0  0  0  0
   24.1407  -20.2072   -9.4019 H   0  0  0  0  0
  1  2  1  0  0  0
  2  3  1  0  0  0
  2  5  1  0  0  0
  3  4  1  0  0  0
  3  7  2  0  0  0
  5  6  1  0  0  0
  1  8  1  0  0  0
  1  9  1  0  0  0
  1 10  1  0  0  0
  2 11  1  0  0  0
  4 12  1  0  0  0
  5 13  1  0  0  0
  5 14  1  0  0  0
  6 15  1  0  0  0
M  END
$$$$
