3d0b_ligand
  -I-interpret- 

 51 54  0  0  0  0  0  0  0  0999 V2000
   -1.8740  -10.7690  -25.7390 O   0  0  0  0  0
   -1.5310  -11.3250  -24.7030 C   0  0  0  0  0
   -2.4140  -11.8260  -23.8380 N   0  0  0  0  0
   -0.0630  -11.5390  -24.4880 C   0  0  0  0  0
    0.3810  -12.5950  -23.6970 C   0  0  0  0  0
    1.7530  -12.8120  -23.5350 C   0  0  0  0  0
    0.9270  -10.6790  -25.1810 C   0  0  0  0  0
    0.5270   -9.6410  -25.9810 N   0  0  0  0  0
    1.4850   -8.7870  -26.6830 C   0  0  0  0  0
    0.8090   -7.7510  -27.5810 C   0  0  0  0  0
   -0.1760   -7.0500  -26.8170 O   0  0  0  0  0
   -0.1290   -5.6330  -26.9620 C   0  0  0  0  0
    2.2790  -10.9690  -24.9680 C   0  0  0  0  0
    2.7350  -12.0110  -24.1490 C   0  0  0  0  0
    4.0560  -12.2380  -24.0700 N   0  0  0  0  0
    4.9860  -11.3710  -23.6050 C   0  0  0  0  0
    4.9570  -10.1250  -22.9820 C   0  0  0  0  0
    6.1850   -9.5600  -22.5960 C   0  0  0  0  0
    7.4130  -10.1970  -22.8090 C   0  0  0  0  0
    7.5090  -11.4460  -23.4230 C   0  0  0  0  0
    4.5220  -13.3670  -24.6490 C   0  0  0  0  0
    3.8300  -14.5500  -25.2880 C   0  0  0  0  0
    4.8560  -15.4580  -25.9860 C   0  0  0  0  0
    6.1980  -15.6650  -25.2850 C   0  0  0  0  0
    6.8930  -14.3660  -24.9490 C   0  0  0  0  0
    8.0950  -14.2160  -25.0670 O   0  0  0  0  0
    5.9720  -13.2980  -24.4900 C   0  0  0  0  0
    6.3110  -12.0310  -23.8220 C   0  0  0  0  0
   -3.4132  -11.7528  -24.0292 H   0  0  0  0  0
   -2.0900  -12.2823  -22.9852 H   0  0  0  0  0
   -0.3382  -13.2504  -23.2057 H   0  0  0  0  0
    2.0773  -13.6396  -22.9041 H   0  0  0  0  0
   -0.4704   -9.4580  -26.0905 H   0  0  0  0  0
    2.1004   -9.4263  -27.3160 H   0  0  0  0  0
    2.0655   -8.2501  -25.9328 H   0  0  0  0  0
    0.3345   -8.2491  -28.4265 H   0  0  0  0  0
    1.5522   -7.0485  -27.9581 H   0  0  0  0  0
    0.8461   -5.2682  -26.6391 H   0  0  0  0  0
   -0.2885   -5.3706  -28.0079 H   0  0  0  0  0
   -0.9088   -5.1803  -26.3495 H   0  0  0  0  0
    3.0217  -10.3478  -25.4686 H   0  0  0  0  0
    4.0155   -9.6067  -22.8004 H   0  0  0  0  0
    6.1807   -8.5843  -22.1101 H   0  0  0  0  0
    8.3267   -9.6996  -22.4836 H   0  0  0  0  0
    8.4694  -11.9366  -23.5815 H   0  0  0  0  0
    3.1161  -14.1869  -26.0274 H   0  0  0  0  0
    3.3178  -15.1221  -24.5144 H   0  0  0  0  0
    5.0889  -14.9684  -26.9316 H   0  0  0  0  0
    4.3932  -16.4436  -26.0352 H   0  0  0  0  0
    6.8446  -16.2228  -25.9623 H   0  0  0  0  0
    6.0072  -16.1918  -24.3500 H   0  0  0  0  0
  1  2  2  0  0  0
  2  3  1  0  0  0
  2  4  1  0  0  0
  4  5  4  0  0  0
  4  7  4  0  0  0
  5  6  4  0  0  0
  6 14  4  0  0  0
  7  8  1  0  0  0
  7 13  4  0  0  0
  8  9  1  0  0  0
  9 10  1  0  0  0
 10 11  1  0  0  0
 11 12  1  0  0  0
 13 14  4  0  0  0
 14 15  1  0  0  0
 15 16  4  0  0  0
 15 21  4  0  0  0
 16 17  4  0  0  0
 16 28  4  0  0  0
 17 18  4  0  0  0
 18 19  4  0  0  0
 19 20  4  0  0  0
 20 28  4  0  0  0
 21 22  1  0  0  0
 21 27  4  0  0  0
 22 23  1  0  0  0
 23 24  1  0  0  0
 24 25  1  0  0  0
 25 26  2  0  0  0
 25 27  1  0  0  0
 27 28  4  0  0  0
  3 29  1  0  0  0
  3 30  1  0  0  0
  5 31  1  0  0  0
  6 32  1  0  0  0
  8 33  1  0  0  0
  9 34  1  0  0  0
  9 35  1  0  0  0
 10 36  1  0  0  0
 10 37  1  0  0  0
 12 38  1  0  0  0
 12 39  1  0  0  0
 12 40  1  0  0  0
 13 41  1  0  0  0
 17 42  1  0  0  0
 18 43  1  0  0  0
 19 44  1  0  0  0
 20 45  1  0  0  0
 22 46  1  0  0  0
 22 47  1  0  0  0
 23 48  1  0  0  0
 23 49  1  0  0  0
 24 50  1  0  0  0
 24 51  1  0  0  0
M  END
$$$$
