6ay5_ligand
  -I-interpret- 

 50 54  0  0  0  0  0  0  0  0999 V2000
   -2.0730    5.5120    0.1890 C   0  0  0  0  0
   -1.7260    6.8930    0.1850 C   0  0  0  0  0
    0.3590    3.3390   -1.7930 C   0  0  0  0  0
   -1.2470    4.3540   -0.2760 C   0  0  0  0  0
   -1.2680    3.1650    0.4730 C   0  0  0  0  0
   -0.4830    2.0670    0.0850 C   0  0  0  0  0
    0.3000    2.1520   -1.0690 C   0  0  0  0  0
   -0.4250    4.4310   -1.4280 C   0  0  0  0  0
   -0.3540    5.6700   -2.2630 C   0  0  0  0  0
   -3.6750    6.7160    1.1030 N   0  0  0  0  0
   -3.3010    5.4430    0.7860 C   0  0  0  0  0
   -4.9480    7.0960    1.7350 C   0  0  0  0  0
    1.2270   -0.1120   -0.5430 C   0  0  0  0  0
   -0.1030   -0.4510    0.1260 C   0  0  0  0  0
   -0.5680    0.7870    0.9160 C   0  0  0  0  0
    2.0880    1.1780   -2.4380 C   0  0  0  0  0
    1.7180    1.2060   -3.7920 C   0  0  0  0  0
    2.6850    1.3860   -4.7650 C   0  0  0  0  0
    4.0180    1.4800   -4.3660 C   0  0  0  0  0
    4.4220    1.4400   -3.0230 C   0  0  0  0  0
    3.4250    1.3220   -2.0390 C   0  0  0  0  0
    6.5430    1.8400   -3.9330 C   0  0  0  0  0
    6.4180    1.7450   -1.4960 C   0  0  0  0  0
    0.0560    5.3120   -3.5430 F   0  0  0  0  0
    0.6020    6.5610   -1.8000 F   0  0  0  0  0
    1.1170    1.0540   -1.4170 N   0  0  0  0  0
    5.7900    1.6420   -2.8440 N   0  0  0  0  0
   -2.6850    7.6160    0.6900 N   0  0  0  0  0
    7.7270    2.0780   -3.9840 O   0  0  0  0  0
    5.4520    1.6990   -5.3360 S   0  0  0  0  0
   -0.7837    7.2920   -0.1905 H   0  0  0  0  0
    1.0244    3.4149   -2.6530 H   0  0  0  0  0
   -1.8972    3.0946    1.3602 H   0  0  0  0  0
   -1.3390    6.1358   -2.2335 H   0  0  0  0  0
   -3.8761    4.5364    0.9743 H   0  0  0  0  0
   -5.7756    6.7866    1.0968 H   0  0  0  0  0
   -5.0318    6.6048    2.7044 H   0  0  0  0  0
   -4.9764    8.1772    1.8704 H   0  0  0  0  0
    1.5316   -0.9653   -1.1490 H   0  0  0  0  0
    1.9539    0.1136    0.2373 H   0  0  0  0  0
    0.0189   -1.3016    0.7966 H   0  0  0  0  0
   -0.8453   -0.7184   -0.6260 H   0  0  0  0  0
   -1.6091    0.6361    1.2012 H   0  0  0  0  0
    0.0835    0.9010    1.7824 H   0  0  0  0  0
    0.6724    1.0863   -4.0757 H   0  0  0  0  0
    2.4116    1.4527   -5.8180 H   0  0  0  0  0
    3.6871    1.3421   -0.9812 H   0  0  0  0  0
    5.9812    2.5853   -0.9563 H   0  0  0  0  0
    6.2395    0.8234   -0.9420 H   0  0  0  0  0
    7.4910    1.9014   -1.6074 H   0  0  0  0  0
  1  2  4  0  0  0
  4  1  1  0  0  0
  1 11  4  0  0  0
  2 28  4  0  0  0
  7  3  4  0  0  0
  3  8  4  0  0  0
  5  4  4  0  0  0
  8  4  4  0  0  0
  6  5  4  0  0  0
  7  6  4  0  0  0
  6 15  1  0  0  0
 26  7  1  0  0  0
  8  9  1  0  0  0
  9 24  1  0  0  0
  9 25  1  0  0  0
 11 10  4  0  0  0
 10 12  1  0  0  0
 10 28  4  0  0  0
 13 14  1  0  0  0
 26 13  1  0  0  0
 14 15  1  0  0  0
 16 17  4  0  0  0
 16 21  4  0  0  0
 16 26  1  0  0  0
 17 18  4  0  0  0
 18 19  4  0  0  0
 19 20  4  0  0  0
 19 30  1  0  0  0
 20 21  4  0  0  0
 20 27  1  0  0  0
 27 22  1  0  0  0
 22 29  2  0  0  0
 22 30  1  0  0  0
 27 23  1  0  0  0
  2 31  1  0  0  0
  3 32  1  0  0  0
  5 33  1  0  0  0
  9 34  1  0  0  0
 11 35  1  0  0  0
 12 36  1  0  0  0
 12 37  1  0  0  0
 12 38  1  0  0  0
 13 39  1  0  0  0
 13 40  1  0  0  0
 14 41  1  0  0  0
 14 42  1  0  0  0
 15 43  1  0  0  0
 15 44  1  0  0  0
 17 45  1  0  0  0
 18 46  1  0  0  0
 21 47  1  0  0  0
 23 48  1  0  0  0
 23 49  1  0  0  0
 23 50  1  0  0  0
M  END
$$$$
