### 
### Created by X-TOOL on Mon Sep 10 21:13:31 2018
### 

@<TRIPOS>MOLECULE
5U48_LIGAND
   32    33     1     0     0
SMALL
GAST_HUCK


@<TRIPOS>ATOM
      1 C01       -22.5730   -0.9950  -30.6240 C.ar      1 S4B        -0.0680
      2 C02       -21.6080   -0.1960  -30.0310 C.ar      1 S4B        -0.0909
      3 C03       -21.5480   -0.0900  -28.6450 C.ar      1 S4B        -0.0960
      4 C04       -22.4560   -0.7800  -27.8590 C.ar      1 S4B        -0.1015
      5 C05       -23.4140   -1.5840  -28.4570 C.ar      1 S4B        -0.0960
      6 C06       -23.4760   -1.6890  -29.8370 C.ar      1 S4B        -0.0909
      7 C07       -22.4060   -0.6960  -26.3450 C.2       1 S4B        -0.1506
      8 C08       -21.4850   -0.0580  -25.6090 C.2       1 S4B        -0.1555
      9 C09       -21.4680   -0.0160  -24.0950 C.ar      1 S4B        -0.1197
     10 C10       -21.1300    1.1420  -23.4160 C.ar      1 S4B        -0.0791
     11 C11       -21.1200    1.1570  -22.0280 C.ar      1 S4B         0.0497
     12 C12       -21.4380    0.0210  -21.3030 C.ar      1 S4B        -0.0344
     13 C13       -21.7650   -1.1350  -21.9870 C.ar      1 S4B         0.0497
     14 C14       -21.7830   -1.1560  -23.3740 C.ar      1 S4B        -0.0791
     15 O01       -22.0920   -2.2960  -21.2760 O.3       1 S4B        -0.3436
     16 O02       -20.7770    2.3360  -21.3540 O.3       1 S4B        -0.3436
     17 O03       -23.7670   -1.8170  -32.8650 O.3       1 S4B        -0.8710
     18 O04       -21.6240   -0.6040  -33.0900 O.3       1 S4B        -0.8710
     19 B01       -22.6590   -1.1420  -32.2670 B         1 S4B         3.0000
     20 H         -20.8961    0.3493  -30.6506 H         1 S4B         0.0525
     21 H         -20.7871    0.5355  -28.1782 H         1 S4B         0.0393
     22 H         -24.1217   -2.1361  -27.8386 H         1 S4B         0.0393
     23 H         -24.2351   -2.3175  -30.3027 H         1 S4B         0.0525
     24 H         -23.2000   -1.2066  -25.8001 H         1 S4B         0.0023
     25 H         -20.6909    0.4686  -26.1383 H         1 S4B         0.0008
     26 H         -20.8714    2.0432  -23.9720 H         1 S4B         0.0226
     27 H         -21.4306    0.0379  -20.2132 H         1 S4B         0.0249
     28 H         -22.0463   -2.0742  -23.8991 H         1 S4B         0.0226
     29 H         -22.0334   -2.1202  -20.3341 H         1 S4B         0.2463
     30 H         -21.5094    2.6094  -20.7968 H         1 S4B         0.2463
     31 H         -24.3674   -2.1151  -32.1778 H         1 S4B        -0.1290
     32 H         -20.9605   -0.1866  -32.5358 H         1 S4B        -0.1290
@<TRIPOS>BOND
     1    1    2 ar 
     2    1    6 ar 
     3    1   19 1  
     4    2    3 ar 
     5    3    4 ar 
     6    4    5 ar 
     7    4    7 1  
     8    5    6 ar 
     9    7    8 2  
    10    8    9 1  
    11    9   10 ar 
    12    9   14 ar 
    13   10   11 ar 
    14   11   12 ar 
    15   11   16 1  
    16   12   13 ar 
    17   13   14 ar 
    18   13   15 1  
    19   19   17 1  
    20   19   18 1  
    21    2   20 1  
    22    3   21 1  
    23    5   22 1  
    24    6   23 1  
    25    7   24 1  
    26    8   25 1  
    27   10   26 1  
    28   12   27 1  
    29   14   28 1  
    30   15   29 1  
    31   16   30 1  
    32   17   31 1  
    33   18   32 1  
@<TRIPOS>SUBSTRUCTURE
     1 S4B         1

