5U48_LIGAND
  -I-interpret- 

 32 33  0  0  0  0  0  0  0  0999 V2000
  -22.5730   -0.9950  -30.6240 C   0  0  0  0  0
  -21.6080   -0.1960  -30.0310 C   0  0  0  0  0
  -21.5480   -0.0900  -28.6450 C   0  0  0  0  0
  -22.4560   -0.7800  -27.8590 C   0  0  0  0  0
  -23.4140   -1.5840  -28.4570 C   0  0  0  0  0
  -23.4760   -1.6890  -29.8370 C   0  0  0  0  0
  -22.4060   -0.6960  -26.3450 C   0  0  0  0  0
  -21.4850   -0.0580  -25.6090 C   0  0  0  0  0
  -21.4680   -0.0160  -24.0950 C   0  0  0  0  0
  -21.1300    1.1420  -23.4160 C   0  0  0  0  0
  -21.1200    1.1570  -22.0280 C   0  0  0  0  0
  -21.4380    0.0210  -21.3030 C   0  0  0  0  0
  -21.7650   -1.1350  -21.9870 C   0  0  0  0  0
  -21.7830   -1.1560  -23.3740 C   0  0  0  0  0
  -22.0920   -2.2960  -21.2760 O   0  0  0  0  0
  -20.7770    2.3360  -21.3540 O   0  0  0  0  0
  -23.7670   -1.8170  -32.8650 O   0  0  0  0  0
  -21.6240   -0.6040  -33.0900 O   0  0  0  0  0
  -22.6590   -1.1420  -32.2670 B   0  0  0  0  0
  -20.8961    0.3493  -30.6506 H   0  0  0  0  0
  -20.7871    0.5355  -28.1782 H   0  0  0  0  0
  -24.1217   -2.1361  -27.8386 H   0  0  0  0  0
  -24.2351   -2.3175  -30.3027 H   0  0  0  0  0
  -23.2000   -1.2066  -25.8001 H   0  0  0  0  0
  -20.6909    0.4686  -26.1383 H   0  0  0  0  0
  -20.8714    2.0432  -23.9720 H   0  0  0  0  0
  -21.4306    0.0379  -20.2132 H   0  0  0  0  0
  -22.0463   -2.0742  -23.8991 H   0  0  0  0  0
  -22.2921   -3.0027  -21.8941 H   0  0  0  0  0
  -20.8167    2.1849  -20.4068 H   0  0  0  0  0
  -24.3674   -2.1151  -32.1778 H   0  0  0  0  0
  -20.9605   -0.1866  -32.5358 H   0  0  0  0  0
  1  2  4  0  0  0
  1  6  4  0  0  0
  1 19  1  0  0  0
  2  3  4  0  0  0
  3  4  4  0  0  0
  4  5  4  0  0  0
  4  7  1  0  0  0
  5  6  4  0  0  0
  7  8  2  0  0  0
  8  9  1  0  0  0
  9 10  4  0  0  0
  9 14  4  0  0  0
 10 11  4  0  0  0
 11 12  4  0  0  0
 11 16  1  0  0  0
 12 13  4  0  0  0
 13 14  4  0  0  0
 13 15  1  0  0  0
 19 17  1  0  0  0
 19 18  1  0  0  0
  2 20  1  0  0  0
  3 21  1  0  0  0
  5 22  1  0  0  0
  6 23  1  0  0  0
  7 24  1  0  0  0
  8 25  1  0  0  0
 10 26  1  0  0  0
 12 27  1  0  0  0
 14 28  1  0  0  0
 15 29  1  0  0  0
 16 30  1  0  0  0
 17 31  1  0  0  0
 18 32  1  0  0  0
M  END
$$$$
