1zea_ligand
  -I-interpret- 

130132  0  0  0  0  0  0  0  0999 V2000
   37.8820   53.4850   93.7850 N   0  3  0  0  0
   39.1060   52.8250   94.3190 C   0  0  0  0  0
   38.8570   51.3140   94.4940 C   0  0  0  0  0
   37.8020   51.0730   95.5620 C   0  0  0  0  0
   38.3960   50.7300   93.1560 C   0  0  0  0  0
   39.5570   53.5590   95.6040 C   0  0  0  0  0
   39.1260   54.6960   95.8310 O   0  0  0  0  0
   40.4460   52.9620   96.4400 N   0  0  0  0  0
   41.1580   51.6750   96.4300 C   0  0  0  0  0
   41.6390   51.5430   97.8680 C   0  0  0  0  0
   41.9980   52.9510   98.1900 C   0  0  0  0  0
   40.8100   53.7250   97.6500 C   0  0  0  0  0
   42.3240   51.7180   95.4450 C   0  0  0  0  0
   43.3630   51.0810   95.6430 O   0  0  0  0  0
   42.1350   52.4930   94.3860 N   0  0  0  0  0
   43.1500   52.6270   93.3700 C   0  0  0  0  0
   42.4440   52.7410   92.0440 C   0  0  0  0  0
   41.2140   52.7400   91.9860 O   0  0  0  0  0
   43.2200   52.8370   90.9760 N   0  0  0  0  0
   42.6740   52.9550   89.6430 C   0  0  0  0  0
   43.3200   54.1600   88.9860 C   0  0  0  0  0
   44.5160   54.3680   89.1140 O   0  0  0  0  0
   43.0510   51.7330   88.8120 C   0  0  0  0  0
   42.7100   51.9450   87.4520 O   0  0  0  0  0
   42.5390   54.9430   88.2640 N   0  0  0  0  0
   43.1200   56.0860   87.5790 C   0  0  0  0  0
   43.9980   55.6260   86.4180 C   0  0  0  0  0
   44.8030   56.4020   85.8940 O   0  0  0  0  0
   42.0010   57.0040   87.0710 C   0  0  0  0  0
   41.2140   57.6270   88.2500 C   0  0  0  0  0
   39.9770   58.4380   87.8250 C   0  0  0  0  0
   39.2450   58.9790   88.6740 O   0  0  0  0  0
   39.7500   58.5310   86.5310 N   0  0  0  0  0
   43.8400   54.3630   86.0190 N   0  0  0  0  0
   44.6000   53.8080   84.8780 C   0  0  0  0  0
   45.9060   53.1770   85.2650 C   0  0  0  0  0
   46.8340   53.1170   84.4460 O   0  0  0  0  0
   43.8350   52.6860   84.1730 C   0  0  0  0  0
   42.6250   53.1420   83.4150 C   0  0  0  0  0
   42.6950   53.6830   82.1460 N   0  0  0  0  0
   41.3120   53.1140   83.7450 C   0  0  0  0  0
   41.4710   53.9650   81.7230 C   0  0  0  0  0
   40.6110   53.6290   82.6770 N   0  0  0  0  0
   45.9640   52.6780   86.4950 N   0  0  0  0  0
   47.1310   51.9110   86.9290 C   0  0  0  0  0
   47.8150   52.4090   88.1960 C   0  0  0  0  0
   48.9250   51.9700   88.5100 O   0  0  0  0  0
   46.6990   50.4520   87.1080 C   0  0  0  0  0
   45.9710   49.9000   85.8920 C   0  0  0  0  0
   46.6160   49.7990   84.6550 C   0  0  0  0  0
   44.6270   49.5110   85.9740 C   0  0  0  0  0
   45.9530   49.3240   83.5110 C   0  0  0  0  0
   43.9470   49.0290   84.8410 C   0  0  0  0  0
   44.6040   48.9350   83.6230 C   0  0  0  0  0
   43.9220   48.4420   82.5330 O   0  0  0  0  0
   47.1450   53.3070   88.9160 N   0  0  0  0  0
   47.6910   53.8780   90.1550 C   0  0  0  0  0
   47.9100   55.3890   90.1030 C   0  0  0  0  0
   47.6120   56.0510   89.1000 O   0  0  0  0  0
   46.7570   53.5930   91.3330 C   0  0  0  0  0
   46.4750   52.1240   91.5070 C   0  0  0  0  0
   47.4160   51.3140   91.3580 O   0  0  0  0  0
   45.3210   51.7770   91.8080 O   0  0  0  0  0
   48.4200   55.8980   91.2260 N   0  0  0  0  0
   48.7020   57.3100   91.4910 C   0  0  0  0  0
   50.1600   57.6950   91.2850 C   0  0  0  0  0
   50.4500   58.4390   90.3260 O   0  0  0  0  0
   50.9930   57.2420   92.1040 O   0  0  0  0  0
   47.7910   58.2300   90.6690 C   0  0  0  0  0
   47.9550   59.5890   91.0560 O   0  0  0  0  0
   37.5804   53.0045   92.9373 H   0  0  0  0  0
   37.1408   53.4408   94.4843 H   0  0  0  0  0
   38.0896   54.4600   93.5691 H   0  0  0  0  0
   39.9359   52.9003   93.6164 H   0  0  0  0  0
   39.7795   50.8266   94.8095 H   0  0  0  0  0
   36.8695   51.5526   95.2645 H   0  0  0  0  0
   37.6405   50.0011   95.6760 H   0  0  0  0  0
   38.1423   51.4932   96.5084 H   0  0  0  0  0
   38.2357   49.6574   93.2651 H   0  0  0  0  0
   37.4647   51.2089   92.8536 H   0  0  0  0  0
   39.1605   50.9094   92.4000 H   0  0  0  0  0
   40.5433   50.8323   96.1136 H   0  0  0  0  0
   42.4655   50.8428   97.9896 H   0  0  0  0  0
   40.8941   51.1175   98.5404 H   0  0  0  0  0
   42.9455   53.2613   97.7496 H   0  0  0  0  0
   42.1668   53.1158   99.2542 H   0  0  0  0  0
   39.9918   53.8008   98.3661 H   0  0  0  0  0
   41.0436   54.7687   97.4394 H   0  0  0  0  0
   41.2571   53.0030   94.2881 H   0  0  0  0  0
   43.8151   51.7635   93.3768 H   0  0  0  0  0
   43.7627   53.5093   93.5548 H   0  0  0  0  0
   44.2327   52.8274   91.0973 H   0  0  0  0  0
   41.5894   53.0464   89.7005 H   0  0  0  0  0
   42.5084   50.8647   89.1859 H   0  0  0  0  0
   44.1252   51.5650   88.8896 H   0  0  0  0  0
   42.9512   51.1707   86.9383 H   0  0  0  0  0
   41.5407   54.7482   88.1880 H   0  0  0  0  0
   43.7458   56.6385   88.2799 H   0  0  0  0  0
   41.3133   56.4139   86.4653 H   0  0  0  0  0
   42.4476   57.8079   86.4858 H   0  0  0  0  0
   41.8893   58.3142   88.7597 H   0  0  0  0  0
   40.8608   56.8040   88.8712 H   0  0  0  0  0
   38.9486   59.0623   86.1907 H   0  0  0  0  0
   40.3756   58.0717   85.8692 H   0  0  0  0  0
   43.1782   53.7647   86.5134 H   0  0  0  0  0
   44.7609   54.6786   84.2422 H   0  0  0  0  0
   43.4882   52.0007   84.9464 H   0  0  0  0  0
   44.5168   52.2404   83.4486 H   0  0  0  0  0
   40.8886   52.7513   84.6816 H   0  0  0  0  0
   41.2142   54.3988   80.7566 H   0  0  0  0  0
   45.1894   52.8309   87.1408 H   0  0  0  0  0
   47.8846   52.0315   86.1507 H   0  0  0  0  0
   46.0149   50.4078   87.9554 H   0  0  0  0  0
   47.5975   49.8538   87.2594 H   0  0  0  0  0
   47.6615   50.0969   84.5764 H   0  0  0  0  0
   44.1026   49.5828   86.9269 H   0  0  0  0  0
   46.4727   49.2578   82.5551 H   0  0  0  0  0
   42.9021   48.7289   84.9202 H   0  0  0  0  0
   43.0217   48.2294   82.7896 H   0  0  0  0  0
   46.2239   53.6079   88.5974 H   0  0  0  0  0
   48.6619   53.3984   90.2793 H   0  0  0  0  0
   45.8095   54.0955   91.1387 H   0  0  0  0  0
   47.2433   53.9508   92.2405 H   0  0  0  0  0
   48.2157   51.7930   91.1284 H   0  0  0  0  0
   48.6346   55.2382   91.9737 H   0  0  0  0  0
   48.4889   57.4488   92.5509 H   0  0  0  0  0
   50.5398   56.6965   92.7511 H   0  0  0  0  0
   46.7545   57.9402   90.8414 H   0  0  0  0  0
   48.0544   58.1323   89.6158 H   0  0  0  0  0
   47.3754   60.1431   90.5281 H   0  0  0  0  0
  1  2  1  0  0  0
  2  3  1  0  0  0
  2  6  1  0  0  0
  3  4  1  0  0  0
  3  5  1  0  0  0
  6  7  2  0  0  0
  6  8  1  0  0  0
  8  9  1  0  0  0
  8 12  1  0  0  0
  9 10  1  0  0  0
  9 13  1  0  0  0
 10 11  1  0  0  0
 11 12  1  0  0  0
 13 14  2  0  0  0
 13 15  1  0  0  0
 15 16  1  0  0  0
 16 17  1  0  0  0
 17 18  2  0  0  0
 17 19  1  0  0  0
 19 20  1  0  0  0
 20 21  1  0  0  0
 20 23  1  0  0  0
 21 22  2  0  0  0
 21 25  1  0  0  0
 23 24  1  0  0  0
 25 26  1  0  0  0
 26 27  1  0  0  0
 26 29  1  0  0  0
 27 28  2  0  0  0
 27 34  1  0  0  0
 29 30  1  0  0  0
 30 31  1  0  0  0
 31 32  2  0  0  0
 31 33  1  0  0  0
 34 35  1  0  0  0
 35 36  1  0  0  0
 35 38  1  0  0  0
 36 37  2  0  0  0
 36 44  1  0  0  0
 38 39  1  0  0  0
 39 40  4  0  0  0
 39 41  4  0  0  0
 40 42  4  0  0  0
 41 43  4  0  0  0
 42 43  4  0  0  0
 44 45  1  0  0  0
 45 46  1  0  0  0
 45 48  1  0  0  0
 46 47  2  0  0  0
 46 56  1  0  0  0
 48 49  1  0  0  0
 49 50  4  0  0  0
 49 51  4  0  0  0
 50 52  4  0  0  0
 51 53  4  0  0  0
 52 54  4  0  0  0
 53 54  4  0  0  0
 54 55  1  0  0  0
 56 57  1  0  0  0
 57 58  1  0  0  0
 57 60  1  0  0  0
 58 59  2  0  0  0
 58 64  1  0  0  0
 60 61  1  0  0  0
 61 62  1  0  0  0
 61 63  2  0  0  0
 64 65  1  0  0  0
 65 66  1  0  0  0
 65 69  1  0  0  0
 66 67  2  0  0  0
 66 68  1  0  0  0
 69 70  1  0  0  0
  1 71  1  0  0  0
  1 72  1  0  0  0
  1 73  1  0  0  0
  2 74  1  0  0  0
  3 75  1  0  0  0
  4 76  1  0  0  0
  4 77  1  0  0  0
  4 78  1  0  0  0
  5 79  1  0  0  0
  5 80  1  0  0  0
  5 81  1  0  0  0
  9 82  1  0  0  0
 10 83  1  0  0  0
 10 84  1  0  0  0
 11 85  1  0  0  0
 11 86  1  0  0  0
 12 87  1  0  0  0
 12 88  1  0  0  0
 15 89  1  0  0  0
 16 90  1  0  0  0
 16 91  1  0  0  0
 19 92  1  0  0  0
 20 93  1  0  0  0
 23 94  1  0  0  0
 23 95  1  0  0  0
 24 96  1  0  0  0
 25 97  1  0  0  0
 26 98  1  0  0  0
 29 99  1  0  0  0
 29100  1  0  0  0
 30101  1  0  0  0
 30102  1  0  0  0
 33103  1  0  0  0
 33104  1  0  0  0
 34105  1  0  0  0
 35106  1  0  0  0
 38107  1  0  0  0
 38108  1  0  0  0
 41109  1  0  0  0
 42110  1  0  0  0
 44111  1  0  0  0
 45112  1  0  0  0
 48113  1  0  0  0
 48114  1  0  0  0
 50115  1  0  0  0
 51116  1  0  0  0
 52117  1  0  0  0
 53118  1  0  0  0
 55119  1  0  0  0
 56120  1  0  0  0
 57121  1  0  0  0
 60122  1  0  0  0
 60123  1  0  0  0
 62124  1  0  0  0
 64125  1  0  0  0
 65126  1  0  0  0
 68127  1  0  0  0
 69128  1  0  0  0
 69129  1  0  0  0
 70130  1  0  0  0
M  END
$$$$
