5eyk_ligand
  -I-interpret- 

 64 67  0  0  0  0  0  0  0  0999 V2000
    7.7600    2.5630    5.0420 C   0  0  0  0  0
    9.1380    2.7820    5.3110 C   0  0  0  0  0
    9.5400    3.9010    6.0720 C   0  0  0  0  0
   11.3770    2.7170    5.7610 C   0  0  0  0  0
   11.7650    0.2720    4.4280 N   0  0  0  0  0
    9.3550    0.1710    3.6850 C   0  0  0  0  0
    7.6590   -1.5180    3.2220 C   0  0  0  0  0
    7.7970    0.4420    1.7880 C   0  0  0  0  0
   13.6390   -1.0830    4.1730 C   0  0  0  0  0
   14.3470   -2.1100    3.5970 C   0  0  0  0  0
   13.7880   -2.7810    2.5000 C   0  0  0  0  0
   11.7830   -1.4550    2.6250 C   0  0  0  0  0
    5.3670    6.3480    6.8130 C   0  0  0  0  0
    3.3730    7.2900    6.1710 O   0  0  0  0  0
    4.2740    7.2670    7.0070 C   0  0  0  0  0
    4.1840    8.0940    8.0480 N   0  0  0  0  0
    3.0030    8.9930    8.1430 C   0  0  0  0  0
    2.8410    9.5210    9.5500 C   0  0  0  0  0
    6.2060    5.5790    6.5230 C   0  0  0  0  0
    7.2190    4.6500    6.1690 C   0  0  0  0  0
    8.5810    4.8550    6.4670 C   0  0  0  0  0
   10.9040    3.8410    6.2860 N   0  0  0  0  0
   12.5490    2.4240    5.7540 O   0  0  0  0  0
   10.3490    1.9890    5.0910 C   0  0  0  0  0
    6.8280    3.5070    5.4080 C   0  0  0  0  0
   10.4970    0.7890    4.3820 C   0  0  0  0  0
    8.8650    0.8980    2.5300 C   0  0  0  0  0
    7.1730   -0.7770    2.1350 C   0  0  0  0  0
    8.7410   -1.0910    4.0170 C   0  0  0  0  0
   12.3560   -0.7830    3.7370 C   0  0  0  0  0
   12.5090   -2.4660    2.0250 C   0  0  0  0  0
   14.5910   -3.8710    1.8200 C   0  0  0  0  0
   14.5000   -5.1650    2.4980 N   0  3  0  0  0
   14.7850   -6.2310    1.5090 C   0  0  0  0  0
   15.4450   -5.2370    3.6450 C   0  0  0  0  0
    7.4410    1.6466    4.5454 H   0  0  0  0  0
   12.3866    0.7435    5.0850 H   0  0  0  0  0
    7.1783   -2.4663    3.4624 H   0  0  0  0  0
    7.4353    1.0193    0.9371 H   0  0  0  0  0
   14.0878   -0.5002    4.9774 H   0  0  0  0  0
   15.3241   -2.3975    3.9852 H   0  0  0  0  0
   10.7955   -1.1803    2.2542 H   0  0  0  0  0
    4.9097    8.1101    8.7645 H   0  0  0  0  0
    2.1098    8.4289    7.8746 H   0  0  0  0  0
    3.1475    9.8352    7.4664 H   0  0  0  0  0
    2.7032    8.6857   10.2366 H   0  0  0  0  0
    3.7328   10.0810    9.8315 H   0  0  0  0  0
    1.9706   10.1757    9.5930 H   0  0  0  0  0
    8.8927    5.7515    7.0030 H   0  0  0  0  0
   11.4586    4.5472    6.7698 H   0  0  0  0  0
    5.7856    3.3814    5.1153 H   0  0  0  0  0
    9.3537    1.8286    2.2414 H   0  0  0  0  0
    6.3196   -1.1392    1.5618 H   0  0  0  0  0
    9.1007   -1.6922    4.8520 H   0  0  0  0  0
   12.0873   -3.0168    1.1843 H   0  0  0  0  0
   15.6373   -3.5656    1.8317 H   0  0  0  0  0
   14.1902   -3.9970    0.8142 H   0  0  0  0  0
   13.5613   -5.2877    2.8776 H   0  0  0  0  0
   14.0550   -6.1800    0.7012 H   0  0  0  0  0
   15.7872   -6.0907    1.1041 H   0  0  0  0  0
   14.7217   -7.2037    1.9968 H   0  0  0  0  0
   16.4645   -5.1035    3.2831 H   0  0  0  0  0
   15.2062   -4.4504    4.3608 H   0  0  0  0  0
   15.3542   -6.2097    4.1284 H   0  0  0  0  0
  2  1  4  0  0  0
  1 25  4  0  0  0
  2  3  4  0  0  0
 24  2  1  0  0  0
  3 21  4  0  0  0
 22  3  1  0  0  0
  4 22  1  0  0  0
  4 23  2  0  0  0
 24  4  1  0  0  0
 26  5  1  0  0  0
  5 30  1  0  0  0
 26  6  1  0  0  0
  6 27  4  0  0  0
  6 29  4  0  0  0
  7 28  4  0  0  0
 29  7  4  0  0  0
 27  8  4  0  0  0
  8 28  4  0  0  0
  9 10  4  0  0  0
 30  9  4  0  0  0
 10 11  4  0  0  0
 31 11  4  0  0  0
 11 32  1  0  0  0
 30 12  4  0  0  0
 12 31  4  0  0  0
 13 15  1  0  0  0
 19 13  3  0  0  0
 15 14  2  0  0  0
 15 16  1  0  0  0
 16 17  1  0  0  0
 17 18  1  0  0  0
 20 19  1  0  0  0
 21 20  4  0  0  0
 25 20  4  0  0  0
 24 26  2  0  0  0
 32 33  1  0  0  0
 33 34  1  0  0  0
 33 35  1  0  0  0
  1 36  1  0  0  0
  5 37  1  0  0  0
  7 38  1  0  0  0
  8 39  1  0  0  0
  9 40  1  0  0  0
 10 41  1  0  0  0
 12 42  1  0  0  0
 16 43  1  0  0  0
 17 44  1  0  0  0
 17 45  1  0  0  0
 18 46  1  0  0  0
 18 47  1  0  0  0
 18 48  1  0  0  0
 21 49  1  0  0  0
 22 50  1  0  0  0
 25 51  1  0  0  0
 27 52  1  0  0  0
 28 53  1  0  0  0
 29 54  1  0  0  0
 31 55  1  0  0  0
 32 56  1  0  0  0
 32 57  1  0  0  0
 33 58  1  0  0  0
 34 59  1  0  0  0
 34 60  1  0  0  0
 34 61  1  0  0  0
 35 62  1  0  0  0
 35 63  1  0  0  0
 35 64  1  0  0  0
M  END
$$$$
