2qtn_ligand
  -I-interpret- 

 38 39  0  0  0  0  0  0  0  0999 V2000
   16.9100  -29.6430   20.3250 P   0  0  0  0  0
   16.5250  -31.0700   20.6200 O   0  0  0  0  0
   15.8220  -28.6510   20.9580 O   0  0  0  0  0
   18.3560  -29.2880   20.9450 O   0  0  0  0  0
   16.9390  -29.4400   18.7320 O   0  0  0  0  0
   17.3420  -28.2310   18.0920 C   0  0  0  0  0
   16.1550  -27.2480   18.0250 C   0  0  0  0  0
   14.9120  -27.9240   18.1010 O   0  0  0  0  0
   16.0840  -26.2500   19.2120 C   0  0  0  0  0
   16.9020  -25.1040   18.9870 O   0  0  0  0  0
   14.6180  -25.8180   19.1780 C   0  0  0  0  0
   14.4670  -24.5920   18.4240 O   0  0  0  0  0
   13.8980  -26.9610   18.4140 C   0  0  0  0  0
   12.7920  -27.5200   19.2130 N   0  0  0  0  0
   12.8600  -28.8000   19.7410 C   0  0  0  0  0
   11.7790  -29.3170   20.4910 C   0  0  0  0  0
   10.6280  -28.5080   20.6890 C   0  0  0  0  0
   10.5760  -27.1930   20.1400 C   0  0  0  0  0
   11.6830  -26.7370   19.4070 C   0  0  0  0  0
    9.3650  -26.2980   20.3260 C   0  0  0  0  0
    8.3140  -26.7370   21.0100 O   0  0  0  0  0
    9.3610  -25.1900   19.8370 O   0  0  0  0  0
   16.0698  -27.7431   20.7685 H   0  0  0  0  0
   18.5746  -28.3755   20.7422 H   0  0  0  0  0
   17.6786  -28.4561   17.0800 H   0  0  0  0  0
   18.1522  -27.7764   18.6622 H   0  0  0  0  0
   16.3233  -26.7311   17.0802 H   0  0  0  0  0
   16.4213  -26.6905   20.1503 H   0  0  0  0  0
   16.8336  -24.5108   19.7387 H   0  0  0  0  0
   14.2233  -25.6443   20.1791 H   0  0  0  0  0
   13.5418  -24.3362   18.4132 H   0  0  0  0  0
   13.4247  -26.6077   17.4979 H   0  0  0  0  0
   13.7490  -29.4092   19.5775 H   0  0  0  0  0
   11.8278  -30.3216   20.9112 H   0  0  0  0  0
    9.7838  -28.8929   21.2611 H   0  0  0  0  0
   11.2868  -26.5967   18.4013 H   0  0  0  0  0
   12.0573  -25.9009   19.9977 H   0  0  0  0  0
    8.4872  -27.6276   21.3239 H   0  0  0  0  0
  1  2  2  0  0  0
  1  3  1  0  0  0
  1  4  1  0  0  0
  1  5  1  0  0  0
  5  6  1  0  0  0
  6  7  1  0  0  0
  7  8  1  0  0  0
  7  9  1  0  0  0
  8 13  1  0  0  0
  9 10  1  0  0  0
  9 11  1  0  0  0
 11 12  1  0  0  0
 11 13  1  0  0  0
 13 14  1  0  0  0
 14 15  1  0  0  0
 14 19  1  0  0  0
 15 16  2  0  0  0
 16 17  1  0  0  0
 17 18  2  0  0  0
 18 19  1  0  0  0
 18 20  1  0  0  0
 20 21  1  0  0  0
 20 22  2  0  0  0
  3 23  1  0  0  0
  4 24  1  0  0  0
  6 25  1  0  0  0
  6 26  1  0  0  0
  7 27  1  0  0  0
  9 28  1  0  0  0
 10 29  1  0  0  0
 11 30  1  0  0  0
 12 31  1  0  0  0
 13 32  1  0  0  0
 15 33  1  0  0  0
 16 34  1  0  0  0
 17 35  1  0  0  0
 19 36  1  0  0  0
 19 37  1  0  0  0
 21 38  1  0  0  0
M  END
$$$$
