6qhb_ligand
  -I-interpret- 

 36 37  0  0  0  0  0  0  0  0999 V2000
  -23.4790   -0.4850  -19.0460 C   0  0  0  0  0
  -22.3320    2.7030  -24.1590 C   0  0  0  0  0
  -22.8600    4.3080  -22.4360 C   0  0  0  0  0
  -22.9240    3.2870  -21.4860 C   0  0  0  0  0
  -22.4840    5.1370  -24.7540 C   0  0  0  0  0
  -22.7480   -5.2960  -18.9460 C   0  0  0  0  0
  -22.4810   -4.0000  -19.4780 O   0  0  0  0  0
  -23.0810   -2.9180  -18.8840 C   0  0  0  0  0
  -23.7500   -2.9410  -17.6500 C   0  0  0  0  0
  -24.3250   -1.7700  -17.1540 C   0  0  0  0  0
  -24.2070   -0.5610  -17.8440 C   0  0  0  0  0
  -23.4520    0.8190  -19.7970 C   0  0  0  0  0
  -24.0650    1.7860  -19.3240 O   0  0  0  0  0
  -22.8080    0.8490  -20.9830 N   0  0  0  0  0
  -22.7140    1.9510  -21.8810 C   0  0  0  0  0
  -22.4040    1.6750  -23.2170 C   0  0  0  0  0
  -22.5140    4.0300  -23.7660 C   0  0  0  0  0
  -23.1850    6.2440  -24.4760 N   0  0  0  0  0
  -21.8310    5.0560  -25.8900 N   0  0  0  0  0
  -22.9310   -1.6970  -19.5850 C   0  0  0  0  0
  -22.2530   -1.7020  -20.7630 O   0  0  0  0  0
  -22.1330    2.4686  -25.2047 H   0  0  0  0  0
  -23.0816    5.3334  -22.1403 H   0  0  0  0  0
  -23.1356    3.5225  -20.4430 H   0  0  0  0  0
  -22.4278   -5.3329  -17.9047 H   0  0  0  0  0
  -23.8173   -5.4988  -19.0061 H   0  0  0  0  0
  -22.2022   -6.0433  -19.5220 H   0  0  0  0  0
  -23.8200   -3.8687  -17.0821 H   0  0  0  0  0
  -24.8749   -1.7992  -16.2133 H   0  0  0  0  0
  -24.6847    0.3345  -17.4465 H   0  0  0  0  0
  -22.3377   -0.0104  -21.2670 H   0  0  0  0  0
  -22.2167    0.6466  -23.5258 H   0  0  0  0  0
  -23.2081    7.0143  -25.1442 H   0  0  0  0  0
  -23.6957    6.3167  -23.5961 H   0  0  0  0  0
  -21.3166    4.2066  -26.1231 H   0  0  0  0  0
  -21.9637   -2.5958  -20.9606 H   0  0  0  0  0
  1 11  4  0  0  0
 12  1  1  0  0  0
  1 20  4  0  0  0
  2 16  4  0  0  0
 17  2  4  0  0  0
  4  3  4  0  0  0
  3 17  4  0  0  0
 15  4  4  0  0  0
 17  5  1  0  0  0
  5 18  1  0  0  0
  5 19  2  0  0  0
  7  6  1  0  0  0
  8  7  1  0  0  0
  8  9  4  0  0  0
 20  8  4  0  0  0
 10  9  4  0  0  0
 11 10  4  0  0  0
 12 13  2  0  0  0
 14 12  1  0  0  0
 14 15  1  0  0  0
 15 16  4  0  0  0
 20 21  1  0  0  0
  2 22  1  0  0  0
  3 23  1  0  0  0
  4 24  1  0  0  0
  6 25  1  0  0  0
  6 26  1  0  0  0
  6 27  1  0  0  0
  9 28  1  0  0  0
 10 29  1  0  0  0
 11 30  1  0  0  0
 14 31  1  0  0  0
 16 32  1  0  0  0
 18 33  1  0  0  0
 18 34  1  0  0  0
 19 35  1  0  0  0
 21 36  1  0  0  0
M  END
$$$$
