3gcq_ligand
  -I-interpret- 

 68 72  0  0  0  0  0  0  0  0999 V2000
   -4.3180    0.6490  -23.6540 C   0  0  0  0  0
   -4.3510   -0.6200  -23.0690 C   0  0  0  0  0
   -4.2130   -0.7050  -21.6570 C   0  0  0  0  0
   -4.0790    0.4360  -20.9570 N   0  0  0  0  0
   -4.1680    1.7500  -22.8780 N   0  0  0  0  0
   -1.3250   -9.1450  -15.2800 C   0  0  0  0  0
   -0.7520   -8.4740  -14.0430 C   0  0  0  0  0
   -0.1860   -7.1980  -14.1680 C   0  0  0  0  0
   -0.7960   -9.1210  -12.8080 C   0  0  0  0  0
   -0.2610   -8.4870  -11.6840 C   0  0  0  0  0
    0.2850   -7.1980  -11.8060 C   0  0  0  0  0
    0.3380   -6.5580  -13.0440 C   0  0  0  0  0
    0.8780   -5.3450  -13.1050 N   0  0  0  0  0
    1.9490   -5.0460  -12.5350 N   0  0  0  0  0
    2.2370   -3.7650  -12.7480 C   0  0  0  0  0
    3.4900   -3.0330  -12.1500 C   0  0  0  0  0
    4.1820   -2.1630  -13.2290 C   0  0  0  0  0
    4.5120   -3.9770  -11.4990 C   0  0  0  0  0
    2.9340   -2.1760  -11.0100 C   0  0  0  0  0
    1.2560   -3.2410  -13.5170 C   0  0  0  0  0
    0.3850   -4.2690  -13.7420 C   0  0  0  0  0
   -0.7620   -4.2580  -14.4600 N   0  0  0  0  0
   -0.9930   -3.5400  -15.6000 C   0  0  0  0  0
   -0.1680   -2.7520  -16.0890 O   0  0  0  0  0
   -2.2160   -3.6550  -16.1250 N   0  0  0  0  0
   -2.7220   -3.1480  -17.2640 C   0  0  0  0  0
   -1.8950   -2.9900  -18.3740 C   0  0  0  0  0
   -2.3930   -2.5600  -19.6120 C   0  0  0  0  0
   -4.0940   -2.9160  -17.4410 C   0  0  0  0  0
   -4.5910   -2.4750  -18.6960 C   0  0  0  0  0
   -3.7550   -2.2800  -19.7950 C   0  0  0  0  0
   -4.2440   -1.9020  -21.0370 N   0  0  0  0  0
   -4.5070   -1.7670  -23.8810 C   0  0  0  0  0
   -4.6370   -1.6200  -25.2780 C   0  0  0  0  0
   -4.7840   -2.6930  -26.0800 N   0  0  0  0  0
   -4.6040   -0.3460  -25.8450 C   0  0  0  0  0
   -4.4480    0.7900  -25.0450 C   0  0  0  0  0
   -4.0390    1.6240  -21.5650 C   0  0  0  0  0
   -2.1243   -8.5274  -15.6895 H   0  0  0  0  0
   -0.5381   -9.2638  -16.0248 H   0  0  0  0  0
   -1.7222  -10.1235  -15.0100 H   0  0  0  0  0
   -0.1552   -6.7068  -15.1405 H   0  0  0  0  0
   -1.2433  -10.1112  -12.7208 H   0  0  0  0  0
   -0.2671   -8.9898  -10.7169 H   0  0  0  0  0
    0.6721   -6.6918  -10.9217 H   0  0  0  0  0
    4.5045   -2.7981  -14.0541 H   0  0  0  0  0
    3.4790   -1.4158  -13.5973 H   0  0  0  0  0
    5.0477   -1.6651  -12.7922 H   0  0  0  0  0
    4.0351   -4.5195  -10.6827 H   0  0  0  0  0
    4.8765   -4.6849  -12.2434 H   0  0  0  0  0
    5.3471   -3.3941  -11.1105 H   0  0  0  0  0
    2.2055   -1.4705  -11.4095 H   0  0  0  0  0
    2.4523   -2.8202  -10.2745 H   0  0  0  0  0
    3.7497   -1.6292  -10.5371 H   0  0  0  0  0
    1.1770   -2.2163  -13.8801 H   0  0  0  0  0
   -1.5264   -4.8405  -14.1182 H   0  0  0  0  0
   -2.8686   -4.2150  -15.5764 H   0  0  0  0  0
   -0.8312   -3.2067  -18.2772 H   0  0  0  0  0
   -1.7068   -2.4407  -20.4504 H   0  0  0  0  0
   -4.7823   -3.0751  -16.6109 H   0  0  0  0  0
   -5.6586   -2.2830  -18.8036 H   0  0  0  0  0
   -4.6988   -2.6472  -21.5645 H   0  0  0  0  0
   -4.5267   -2.7592  -23.4301 H   0  0  0  0  0
   -4.8027   -3.6307  -25.6790 H   0  0  0  0  0
   -4.8766   -2.5674  -27.0880 H   0  0  0  0  0
   -4.7010   -0.2347  -26.9250 H   0  0  0  0  0
   -4.4274    1.7807  -25.4991 H   0  0  0  0  0
   -3.8955    2.5202  -20.9614 H   0  0  0  0  0
  2  1  4  0  0  0
  1  5  4  0  0  0
  1 37  4  0  0  0
  3  2  4  0  0  0
  2 33  4  0  0  0
  3  4  4  0  0  0
 32  3  1  0  0  0
  4 38  4  0  0  0
 38  5  4  0  0  0
  7  6  1  0  0  0
  8  7  4  0  0  0
  7  9  4  0  0  0
 12  8  4  0  0  0
 10  9  4  0  0  0
 11 10  4  0  0  0
 12 11  4  0  0  0
 13 12  1  0  0  0
 13 14  4  0  0  0
 21 13  4  0  0  0
 15 14  4  0  0  0
 15 16  1  0  0  0
 20 15  4  0  0  0
 16 17  1  0  0  0
 16 18  1  0  0  0
 16 19  1  0  0  0
 21 20  4  0  0  0
 22 21  1  0  0  0
 23 22  1  0  0  0
 23 24  2  0  0  0
 25 23  1  0  0  0
 26 25  1  0  0  0
 27 26  4  0  0  0
 29 26  4  0  0  0
 28 27  4  0  0  0
 31 28  4  0  0  0
 30 29  4  0  0  0
 31 30  4  0  0  0
 31 32  1  0  0  0
 33 34  4  0  0  0
 34 35  1  0  0  0
 34 36  4  0  0  0
 36 37  4  0  0  0
  6 39  1  0  0  0
  6 40  1  0  0  0
  6 41  1  0  0  0
  8 42  1  0  0  0
  9 43  1  0  0  0
 10 44  1  0  0  0
 11 45  1  0  0  0
 17 46  1  0  0  0
 17 47  1  0  0  0
 17 48  1  0  0  0
 18 49  1  0  0  0
 18 50  1  0  0  0
 18 51  1  0  0  0
 19 52  1  0  0  0
 19 53  1  0  0  0
 19 54  1  0  0  0
 20 55  1  0  0  0
 22 56  1  0  0  0
 25 57  1  0  0  0
 27 58  1  0  0  0
 28 59  1  0  0  0
 29 60  1  0  0  0
 30 61  1  0  0  0
 32 62  1  0  0  0
 33 63  1  0  0  0
 35 64  1  0  0  0
 35 65  1  0  0  0
 36 66  1  0  0  0
 37 67  1  0  0  0
 38 68  1  0  0  0
M  END
$$$$
