2ojf_ligand
  -I-interpret- 

 48 52  0  0  0  0  0  0  0  0999 V2000
   13.3740   13.0890    1.3650 C   0  0  0  0  0
   15.5740   10.1310    1.2720 C   0  0  0  0  0
   14.3980   10.7900    3.5360 C   0  0  0  0  0
   14.5050   12.5900   -1.1970 C   0  0  0  0  0
   13.4150    9.5980    3.8410 C   0  0  0  0  0
   10.8350    9.9870    1.1300 C   0  0  0  0  0
   10.9420   10.1600   -0.2710 C   0  0  0  0  0
    6.9620   10.0700    1.4110 C   0  0  0  0  0
    8.5940   10.2670   -0.5150 C   0  0  0  0  0
    6.6430   10.1660    2.7970 C   0  0  0  0  0
    5.3090   10.1230    3.2080 C   0  0  0  0  0
    4.2500    9.9800    2.2190 C   0  0  0  0  0
   14.2380   11.9930    1.1710 C   0  0  0  0  0
   14.7290   10.9640    2.0510 C   0  0  0  0  0
   14.8100   11.7400   -0.1280 C   0  0  0  0  0
   15.6170   10.5960   -0.0110 N   0  0  0  0  0
   13.0650   13.9550    0.2750 C   0  0  0  0  0
   13.6330   13.7020   -1.0080 C   0  0  0  0  0
   11.9520    9.6930    3.3180 C   0  0  0  0  0
   14.0050    8.3540    3.3330 N   0  3  0  0  0
   12.0090    9.8580    1.8940 O   0  0  0  0  0
    9.5220    9.9560    1.6960 C   0  0  0  0  0
    8.3660   10.0990    0.8690 C   0  0  0  0  0
    9.8470   10.2970   -1.0690 N   0  0  0  0  0
    5.8920    9.9360    0.5030 N   0  0  0  0  0
    4.5810    9.8910    0.8800 C   0  0  0  0  0
    4.6750   10.1940    4.5240 C   0  0  0  0  0
    3.1040    9.9740    2.9800 N   0  0  0  0  0
    3.3670   10.0980    4.2980 N   0  0  0  0  0
   12.9418   13.2749    2.3482 H   0  0  0  0  0
   16.1067    9.2547    1.6413 H   0  0  0  0  0
   15.3340   10.5758    4.0518 H   0  0  0  0  0
   13.9067   11.7053    3.8661 H   0  0  0  0  0
   14.9366   12.4008   -2.1799 H   0  0  0  0  0
   13.3081    9.6348    4.9251 H   0  0  0  0  0
   11.9324   10.1843   -0.7255 H   0  0  0  0  0
    7.7324   10.3780   -1.1734 H   0  0  0  0  0
    7.4385   10.2727    3.5344 H   0  0  0  0  0
   12.3987   14.8051    0.4218 H   0  0  0  0  0
   13.4003   14.3596   -1.8455 H   0  0  0  0  0
   11.4384   10.5373    3.7779 H   0  0  0  0  0
   11.3979    8.7899    3.5738 H   0  0  0  0  0
   14.9658    8.2740    3.6660 H   0  0  0  0  0
   13.4605    7.5592    3.6681 H   0  0  0  0  0
   13.9973    8.3672    2.3131 H   0  0  0  0  0
    9.4019    9.8217    2.7710 H   0  0  0  0  0
    3.7986    9.7854    0.1285 H   0  0  0  0  0
    5.1705   10.3028    5.4888 H   0  0  0  0  0
 13  1  4  0  0  0
  1 17  4  0  0  0
 14  2  4  0  0  0
  2 16  4  0  0  0
  5  3  1  0  0  0
  3 14  1  0  0  0
 15  4  4  0  0  0
  4 18  4  0  0  0
 19  5  1  0  0  0
  5 20  1  0  0  0
  6  7  4  0  0  0
 21  6  1  0  0  0
  6 22  4  0  0  0
  7 24  4  0  0  0
  8 10  4  0  0  0
 23  8  1  0  0  0
  8 25  4  0  0  0
  9 23  4  0  0  0
 24  9  4  0  0  0
 10 11  4  0  0  0
 11 12  4  0  0  0
 11 27  4  0  0  0
 12 26  4  0  0  0
 12 28  4  0  0  0
 14 13  4  0  0  0
 13 15  4  0  0  0
 15 16  4  0  0  0
 17 18  4  0  0  0
 19 21  1  0  0  0
 22 23  4  0  0  0
 25 26  4  0  0  0
 27 29  4  0  0  0
 28 29  4  0  0  0
  1 30  1  0  0  0
  2 31  1  0  0  0
  3 32  1  0  0  0
  3 33  1  0  0  0
  4 34  1  0  0  0
  5 35  1  0  0  0
  7 36  1  0  0  0
  9 37  1  0  0  0
 10 38  1  0  0  0
 17 39  1  0  0  0
 18 40  1  0  0  0
 19 41  1  0  0  0
 19 42  1  0  0  0
 20 43  1  0  0  0
 20 44  1  0  0  0
 20 45  1  0  0  0
 22 46  1  0  0  0
 26 47  1  0  0  0
 27 48  1  0  0  0
M  END
$$$$
