### 
### Created by X-TOOL on Wed Jan  1 15:39:36 2020
### 

@<TRIPOS>MOLECULE
6bnl_ligand
  176   177     1     0     0
SMALL
GAST_HUCK


@<TRIPOS>ATOM
      1 C1          6.3300  -21.9160   19.4030 C.3       1 QWV         0.0761
      2 C2          7.4220  -21.3310   20.3400 C.3       1 QWV         0.0911
      3 N2          6.8580  -21.2820   21.6630 N.am      1 QWV        -0.2792
      4 C3          7.8210  -19.8980   19.9610 C.3       1 QWV         0.0802
      5 O3          8.2010  -19.9210   18.5980 O.3       1 QWV        -0.3894
      6 C4          9.0170  -19.3930   20.8210 C.3       1 QWV        -0.0246
      7 C5          9.3090  -17.9210   20.4930 C.3       1 QWV        -0.0506
      8 C6         10.1470  -17.2990   21.5850 C.3       1 QWV        -0.0530
      9 C7         10.9700  -16.1270   21.0370 C.3       1 QWV        -0.0531
     10 C8         11.4760  -15.3480   22.2570 C.3       1 QWV        -0.0531
     11 C9         12.8370  -14.7340   21.9840 C.3       1 QWV        -0.0531
     12 C10        12.8360  -13.2260   22.2030 C.3       1 QWV        -0.0531
     13 C11        13.4590  -12.6200   20.9420 C.3       1 QWV        -0.0531
     14 C12        13.9010  -11.1720   21.1680 C.3       1 QWV        -0.0531
     15 C13        15.1180  -10.8550   20.2690 C.3       1 QWV        -0.0531
     16 C14        14.6650  -10.2250   18.9550 C.3       1 QWV        -0.0531
     17 C15        15.7650  -10.2700   17.8760 C.3       1 QWV        -0.0531
     18 C16        15.1200   -9.8130   16.5700 C.3       1 QWV        -0.0533
     19 C17        15.7440  -10.5060   15.3990 C.3       1 QWV        -0.0559
     20 C18        15.9970   -9.4930   14.2700 C.3       1 QWV        -0.0653
     21 C1A         3.9870  -21.9720   19.0400 C.3       1 QWV         0.1880
     22 O1A         5.0620  -21.2600   19.5880 O.3       1 QWV        -0.3463
     23 C2A         2.7210  -21.1140   19.0680 C.3       1 QWV         0.1341
     24 O2A         2.9890  -19.8520   18.4770 O.3       1 QWV        -0.3841
     25 C3A         2.2080  -20.9620   20.5450 C.3       1 QWV         0.1141
     26 O3A         0.9690  -20.2010   20.5610 O.3       1 QWV        -0.3864
     27 C4A         1.9750  -22.3500   21.1970 C.3       1 QWV         0.1122
     28 O4A         0.8340  -22.9820   20.5920 O.3       1 QWV        -0.3865
     29 C5M         3.2410  -23.2380   21.0410 C.3       1 QWV         0.1177
     30 O6A         3.7480  -23.2660   19.6920 O.3       1 QWV        -0.3402
     31 CAA         7.0620  -22.2460   22.5450 C.2       1 QWV         0.1764
     32 OAA         7.7380  -23.2500   22.3230 O.2       1 QWV        -0.3971
     33 CAB         6.3830  -21.9740   23.9000 C.3       1 QWV         0.0372
     34 CAC         7.4070  -22.1530   25.0200 C.3       1 QWV        -0.0361
     35 CAD         8.2820  -20.9290   25.2410 C.3       1 QWV        -0.0510
     36 CAE         9.3380  -21.3830   26.2580 C.3       1 QWV        -0.0529
     37 CAF        10.4590  -20.3630   26.3660 C.3       1 QWV        -0.0531
     38 CAG        11.3750  -20.7390   27.5260 C.3       1 QWV        -0.0531
     39 CAH        12.7120  -20.0260   27.3310 C.3       1 QWV        -0.0531
     40 CAI        13.6370  -20.3410   28.5050 C.3       1 QWV        -0.0531
     41 CAJ        15.1010  -20.4790   28.0360 C.3       1 QWV        -0.0531
     42 CAK        15.4110  -21.9240   27.6350 C.3       1 QWV        -0.0531
     43 CAL        16.9080  -22.1530   27.6200 C.3       1 QWV        -0.0531
     44 CAM        17.1350  -23.5690   27.1350 C.3       1 QWV        -0.0531
     45 CAN        17.5660  -24.4670   28.3090 C.3       1 QWV        -0.0531
     46 CAO        16.6070  -25.6640   28.4590 C.3       1 QWV        -0.0531
     47 CAP        17.2200  -26.7120   29.4010 C.3       1 QWV        -0.0531
     48 CAQ        16.7960  -26.4540   30.8460 C.3       1 QWV        -0.0531
     49 CAR        16.2190  -27.6690   31.5420 C.3       1 QWV        -0.0531
     50 CAS        15.9640  -27.2700   33.0050 C.3       1 QWV        -0.0531
     51 CAT        14.4510  -27.2460   33.3030 C.3       1 QWV        -0.0531
     52 CAU        14.1120  -26.0940   34.2600 C.3       1 QWV        -0.0531
     53 CAV        12.6980  -25.5810   34.0040 C.3       1 QWV        -0.0531
     54 CAW        12.5820  -24.1940   34.6240 C.3       1 QWV        -0.0531
     55 CAX        12.0340  -23.1710   33.6070 C.3       1 QWV        -0.0533
     56 CAY        13.1240  -22.1360   33.2760 C.3       1 QWV        -0.0559
     57 CAZ        12.4760  -20.7830   33.0640 C.3       1 QWV        -0.0653
     58 CCI         2.8020  -25.4870   23.7830 C.2       1 QWV         0.2358
     59 CCL         3.3850  -26.8350   27.3600 C.ar      1 QWV        -0.0407
     60 CCM         3.6250  -25.9220   28.4170 C.ar      1 QWV        -0.0602
     61 CCN         4.3880  -26.3090   29.5310 C.ar      1 QWV        -0.0686
     62 CCO         4.8770  -27.6230   29.6150 C.ar      1 QWV        -0.0687
     63 CCP         4.6040  -28.5440   28.5830 C.ar      1 QWV        -0.0686
     64 CCQ         3.8640  -28.1580   27.4500 C.ar      1 QWV        -0.0602
     65 C6C         3.0730  -24.6470   21.5540 C.3       1 QWV         0.1055
     66 O6C         3.3910  -24.5670   22.9450 O.3       1 QWV        -0.2740
     67 OCI         1.9600  -26.3220   23.4310 O.2       1 QWV        -0.3702
     68 CCJ         3.3190  -25.4420   25.2350 C.3       1 QWV         0.0583
     69 CCK         2.5610  -26.4230   26.1460 C.3       1 QWV        -0.0009
     70 H1          6.2116  -22.9880   19.6194 H         1 QWV         0.0585
     71 H2          6.6495  -21.7859   18.3585 H         1 QWV         0.0585
     72 H3          8.3112  -21.9782   20.3199 H         1 QWV         0.0604
     73 H4          6.2959  -20.4968   21.9228 H         1 QWV         0.1856
     74 H5          6.9629  -19.2246   20.1032 H         1 QWV         0.0617
     75 H6          8.4557  -19.0469   18.3266 H         1 QWV         0.2099
     76 H7          9.9075  -19.9998   20.6002 H         1 QWV         0.0291
     77 H8          8.7649  -19.4863   21.8876 H         1 QWV         0.0291
     78 H9          8.3593  -17.3727   20.4071 H         1 QWV         0.0266
     79 H10         9.8538  -17.8625   19.5392 H         1 QWV         0.0266
     80 H11        10.8291  -18.0590   21.9937 H         1 QWV         0.0265
     81 H12         9.4851  -16.9329   22.3836 H         1 QWV         0.0265
     82 H13        10.3405  -15.4812   20.4072 H         1 QWV         0.0265
     83 H14        11.8186  -16.5012   20.4455 H         1 QWV         0.0265
     84 H15        11.5559  -16.0334   23.1137 H         1 QWV         0.0265
     85 H16        10.7608  -14.5465   22.4940 H         1 QWV         0.0265
     86 H17        13.1176  -14.9413   20.9408 H         1 QWV         0.0265
     87 H18        13.5749  -15.1907   22.6599 H         1 QWV         0.0265
     88 H19        13.4353  -12.9672   23.0884 H         1 QWV         0.0265
     89 H20        11.8076  -12.8591   22.3362 H         1 QWV         0.0265
     90 H21        12.7163  -12.6434   20.1310 H         1 QWV         0.0265
     91 H22        14.3353  -13.2193   20.6541 H         1 QWV         0.0265
     92 H23        14.1798  -11.0348   22.2232 H         1 QWV         0.0265
     93 H24        13.0731  -10.4929   20.9161 H         1 QWV         0.0265
     94 H25        15.6617  -11.7869   20.0546 H         1 QWV         0.0265
     95 H26        15.7836  -10.1548   20.7951 H         1 QWV         0.0265
     96 H27        14.3941   -9.1752   19.1407 H         1 QWV         0.0265
     97 H28        13.7845  -10.7711   18.5857 H         1 QWV         0.0265
     98 H29        16.1499  -11.2950   17.7699 H         1 QWV         0.0265
     99 H30        16.5898   -9.5948   18.1476 H         1 QWV         0.0265
    100 H31        15.2562   -8.7269   16.4610 H         1 QWV         0.0265
    101 H32        14.0455  -10.0469   16.5970 H         1 QWV         0.0265
    102 H33        15.0672  -11.2943   15.0377 H         1 QWV         0.0263
    103 H34        16.6994  -10.9558   15.7071 H         1 QWV         0.0263
    104 H35        16.4554  -10.0069   13.4122 H         1 QWV         0.0230
    105 H36        16.6744   -8.7045   14.6298 H         1 QWV         0.0230
    106 H37        15.0422   -9.0430   13.9603 H         1 QWV         0.0230
    107 H38         4.2329  -22.1780   17.9878 H         1 QWV         0.0937
    108 H39         1.9394  -21.6161   18.4789 H         1 QWV         0.0671
    109 H40         3.6780  -19.4154   18.9640 H         1 QWV         0.2101
    110 H41         2.9675  -20.4207   21.1282 H         1 QWV         0.0648
    111 H42         1.1230  -19.3395   20.1914 H         1 QWV         0.2100
    112 H43         1.7744  -22.2095   22.2694 H         1 QWV         0.0647
    113 H44         0.0660  -22.4384   20.7227 H         1 QWV         0.2100
    114 H45         4.0178  -22.7686   21.6625 H         1 QWV         0.0650
    115 H46         5.5528  -22.6812   24.0441 H         1 QWV         0.0502
    116 H47         5.9952  -20.9448   23.9172 H         1 QWV         0.0502
    117 H48         8.0560  -23.0040   24.7661 H         1 QWV         0.0290
    118 H49         6.8677  -22.3690   25.9541 H         1 QWV         0.0290
    119 H50         7.6883  -20.0955   25.6444 H         1 QWV         0.0267
    120 H51         8.7586  -20.6179   24.2997 H         1 QWV         0.0267
    121 H52         9.7580  -22.3471   25.9354 H         1 QWV         0.0265
    122 H53         8.8624  -21.5013   27.2428 H         1 QWV         0.0265
    123 H54        10.0316  -19.3652   26.5443 H         1 QWV         0.0265
    124 H55        11.0372  -20.3524   25.4303 H         1 QWV         0.0265
    125 H56        11.5322  -21.8276   27.5382 H         1 QWV         0.0265
    126 H57        10.9203  -20.4235   28.4766 H         1 QWV         0.0265
    127 H58        12.5436  -18.9402   27.2788 H         1 QWV         0.0265
    128 H59        13.1775  -20.3703   26.3957 H         1 QWV         0.0265
    129 H60        13.3182  -21.2853   28.9705 H         1 QWV         0.0265
    130 H61        13.5711  -19.5278   29.2428 H         1 QWV         0.0265
    131 H62        15.7716  -20.1806   28.8553 H         1 QWV         0.0265
    132 H63        15.2654  -19.8214   27.1697 H         1 QWV         0.0265
    133 H64        15.0037  -22.1180   26.6318 H         1 QWV         0.0265
    134 H65        14.9458  -22.6096   28.3585 H         1 QWV         0.0265
    135 H66        17.3190  -22.0304   28.6329 H         1 QWV         0.0265
    136 H67        17.3926  -21.4382   26.9386 H         1 QWV         0.0265
    137 H68        17.9237  -23.5690   26.3682 H         1 QWV         0.0265
    138 H69        16.2023  -23.9592   26.7017 H         1 QWV         0.0265
    139 H70        17.5556  -23.8774   29.2375 H         1 QWV         0.0265
    140 H71        18.5838  -24.8407   28.1232 H         1 QWV         0.0265
    141 H72        16.4335  -26.1180   27.4722 H         1 QWV         0.0265
    142 H73        15.6505  -25.3149   28.8753 H         1 QWV         0.0265
    143 H74        18.3167  -26.6617   29.3322 H         1 QWV         0.0265
    144 H75        16.8791  -27.7130   29.0981 H         1 QWV         0.0265
    145 H76        16.0347  -25.6600   30.8472 H         1 QWV         0.0265
    146 H77        17.6778  -26.1174   31.4109 H         1 QWV         0.0265
    147 H78        16.9330  -28.5046   31.4973 H         1 QWV         0.0265
    148 H79        15.2753  -27.9669   31.0617 H         1 QWV         0.0265
    149 H80        16.3843  -26.2697   33.1859 H         1 QWV         0.0265
    150 H81        16.4521  -27.9984   33.6692 H         1 QWV         0.0265
    151 H82        14.1576  -28.1998   33.7658 H         1 QWV         0.0265
    152 H83        13.8983  -27.1097   32.3618 H         1 QWV         0.0265
    153 H84        14.8277  -25.2732   34.1054 H         1 QWV         0.0265
    154 H85        14.1840  -26.4528   35.2973 H         1 QWV         0.0265
    155 H86        11.9653  -26.2590   34.4660 H         1 QWV         0.0265
    156 H87        12.5121  -25.5228   32.9214 H         1 QWV         0.0265
    157 H88        13.5770  -23.8673   34.9606 H         1 QWV         0.0265
    158 H89        11.9008  -24.2425   35.4863 H         1 QWV         0.0265
    159 H90        11.1613  -22.6583   34.0377 H         1 QWV         0.0265
    160 H91        11.7347  -23.6941   32.6868 H         1 QWV         0.0265
    161 H92        13.6530  -22.4384   32.3602 H         1 QWV         0.0263
    162 H93        13.8392  -22.0751   34.1095 H         1 QWV         0.0263
    163 H94        13.2505  -20.0387   32.8270 H         1 QWV         0.0230
    164 H95        11.9467  -20.4823   33.9802 H         1 QWV         0.0230
    165 H96        11.7605  -20.8456   32.2309 H         1 QWV         0.0230
    166 H97         3.2173  -24.9189   28.3655 H         1 QWV         0.0557
    167 H98         4.5983  -25.5976   30.3214 H         1 QWV         0.0599
    168 H99         5.4643  -27.9290   30.4732 H         1 QWV         0.0559
    169 H100        4.9685  -29.5617   28.6633 H         1 QWV         0.0599
    170 H101        3.6647  -28.8690   26.6563 H         1 QWV         0.0557
    171 H102        3.7611  -25.3325   21.0376 H         1 QWV         0.0640
    172 H103        2.0378  -24.9907   21.4119 H         1 QWV         0.0640
    173 H104        3.1907  -24.4221   25.6265 H         1 QWV         0.0541
    174 H105        4.3870  -25.7051   25.2403 H         1 QWV         0.0541
    175 H106        1.6353  -25.9408   26.4932 H         1 QWV         0.0452
    176 H107        2.3102  -27.3233   25.5660 H         1 QWV         0.0452
@<TRIPOS>BOND
     1    1    2 1  
     2   22    1 1  
     3    2    3 1  
     4    2    4 1  
     5    3   31 am 
     6    4    5 1  
     7    4    6 1  
     8    6    7 1  
     9    7    8 1  
    10    8    9 1  
    11    9   10 1  
    12   10   11 1  
    13   11   12 1  
    14   12   13 1  
    15   13   14 1  
    16   14   15 1  
    17   15   16 1  
    18   16   17 1  
    19   17   18 1  
    20   18   19 1  
    21   19   20 1  
    22   21   22 1  
    23   21   23 1  
    24   30   21 1  
    25   23   24 1  
    26   25   23 1  
    27   25   26 1  
    28   27   25 1  
    29   27   28 1  
    30   29   27 1  
    31   29   30 1  
    32   65   29 1  
    33   31   32 2  
    34   31   33 1  
    35   33   34 1  
    36   34   35 1  
    37   35   36 1  
    38   36   37 1  
    39   37   38 1  
    40   38   39 1  
    41   39   40 1  
    42   40   41 1  
    43   41   42 1  
    44   42   43 1  
    45   43   44 1  
    46   44   45 1  
    47   45   46 1  
    48   46   47 1  
    49   47   48 1  
    50   48   49 1  
    51   49   50 1  
    52   50   51 1  
    53   51   52 1  
    54   52   53 1  
    55   53   54 1  
    56   54   55 1  
    57   55   56 1  
    58   56   57 1  
    59   58   66 1  
    60   58   67 2  
    61   68   58 1  
    62   59   60 ar 
    63   59   64 ar 
    64   69   59 1  
    65   60   61 ar 
    66   61   62 ar 
    67   63   62 ar 
    68   64   63 ar 
    69   66   65 1  
    70   68   69 1  
    71    1   70 1  
    72    1   71 1  
    73    2   72 1  
    74    3   73 1  
    75    4   74 1  
    76    5   75 1  
    77    6   76 1  
    78    6   77 1  
    79    7   78 1  
    80    7   79 1  
    81    8   80 1  
    82    8   81 1  
    83    9   82 1  
    84    9   83 1  
    85   10   84 1  
    86   10   85 1  
    87   11   86 1  
    88   11   87 1  
    89   12   88 1  
    90   12   89 1  
    91   13   90 1  
    92   13   91 1  
    93   14   92 1  
    94   14   93 1  
    95   15   94 1  
    96   15   95 1  
    97   16   96 1  
    98   16   97 1  
    99   17   98 1  
   100   17   99 1  
   101   18  100 1  
   102   18  101 1  
   103   19  102 1  
   104   19  103 1  
   105   20  104 1  
   106   20  105 1  
   107   20  106 1  
   108   21  107 1  
   109   23  108 1  
   110   24  109 1  
   111   25  110 1  
   112   26  111 1  
   113   27  112 1  
   114   28  113 1  
   115   29  114 1  
   116   33  115 1  
   117   33  116 1  
   118   34  117 1  
   119   34  118 1  
   120   35  119 1  
   121   35  120 1  
   122   36  121 1  
   123   36  122 1  
   124   37  123 1  
   125   37  124 1  
   126   38  125 1  
   127   38  126 1  
   128   39  127 1  
   129   39  128 1  
   130   40  129 1  
   131   40  130 1  
   132   41  131 1  
   133   41  132 1  
   134   42  133 1  
   135   42  134 1  
   136   43  135 1  
   137   43  136 1  
   138   44  137 1  
   139   44  138 1  
   140   45  139 1  
   141   45  140 1  
   142   46  141 1  
   143   46  142 1  
   144   47  143 1  
   145   47  144 1  
   146   48  145 1  
   147   48  146 1  
   148   49  147 1  
   149   49  148 1  
   150   50  149 1  
   151   50  150 1  
   152   51  151 1  
   153   51  152 1  
   154   52  153 1  
   155   52  154 1  
   156   53  155 1  
   157   53  156 1  
   158   54  157 1  
   159   54  158 1  
   160   55  159 1  
   161   55  160 1  
   162   56  161 1  
   163   56  162 1  
   164   57  163 1  
   165   57  164 1  
   166   57  165 1  
   167   60  166 1  
   168   61  167 1  
   169   62  168 1  
   170   63  169 1  
   171   64  170 1  
   172   65  171 1  
   173   65  172 1  
   174   68  173 1  
   175   68  174 1  
   176   69  175 1  
   177   69  176 1  
@<TRIPOS>SUBSTRUCTURE
     1 QWV         1

