6bnl_ligand
  -I-interpret- 

176177  0  0  0  0  0  0  0  0999 V2000
    6.3300  -21.9160   19.4030 C   0  0  0  0  0
    7.4220  -21.3310   20.3400 C   0  0  0  0  0
    6.8580  -21.2820   21.6630 N   0  0  0  0  0
    7.8210  -19.8980   19.9610 C   0  0  0  0  0
    8.2010  -19.9210   18.5980 O   0  0  0  0  0
    9.0170  -19.3930   20.8210 C   0  0  0  0  0
    9.3090  -17.9210   20.4930 C   0  0  0  0  0
   10.1470  -17.2990   21.5850 C   0  0  0  0  0
   10.9700  -16.1270   21.0370 C   0  0  0  0  0
   11.4760  -15.3480   22.2570 C   0  0  0  0  0
   12.8370  -14.7340   21.9840 C   0  0  0  0  0
   12.8360  -13.2260   22.2030 C   0  0  0  0  0
   13.4590  -12.6200   20.9420 C   0  0  0  0  0
   13.9010  -11.1720   21.1680 C   0  0  0  0  0
   15.1180  -10.8550   20.2690 C   0  0  0  0  0
   14.6650  -10.2250   18.9550 C   0  0  0  0  0
   15.7650  -10.2700   17.8760 C   0  0  0  0  0
   15.1200   -9.8130   16.5700 C   0  0  0  0  0
   15.7440  -10.5060   15.3990 C   0  0  0  0  0
   15.9970   -9.4930   14.2700 C   0  0  0  0  0
    3.9870  -21.9720   19.0400 C   0  0  0  0  0
    5.0620  -21.2600   19.5880 O   0  0  0  0  0
    2.7210  -21.1140   19.0680 C   0  0  0  0  0
    2.9890  -19.8520   18.4770 O   0  0  0  0  0
    2.2080  -20.9620   20.5450 C   0  0  0  0  0
    0.9690  -20.2010   20.5610 O   0  0  0  0  0
    1.9750  -22.3500   21.1970 C   0  0  0  0  0
    0.8340  -22.9820   20.5920 O   0  0  0  0  0
    3.2410  -23.2380   21.0410 C   0  0  0  0  0
    3.7480  -23.2660   19.6920 O   0  0  0  0  0
    7.0620  -22.2460   22.5450 C   0  0  0  0  0
    7.7380  -23.2500   22.3230 O   0  0  0  0  0
    6.3830  -21.9740   23.9000 C   0  0  0  0  0
    7.4070  -22.1530   25.0200 C   0  0  0  0  0
    8.2820  -20.9290   25.2410 C   0  0  0  0  0
    9.3380  -21.3830   26.2580 C   0  0  0  0  0
   10.4590  -20.3630   26.3660 C   0  0  0  0  0
   11.3750  -20.7390   27.5260 C   0  0  0  0  0
   12.7120  -20.0260   27.3310 C   0  0  0  0  0
   13.6370  -20.3410   28.5050 C   0  0  0  0  0
   15.1010  -20.4790   28.0360 C   0  0  0  0  0
   15.4110  -21.9240   27.6350 C   0  0  0  0  0
   16.9080  -22.1530   27.6200 C   0  0  0  0  0
   17.1350  -23.5690   27.1350 C   0  0  0  0  0
   17.5660  -24.4670   28.3090 C   0  0  0  0  0
   16.6070  -25.6640   28.4590 C   0  0  0  0  0
   17.2200  -26.7120   29.4010 C   0  0  0  0  0
   16.7960  -26.4540   30.8460 C   0  0  0  0  0
   16.2190  -27.6690   31.5420 C   0  0  0  0  0
   15.9640  -27.2700   33.0050 C   0  0  0  0  0
   14.4510  -27.2460   33.3030 C   0  0  0  0  0
   14.1120  -26.0940   34.2600 C   0  0  0  0  0
   12.6980  -25.5810   34.0040 C   0  0  0  0  0
   12.5820  -24.1940   34.6240 C   0  0  0  0  0
   12.0340  -23.1710   33.6070 C   0  0  0  0  0
   13.1240  -22.1360   33.2760 C   0  0  0  0  0
   12.4760  -20.7830   33.0640 C   0  0  0  0  0
    2.8020  -25.4870   23.7830 C   0  0  0  0  0
    3.3850  -26.8350   27.3600 C   0  0  0  0  0
    3.6250  -25.9220   28.4170 C   0  0  0  0  0
    4.3880  -26.3090   29.5310 C   0  0  0  0  0
    4.8770  -27.6230   29.6150 C   0  0  0  0  0
    4.6040  -28.5440   28.5830 C   0  0  0  0  0
    3.8640  -28.1580   27.4500 C   0  0  0  0  0
    3.0730  -24.6470   21.5540 C   0  0  0  0  0
    3.3910  -24.5670   22.9450 O   0  0  0  0  0
    1.9600  -26.3220   23.4310 O   0  0  0  0  0
    3.3190  -25.4420   25.2350 C   0  0  0  0  0
    2.5610  -26.4230   26.1460 C   0  0  0  0  0
    6.2069  -22.9733   19.6375 H   0  0  0  0  0
    6.6468  -21.7659   18.3709 H   0  0  0  0  0
    8.3097  -21.9592   20.2664 H   0  0  0  0  0
    6.2847  -20.4811   21.9280 H   0  0  0  0  0
    6.9834  -19.2233   20.1379 H   0  0  0  0  0
    7.4644  -20.2322   18.0668 H   0  0  0  0  0
    9.8992  -19.9935   20.5992 H   0  0  0  0  0
    8.7647  -19.4836   21.8775 H   0  0  0  0  0
    8.3664  -17.3794   20.4146 H   0  0  0  0  0
    9.8541  -17.8670   19.5506 H   0  0  0  0  0
   10.8279  -18.0534   21.9791 H   0  0  0  0  0
    9.4858  -16.9288   22.3685 H   0  0  0  0  0
   10.3648  -15.4919   20.3900 H   0  0  0  0  0
   11.8005  -16.4827   20.4272 H   0  0  0  0  0
   11.5647  -16.0351   23.0985 H   0  0  0  0  0
   10.7696  -14.5481   22.4788 H   0  0  0  0  0
   13.0960  -14.9275   20.9431 H   0  0  0  0  0
   13.5560  -15.1783   22.6722 H   0  0  0  0  0
   13.4019  -12.9547   23.0942 H   0  0  0  0  0
   11.8260  -12.8500   22.3659 H   0  0  0  0  0
   12.7101  -12.6307   20.1500 H   0  0  0  0  0
   14.3365  -13.2091   20.6756 H   0  0  0  0  0
   14.1780  -11.0369   22.2135 H   0  0  0  0  0
   13.0806  -10.4996   20.9173 H   0  0  0  0  0
   15.6480  -11.7824   20.0520 H   0  0  0  0  0
   15.7696  -10.1541   20.7907 H   0  0  0  0  0
   14.4215   -9.1800   19.1468 H   0  0  0  0  0
   13.8071  -10.7882   18.5876 H   0  0  0  0  0
   16.1699  -11.2771   17.7768 H   0  0  0  0  0
   16.5985   -9.6210   18.1447 H   0  0  0  0  0
   15.2671   -8.7384   16.4622 H   0  0  0  0  0
   14.0580  -10.0567   16.5980 H   0  0  0  0  0
   15.0715  -11.2853   15.0405 H   0  0  0  0  0
   16.6916  -10.9493   15.7050 H   0  0  0  0  0
   15.0502   -9.0478   13.9641 H   0  0  0  0  0
   16.6683   -8.7123   14.6278 H   0  0  0  0  0
   16.4512  -10.0034   13.4207 H   0  0  0  0  0
    4.2566  -22.1992   18.0086 H   0  0  0  0  0
    1.9336  -21.5992   18.4912 H   0  0  0  0  0
    2.1931  -19.3156   18.4958 H   0  0  0  0  0
    2.9698  -20.4341   21.1187 H   0  0  0  0  0
    0.6612  -20.1119   21.4659 H   0  0  0  0  0
    1.7814  -22.2188   22.2616 H   0  0  0  0  0
    0.6926  -23.8405   20.9977 H   0  0  0  0  0
    3.9780  -22.7478   21.6771 H   0  0  0  0  0
    5.5587  -22.6727   24.0429 H   0  0  0  0  0
    5.9962  -20.9551   23.9174 H   0  0  0  0  0
    8.0615  -22.9776   24.7376 H   0  0  0  0  0
    6.8558  -22.3334   25.9429 H   0  0  0  0  0
    7.7063  -20.0781   25.6052 H   0  0  0  0  0
    8.7349  -20.5801   24.3130 H   0  0  0  0  0
    9.7584  -22.3327   25.9271 H   0  0  0  0  0
    8.8634  -21.4875   27.2337 H   0  0  0  0  0
   10.0359  -19.3740   26.5418 H   0  0  0  0  0
   11.0317  -20.3516   25.4386 H   0  0  0  0  0
   11.5263  -21.8182   27.5486 H   0  0  0  0  0
   10.9244  -20.4372   28.4715 H   0  0  0  0  0
   12.5446  -18.9501   27.2805 H   0  0  0  0  0
   13.1732  -20.3684   26.4046 H   0  0  0  0  0
   13.3236  -21.2838   28.9533 H   0  0  0  0  0
   13.5766  -19.5255   29.2257 H   0  0  0  0  0
   15.7605  -20.1929   28.8553 H   0  0  0  0  0
   15.2547  -19.8340   27.1709 H   0  0  0  0  0
   15.0114  -22.1112   26.6383 H   0  0  0  0  0
   14.9538  -22.6005   28.3571 H   0  0  0  0  0
   17.3291  -22.0145   28.6158 H   0  0  0  0  0
   17.4009  -21.4368   26.9626 H   0  0  0  0  0
   17.9202  -23.5669   26.3790 H   0  0  0  0  0
   16.2081  -23.9549   26.7107 H   0  0  0  0  0
   17.5446  -23.8808   29.2277 H   0  0  0  0  0
   18.5708  -24.8424   28.1154 H   0  0  0  0  0
   16.4395  -26.1147   27.4808 H   0  0  0  0  0
   15.6614  -25.3165   28.8751 H   0  0  0  0  0
   18.3064  -26.6508   29.3365 H   0  0  0  0  0
   16.8709  -27.7006   29.1028 H   0  0  0  0  0
   16.0168  -25.6921   30.8243 H   0  0  0  0  0
   17.6880  -26.1573   31.3977 H   0  0  0  0  0
   16.9103  -28.5099   31.4864 H   0  0  0  0  0
   15.2932  -27.9854   31.0615 H   0  0  0  0  0
   16.3745  -26.2750   33.1772 H   0  0  0  0  0
   16.4421  -27.9991   33.6592 H   0  0  0  0  0
   14.1658  -28.1896   33.7683 H   0  0  0  0  0
   13.9075  -27.1032   32.3690 H   0  0  0  0  0
   14.8180  -25.2798   34.0964 H   0  0  0  0  0
   14.1755  -26.4569   35.2858 H   0  0  0  0  0
   11.9661  -26.2552   34.4489 H   0  0  0  0  0
   12.5028  -25.5326   32.9327 H   0  0  0  0  0
   13.5735  -23.8713   34.9416 H   0  0  0  0  0
   11.8946  -24.2471   35.4683 H   0  0  0  0  0
   11.1701  -22.6624   34.0350 H   0  0  0  0  0
   11.7388  -23.6899   32.6950 H   0  0  0  0  0
   13.6510  -22.4358   32.3702 H   0  0  0  0  0
   13.8351  -22.0766   34.0999 H   0  0  0  0  0
   11.7672  -20.8464   32.2383 H   0  0  0  0  0
   11.9519  -20.4863   33.9725 H   0  0  0  0  0
   13.2443  -20.0464   32.8292 H   0  0  0  0  0
    3.2150  -24.9134   28.3652 H   0  0  0  0  0
    4.5994  -25.5937   30.3258 H   0  0  0  0  0
    5.4675  -27.9307   30.4780 H   0  0  0  0  0
    4.9705  -29.5673   28.6637 H   0  0  0  0  0
    3.6636  -28.8729   26.6520 H   0  0  0  0  0
    3.7190  -25.3506   21.0290 H   0  0  0  0  0
    2.0631  -25.0222   21.3887 H   0  0  0  0  0
    3.1686  -24.4333   25.6197 H   0  0  0  0  0
    4.3719  -25.7238   25.2313 H   0  0  0  0  0
    1.6579  -25.9269   26.5016 H   0  0  0  0  0
    2.3377  -27.3195   25.5676 H   0  0  0  0  0
  1  2  1  0  0  0
 22  1  1  0  0  0
  2  3  1  0  0  0
  2  4  1  0  0  0
  3 31  1  0  0  0
  4  5  1  0  0  0
  4  6  1  0  0  0
  6  7  1  0  0  0
  7  8  1  0  0  0
  8  9  1  0  0  0
  9 10  1  0  0  0
 10 11  1  0  0  0
 11 12  1  0  0  0
 12 13  1  0  0  0
 13 14  1  0  0  0
 14 15  1  0  0  0
 15 16  1  0  0  0
 16 17  1  0  0  0
 17 18  1  0  0  0
 18 19  1  0  0  0
 19 20  1  0  0  0
 21 22  1  0  0  0
 21 23  1  0  0  0
 30 21  1  0  0  0
 23 24  1  0  0  0
 25 23  1  0  0  0
 25 26  1  0  0  0
 27 25  1  0  0  0
 27 28  1  0  0  0
 29 27  1  0  0  0
 29 30  1  0  0  0
 65 29  1  0  0  0
 31 32  2  0  0  0
 31 33  1  0  0  0
 33 34  1  0  0  0
 34 35  1  0  0  0
 35 36  1  0  0  0
 36 37  1  0  0  0
 37 38  1  0  0  0
 38 39  1  0  0  0
 39 40  1  0  0  0
 40 41  1  0  0  0
 41 42  1  0  0  0
 42 43  1  0  0  0
 43 44  1  0  0  0
 44 45  1  0  0  0
 45 46  1  0  0  0
 46 47  1  0  0  0
 47 48  1  0  0  0
 48 49  1  0  0  0
 49 50  1  0  0  0
 50 51  1  0  0  0
 51 52  1  0  0  0
 52 53  1  0  0  0
 53 54  1  0  0  0
 54 55  1  0  0  0
 55 56  1  0  0  0
 56 57  1  0  0  0
 58 66  1  0  0  0
 58 67  2  0  0  0
 68 58  1  0  0  0
 59 60  4  0  0  0
 59 64  4  0  0  0
 69 59  1  0  0  0
 60 61  4  0  0  0
 61 62  4  0  0  0
 63 62  4  0  0  0
 64 63  4  0  0  0
 66 65  1  0  0  0
 68 69  1  0  0  0
  1 70  1  0  0  0
  1 71  1  0  0  0
  2 72  1  0  0  0
  3 73  1  0  0  0
  4 74  1  0  0  0
  5 75  1  0  0  0
  6 76  1  0  0  0
  6 77  1  0  0  0
  7 78  1  0  0  0
  7 79  1  0  0  0
  8 80  1  0  0  0
  8 81  1  0  0  0
  9 82  1  0  0  0
  9 83  1  0  0  0
 10 84  1  0  0  0
 10 85  1  0  0  0
 11 86  1  0  0  0
 11 87  1  0  0  0
 12 88  1  0  0  0
 12 89  1  0  0  0
 13 90  1  0  0  0
 13 91  1  0  0  0
 14 92  1  0  0  0
 14 93  1  0  0  0
 15 94  1  0  0  0
 15 95  1  0  0  0
 16 96  1  0  0  0
 16 97  1  0  0  0
 17 98  1  0  0  0
 17 99  1  0  0  0
 18100  1  0  0  0
 18101  1  0  0  0
 19102  1  0  0  0
 19103  1  0  0  0
 20104  1  0  0  0
 20105  1  0  0  0
 20106  1  0  0  0
 21107  1  0  0  0
 23108  1  0  0  0
 24109  1  0  0  0
 25110  1  0  0  0
 26111  1  0  0  0
 27112  1  0  0  0
 28113  1  0  0  0
 29114  1  0  0  0
 33115  1  0  0  0
 33116  1  0  0  0
 34117  1  0  0  0
 34118  1  0  0  0
 35119  1  0  0  0
 35120  1  0  0  0
 36121  1  0  0  0
 36122  1  0  0  0
 37123  1  0  0  0
 37124  1  0  0  0
 38125  1  0  0  0
 38126  1  0  0  0
 39127  1  0  0  0
 39128  1  0  0  0
 40129  1  0  0  0
 40130  1  0  0  0
 41131  1  0  0  0
 41132  1  0  0  0
 42133  1  0  0  0
 42134  1  0  0  0
 43135  1  0  0  0
 43136  1  0  0  0
 44137  1  0  0  0
 44138  1  0  0  0
 45139  1  0  0  0
 45140  1  0  0  0
 46141  1  0  0  0
 46142  1  0  0  0
 47143  1  0  0  0
 47144  1  0  0  0
 48145  1  0  0  0
 48146  1  0  0  0
 49147  1  0  0  0
 49148  1  0  0  0
 50149  1  0  0  0
 50150  1  0  0  0
 51151  1  0  0  0
 51152  1  0  0  0
 52153  1  0  0  0
 52154  1  0  0  0
 53155  1  0  0  0
 53156  1  0  0  0
 54157  1  0  0  0
 54158  1  0  0  0
 55159  1  0  0  0
 55160  1  0  0  0
 56161  1  0  0  0
 56162  1  0  0  0
 57163  1  0  0  0
 57164  1  0  0  0
 57165  1  0  0  0
 60166  1  0  0  0
 61167  1  0  0  0
 62168  1  0  0  0
 63169  1  0  0  0
 64170  1  0  0  0
 65171  1  0  0  0
 65172  1  0  0  0
 68173  1  0  0  0
 68174  1  0  0  0
 69175  1  0  0  0
 69176  1  0  0  0
M  END
$$$$
