5j7s_ligand
  -I-interpret- 

 62 65  0  0  0  0  0  0  0  0999 V2000
  -11.5220  -48.0600  -15.5070 C   0  0  0  0  0
  -16.2580  -47.8880  -17.6900 C   0  0  0  0  0
  -15.7740  -48.9350  -18.4740 C   0  0  0  0  0
  -12.1240  -46.8450  -15.1790 C   0  0  0  0  0
  -14.0060  -47.4970  -16.3620 C   0  0  0  0  0
  -16.6390  -49.6340  -19.3250 C   0  0  0  0  0
  -17.5990  -47.5390  -17.7590 C   0  0  0  0  0
  -12.1920  -51.1590  -17.6310 C   0  0  0  0  0
  -12.2220  -48.9880  -16.2870 C   0  0  0  0  0
  -21.4030  -51.9600  -22.7460 C   0  0  0  0  0
  -20.8540  -51.5910  -21.6470 N   0  3  0  0  0
  -21.0550  -50.2450  -21.4690 C   0  0  0  0  0
  -20.3130  -49.6900  -20.2510 C   0  0  0  0  0
  -19.5280  -51.9510  -21.6570 C   0  0  0  0  0
  -18.7800  -51.4510  -20.4240 C   0  0  0  0  0
  -18.8970  -50.0090  -20.2670 N   0  0  0  0  0
  -17.9770  -49.2790  -19.3870 C   0  0  0  0  0
  -18.4670  -48.2320  -18.6100 C   0  0  0  0  0
  -15.3720  -47.1130  -16.7860 N   0  0  0  0  0
  -13.3600  -46.6100  -15.6240 N   0  0  0  0  0
   -9.8650  -48.3960  -14.9330 Cl  0  0  0  0  0
  -11.5860  -50.2710  -16.6520 N   0  0  0  0  0
  -13.4940  -51.5900  -17.4540 C   0  0  0  0  0
  -14.0840  -52.4410  -18.3800 C   0  0  0  0  0
  -13.3620  -52.8620  -19.4960 C   0  0  0  0  0
  -12.0580  -52.4300  -19.6790 C   0  0  0  0  0
  -11.4650  -51.5860  -18.7580 C   0  0  0  0  0
  -10.0700  -51.1500  -18.9980 N   0  0  0  0  0
   -8.9700  -51.4670  -18.0560 C   0  0  0  0  0
   -7.5310  -50.9920  -18.3720 C   0  0  0  0  0
   -6.9520  -50.0560  -17.3050 C   0  0  0  0  0
   -9.1870  -52.0780  -17.0650 O   0  0  0  0  0
  -13.4540  -48.6770  -16.6980 N   0  0  0  0  0
  -14.7204  -49.2097  -18.4242 H   0  0  0  0  0
  -11.5980  -46.1061  -14.5744 H   0  0  0  0  0
  -16.2614  -50.4539  -19.9360 H   0  0  0  0  0
  -17.9784  -46.7207  -17.1471 H   0  0  0  0  0
  -22.4723  -51.7525  -22.7041 H   0  0  0  0  0
  -20.9573  -51.4111  -23.5755 H   0  0  0  0  0
  -21.2443  -53.0289  -22.8890 H   0  0  0  0  0
  -21.2793  -52.0603  -20.8474 H   0  0  0  0  0
  -22.1216  -50.0849  -21.3114 H   0  0  0  0  0
  -20.6765  -49.7314  -22.3528 H   0  0  0  0  0
  -20.7483  -50.1405  -19.3590 H   0  0  0  0  0
  -20.4125  -48.6046  -20.2635 H   0  0  0  0  0
  -19.0641  -51.5050  -22.5368 H   0  0  0  0  0
  -19.4742  -53.0396  -21.6657 H   0  0  0  0  0
  -17.7248  -51.6979  -20.5406 H   0  0  0  0  0
  -19.2135  -51.9271  -19.5445 H   0  0  0  0  0
  -19.5196  -47.9543  -18.6645 H   0  0  0  0  0
  -15.7384  -46.2332  -16.4226 H   0  0  0  0  0
  -10.7067  -50.5383  -16.2095 H   0  0  0  0  0
  -14.0604  -51.2602  -16.5831 H   0  0  0  0  0
  -15.1099  -52.7791  -18.2343 H   0  0  0  0  0
  -13.8227  -53.5301  -20.2237 H   0  0  0  0  0
  -11.4965  -52.7574  -20.5540 H   0  0  0  0  0
   -9.8591  -50.6137  -19.8396 H   0  0  0  0  0
   -7.5658  -50.4391  -19.3107 H   0  0  0  0  0
   -6.8947  -51.8760  -18.4145 H   0  0  0  0  0
   -7.5800  -49.1689  -17.2223 H   0  0  0  0  0
   -6.9239  -50.5735  -16.3461 H   0  0  0  0  0
   -5.9419  -49.7623  -17.5906 H   0  0  0  0  0
  4  1  4  0  0  0
  9  1  4  0  0  0
  1 21  1  0  0  0
  3  2  4  0  0  0
  2  7  4  0  0  0
  2 19  1  0  0  0
  6  3  4  0  0  0
 20  4  4  0  0  0
 19  5  1  0  0  0
  5 20  4  0  0  0
  5 33  4  0  0  0
 17  6  4  0  0  0
  7 18  4  0  0  0
 22  8  1  0  0  0
  8 23  4  0  0  0
  8 27  4  0  0  0
  9 22  1  0  0  0
 33  9  4  0  0  0
 11 10  1  0  0  0
 12 11  1  0  0  0
 14 11  1  0  0  0
 13 12  1  0  0  0
 16 13  1  0  0  0
 15 14  1  0  0  0
 16 15  1  0  0  0
 16 17  1  0  0  0
 17 18  4  0  0  0
 23 24  4  0  0  0
 24 25  4  0  0  0
 25 26  4  0  0  0
 26 27  4  0  0  0
 27 28  1  0  0  0
 28 29  1  0  0  0
 29 30  1  0  0  0
 29 32  2  0  0  0
 30 31  1  0  0  0
  3 34  1  0  0  0
  4 35  1  0  0  0
  6 36  1  0  0  0
  7 37  1  0  0  0
 10 38  1  0  0  0
 10 39  1  0  0  0
 10 40  1  0  0  0
 11 41  1  0  0  0
 12 42  1  0  0  0
 12 43  1  0  0  0
 13 44  1  0  0  0
 13 45  1  0  0  0
 14 46  1  0  0  0
 14 47  1  0  0  0
 15 48  1  0  0  0
 15 49  1  0  0  0
 18 50  1  0  0  0
 19 51  1  0  0  0
 22 52  1  0  0  0
 23 53  1  0  0  0
 24 54  1  0  0  0
 25 55  1  0  0  0
 26 56  1  0  0  0
 28 57  1  0  0  0
 30 58  1  0  0  0
 30 59  1  0  0  0
 31 60  1  0  0  0
 31 61  1  0  0  0
 31 62  1  0  0  0
M  END
$$$$
