4amw_ligand
  -I-interpret- 

 21 21  0  0  0  0  0  0  0  0999 V2000
   52.9570   25.4270   42.1520 C   0  0  0  0  0
   53.3670   24.7670   41.0580 C   0  0  0  0  0
   53.3090   25.3540   39.8610 O   0  0  0  0  0
   53.8670   23.3630   41.2140 C   0  0  0  0  0
   54.6720   23.0160   40.0800 O   0  0  0  0  0
   54.6610   23.2310   42.5150 C   0  0  0  0  0
   55.0650   21.8670   42.5990 O   0  0  0  0  0
   53.8620   23.6950   43.7520 C   0  0  0  0  0
   53.2450   24.9520   43.5030 O   0  0  0  0  0
   52.7750   22.7270   44.2070 C   0  0  0  0  0
   51.6710   22.6250   43.2920 O   0  0  0  0  0
   54.6410   23.8720   44.7980 F   0  0  0  0  0
   52.3895   26.3494   42.0283 H   0  0  0  0  0
   53.6378   24.7484   39.1926 H   0  0  0  0  0
   53.0229   22.6753   41.2647 H   0  0  0  0  0
   54.1508   23.1073   39.2790 H   0  0  0  0  0
   55.5298   23.8891   42.5038 H   0  0  0  0  0
   55.5558   21.6306   41.8086 H   0  0  0  0  0
   52.3811   23.1006   45.1522 H   0  0  0  0  0
   53.2291   21.7388   44.2808 H   0  0  0  0  0
   51.0268   22.0027   43.6376 H   0  0  0  0  0
  1  2  2  0  0  0
  1  9  1  0  0  0
  2  3  1  0  0  0
  2  4  1  0  0  0
  4  5  1  0  0  0
  4  6  1  0  0  0
  6  7  1  0  0  0
  6  8  1  0  0  0
  8  9  1  0  0  0
  8 10  1  0  0  0
  8 12  1  0  0  0
 10 11  1  0  0  0
  1 13  1  0  0  0
  3 14  1  0  0  0
  4 15  1  0  0  0
  5 16  1  0  0  0
  6 17  1  0  0  0
  7 18  1  0  0  0
 10 19  1  0  0  0
 10 20  1  0  0  0
 11 21  1  0  0  0
M  END
$$$$
