4o76_ligand
  -I-interpret- 

 72 75  0  0  0  0  0  0  0  0999 V2000
    7.8910    4.8690  135.3500 O   0  0  0  0  0
    7.1740    4.5890  133.9920 S   0  0  0  0  0
    7.0360    3.0500  133.6300 O   0  0  0  0  0
    5.5930    5.2780  133.8270 N   0  0  0  0  0
    5.1030    6.4900  134.5200 C   0  0  0  0  0
    4.7710    6.0640  135.9790 C   0  0  0  0  0
    3.8940    7.0310  133.6950 C   0  0  0  0  0
    6.1830    7.6040  134.5610 C   0  0  0  0  0
    8.1620    5.2360  132.6880 C   0  0  0  0  0
    9.5190    4.9680  132.6940 C   0  0  0  0  0
   10.3440    5.4630  131.6680 C   0  0  0  0  0
    9.8170    6.2330  130.6390 C   0  0  0  0  0
    7.6140    6.0000  131.6340 C   0  0  0  0  0
    8.4350    6.5220  130.6080 C   0  0  0  0  0
    8.0430    7.2870  129.5470 N   0  0  0  0  0
    6.7630    7.5150  129.1090 C   0  0  0  0  0
    5.7120    6.7930  129.5530 N   0  0  0  0  0
    4.4430    7.0000  129.0710 C   0  0  0  0  0
    4.2670    7.9030  128.0860 N   0  0  0  0  0
    5.2700    8.6490  127.5840 C   0  0  0  0  0
    6.5610    8.4710  128.0640 C   0  0  0  0  0
    7.6250    9.2990  127.4600 C   0  0  0  0  0
    3.3940    6.2950  129.5660 N   0  0  0  0  0
    3.4380    5.2400  130.4180 C   0  0  0  0  0
    4.5220    4.3830  130.6390 C   0  0  0  0  0
    4.4240    3.3250  131.5530 C   0  0  0  0  0
    3.2490    3.0590  132.2800 C   0  0  0  0  0
    2.1690    3.9230  132.0320 C   0  0  0  0  0
    2.2620    4.9810  131.1200 C   0  0  0  0  0
    3.1330    1.9850  133.1640 N   0  0  0  0  0
    4.3380    1.4480  133.7620 C   0  0  0  0  0
    4.2670    0.1840  134.6460 C   0  0  0  0  0
    2.9540   -0.4970  134.6790 N   0  3  0  0  0
    2.8450   -1.3800  135.8690 C   0  0  0  0  0
    1.7930    0.3850  134.4730 C   0  0  0  0  0
    1.9370    1.1560  133.1440 C   0  0  0  0  0
    4.9434    4.8071  133.1972 H   0  0  0  0  0
    4.3795    6.9215  136.5264 H   0  0  0  0  0
    4.0246    5.2698  135.9633 H   0  0  0  0  0
    5.6770    5.7033  136.4659 H   0  0  0  0  0
    3.4985    7.9255  134.1763 H   0  0  0  0  0
    4.2250    7.2760  132.6858 H   0  0  0  0  0
    3.1169    6.2681  133.6487 H   0  0  0  0  0
    6.4943    7.8441  133.5444 H   0  0  0  0  0
    5.7678    8.4935  135.0348 H   0  0  0  0  0
    7.0426    7.2540  135.1325 H   0  0  0  0  0
    9.9508    4.3708  133.4971 H   0  0  0  0  0
   11.4108    5.2395  131.6805 H   0  0  0  0  0
   10.4708    6.6145  129.8547 H   0  0  0  0  0
    6.5410    6.1902  131.6112 H   0  0  0  0  0
    8.7880    7.7415  129.0190 H   0  0  0  0  0
    5.0699    9.3867  126.8070 H   0  0  0  0  0
    8.0843    9.9174  128.2312 H   0  0  0  0  0
    8.3798    8.6505  127.0151 H   0  0  0  0  0
    7.1932    9.9378  126.6896 H   0  0  0  0  0
    2.4666    6.5923  129.2628 H   0  0  0  0  0
    5.4529    4.5401  130.0942 H   0  0  0  0  0
    5.2916    2.6834  131.7066 H   0  0  0  0  0
    1.2316    3.7649  132.5652 H   0  0  0  0  0
    1.3932    5.6181  130.9547 H   0  0  0  0  0
    4.6792    2.2328  134.4371 H   0  0  0  0  0
    4.9537    1.1514  132.9129 H   0  0  0  0  0
    4.4751    0.5065  135.6662 H   0  0  0  0  0
    4.9761   -0.5291  134.2256 H   0  0  0  0  0
    2.9209   -1.0970  133.8548 H   0  0  0  0  0
    3.6310   -2.1343  135.8334 H   0  0  0  0  0
    2.9537   -0.7827  136.7742 H   0  0  0  0  0
    1.8706   -1.8685  135.8693 H   0  0  0  0  0
    1.7375    1.0988  135.2949 H   0  0  0  0  0
    0.8874   -0.2205  134.4374 H   0  0  0  0  0
    2.0153    0.4403  132.3256 H   0  0  0  0  0
    1.0646    1.7954  133.0087 H   0  0  0  0  0
  1  2  2  0  0  0
  2  3  2  0  0  0
  2  4  1  0  0  0
  2  9  1  0  0  0
  4  5  1  0  0  0
  5  6  1  0  0  0
  5  7  1  0  0  0
  5  8  1  0  0  0
  9 10  4  0  0  0
  9 13  4  0  0  0
 10 11  4  0  0  0
 11 12  4  0  0  0
 12 14  4  0  0  0
 13 14  4  0  0  0
 14 15  1  0  0  0
 15 16  1  0  0  0
 16 17  4  0  0  0
 16 21  4  0  0  0
 17 18  4  0  0  0
 18 19  4  0  0  0
 18 23  1  0  0  0
 19 20  4  0  0  0
 20 21  4  0  0  0
 21 22  1  0  0  0
 23 24  1  0  0  0
 24 25  4  0  0  0
 24 29  4  0  0  0
 25 26  4  0  0  0
 26 27  4  0  0  0
 27 28  4  0  0  0
 27 30  1  0  0  0
 28 29  4  0  0  0
 30 31  1  0  0  0
 30 36  1  0  0  0
 31 32  1  0  0  0
 32 33  1  0  0  0
 33 34  1  0  0  0
 33 35  1  0  0  0
 35 36  1  0  0  0
  4 37  1  0  0  0
  6 38  1  0  0  0
  6 39  1  0  0  0
  6 40  1  0  0  0
  7 41  1  0  0  0
  7 42  1  0  0  0
  7 43  1  0  0  0
  8 44  1  0  0  0
  8 45  1  0  0  0
  8 46  1  0  0  0
 10 47  1  0  0  0
 11 48  1  0  0  0
 12 49  1  0  0  0
 13 50  1  0  0  0
 15 51  1  0  0  0
 20 52  1  0  0  0
 22 53  1  0  0  0
 22 54  1  0  0  0
 22 55  1  0  0  0
 23 56  1  0  0  0
 25 57  1  0  0  0
 26 58  1  0  0  0
 28 59  1  0  0  0
 29 60  1  0  0  0
 31 61  1  0  0  0
 31 62  1  0  0  0
 32 63  1  0  0  0
 32 64  1  0  0  0
 33 65  1  0  0  0
 34 66  1  0  0  0
 34 67  1  0  0  0
 34 68  1  0  0  0
 35 69  1  0  0  0
 35 70  1  0  0  0
 36 71  1  0  0  0
 36 72  1  0  0  0
M  END
$$$$
