6ohd_ligand
  -I-interpret- 

 50 53  0  0  0  0  0  0  0  0999 V2000
    2.4000    0.9400  -16.9510 C   0  0  0  0  0
    2.9390   -1.5790  -18.9430 C   0  0  0  0  0
    2.7160    0.4970  -20.0730 C   0  0  0  0  0
   -0.6940    3.0820  -11.7190 C   0  0  0  0  0
    3.4230    0.4520  -17.7240 C   0  0  0  0  0
    2.6950    1.5690  -15.7700 C   0  0  0  0  0
    2.2190   -1.3720  -21.2020 C   0  0  0  0  0
    1.8920   -3.5700  -21.7510 C   0  0  0  0  0
    5.8400    0.0610  -18.1370 C   0  0  0  0  0
    0.2080   -0.9880  -23.4030 C   0  0  0  0  0
    1.4300   -1.8670  -23.5060 C   0  0  0  0  0
    3.9870    1.7230  -15.3320 C   0  0  0  0  0
    4.7280    0.5920  -17.3070 C   0  0  0  0  0
    2.5260   -2.1540  -20.1180 C   0  0  0  0  0
    0.9490    3.3500  -13.1580 C   0  0  0  0  0
    1.5720    2.0680  -14.9870 C   0  0  0  0  0
    2.5420   -1.1070  -24.1860 C   0  0  0  0  0
    1.0880   -3.0890  -24.3220 C   0  0  0  0  0
    5.0040    1.2280  -16.1170 C   0  0  0  0  0
    0.0260    2.3920  -12.6680 C   0  0  0  0  0
    3.0360   -0.2090  -18.9370 C   0  0  0  0  0
    2.3020   -0.0410  -21.2230 N   0  0  0  0  0
    0.7990    4.5330  -12.5570 N   0  0  0  0  0
    2.3220   -3.4960  -20.4510 N   0  0  0  0  0
    1.8380   -2.2750  -22.1900 N   0  0  0  0  0
    1.8810    3.0940  -14.1390 N   0  0  0  0  0
    1.6170   -4.5790  -22.3830 O   0  0  0  0  0
    0.4710    1.5610  -15.1370 O   0  0  0  0  0
   -0.2370    4.3600  -11.6480 O   0  0  0  0  0
    1.3645    0.8286  -17.2726 H   0  0  0  0  0
    3.1770   -2.1763  -18.0629 H   0  0  0  0  0
    2.8076    1.5823  -20.0314 H   0  0  0  0  0
   -1.5040    2.6681  -11.1184 H   0  0  0  0  0
    5.7184   -1.0153  -18.2594 H   0  0  0  0  0
    5.8244    0.5432  -19.1144 H   0  0  0  0  0
    6.7901    0.2669  -17.6439 H   0  0  0  0  0
    0.4496   -0.0989  -22.8206 H   0  0  0  0  0
   -0.1114   -0.6934  -24.4027 H   0  0  0  0  0
   -0.5939   -1.5389  -22.9115 H   0  0  0  0  0
    4.2019    2.2238  -14.3880 H   0  0  0  0  0
    2.2209   -0.8124  -25.1851 H   0  0  0  0  0
    2.7820   -0.2178  -23.6031 H   0  0  0  0  0
    3.4236   -1.7438  -24.2593 H   0  0  0  0  0
    0.2810   -3.6358  -23.8343 H   0  0  0  0  0
    0.7702   -2.7817  -25.3183 H   0  0  0  0  0
    1.9666   -3.7293  -24.4008 H   0  0  0  0  0
    6.0387    1.3407  -15.7932 H   0  0  0  0  0
   -0.0872    1.3514  -12.9719 H   0  0  0  0  0
    2.4690   -4.2906  -19.8286 H   0  0  0  0  0
    2.7425    3.6330  -14.2266 H   0  0  0  0  0
  1  5  4  0  0  0
  6  1  4  0  0  0
  2 14  4  0  0  0
 21  2  4  0  0  0
 21  3  4  0  0  0
  3 22  4  0  0  0
 20  4  4  0  0  0
  4 29  4  0  0  0
  5 13  4  0  0  0
  5 21  1  0  0  0
  6 12  4  0  0  0
 16  6  1  0  0  0
 14  7  4  0  0  0
 22  7  4  0  0  0
  7 25  1  0  0  0
 24  8  1  0  0  0
 25  8  1  0  0  0
  8 27  2  0  0  0
 13  9  1  0  0  0
 11 10  1  0  0  0
 11 17  1  0  0  0
 11 18  1  0  0  0
 25 11  1  0  0  0
 12 19  4  0  0  0
 19 13  4  0  0  0
 14 24  1  0  0  0
 15 20  4  0  0  0
 15 23  4  0  0  0
 26 15  1  0  0  0
 16 26  1  0  0  0
 16 28  2  0  0  0
 23 29  4  0  0  0
  1 30  1  0  0  0
  2 31  1  0  0  0
  3 32  1  0  0  0
  4 33  1  0  0  0
  9 34  1  0  0  0
  9 35  1  0  0  0
  9 36  1  0  0  0
 10 37  1  0  0  0
 10 38  1  0  0  0
 10 39  1  0  0  0
 12 40  1  0  0  0
 17 41  1  0  0  0
 17 42  1  0  0  0
 17 43  1  0  0  0
 18 44  1  0  0  0
 18 45  1  0  0  0
 18 46  1  0  0  0
 19 47  1  0  0  0
 20 48  1  0  0  0
 24 49  1  0  0  0
 26 50  1  0  0  0
M  END
$$$$
