5arg_ligand
  -I-interpret- 

 57 59  0  0  0  0  0  0  0  0999 V2000
  -16.5970    6.1540  -13.6700 C   0  0  0  0  0
  -17.9010    6.0840  -14.0630 C   0  0  0  0  0
  -18.7100    7.4250  -14.8180 Cl  0  0  0  0  0
  -18.7100    4.9550  -13.7400 C   0  0  0  0  0
  -20.2720    4.8460  -14.2420 Cl  0  0  0  0  0
  -18.1030    3.8780  -13.1540 C   0  0  0  0  0
  -16.7930    3.9450  -12.8200 C   0  0  0  0  0
  -15.9960    5.0440  -13.0830 C   0  0  0  0  0
  -14.5720    5.0840  -12.6810 C   0  0  0  0  0
  -13.8360    6.1100  -13.0740 N   0  0  0  0  0
  -13.7950    4.2160  -11.7130 C   0  0  0  0  0
  -13.6040    2.8070  -12.1930 N   0  0  0  0  0
  -13.7900    1.7190  -11.1410 C   0  0  0  0  0
  -12.6300    1.7040  -10.1460 C   0  0  0  0  0
  -13.1700    2.5880  -13.4570 C   0  0  0  0  0
  -13.0430    3.5100  -14.3170 O   0  0  0  0  0
  -12.9350    1.0660  -13.8180 C   0  0  0  0  0
  -12.4190    0.8480  -15.1520 O   0  0  0  0  0
  -12.4510    4.9090  -11.6470 C   0  0  0  0  0
  -12.6020    6.0730  -12.5500 N   0  0  0  0  0
  -11.6540    6.9200  -13.0010 C   0  0  0  0  0
  -10.4200    6.8920  -12.5310 N   0  0  0  0  0
   -9.3050    7.5430  -12.9460 C   0  0  0  0  0
   -8.3430    8.0950  -13.2940 N   0  0  0  0  0
  -12.1080    7.7630  -13.9620 N   0  0  0  0  0
  -11.4300    8.7920  -14.4080 C   0  0  0  0  0
  -10.8420    8.8850  -15.6670 C   0  0  0  0  0
  -11.3760    9.9150  -13.5270 C   0  0  0  0  0
  -10.6920   11.0790  -13.9310 C   0  0  0  0  0
  -10.1060   11.1770  -15.2140 C   0  0  0  0  0
  -10.1970   10.0570  -16.0730 C   0  0  0  0  0
   -9.6770   10.0540  -17.3070 O   0  0  0  0  0
   -8.6000   10.9790  -17.6490 C   0  0  0  0  0
   -9.3100   12.0210  -18.1520 F   0  0  0  0  0
   -7.9390   10.4740  -18.7040 F   0  0  0  0  0
  -16.0291    7.0730  -13.8146 H   0  0  0  0  0
  -18.6721    2.9695  -12.9569 H   0  0  0  0  0
  -16.3431    3.0885  -12.3178 H   0  0  0  0  0
  -14.3173    4.1203  -10.7611 H   0  0  0  0  0
  -13.8279    0.7528  -11.6442 H   0  0  0  0  0
  -14.7124    1.9181  -10.5954 H   0  0  0  0  0
  -11.6981    1.5158  -10.6791 H   0  0  0  0  0
  -12.5731    2.6686   -9.6416 H   0  0  0  0  0
  -12.7944    0.9169   -9.4101 H   0  0  0  0  0
  -13.9029    0.5680  -13.7613 H   0  0  0  0  0
  -12.1939    0.6794  -13.1184 H   0  0  0  0  0
  -12.3024   -0.0935  -15.2989 H   0  0  0  0  0
  -11.6339    4.2545  -11.9504 H   0  0  0  0  0
  -12.1891    5.2058  -10.6314 H   0  0  0  0  0
  -10.6163    7.1987  -12.8179 H   0  0  0  0  0
  -10.2835    6.2818  -11.7252 H   0  0  0  0  0
  -13.0301    7.5858  -14.3604 H   0  0  0  0  0
  -10.8853    8.0326  -16.3449 H   0  0  0  0  0
  -11.8595    9.8721  -12.5510 H   0  0  0  0  0
  -10.6132   11.9195  -13.2415 H   0  0  0  0  0
   -9.5993   12.0883  -15.5316 H   0  0  0  0  0
   -7.9157   11.1943  -16.8284 H   0  0  0  0  0
  1  2  4  0  0  0
  1  8  4  0  0  0
  2  3  1  0  0  0
  2  4  4  0  0  0
  4  5  1  0  0  0
  4  6  4  0  0  0
  6  7  4  0  0  0
  7  8  4  0  0  0
  8  9  1  0  0  0
  9 10  2  0  0  0
  9 11  1  0  0  0
 10 20  1  0  0  0
 11 12  1  0  0  0
 11 19  1  0  0  0
 12 13  1  0  0  0
 12 15  1  0  0  0
 13 14  1  0  0  0
 15 16  2  0  0  0
 15 17  1  0  0  0
 17 18  1  0  0  0
 19 20  1  0  0  0
 20 21  1  0  0  0
 21 22  1  0  0  0
 21 25  1  0  0  0
 22 23  1  0  0  0
 23 24  3  0  0  0
 25 26  1  0  0  0
 26 27  4  0  0  0
 26 28  4  0  0  0
 27 31  4  0  0  0
 28 29  4  0  0  0
 29 30  4  0  0  0
 30 31  4  0  0  0
 31 32  1  0  0  0
 32 33  1  0  0  0
 33 34  1  0  0  0
 33 35  1  0  0  0
  1 36  1  0  0  0
  6 37  1  0  0  0
  7 38  1  0  0  0
 11 39  1  0  0  0
 13 40  1  0  0  0
 13 41  1  0  0  0
 14 42  1  0  0  0
 14 43  1  0  0  0
 14 44  1  0  0  0
 17 45  1  0  0  0
 17 46  1  0  0  0
 18 47  1  0  0  0
 19 48  1  0  0  0
 19 49  1  0  0  0
 21 50  1  0  0  0
 22 51  1  0  0  0
 25 52  1  0  0  0
 27 53  1  0  0  0
 28 54  1  0  0  0
 29 55  1  0  0  0
 30 56  1  0  0  0
 33 57  1  0  0  0
M  END
$$$$
