4mm8_ligand
  -I-interpret- 

 41 42  0  0  0  0  0  0  0  0999 V2000
  -33.3630   14.6240   16.2070 F   0  0  0  0  0
  -33.3990   13.3420   16.5680 C   0  0  0  0  0
  -34.3030   13.1470   17.5440 F   0  0  0  0  0
  -33.7770   12.5900   15.5180 F   0  0  0  0  0
  -32.0390   12.9200   17.0450 C   0  0  0  0  0
  -31.9910   11.9500   18.0180 C   0  0  0  0  0
  -30.7690   11.5240   18.5040 C   0  0  0  0  0
  -29.6240   12.0670   17.9940 C   0  0  0  0  0
  -29.6720   13.0490   17.0000 C   0  0  0  0  0
  -30.8950   13.4670   16.5290 C   0  0  0  0  0
  -28.3610   11.6230   18.4750 O   0  0  0  0  0
  -28.3840   10.3450   19.0230 C   0  0  0  0  0
  -27.1380   10.0390   19.8080 C   0  0  0  0  0
  -26.0960   11.1940   19.5470 C   0  0  0  0  0
  -25.5150   11.6870   20.7640 N   0  3  0  0  0
  -26.3530   12.6870   21.3780 C   0  0  0  0  0
  -28.5210    9.2430   17.9750 C   0  0  0  0  0
  -29.6330    8.4150   18.0050 C   0  0  0  0  0
  -29.7550    7.3870   17.0400 C   0  0  0  0  0
  -28.7530    7.2100   16.0800 C   0  0  0  0  0
  -27.6370    8.0300   16.0630 C   0  0  0  0  0
  -27.5100    9.0600   17.0220 C   0  0  0  0  0
  -32.9138   11.5181   18.4051 H   0  0  0  0  0
  -30.7197   10.7645   19.2842 H   0  0  0  0  0
  -28.7519   13.4780   16.6032 H   0  0  0  0  0
  -30.9528   14.2280   15.7508 H   0  0  0  0  0
  -29.2604   10.3522   19.6711 H   0  0  0  0  0
  -26.7227    9.0813   19.4941 H   0  0  0  0  0
  -27.3704    9.9768   20.8711 H   0  0  0  0  0
  -26.6188   12.0188   19.0628 H   0  0  0  0  0
  -25.2942   10.7931   18.9270 H   0  0  0  0  0
  -24.6129   12.1097   20.5449 H   0  0  0  0  0
  -25.4116   10.9072   21.4133 H   0  0  0  0  0
  -26.4813   13.5234   20.6909 H   0  0  0  0  0
  -27.3255   12.2523   21.6089 H   0  0  0  0  0
  -25.8834   13.0385   22.2967 H   0  0  0  0  0
  -30.4040    8.5543   18.7628 H   0  0  0  0  0
  -30.6280    6.7344   17.0448 H   0  0  0  0  0
  -28.8516    6.4182   15.3374 H   0  0  0  0  0
  -26.8600    7.8815   15.3131 H   0  0  0  0  0
  -26.6328    9.7070   17.0205 H   0  0  0  0  0
  1  2  1  0  0  0
  2  3  1  0  0  0
  2  4  1  0  0  0
  2  5  1  0  0  0
  5  6  4  0  0  0
  5 10  4  0  0  0
  6  7  4  0  0  0
  7  8  4  0  0  0
  8  9  4  0  0  0
  8 11  1  0  0  0
  9 10  4  0  0  0
 11 12  1  0  0  0
 12 13  1  0  0  0
 12 17  1  0  0  0
 13 14  1  0  0  0
 14 15  1  0  0  0
 15 16  1  0  0  0
 17 18  4  0  0  0
 17 22  4  0  0  0
 18 19  4  0  0  0
 19 20  4  0  0  0
 20 21  4  0  0  0
 21 22  4  0  0  0
  6 23  1  0  0  0
  7 24  1  0  0  0
  9 25  1  0  0  0
 10 26  1  0  0  0
 12 27  1  0  0  0
 13 28  1  0  0  0
 13 29  1  0  0  0
 14 30  1  0  0  0
 14 31  1  0  0  0
 15 32  1  0  0  0
 15 33  1  0  0  0
 16 34  1  0  0  0
 16 35  1  0  0  0
 16 36  1  0  0  0
 18 37  1  0  0  0
 19 38  1  0  0  0
 20 39  1  0  0  0
 21 40  1  0  0  0
 22 41  1  0  0  0
M  END
$$$$
