1avn_ligand
  -I-interpret- 

 17 17  0  0  0  0  0  0  0  0999 V2000
    0.4720    5.1050    9.7360 N   0  3  0  0  0
   -0.6460    5.9190   10.2390 C   0  0  0  0  0
   -1.9700    5.5830    9.5670 C   0  0  0  0  0
   -3.1410    4.9460   10.2360 C   0  0  0  0  0
   -3.4800    3.6270   10.0410 N   0  0  0  0  0
   -4.0830    5.4150   11.0870 C   0  0  0  0  0
   -4.5450    3.2880   10.7310 C   0  0  0  0  0
   -4.9260    4.3630   11.3830 N   0  0  0  0  0
    1.3297    5.3719   10.2193 H   0  0  0  0  0
    0.2767    4.1186    9.9071 H   0  0  0  0  0
    0.5818    5.2623    8.7342 H   0  0  0  0  0
   -0.4198    6.9639   10.0268 H   0  0  0  0  0
   -0.7523    5.7176   11.3049 H   0  0  0  0  0
   -1.6745    4.8203    8.8465 H   0  0  0  0  0
   -2.3577    6.5707    9.3174 H   0  0  0  0  0
   -4.1613    6.4334   11.4676 H   0  0  0  0  0
   -5.0196    2.3071   10.7574 H   0  0  0  0  0
  1  2  1  0  0  0
  2  3  1  0  0  0
  3  4  1  0  0  0
  4  6  4  0  0  0
  4  5  4  0  0  0
  5  7  4  0  0  0
  7  8  4  0  0  0
  8  6  4  0  0  0
  1  9  1  0  0  0
  1 10  1  0  0  0
  1 11  1  0  0  0
  2 12  1  0  0  0
  2 13  1  0  0  0
  3 14  1  0  0  0
  3 15  1  0  0  0
  6 16  1  0  0  0
  7 17  1  0  0  0
M  END
$$$$
