3oot_ligand
  -I-interpret- 

 63 67  0  0  0  0  0  0  0  0999 V2000
  -10.2150  -26.5600   -4.2730 C   0  0  0  0  0
  -10.8680  -25.3810   -3.8750 C   0  0  0  0  0
  -10.3670  -24.6140   -2.8160 C   0  0  0  0  0
   -9.1960  -25.0380   -2.1490 C   0  0  0  0  0
   -8.5340  -26.2340   -2.5470 C   0  0  0  0  0
   -9.0430  -26.9720   -3.6320 C   0  0  0  0  0
  -10.8640  -23.5790   -2.0970 N   0  0  0  0  0
  -10.0370  -23.0660   -1.1400 C   0  0  0  0  0
   -9.0640  -24.0430   -1.0300 C   0  0  0  0  0
   -7.2040  -26.6400   -1.9550 C   0  0  0  0  0
   -8.4270  -28.1100   -4.0710 O   0  0  0  0  0
   -7.8500  -24.0570   -0.1560 C   0  0  0  0  0
   -7.7340  -24.9960    0.7990 N   0  0  0  0  0
   -8.7840  -26.0250    1.0000 C   0  0  0  0  0
   -9.0730  -26.1330    2.4860 C   0  0  0  0  0
   -7.8360  -26.3140    3.2190 N   0  3  0  0  0
   -6.8150  -25.2970    3.0790 C   0  0  0  0  0
   -6.5030  -25.0600    1.6100 C   0  0  0  0  0
   -6.9970  -23.1910   -0.3320 O   0  0  0  0  0
  -11.9210  -22.8690   -2.5760 C   0  0  0  0  0
  -11.8130  -21.5400   -3.0560 C   0  0  0  0  0
  -12.9130  -20.8120   -3.5040 C   0  0  0  0  0
  -14.1770  -21.3970   -3.5430 C   0  0  0  0  0
  -14.3380  -22.7120   -3.1040 C   0  0  0  0  0
  -13.2300  -23.4110   -2.6190 C   0  0  0  0  0
  -10.2240  -21.8300   -0.2710 C   0  0  0  0  0
  -10.0920  -22.1380    1.1980 C   0  0  0  0  0
  -10.9980  -22.9680    1.9060 C   0  0  0  0  0
  -10.8170  -23.1560    3.2720 C   0  0  0  0  0
   -9.7180  -22.5810    3.9320 C   0  0  0  0  0
   -8.8330  -21.7490    3.2280 C   0  0  0  0  0
   -9.0390  -21.5060    1.8660 C   0  0  0  0  0
  -12.1960  -23.6560    1.2820 C   0  0  0  0  0
  -11.6920  -23.9260    3.9420 F   0  0  0  0  0
  -10.6252  -27.1574   -5.0872 H   0  0  0  0  0
  -11.7713  -25.0612   -4.3945 H   0  0  0  0  0
   -6.4641  -25.8670   -2.1628 H   0  0  0  0  0
   -7.3099  -26.7630   -0.8772 H   0  0  0  0  0
   -6.8822  -27.5817   -2.3996 H   0  0  0  0  0
   -7.6410  -28.2708   -3.5438 H   0  0  0  0  0
   -8.4418  -26.9861    0.6164 H   0  0  0  0  0
   -9.6900  -25.7422    0.4640 H   0  0  0  0  0
   -9.7239  -26.9890    2.6637 H   0  0  0  0  0
   -9.5600  -25.2184    2.8242 H   0  0  0  0  0
   -7.4218  -27.1691    2.8480 H   0  0  0  0  0
   -8.0988  -26.3027    4.2045 H   0  0  0  0  0
   -5.9093  -25.6304    3.5855 H   0  0  0  0  0
   -7.1758  -24.3679    3.5202 H   0  0  0  0  0
   -5.9789  -24.1088    1.5175 H   0  0  0  0  0
   -5.8941  -25.8886    1.2484 H   0  0  0  0  0
  -10.8303  -21.0687   -3.0754 H   0  0  0  0  0
  -12.7841  -19.7786   -3.8259 H   0  0  0  0  0
  -15.0328  -20.8324   -3.9132 H   0  0  0  0  0
  -15.3177  -23.1885   -3.1392 H   0  0  0  0  0
  -13.3801  -24.4271   -2.2543 H   0  0  0  0  0
  -11.2275  -21.4423   -0.4462 H   0  0  0  0  0
   -9.4499  -21.1100   -0.5363 H   0  0  0  0  0
   -9.5525  -22.7809    4.9907 H   0  0  0  0  0
   -7.9867  -21.2931    3.7419 H   0  0  0  0  0
   -8.3801  -20.8255    1.3267 H   0  0  0  0  0
  -12.8668  -22.9058    0.8632 H   0  0  0  0  0
  -11.8578  -24.3250    0.4907 H   0  0  0  0  0
  -12.7218  -24.2301    2.0449 H   0  0  0  0  0
  1  2  4  0  0  0
  1  6  4  0  0  0
  2  3  4  0  0  0
  3  4  4  0  0  0
  3  7  4  0  0  0
  4  5  4  0  0  0
  4  9  4  0  0  0
  5  6  4  0  0  0
  5 10  1  0  0  0
  6 11  1  0  0  0
  7  8  4  0  0  0
  7 20  1  0  0  0
  8  9  4  0  0  0
  8 26  1  0  0  0
  9 12  1  0  0  0
 12 13  1  0  0  0
 12 19  2  0  0  0
 13 14  1  0  0  0
 13 18  1  0  0  0
 14 15  1  0  0  0
 15 16  1  0  0  0
 16 17  1  0  0  0
 17 18  1  0  0  0
 20 21  4  0  0  0
 20 25  4  0  0  0
 21 22  4  0  0  0
 22 23  4  0  0  0
 23 24  4  0  0  0
 24 25  4  0  0  0
 26 27  1  0  0  0
 27 28  4  0  0  0
 27 32  4  0  0  0
 28 29  4  0  0  0
 28 33  1  0  0  0
 29 30  4  0  0  0
 29 34  1  0  0  0
 30 31  4  0  0  0
 31 32  4  0  0  0
  1 35  1  0  0  0
  2 36  1  0  0  0
 10 37  1  0  0  0
 10 38  1  0  0  0
 10 39  1  0  0  0
 11 40  1  0  0  0
 14 41  1  0  0  0
 14 42  1  0  0  0
 15 43  1  0  0  0
 15 44  1  0  0  0
 16 45  1  0  0  0
 16 46  1  0  0  0
 17 47  1  0  0  0
 17 48  1  0  0  0
 18 49  1  0  0  0
 18 50  1  0  0  0
 21 51  1  0  0  0
 22 52  1  0  0  0
 23 53  1  0  0  0
 24 54  1  0  0  0
 25 55  1  0  0  0
 26 56  1  0  0  0
 26 57  1  0  0  0
 30 58  1  0  0  0
 31 59  1  0  0  0
 32 60  1  0  0  0
 33 61  1  0  0  0
 33 62  1  0  0  0
 33 63  1  0  0  0
M  END
$$$$
