6hy7_ligand
  -I-interpret- 

203206  0  0  0  0  0  0  0  0999 V2000
   52.9790   37.2580   48.5520 N   0  3  0  0  0
   51.9870   37.4260   49.5930 C   0  0  0  0  0
   51.9740   36.2230   50.5080 C   0  0  0  0  0
   52.6000   35.2030   50.2080 O   0  0  0  0  0
   51.2520   36.3300   51.6250 N   0  0  0  0  0
   51.2310   35.2330   52.5830 C   0  0  0  0  0
   50.7270   33.9400   51.9440 C   0  0  0  0  0
   51.2330   32.8540   52.2550 O   0  0  0  0  0
   50.3850   35.6250   53.7970 C   0  0  0  0  0
   49.8600   34.2770   54.9180 S   0  0  0  0  0
   49.7690   34.0320   51.0240 N   0  0  0  0  0
   49.1100   32.8340   50.5140 C   0  0  0  0  0
   49.8900   32.1310   49.4090 C   0  0  0  0  0
   49.4160   31.1110   48.9030 O   0  0  0  0  0
   47.7040   33.1850   50.0210 C   0  0  0  0  0
   46.8040   34.2820   51.1660 S   0  0  0  0  0
   51.0520   32.6540   49.0140 N   0  0  0  0  0
   51.9570   31.9560   48.1080 C   0  0  0  0  0
   53.2740   31.7040   48.8260 C   0  0  0  0  0
   54.3560   31.8980   48.2590 O   0  0  0  0  0
   52.1820   32.7570   46.8250 C   0  0  0  0  0
   51.1330   32.5240   45.9050 O   0  0  0  0  0
   53.1790   31.3040   50.0870 N   0  0  0  0  0
   54.3190   31.0550   50.9580 C   0  0  0  0  0
   53.9810   29.7980   51.7530 C   0  0  0  0  0
   53.0160   29.8040   52.5240 O   0  0  0  0  0
   54.5930   32.2750   51.8630 C   0  0  0  0  0
   55.8400   32.1060   52.7470 C   0  0  0  0  0
   56.1610   30.9520   53.1250 O   0  0  0  0  0
   56.5000   33.1310   53.0680 O   0  0  0  0  0
   54.7030   28.6920   51.5570 N   0  0  0  0  0
   54.3330   27.4460   52.2550 C   0  0  0  0  0
   54.3740   27.5620   53.7690 C   0  0  0  0  0
   53.7030   26.7810   54.4560 O   0  0  0  0  0
   55.3610   26.4340   51.7340 C   0  0  0  0  0
   56.5080   27.2760   51.2410 C   0  0  0  0  0
   55.8640   28.5080   50.6720 C   0  0  0  0  0
   55.1330   28.5090   54.3160 N   0  0  0  0  0
   55.1520   28.7070   55.7590 C   0  0  0  0  0
   53.9320   29.4730   56.2640 C   0  0  0  0  0
   53.7010   29.5260   57.4800 O   0  0  0  0  0
   56.4190   29.4640   56.1780 C   0  0  0  0  0
   57.7330   28.8620   55.7430 C   0  0  0  0  0
   58.8600   29.9070   55.8830 C   0  0  0  0  0
   58.7120   30.9730   54.8860 N   0  0  0  0  0
   59.5980   31.9460   54.6400 C   0  0  0  0  0
   60.7540   32.0300   55.3120 N   0  0  0  0  0
   59.3220   32.8410   53.6920 N   0  0  0  0  0
   53.1700   30.0980   55.3620 N   0  0  0  0  0
   52.0370   30.9360   55.7270 C   0  0  0  0  0
   50.8140   30.2180   55.1670 C   0  0  0  0  0
   50.3300   29.2510   55.7800 O   0  0  0  0  0
   52.2820   32.3680   55.2150 C   0  0  0  0  0
   51.4750   33.7880   56.0850 S   0  0  0  0  0
   50.3060   30.6150   54.0040 N   0  0  0  0  0
   49.5200   29.7420   53.1310 C   0  0  0  0  0
   48.3470   29.0090   53.7880 C   0  0  0  0  0
   47.2130   29.4850   53.7030 O   0  0  0  0  0
   50.4520   28.7240   52.4640 C   0  0  0  0  0
   49.8440   28.0580   51.2610 C   0  0  0  0  0
   50.8880   27.7520   50.2160 C   0  0  0  0  0
   51.2430   26.3360   50.1920 N   0  0  0  0  0
   52.1780   25.8180   49.4030 C   0  0  0  0  0
   52.8520   26.6000   48.5680 N   0  0  0  0  0
   52.4390   24.5200   49.4490 N   0  0  0  0  0
   48.5710   27.8230   54.3680 N   0  0  0  0  0
   47.4680   27.0910   54.9940 C   0  0  0  0  0
   47.1050   27.8780   56.2460 C   0  0  0  0  0
   47.4530   27.4890   57.3640 O   0  0  0  0  0
   47.8280   25.6070   55.2940 C   0  0  0  0  0
   47.6050   24.5660   54.1400 C   0  0  0  0  0
   46.3430   23.9610   53.8780 C   0  0  0  0  0
   48.6610   24.1370   53.3300 C   0  0  0  0  0
   46.1730   22.9400   52.8080 C   0  0  0  0  0
   48.4290   23.1800   52.2910 C   0  0  0  0  0
   47.1690   22.6560   52.0730 C   0  0  0  0  0
   46.9870   21.7790   51.1250 O   0  0  0  0  0
   46.4480   29.0210   56.0410 N   0  0  0  0  0
   46.1870   30.0350   57.0560 C   0  0  0  0  0
   45.4080   31.1640   56.3880 C   0  0  0  0  0
   44.8220   32.0140   57.0680 O   0  0  0  0  0
   47.4920   30.5430   57.6810 C   0  0  0  0  0
   47.3290   31.6770   58.6880 C   0  0  0  0  0
   48.6490   31.9850   59.3780 C   0  0  0  0  0
   48.5090   33.0580   60.3520 N   0  0  0  0  0
   49.3630   33.2880   61.3470 C   0  0  0  0  0
   50.4230   32.5000   61.5050 N   0  0  0  0  0
   49.1570   34.3010   62.1900 N   0  0  0  0  0
   45.4240   31.1770   55.0500 N   0  0  0  0  0
   44.4760   31.9320   54.2230 C   0  0  0  0  0
   43.3220   31.0260   53.8220 C   0  0  0  0  0
   42.6730   31.2680   52.8040 O   0  0  0  0  0
   45.1040   32.4670   52.9220 C   0  0  0  0  0
   46.7110   33.2870   52.9530 S   0  0  0  0  0
   43.0970   29.9600   54.5830 N   0  0  0  0  0
   42.0750   28.9400   54.2130 C   0  0  0  0  0
   42.7250   27.7320   53.5350 C   0  0  0  0  0
   43.8710   28.1120   52.6020 C   0  0  0  0  0
   44.6480   26.8560   52.2050 C   0  0  0  0  0
   45.9180   27.0790   51.5260 N   0  0  0  0  0
   46.1140   27.9690   50.5450 C   0  0  0  0  0
   45.2440   28.8410   50.2640 N   0  0  0  0  0
   47.3210   27.9340   49.7960 N   0  0  0  0  0
   41.3070   28.4780   55.4140 C   0  0  0  0  0
   41.8040   28.5920   56.5230 O   0  0  0  0  0
   40.0240   27.9010   55.2430 N   0  0  0  0  0
   52.9746   38.0773   47.9444 H   0  0  0  0  0
   53.9007   37.1527   48.9761 H   0  0  0  0  0
   52.7582   36.4261   48.0046 H   0  0  0  0  0
   51.0045   37.5327   49.1331 H   0  0  0  0  0
   52.2320   38.3133   50.1768 H   0  0  0  0  0
   50.7159   37.1783   51.8076 H   0  0  0  0  0
   52.2513   35.0415   52.9154 H   0  0  0  0  0
   49.4660   36.0500   53.3934 H   0  0  0  0  0
   51.0143   36.2820   54.3974 H   0  0  0  0  0
   49.4930   34.9488   50.6722 H   0  0  0  0  0
   49.0566   32.1316   51.3458 H   0  0  0  0  0
   47.1393   32.2565   49.9366 H   0  0  0  0  0
   47.8055   33.7076   49.0699 H   0  0  0  0  0
   51.3174   33.5766   49.3585 H   0  0  0  0  0
   51.5107   31.0045   47.8189 H   0  0  0  0  0
   53.1242   32.4458   46.3739 H   0  0  0  0  0
   52.2084   33.8187   47.0704 H   0  0  0  0  0
   51.2899   33.0337   45.1067 H   0  0  0  0  0
   52.2454   31.1613   50.4722 H   0  0  0  0  0
   55.2379   30.9025   50.3920 H   0  0  0  0  0
   53.7341   32.3959   52.5232 H   0  0  0  0  0
   54.7615   33.1354   51.2153 H   0  0  0  0  0
   56.0913   33.9080   52.6797 H   0  0  0  0  0
   53.3000   27.1615   52.0546 H   0  0  0  0  0
   54.9492   25.8047   50.9450 H   0  0  0  0  0
   55.6731   25.7346   52.5096 H   0  0  0  0  0
   57.1061   26.7505   50.4966 H   0  0  0  0  0
   57.2075   27.5170   52.0415 H   0  0  0  0  0
   56.5301   29.3706   50.6534 H   0  0  0  0  0
   55.5906   28.4031   49.6221 H   0  0  0  0  0
   55.7077   29.1026   53.7179 H   0  0  0  0  0
   55.1363   27.7131   56.2063 H   0  0  0  0  0
   56.4290   29.4588   57.2679 H   0  0  0  0  0
   56.3602   30.4418   55.6999 H   0  0  0  0  0
   57.6587   28.5501   54.7012 H   0  0  0  0  0
   57.9602   28.0011   56.3718 H   0  0  0  0  0
   59.8185   29.4119   55.7273 H   0  0  0  0  0
   58.8074   30.3481   56.8784 H   0  0  0  0  0
   57.8568   30.9728   54.3300 H   0  0  0  0  0
   61.4161   32.7755   55.0967 H   0  0  0  0  0
   60.9720   31.3485   56.0389 H   0  0  0  0  0
   58.4487   32.7770   53.1690 H   0  0  0  0  0
   53.3921   29.9828   54.3732 H   0  0  0  0  0
   51.8846   31.0678   56.7982 H   0  0  0  0  0
   51.8611   32.3809   54.2096 H   0  0  0  0  0
   53.3516   32.5320   55.3456 H   0  0  0  0  0
   50.4724   31.5760   53.7054 H   0  0  0  0  0
   49.0554   30.4117   52.4073 H   0  0  0  0  0
   50.6678   27.9463   53.1966 H   0  0  0  0  0
   51.3397   29.2607   52.1293 H   0  0  0  0  0
   49.1067   28.7332   50.8268 H   0  0  0  0  0
   49.3862   27.1210   51.5781 H   0  0  0  0  0
   51.7851   28.3233   50.4544 H   0  0  0  0  0
   50.4802   28.0167   49.2404 H   0  0  0  0  0
   50.7427   25.7061   50.8192 H   0  0  0  0  0
   53.5698   26.2012   47.9629 H   0  0  0  0  0
   52.6520   27.5995   48.5316 H   0  0  0  0  0
   51.9221   23.9183   50.0902 H   0  0  0  0  0
   49.5117   27.4287   54.3738 H   0  0  0  0  0
   46.6135   27.0187   54.3212 H   0  0  0  0  0
   47.1641   25.2993   56.1019 H   0  0  0  0  0
   48.8988   25.5979   55.4974 H   0  0  0  0  0
   45.4796   24.2528   54.4759 H   0  0  0  0  0
   49.6640   24.5325   53.4902 H   0  0  0  0  0
   45.4310   23.3611   52.1296 H   0  0  0  0  0
   45.9357   22.0151   53.3338 H   0  0  0  0  0
   49.2594   22.8595   51.6618 H   0  0  0  0  0
   46.1005   29.1999   55.0989 H   0  0  0  0  0
   45.6027   29.6121   57.8732 H   0  0  0  0  0
   48.0997   30.9333   56.8646 H   0  0  0  0  0
   47.9284   29.7034   58.2220 H   0  0  0  0  0
   46.6020   31.3744   59.4417 H   0  0  0  0  0
   46.9935   32.5693   58.1594 H   0  0  0  0  0
   49.3674   32.2995   58.6210 H   0  0  0  0  0
   48.9814   31.0879   59.9003 H   0  0  0  0  0
   47.7017   33.6755   60.2662 H   0  0  0  0  0
   50.5799   31.7217   60.8646 H   0  0  0  0  0
   49.8116   34.4701   62.9538 H   0  0  0  0  0
   48.3449   34.9066   62.0708 H   0  0  0  0  0
   46.1403   30.6275   54.5752 H   0  0  0  0  0
   44.1487   32.7783   54.8270 H   0  0  0  0  0
   44.4132   33.2414   52.5884 H   0  0  0  0  0
   45.2684   31.5758   52.3163 H   0  0  0  0  0
   43.6361   29.8370   55.4401 H   0  0  0  0  0
   41.3866   29.4160   53.5147 H   0  0  0  0  0
   41.9603   27.2383   52.9353 H   0  0  0  0  0
   43.1341   27.0937   54.3182 H   0  0  0  0  0
   44.5395   28.8047   53.1132 H   0  0  0  0  0
   43.4674   28.5859   51.7072 H   0  0  0  0  0
   44.0157   26.3142   51.5016 H   0  0  0  0  0
   44.8842   26.3358   53.1333 H   0  0  0  0  0
   46.7161   26.5158   51.8196 H   0  0  0  0  0
   44.3701   28.8772   50.7888 H   0  0  0  0  0
   47.4746   28.6064   49.0445 H   0  0  0  0  0
   48.0338   27.2365   50.0098 H   0  0  0  0  0
   39.5001   27.5729   56.0543 H   0  0  0  0  0
   39.6244   27.8138   54.3086 H   0  0  0  0  0
  1  2  1  0  0  0
  2  3  1  0  0  0
  3  4  2  0  0  0
  3  5  1  0  0  0
  5  6  1  0  0  0
  6  7  1  0  0  0
  6  9  1  0  0  0
  7  8  2  0  0  0
  7 11  1  0  0  0
  9 10  1  0  0  0
 10 54  1  0  0  0
 11 12  1  0  0  0
 12 13  1  0  0  0
 12 15  1  0  0  0
 13 14  2  0  0  0
 13 17  1  0  0  0
 15 16  1  0  0  0
 16 94  1  0  0  0
 17 18  1  0  0  0
 18 19  1  0  0  0
 18 21  1  0  0  0
 19 20  2  0  0  0
 19 23  1  0  0  0
 21 22  1  0  0  0
 23 24  1  0  0  0
 24 25  1  0  0  0
 24 27  1  0  0  0
 25 26  2  0  0  0
 25 31  1  0  0  0
 27 28  1  0  0  0
 28 29  2  0  0  0
 28 30  1  0  0  0
 31 32  1  0  0  0
 31 37  1  0  0  0
 32 33  1  0  0  0
 32 35  1  0  0  0
 33 34  2  0  0  0
 33 38  1  0  0  0
 35 36  1  0  0  0
 36 37  1  0  0  0
 38 39  1  0  0  0
 39 40  1  0  0  0
 39 42  1  0  0  0
 40 41  2  0  0  0
 40 49  1  0  0  0
 42 43  1  0  0  0
 43 44  1  0  0  0
 44 45  1  0  0  0
 45 46  1  0  0  0
 46 47  1  0  0  0
 46 48  2  0  0  0
 49 50  1  0  0  0
 50 51  1  0  0  0
 50 53  1  0  0  0
 51 52  2  0  0  0
 51 55  1  0  0  0
 53 54  1  0  0  0
 55 56  1  0  0  0
 56 57  1  0  0  0
 56 59  1  0  0  0
 57 58  2  0  0  0
 57 66  1  0  0  0
 59 60  1  0  0  0
 60 61  1  0  0  0
 61 62  1  0  0  0
 62 63  1  0  0  0
 63 64  1  0  0  0
 63 65  2  0  0  0
 66 67  1  0  0  0
 67 68  1  0  0  0
 67 70  1  0  0  0
 68 69  2  0  0  0
 68 78  1  0  0  0
 70 71  1  0  0  0
 71 72  2  0  0  0
 71 73  1  0  0  0
 72 74  1  0  0  0
 73 75  2  0  0  0
 74 76  1  0  0  0
 75 76  1  0  0  0
 76 77  2  0  0  0
 78 79  1  0  0  0
 79 80  1  0  0  0
 79 82  1  0  0  0
 80 81  2  0  0  0
 80 89  1  0  0  0
 82 83  1  0  0  0
 83 84  1  0  0  0
 84 85  1  0  0  0
 85 86  1  0  0  0
 86 87  2  0  0  0
 86 88  1  0  0  0
 89 90  1  0  0  0
 90 91  1  0  0  0
 90 93  1  0  0  0
 91 92  2  0  0  0
 91 95  1  0  0  0
 93 94  1  0  0  0
 95 96  1  0  0  0
 96 97  1  0  0  0
 96104  1  0  0  0
 97 98  1  0  0  0
 98 99  1  0  0  0
 99100  1  0  0  0
100101  1  0  0  0
101102  2  0  0  0
101103  1  0  0  0
104105  2  0  0  0
104106  1  0  0  0
  1107  1  0  0  0
  1108  1  0  0  0
  1109  1  0  0  0
  2110  1  0  0  0
  2111  1  0  0  0
  5112  1  0  0  0
  6113  1  0  0  0
  9114  1  0  0  0
  9115  1  0  0  0
 11116  1  0  0  0
 12117  1  0  0  0
 15118  1  0  0  0
 15119  1  0  0  0
 17120  1  0  0  0
 18121  1  0  0  0
 21122  1  0  0  0
 21123  1  0  0  0
 22124  1  0  0  0
 23125  1  0  0  0
 24126  1  0  0  0
 27127  1  0  0  0
 27128  1  0  0  0
 30129  1  0  0  0
 32130  1  0  0  0
 35131  1  0  0  0
 35132  1  0  0  0
 36133  1  0  0  0
 36134  1  0  0  0
 37135  1  0  0  0
 37136  1  0  0  0
 38137  1  0  0  0
 39138  1  0  0  0
 42139  1  0  0  0
 42140  1  0  0  0
 43141  1  0  0  0
 43142  1  0  0  0
 44143  1  0  0  0
 44144  1  0  0  0
 45145  1  0  0  0
 47146  1  0  0  0
 47147  1  0  0  0
 48148  1  0  0  0
 49149  1  0  0  0
 50150  1  0  0  0
 53151  1  0  0  0
 53152  1  0  0  0
 55153  1  0  0  0
 56154  1  0  0  0
 59155  1  0  0  0
 59156  1  0  0  0
 60157  1  0  0  0
 60158  1  0  0  0
 61159  1  0  0  0
 61160  1  0  0  0
 62161  1  0  0  0
 64162  1  0  0  0
 64163  1  0  0  0
 65164  1  0  0  0
 66165  1  0  0  0
 67166  1  0  0  0
 70167  1  0  0  0
 70168  1  0  0  0
 72169  1  0  0  0
 73170  1  0  0  0
 74171  1  0  0  0
 74172  1  0  0  0
 75173  1  0  0  0
 78174  1  0  0  0
 79175  1  0  0  0
 82176  1  0  0  0
 82177  1  0  0  0
 83178  1  0  0  0
 83179  1  0  0  0
 84180  1  0  0  0
 84181  1  0  0  0
 85182  1  0  0  0
 87183  1  0  0  0
 88184  1  0  0  0
 88185  1  0  0  0
 89186  1  0  0  0
 90187  1  0  0  0
 93188  1  0  0  0
 93189  1  0  0  0
 95190  1  0  0  0
 96191  1  0  0  0
 97192  1  0  0  0
 97193  1  0  0  0
 98194  1  0  0  0
 98195  1  0  0  0
 99196  1  0  0  0
 99197  1  0  0  0
100198  1  0  0  0
102199  1  0  0  0
103200  1  0  0  0
103201  1  0  0  0
106202  1  0  0  0
106203  1  0  0  0
M  END
$$$$
