### 
### Created by X-TOOL on Mon Aug  2 16:14:00 2021
### 

@<TRIPOS>MOLECULE
6hy7_ligand
  206   209     1     0     0
SMALL
GAST_HUCK


@<TRIPOS>ATOM
      1 N          52.9790   37.2580   48.5520 N.4       1 GLY         0.2357
      2 CA         51.9870   37.4260   49.5930 C.3       1 GLY         0.0545
      3 C          51.9740   36.2230   50.5080 C.2       1 GLY         0.2237
      4 O          52.6000   35.2030   50.2080 O.2       1 GLY        -0.3910
      5 N          51.2520   36.3300   51.6250 N.am      1 GLY        -0.2604
      6 CA         51.2310   35.2330   52.5830 C.3       1 GLY         0.1407
      7 C          50.7270   33.9400   51.9440 C.2       1 GLY         0.2048
      8 O          51.2330   32.8540   52.2550 O.2       1 GLY        -0.3944
      9 CB         50.3850   35.6250   53.7970 C.3       1 GLY         0.0443
     10 SG         49.8600   34.2770   54.9180 S.3       1 GLY        -0.0882
     11 N          49.7690   34.0320   51.0240 N.am      1 GLY        -0.2629
     12 CA         49.1100   32.8340   50.5140 C.3       1 GLY         0.1406
     13 C          49.8900   32.1310   49.4090 C.2       1 GLY         0.2048
     14 O          49.4160   31.1110   48.9030 O.2       1 GLY        -0.3944
     15 CB         47.7040   33.1850   50.0210 C.3       1 GLY         0.0443
     16 SG         46.8040   34.2820   51.1660 S.3       1 GLY        -0.0882
     17 N          51.0520   32.6540   49.0140 N.am      1 GLY        -0.2615
     18 CA         51.9570   31.9560   48.1080 C.3       1 GLY         0.1539
     19 C          53.2740   31.7040   48.8260 C.2       1 GLY         0.2063
     20 O          54.3560   31.8980   48.2590 O.2       1 GLY        -0.3943
     21 CB         52.1820   32.7570   46.8250 C.3       1 GLY         0.0843
     22 OG         51.1330   32.5240   45.9050 O.3       1 GLY        -0.3903
     23 N          53.1790   31.3040   50.0870 N.am      1 GLY        -0.2621
     24 CA         54.3190   31.0550   50.9580 C.3       1 GLY         0.1425
     25 C          53.9810   29.7980   51.7530 C.2       1 GLY         0.2081
     26 O          53.0160   29.8040   52.5240 O.2       1 GLY        -0.3941
     27 CB         54.5930   32.2750   51.8630 C.3       1 GLY         0.0406
     28 CG         55.8400   32.1060   52.7470 C.2       1 GLY         0.0393
     29 OD1        56.1610   30.9520   53.1250 O.co2     1 GLY        -0.5688
     30 OD2        56.5000   33.1310   53.0680 O.co2     1 GLY        -0.5688
     31 N          54.7030   28.6920   51.5570 N.am      1 GLY        -0.2497
     32 CA         54.3330   27.4460   52.2550 C.3       1 GLY         0.1338
     33 C          54.3740   27.5620   53.7690 C.2       1 GLY         0.2041
     34 O          53.7030   26.7810   54.4560 O.2       1 GLY        -0.3944
     35 CB         55.3610   26.4340   51.7340 C.3       1 GLY        -0.0104
     36 CG         56.5080   27.2760   51.2410 C.3       1 GLY        -0.0281
     37 CD         55.8640   28.5080   50.6720 C.3       1 GLY         0.0369
     38 N          55.1330   28.5090   54.3160 N.am      1 GLY        -0.2637
     39 CA         55.1520   28.7070   55.7590 C.3       1 GLY         0.1311
     40 C          53.9320   29.4730   56.2640 C.2       1 GLY         0.2039
     41 O          53.7010   29.5260   57.4800 O.2       1 GLY        -0.3944
     42 CB         56.4190   29.4640   56.1780 C.3       1 GLY        -0.0092
     43 CG         57.7330   28.8620   55.7430 C.3       1 GLY        -0.0156
     44 CD         58.8600   29.9070   55.8830 C.3       1 GLY         0.0627
     45 NE         58.7120   30.9730   54.8860 N.pl3     1 GLY        -0.2723
     46 CZ         59.5980   31.9460   54.6400 C.cat     1 GLY         0.2882
     47 NH1        60.7540   32.0300   55.3120 N.pl3     1 GLY        -0.2849
     48 NH2        59.3220   32.8410   53.6920 N.pl3     1 GLY        -0.2849
     49 N          53.1700   30.0980   55.3620 N.am      1 GLY        -0.2629
     50 CA         52.0370   30.9360   55.7270 C.3       1 GLY         0.1406
     51 C          50.8140   30.2180   55.1670 C.2       1 GLY         0.2047
     52 O          50.3300   29.2510   55.7800 O.2       1 GLY        -0.3944
     53 CB         52.2820   32.3680   55.2150 C.3       1 GLY         0.0443
     54 SG         51.4750   33.7880   56.0850 S.3       1 GLY        -0.0882
     55 N          50.3060   30.6150   54.0040 N.am      1 GLY        -0.2637
     56 CA         49.5200   29.7420   53.1310 C.3       1 GLY         0.1311
     57 C          48.3470   29.0090   53.7880 C.2       1 GLY         0.2040
     58 O          47.2130   29.4850   53.7030 O.2       1 GLY        -0.3944
     59 CB         50.4520   28.7240   52.4640 C.3       1 GLY        -0.0092
     60 CG         49.8440   28.0580   51.2610 C.3       1 GLY        -0.0156
     61 CD         50.8880   27.7520   50.2160 C.3       1 GLY         0.0627
     62 NE         51.2430   26.3360   50.1920 N.pl3     1 GLY        -0.2723
     63 CZ         52.1780   25.8180   49.4030 C.cat     1 GLY         0.2882
     64 NH1        52.8520   26.6000   48.5680 N.pl3     1 GLY        -0.2849
     65 NH2        52.4390   24.5200   49.4490 N.pl3     1 GLY        -0.2849
     66 N          48.5710   27.8230   54.3680 N.am      1 GLY        -0.2623
     67 CA         47.4680   27.0910   54.9940 C.3       1 GLY         0.1380
     68 C          47.1050   27.8780   56.2460 C.2       1 GLY         0.2055
     69 O          47.4530   27.4890   57.3640 O.2       1 GLY        -0.3942
     70 CB         47.8280   25.6070   55.2940 C.3       1 GLY         0.0165
     71 CG         47.6050   24.5660   54.1400 C.2       1 GLY        -0.0323
     72 CD1        46.3430   23.9610   53.8780 C.2       1 GLY        -0.0474
     73 CD2        48.6610   24.1370   53.3300 C.2       1 GLY        -0.0530
     74 CE1        46.1730   22.9400   52.8080 C.3       1 GLY         0.0477
     75 CE2        48.4290   23.1800   52.2910 C.2       1 GLY        -0.0185
     76 CZ         47.1690   22.6560   52.0730 C.2       1 GLY         0.1126
     77 OH         46.9870   21.7790   51.1250 O.2       1 GLY        -0.4077
     78 N          46.4480   29.0210   56.0410 N.am      1 GLY        -0.2636
     79 CA         46.1870   30.0350   57.0560 C.3       1 GLY         0.1311
     80 C          45.4080   31.1640   56.3880 C.2       1 GLY         0.2039
     81 O          44.8220   32.0140   57.0680 O.2       1 GLY        -0.3944
     82 CB         47.4920   30.5430   57.6810 C.3       1 GLY        -0.0092
     83 CG         47.3290   31.6770   58.6880 C.3       1 GLY        -0.0156
     84 CD         48.6490   31.9850   59.3780 C.3       1 GLY         0.0627
     85 NE         48.5090   33.0580   60.3520 N.pl3     1 GLY        -0.2723
     86 CZ         49.3630   33.2880   61.3470 C.cat     1 GLY         0.2882
     87 NH1        50.4230   32.5000   61.5050 N.pl3     1 GLY        -0.2849
     88 NH2        49.1570   34.3010   62.1900 N.pl3     1 GLY        -0.2849
     89 N          45.4240   31.1770   55.0500 N.am      1 GLY        -0.2629
     90 CA         44.4760   31.9320   54.2230 C.3       1 GLY         0.1406
     91 C          43.3220   31.0260   53.8220 C.2       1 GLY         0.2047
     92 O          42.6730   31.2680   52.8040 O.2       1 GLY        -0.3944
     93 CB         45.1040   32.4670   52.9220 C.3       1 GLY         0.0443
     94 SG         46.7110   33.2870   52.9530 S.3       1 GLY        -0.0882
     95 N          43.0970   29.9600   54.5830 N.am      1 GLY        -0.2637
     96 CA         42.0750   28.9400   54.2130 C.3       1 GLY         0.1307
     97 CB         42.7250   27.7320   53.5350 C.3       1 GLY        -0.0092
     98 CG         43.8710   28.1120   52.6020 C.3       1 GLY        -0.0156
     99 CD         44.6480   26.8560   52.2050 C.3       1 GLY         0.0627
    100 NE         45.9180   27.0790   51.5260 N.pl3     1 GLY        -0.2723
    101 CZ         46.1140   27.9690   50.5450 C.cat     1 GLY         0.2882
    102 NH1        45.2440   28.8410   50.2640 N.pl3     1 GLY        -0.2849
    103 NH2        47.3210   27.9340   49.7960 N.pl3     1 GLY        -0.2849
    104 C          41.3070   28.4780   55.4140 C.2       1 GLY         0.1992
    105 O          41.8040   28.5920   56.5230 O.2       1 GLY        -0.3947
    106 NT         40.0240   27.9010   55.2430 N.am      1 GLY        -0.2990
    107 H1         52.9756   38.0671   47.9509 H         1 GLY         0.2012
    108 H2         52.7618   36.4361   48.0103 H         1 GLY         0.2012
    109 H3         53.8903   37.1538   48.9699 H         1 GLY         0.2012
    110 H4         50.9947   37.5419   49.1327 H         1 GLY         0.1061
    111 H5         52.2262   38.3251   50.1799 H         1 GLY         0.1061
    112 H6         50.7264   37.1617   51.8041 H         1 GLY         0.1885
    113 H7         52.2615   35.0585   52.9259 H         1 GLY         0.0808
    114 H8         49.4755   36.1172   53.4221 H         1 GLY         0.0432
    115 H9         50.9709   36.3412   54.3918 H         1 GLY         0.0432
    116 H10        49.4984   34.9308   50.6791 H         1 GLY         0.1884
    117 H11        49.0143   32.1272   51.3514 H         1 GLY         0.0808
    118 H12        47.1305   32.2537   49.9036 H         1 GLY         0.0432
    119 H13        47.7892   33.6885   49.0467 H         1 GLY         0.0432
    120 H14        51.3122   33.5585   49.3518 H         1 GLY         0.1884
    121 H15        51.5094   30.9882   47.8379 H         1 GLY         0.0823
    122 H16        53.1363   32.4522   46.3706 H         1 GLY         0.0606
    123 H17        52.2179   33.8290   47.0691 H         1 GLY         0.0606
    124 H18        51.2883   33.0283   45.1151 H         1 GLY         0.2097
    125 H19        52.2637   31.1641   50.4647 H         1 GLY         0.1884
    126 H20        55.2154   30.8680   50.3485 H         1 GLY         0.0819
    127 H21        53.7207   32.4295   52.5150 H         1 GLY         0.0478
    128 H22        54.7346   33.1593   51.2243 H         1 GLY         0.0478
    129 H23        53.3175   27.1414   51.9617 H         1 GLY         0.0802
    130 H24        54.9367   25.8372   50.9131 H         1 GLY         0.0313
    131 H25        55.6904   25.7643   52.5420 H         1 GLY         0.0313
    132 H26        57.0751   26.7416   50.4646 H         1 GLY         0.0287
    133 H27        57.1805   27.5386   52.0709 H         1 GLY         0.0287
    134 H28        56.5434   29.3716   50.7214 H         1 GLY         0.0524
    135 H29        55.5494   28.3480   49.6302 H         1 GLY         0.0524
    136 H30        55.6965   29.0910   53.7297 H         1 GLY         0.1883
    137 H31        55.1587   27.7162   56.2368 H         1 GLY         0.0800
    138 H32        56.4255   29.5243   57.2763 H         1 GLY         0.0313
    139 H33        56.3588   30.4778   55.7554 H         1 GLY         0.0313
    140 H34        57.6588   28.5439   54.6926 H         1 GLY         0.0301
    141 H35        57.9624   27.9911   56.3746 H         1 GLY         0.0301
    142 H36        59.8311   29.4110   55.7385 H         1 GLY         0.0689
    143 H37        58.8196   30.3476   56.8901 H         1 GLY         0.0689
    144 H38        57.8484   30.9728   54.3246 H         1 GLY         0.2642
    145 H39        61.4176   32.7893   55.1022 H         1 GLY         0.2615
    146 H40        60.9791   31.3353   56.0384 H         1 GLY         0.2615
    147 H41        58.4353   32.7827   53.1712 H         1 GLY         0.2615
    148 H42        59.9954   33.5910   53.4801 H         1 GLY         0.2615
    149 H43        53.3877   29.9851   54.3925 H         1 GLY         0.1884
    150 H44        51.9425   30.9836   56.8219 H         1 GLY         0.0808
    151 H45        51.9433   32.3977   54.1689 H         1 GLY         0.0432
    152 H46        53.3674   32.5421   55.2541 H         1 GLY         0.0432
    153 H47        50.4692   31.5572   53.7112 H         1 GLY         0.1883
    154 H48        49.0929   30.3811   52.3442 H         1 GLY         0.0800
    155 H49        50.7059   27.9481   53.2012 H         1 GLY         0.0313
    156 H50        51.3685   29.2442   52.1487 H         1 GLY         0.0313
    157 H51        49.0871   28.7270   50.8257 H         1 GLY         0.0301
    158 H52        49.3659   27.1185   51.5752 H         1 GLY         0.0301
    159 H53        51.7914   28.3404   50.4343 H         1 GLY         0.0689
    160 H54        50.4952   28.0359   49.2285 H         1 GLY         0.0689
    161 H55        50.7378   25.6999   50.8253 H         1 GLY         0.2642
    162 H56        53.5767   26.1972   47.9568 H         1 GLY         0.2615
    163 H57        52.6502   27.6094   48.5315 H         1 GLY         0.2615
    164 H58        51.9169   23.9123   50.0963 H         1 GLY         0.2615
    165 H59        53.1641   24.1185   48.8375 H         1 GLY         0.2615
    166 H60        49.4933   27.4365   54.3736 H         1 GLY         0.1885
    167 H61        46.6059   27.0915   54.3108 H         1 GLY         0.0819
    168 H62        47.2185   25.2857   56.1515 H         1 GLY         0.0435
    169 H63        48.8928   25.5739   55.5680 H         1 GLY         0.0435
    170 H64        45.4804   24.2525   54.4754 H         1 GLY         0.0725
    171 H65        49.6631   24.5322   53.4901 H         1 GLY         0.0714
    172 H66        45.3719   23.2969   52.1441 H         1 GLY         0.0696
    173 H67        45.8554   22.0075   53.2975 H         1 GLY         0.0696
    174 H68        49.2586   22.8598   51.6624 H         1 GLY         0.0542
    175 H69        46.1073   29.1964   55.1173 H         1 GLY         0.1883
    176 H70        45.5697   29.5959   57.8536 H         1 GLY         0.0800
    177 H71        48.1426   30.8995   56.8688 H         1 GLY         0.0313
    178 H72        47.9753   29.6986   58.1942 H         1 GLY         0.0313
    179 H73        46.5873   31.3824   59.4450 H         1 GLY         0.0301
    180 H74        46.9788   32.5776   58.1624 H         1 GLY         0.0301
    181 H75        49.3863   32.2861   58.6193 H         1 GLY         0.0689
    182 H76        49.0019   31.0795   59.8933 H         1 GLY         0.0689
    183 H77        47.6938   33.6816   60.2654 H         1 GLY         0.2642
    184 H78        51.0853   32.6757   62.2740 H         1 GLY         0.2615
    185 H79        50.5815   31.7141   60.8583 H         1 GLY         0.2615
    186 H80        48.3369   34.9125   62.0697 H         1 GLY         0.2615
    187 H81        49.8180   34.4717   62.9613 H         1 GLY         0.2615
    188 H82        46.1262   30.6383   54.5845 H         1 GLY         0.1884
    189 H83        44.0956   32.7796   54.8120 H         1 GLY         0.0808
    190 H84        44.3894   33.1892   52.5004 H         1 GLY         0.0432
    191 H85        45.2013   31.6078   52.2420 H         1 GLY         0.0432
    192 H86        43.6256   29.8394   55.4233 H         1 GLY         0.1883
    193 H87        41.3710   29.4017   53.5051 H         1 GLY         0.0800
    194 H88        41.9575   27.2046   52.9495 H         1 GLY         0.0313
    195 H89        43.1163   27.0619   54.3146 H         1 GLY         0.0313
    196 H90        44.5454   28.8120   53.1169 H         1 GLY         0.0301
    197 H91        43.4644   28.5914   51.6993 H         1 GLY         0.0301
    198 H92        44.0083   26.2619   51.5358 H         1 GLY         0.0689
    199 H93        44.8523   26.2828   53.1214 H         1 GLY         0.0689
    200 H94        46.7240   26.5103   51.8225 H         1 GLY         0.2642
    201 H95        45.4172   29.5153   49.5049 H         1 GLY         0.2615
    202 H96        44.3616   28.8776   50.7940 H         1 GLY         0.2615
    203 H97        48.0408   27.2296   50.0119 H         1 GLY         0.2615
    204 H98        47.4761   28.6130   49.0372 H         1 GLY         0.2615
    205 H99        39.5053   27.5903   56.0395 H         1 GLY         0.1815
    206 H100       39.6373   27.8046   54.3258 H         1 GLY         0.1815
@<TRIPOS>BOND
     1    1    2 1  
     2    2    3 1  
     3    3    4 2  
     4    3    5 am 
     5    5    6 1  
     6    6    7 1  
     7    6    9 1  
     8    7    8 2  
     9    7   11 am 
    10    9   10 1  
    11   10   54 1  
    12   11   12 1  
    13   12   13 1  
    14   12   15 1  
    15   13   14 2  
    16   13   17 am 
    17   15   16 1  
    18   16   94 1  
    19   17   18 1  
    20   18   19 1  
    21   18   21 1  
    22   19   20 2  
    23   19   23 am 
    24   21   22 1  
    25   23   24 1  
    26   24   25 1  
    27   24   27 1  
    28   25   26 2  
    29   25   31 am 
    30   27   28 1  
    31   28   29 ar 
    32   28   30 ar 
    33   31   32 1  
    34   31   37 1  
    35   32   33 1  
    36   32   35 1  
    37   33   34 2  
    38   33   38 am 
    39   35   36 1  
    40   36   37 1  
    41   38   39 1  
    42   39   40 1  
    43   39   42 1  
    44   40   41 2  
    45   40   49 am 
    46   42   43 1  
    47   43   44 1  
    48   44   45 1  
    49   45   46 ar 
    50   46   47 ar 
    51   46   48 ar 
    52   49   50 1  
    53   50   51 1  
    54   50   53 1  
    55   51   52 2  
    56   51   55 am 
    57   53   54 1  
    58   55   56 1  
    59   56   57 1  
    60   56   59 1  
    61   57   58 2  
    62   57   66 am 
    63   59   60 1  
    64   60   61 1  
    65   61   62 1  
    66   62   63 ar 
    67   63   64 ar 
    68   63   65 ar 
    69   66   67 1  
    70   67   68 1  
    71   67   70 1  
    72   68   69 2  
    73   68   78 am 
    74   70   71 1  
    75   71   72 2  
    76   71   73 1  
    77   72   74 1  
    78   73   75 2  
    79   74   76 1  
    80   75   76 1  
    81   76   77 2  
    82   78   79 1  
    83   79   80 1  
    84   79   82 1  
    85   80   81 2  
    86   80   89 am 
    87   82   83 1  
    88   83   84 1  
    89   84   85 1  
    90   85   86 ar 
    91   86   87 ar 
    92   86   88 ar 
    93   89   90 1  
    94   90   91 1  
    95   90   93 1  
    96   91   92 2  
    97   91   95 am 
    98   93   94 1  
    99   95   96 1  
   100   96   97 1  
   101   96  104 1  
   102   97   98 1  
   103   98   99 1  
   104   99  100 1  
   105  100  101 ar 
   106  101  102 ar 
   107  101  103 ar 
   108  104  105 2  
   109  104  106 am 
   110    1  107 1  
   111    1  108 1  
   112    1  109 1  
   113    2  110 1  
   114    2  111 1  
   115    5  112 1  
   116    6  113 1  
   117    9  114 1  
   118    9  115 1  
   119   11  116 1  
   120   12  117 1  
   121   15  118 1  
   122   15  119 1  
   123   17  120 1  
   124   18  121 1  
   125   21  122 1  
   126   21  123 1  
   127   22  124 1  
   128   23  125 1  
   129   24  126 1  
   130   27  127 1  
   131   27  128 1  
   132   32  129 1  
   133   35  130 1  
   134   35  131 1  
   135   36  132 1  
   136   36  133 1  
   137   37  134 1  
   138   37  135 1  
   139   38  136 1  
   140   39  137 1  
   141   42  138 1  
   142   42  139 1  
   143   43  140 1  
   144   43  141 1  
   145   44  142 1  
   146   44  143 1  
   147   45  144 1  
   148   47  145 1  
   149   47  146 1  
   150   48  147 1  
   151   48  148 1  
   152   49  149 1  
   153   50  150 1  
   154   53  151 1  
   155   53  152 1  
   156   55  153 1  
   157   56  154 1  
   158   59  155 1  
   159   59  156 1  
   160   60  157 1  
   161   60  158 1  
   162   61  159 1  
   163   61  160 1  
   164   62  161 1  
   165   64  162 1  
   166   64  163 1  
   167   65  164 1  
   168   65  165 1  
   169   66  166 1  
   170   67  167 1  
   171   70  168 1  
   172   70  169 1  
   173   72  170 1  
   174   73  171 1  
   175   74  172 1  
   176   74  173 1  
   177   75  174 1  
   178   78  175 1  
   179   79  176 1  
   180   82  177 1  
   181   82  178 1  
   182   83  179 1  
   183   83  180 1  
   184   84  181 1  
   185   84  182 1  
   186   85  183 1  
   187   87  184 1  
   188   87  185 1  
   189   88  186 1  
   190   88  187 1  
   191   89  188 1  
   192   90  189 1  
   193   93  190 1  
   194   93  191 1  
   195   95  192 1  
   196   96  193 1  
   197   97  194 1  
   198   97  195 1  
   199   98  196 1  
   200   98  197 1  
   201   99  198 1  
   202   99  199 1  
   203  100  200 1  
   204  102  201 1  
   205  102  202 1  
   206  103  203 1  
   207  103  204 1  
   208  106  205 1  
   209  106  206 1  
@<TRIPOS>SUBSTRUCTURE
     1 GLY         1

