4bi6_ligand
  -I-interpret- 

 14 13  0  0  0  0  0  0  0  0999 V2000
   -1.6930  -19.8400  -35.5630 P   0  0  0  0  0
   -2.2440  -18.3250  -35.5200 O   0  0  0  0  0
   -2.5460  -20.6000  -36.5420 O   0  0  0  0  0
   -0.2550  -19.7700  -36.0210 O   0  0  0  0  0
   -1.7650  -20.4060  -34.1650 O   0  0  0  0  0
   -3.5220  -18.0180  -34.9980 C   0  0  0  0  0
   -3.9070  -16.6280  -35.4500 C   0  0  0  0  0
   -5.0940  -16.3220  -35.6500 O   0  0  0  0  0
   -3.0320  -15.7580  -35.6300 O   0  0  0  0  0
    0.2614  -19.2803  -35.3767 H   0  0  0  0  0
   -1.2056  -19.8876  -33.5819 H   0  0  0  0  0
   -3.4979  -18.0606  -33.9091 H   0  0  0  0  0
   -4.2535  -18.7412  -35.3586 H   0  0  0  0  0
   -2.1680  -16.1306  -35.4396 H   0  0  0  0  0
  1  2  1  0  0  0
  1  3  2  0  0  0
  1  4  1  0  0  0
  1  5  1  0  0  0
  2  6  1  0  0  0
  6  7  1  0  0  0
  7  8  2  0  0  0
  7  9  1  0  0  0
  4 10  1  0  0  0
  5 11  1  0  0  0
  6 12  1  0  0  0
  6 13  1  0  0  0
  9 14  1  0  0  0
M  END
$$$$
