3jy9_ligand
  -I-interpret- 

 40 44  0  0  0  0  0  0  0  0999 V2000
    9.0030   18.0650    0.2540 O   0  0  0  0  0
    9.7370   17.0140    0.7780 C   0  0  0  0  0
   10.0370   16.9850    2.1380 C   0  0  0  0  0
   10.8190   15.9780    2.6330 C   0  0  0  0  0
   11.2880   14.9490    1.7950 C   0  0  0  0  0
   11.0130   14.9690    0.4170 C   0  0  0  0  0
   10.2250   16.0030   -0.0790 C   0  0  0  0  0
   12.2220   13.8130    2.1380 C   0  0  0  0  0
   13.6830   14.2370    1.9240 C   0  0  0  0  0
   13.9770   14.6030    0.7850 O   0  0  0  0  0
   14.7700   14.1490    2.7060 N   0  0  0  0  0
   14.8250   13.7160    4.0300 C   0  0  0  0  0
   15.2470   14.6570    4.9760 C   0  0  0  0  0
   15.3810   14.3160    6.3280 C   0  0  0  0  0
   15.0760   13.0050    6.7510 C   0  0  0  0  0
   14.6380   12.0910    5.7840 C   0  0  0  0  0
   14.5230   12.3990    4.3860 C   0  0  0  0  0
   13.9840   11.2760    3.5240 C   0  0  0  0  0
   14.4950    9.9600    3.7360 C   0  0  0  0  0
   13.9750    8.8690    3.0950 C   0  0  0  0  0
   12.9430    8.9400    2.2500 N   0  0  0  0  0
   12.4010   10.1140    1.9710 C   0  0  0  0  0
   11.3490   10.4070    1.0970 N   0  0  0  0  0
   11.1840   11.7680    1.1420 C   0  0  0  0  0
   12.0420   12.3350    2.0560 C   0  0  0  0  0
   12.9100   11.2990    2.6110 C   0  0  0  0  0
    8.8855   17.9327   -0.6896 H   0  0  0  0  0
    9.6517   17.7585    2.8023 H   0  0  0  0  0
   11.0826   15.9723    3.6906 H   0  0  0  0  0
   11.4057   14.1967   -0.2443 H   0  0  0  0  0
    9.9816   16.0331   -1.1410 H   0  0  0  0  0
   11.7340   13.7276    3.1089 H   0  0  0  0  0
   15.6551   14.4305    2.2844 H   0  0  0  0  0
   15.4755   15.6733    4.6551 H   0  0  0  0  0
   15.7192   15.0597    7.0496 H   0  0  0  0  0
   15.1779   12.7129    7.7962 H   0  0  0  0  0
   14.3686   11.0870    6.1119 H   0  0  0  0  0
   15.3243    9.8202    4.4294 H   0  0  0  0  0
   14.4249    7.8941    3.2830 H   0  0  0  0  0
   10.4697   12.3250    0.5356 H   0  0  0  0  0
  1  2  1  0  0  0
  2  3  4  0  0  0
  2  7  4  0  0  0
  3  4  4  0  0  0
  4  5  4  0  0  0
  5  6  4  0  0  0
  5  8  1  0  0  0
  6  7  4  0  0  0
  8  9  1  0  0  0
  8 25  1  0  0  0
  9 10  2  0  0  0
  9 11  1  0  0  0
 11 12  1  0  0  0
 12 13  4  0  0  0
 12 17  4  0  0  0
 13 14  4  0  0  0
 14 15  4  0  0  0
 15 16  4  0  0  0
 16 17  4  0  0  0
 17 18  1  0  0  0
 18 19  4  0  0  0
 18 26  4  0  0  0
 19 20  4  0  0  0
 20 21  4  0  0  0
 21 22  4  0  0  0
 22 23  4  0  0  0
 22 26  4  0  0  0
 23 24  4  0  0  0
 24 25  4  0  0  0
 25 26  4  0  0  0
  1 27  1  0  0  0
  3 28  1  0  0  0
  4 29  1  0  0  0
  6 30  1  0  0  0
  7 31  1  0  0  0
  8 32  1  0  0  0
 11 33  1  0  0  0
 13 34  1  0  0  0
 14 35  1  0  0  0
 15 36  1  0  0  0
 16 37  1  0  0  0
 19 38  1  0  0  0
 20 39  1  0  0  0
 24 40  1  0  0  0
M  END
$$$$
