### 
### Created by X-TOOL on Mon Sep 10 21:13:03 2018
### 

@<TRIPOS>MOLECULE
3m57_ligand
  152   152     1     0     0
SMALL
GAST_HUCK


@<TRIPOS>ATOM
      1 C          21.0480  -27.7650   -4.1720 C.2       1 ACE         0.1752
      2 O          20.0700  -27.5490   -3.4440 O.2       1 ACE        -0.3972
      3 CH3        21.0680  -27.3990   -5.6460 C.3       1 ACE         0.0258
      4 N          22.2570  -28.0150   -3.6570 N.am      1 SER        -0.2637
      5 CA         22.4510  -28.4270   -2.2640 C.3       1 SER         0.1538
      6 C          22.7690  -27.2300   -1.3840 C.2       1 SER         0.2062
      7 O          23.3340  -26.2530   -1.8440 O.2       1 SER        -0.3943
      8 CB         23.5710  -29.4450   -2.1920 C.3       1 SER         0.0843
      9 OG         23.0890  -30.7630   -2.4160 O.3       1 SER        -0.3903
     10 N          22.4180  -27.2890   -0.1060 N.am      1 LYS        -0.2637
     11 CA         22.6590  -26.1400    0.7470 C.3       1 LYS         0.1310
     12 C          23.9860  -26.3360    1.4960 C.2       1 LYS         0.2040
     13 O          24.0630  -26.2100    2.7250 O.2       1 LYS        -0.3944
     14 CB         21.5150  -25.9540    1.7440 C.3       1 LYS        -0.0122
     15 CG         20.1340  -25.9200    1.0420 C.3       1 LYS        -0.0440
     16 CD         19.0770  -25.2890    1.9570 C.3       1 LYS        -0.0124
     17 CE         17.7120  -25.2840    1.2380 C.3       1 LYS        -0.0354
     18 NZ         16.6680  -25.0030    2.2530 N.4       1 LYS         0.2185
     19 N          25.0140  -26.6450    0.7230 N.am      1 SER        -0.2616
     20 CA         26.3720  -26.8290    1.2890 C.3       1 SER         0.1539
     21 C          27.4050  -26.2770    0.3050 C.2       1 SER         0.2062
     22 O          27.1190  -26.1620   -0.8920 O.2       1 SER        -0.3943
     23 CB         26.6280  -28.2940    1.5770 C.3       1 SER         0.0843
     24 OG         26.5240  -29.1350    0.4230 O.3       1 SER        -0.3903
     25 N          28.5780  -25.9380    0.8300 N.am      1 LYS        -0.2637
     26 CA         29.6920  -25.3910    0.0200 C.3       1 LYS         0.1310
     27 C          30.3440  -26.4560   -0.8580 C.2       1 LYS         0.2040
     28 O          30.4130  -27.6650   -0.5150 O.2       1 LYS        -0.3944
     29 CB         30.7470  -24.7710    0.9470 C.3       1 LYS        -0.0122
     30 CG         30.2830  -23.6480    1.8010 C.3       1 LYS        -0.0440
     31 CD         31.2760  -23.2870    2.9210 C.3       1 LYS        -0.0124
     32 CE         30.4940  -22.6160    4.0610 C.3       1 LYS        -0.0354
     33 NZ         31.2640  -21.9780    5.1820 N.4       1 LYS         0.2185
     34 N          30.8060  -26.0400   -2.0450 N.am      1 ASP        -0.2622
     35 CA         31.7330  -26.8730   -2.8080 C.3       1 ASP         0.1423
     36 C          31.1920  -28.2040   -3.2540 C.2       1 ASP         0.2056
     37 O          31.9310  -29.1740   -3.3580 O.2       1 ASP        -0.3943
     38 CB         33.0350  -27.1050   -1.9870 C.3       1 ASP         0.0406
     39 CG         34.2400  -27.3700   -2.8690 C.2       1 ASP         0.0393
     40 OD1        34.4190  -26.6180   -3.8680 O.co2     1 ASP        -0.5688
     41 OD2        35.0210  -28.3050   -2.5720 O.co2     1 ASP        -0.5688
     42 N          29.8900  -28.2980   -3.5270 N.am      1 ARG        -0.2636
     43 CA         29.4330  -29.5360   -4.1160 C.3       1 ARG         0.1311
     44 C          29.8360  -29.5450   -5.5880 C.2       1 ARG         0.2039
     45 O          29.9070  -28.4920   -6.2320 O.2       1 ARG        -0.3944
     46 CB         27.9180  -29.6650   -3.9980 C.3       1 ARG        -0.0092
     47 CG         27.4250  -30.9860   -4.5390 C.3       1 ARG        -0.0156
     48 CD         25.9630  -31.1210   -4.2380 C.3       1 ARG         0.0627
     49 NE         25.3630  -32.3180   -4.8180 N.pl3     1 ARG        -0.2723
     50 CZ         24.8990  -32.3890   -6.0690 C.cat     1 ARG         0.2882
     51 NH1        25.0050  -31.3430   -6.8880 N.pl3     1 ARG        -0.2849
     52 NH2        24.3400  -33.5170   -6.5160 N.pl3     1 ARG        -0.2849
     53 N          30.1320  -30.7090   -6.1380 N.am      1 LYS        -0.2637
     54 CA         30.4350  -30.7210   -7.5760 C.3       1 LYS         0.1309
     55 C          29.1350  -30.9500   -8.3380 C.2       1 LYS         0.2035
     56 O          28.5410  -32.0310   -8.2550 O.2       1 LYS        -0.3944
     57 CB         31.4900  -31.7820   -7.9040 C.3       1 LYS        -0.0122
     58 CG         32.7140  -31.6580   -6.9790 C.3       1 LYS        -0.0440
     59 CD         33.1310  -30.1720   -6.8050 C.3       1 LYS        -0.0124
     60 CE         34.4250  -30.0330   -5.9990 C.3       1 LYS        -0.0354
     61 NZ         35.2440  -28.8130   -6.3790 N.4       1 LYS         0.2185
     62 N          28.6760  -29.9210   -9.0490 N.am      1 TYR        -0.2679
     63 CA         27.4080  -30.0050   -9.7780 C.3       1 TYR         0.1025
     64 C          27.6100  -30.5310  -11.1900 C.2       1 TYR         0.0619
     65 O          28.7673  -30.5494  -11.6879 O.co2     1 TYR        -0.5665
     66 CB         26.7220  -28.6420   -9.8010 C.3       1 TYR         0.0108
     67 CG         26.3240  -28.1830   -8.4160 C.ar      1 TYR        -0.0499
     68 CD1        25.3720  -28.8930   -7.6720 C.ar      1 TYR        -0.0686
     69 CD2        26.9070  -27.0500   -7.8390 C.ar      1 TYR        -0.0686
     70 CE1        25.0080  -28.4820   -6.3820 C.ar      1 TYR        -0.0398
     71 CE2        26.5510  -26.6340   -6.5620 C.ar      1 TYR        -0.0398
     72 CZ         25.6000  -27.3510   -5.8470 C.ar      1 TYR         0.0805
     73 OH         25.2470  -26.9330   -4.5930 O.3       1 TYR        -0.3376
     74 H          20.2664  -27.9281   -6.1613 H         1 ACE         0.0467
     75 H          20.9238  -26.3240   -5.7541 H         1 ACE         0.0467
     76 H          22.0282  -27.6832   -6.0766 H         1 ACE         0.0467
     77 H          23.0757  -27.9150   -4.2571 H         1 SER         0.1883
     78 H          21.5279  -28.8762   -1.8978 H         1 SER         0.0823
     79 H          24.0137  -29.4028   -1.1968 H         1 SER         0.0606
     80 H          24.3037  -29.2086   -2.9636 H         1 SER         0.0606
     81 H          22.4349  -30.9812   -1.7480 H         1 SER         0.2097
     82 H          21.9843  -28.1312    0.2722 H         1 LYS         0.1883
     83 H          22.7158  -25.2448    0.1277 H         1 LYS         0.0800
     84 H          21.6605  -25.0032    2.2567 H         1 LYS         0.0312
     85 H          21.5253  -26.7961    2.4360 H         1 LYS         0.0312
     86 H          19.8327  -26.9408    0.8068 H         1 LYS         0.0269
     87 H          20.2150  -25.3237    0.1332 H         1 LYS         0.0269
     88 H          19.3664  -24.2654    2.1947 H         1 LYS         0.0317
     89 H          19.0009  -25.8678    2.8775 H         1 LYS         0.0317
     90 H          17.5298  -26.2484    0.7638 H         1 LYS         0.0813
     91 H          17.6972  -24.5226    0.4581 H         1 LYS         0.0813
     92 H          15.7524  -24.9938    1.8037 H         1 LYS         0.1994
     93 H          16.6889  -25.7280    2.9702 H         1 LYS         0.1994
     94 H          16.8472  -24.0946    2.6809 H         1 LYS         0.1994
     95 H          24.8699  -26.7587   -0.2803 H         1 SER         0.1884
     96 H          26.4527  -26.2854    2.2303 H         1 SER         0.0823
     97 H          25.8710  -28.6230    2.2889 H         1 SER         0.0606
     98 H          27.6484  -28.3789    1.9509 H         1 SER         0.0606
     99 H          25.6394  -29.0658    0.0567 H         1 SER         0.2097
    100 H          28.7174  -26.0595    1.8331 H         1 LYS         0.1883
    101 H          29.2758  -24.6301   -0.6402 H         1 LYS         0.0800
    102 H          31.5225  -24.3628    0.2988 H         1 LYS         0.0312
    103 H          31.0612  -25.5632    1.6266 H         1 LYS         0.0312
    104 H          29.3501  -23.9559    2.2733 H         1 LYS         0.0269
    105 H          30.1724  -22.7715    1.1626 H         1 LYS         0.0269
    106 H          32.0385  -22.6076    2.5401 H         1 LYS         0.0317
    107 H          31.7711  -24.1868    3.2862 H         1 LYS         0.0317
    108 H          29.9258  -23.4204    4.5280 H         1 LYS         0.0813
    109 H          29.9488  -21.7985    3.5892 H         1 LYS         0.0813
    110 H          30.6117  -21.5783    5.8566 H         1 LYS         0.1994
    111 H          31.8404  -22.6831    5.6413 H         1 LYS         0.1994
    112 H          31.8609  -21.2410    4.8066 H         1 LYS         0.1994
    113 H          30.5094  -25.1380   -2.4176 H         1 ASP         0.1884
    114 H          31.9242  -26.3103   -3.7218 H         1 ASP         0.0819
    115 H          32.8822  -27.9801   -1.3554 H         1 ASP         0.0478
    116 H          33.2334  -26.2019   -1.4098 H         1 ASP         0.0478
    117 H          29.2466  -27.5316   -3.3292 H         1 ARG         0.1883
    118 H          29.8861  -30.3763   -3.5900 H         1 ARG         0.0800
    119 H          27.4593  -28.8641   -4.5779 H         1 ARG         0.0313
    120 H          27.6497  -29.6046   -2.9433 H         1 ARG         0.0313
    121 H          27.9738  -31.8030   -4.0707 H         1 ARG         0.0301
    122 H          27.5836  -31.0242   -5.6167 H         1 ARG         0.0301
    123 H          25.4567  -30.2569   -4.6683 H         1 ARG         0.0689
    124 H          25.8542  -31.1891   -3.1556 H         1 ARG         0.0689
    125 H          25.2936  -33.1508   -4.2332 H         1 ARG         0.2642
    126 H          25.4424  -30.4815   -6.5610 H         1 ARG         0.2615
    127 H          24.6487  -31.4039   -7.8418 H         1 ARG         0.2615
    128 H          24.2662  -34.3279   -5.9017 H         1 ARG         0.2615
    129 H          23.9869  -33.5674   -7.4716 H         1 ARG         0.2615
    130 H          30.1496  -31.5665   -5.5859 H         1 LYS         0.1883
    131 H          30.8596  -29.7640   -7.8791 H         1 LYS         0.0800
    132 H          31.8174  -31.6392   -8.9338 H         1 LYS         0.0312
    133 H          31.0466  -32.7676   -7.7626 H         1 LYS         0.0312
    134 H          33.5454  -32.2050   -7.4235 H         1 LYS         0.0269
    135 H          32.4567  -32.0660   -6.0015 H         1 LYS         0.0269
    136 H          32.3363  -29.6546   -6.2675 H         1 LYS         0.0317
    137 H          33.2970  -29.7455   -7.7943 H         1 LYS         0.0317
    138 H          35.0343  -30.9138   -6.2015 H         1 LYS         0.0813
    139 H          34.1489  -29.9294   -4.9497 H         1 LYS         0.0813
    140 H          36.0883  -28.7803   -5.8076 H         1 LYS         0.1994
    141 H          35.5010  -28.8710   -7.3644 H         1 LYS         0.1994
    142 H          34.6912  -27.9707   -6.2195 H         1 LYS         0.1994
    143 H          29.2181  -29.0578   -9.0865 H         1 TYR         0.1877
    144 H          26.7650  -30.7131   -9.2552 H         1 TYR         0.0747
    145 O          26.6259  -30.9461  -11.8585 O.co2     1 TYR        -0.5665
    146 H          25.8182  -28.7260  -10.4045 H         1 TYR         0.0446
    147 H          27.4227  -27.9153  -10.2121 H         1 TYR         0.0446
    148 H          24.9069  -29.7794   -8.1034 H         1 TYR         0.0530
    149 H          27.6517  -26.4850   -8.3996 H         1 TYR         0.0530
    150 H          24.2704  -29.0443   -5.8094 H         1 TYR         0.0525
    151 H          27.0151  -25.7504   -6.1239 H         1 TYR         0.0525
    152 H          26.0220  -26.9347   -4.0263 H         1 TYR         0.2458
@<TRIPOS>BOND
     1    1    2 2  
     2    1    3 1  
     3    1    4 am 
     4    4    5 1  
     5    5    6 1  
     6    5    8 1  
     7    6    7 2  
     8    6   10 am 
     9    8    9 1  
    10   10   11 1  
    11   11   12 1  
    12   11   14 1  
    13   12   13 2  
    14   12   19 am 
    15   14   15 1  
    16   15   16 1  
    17   16   17 1  
    18   17   18 1  
    19   19   20 1  
    20   20   21 1  
    21   20   23 1  
    22   21   22 2  
    23   21   25 am 
    24   23   24 1  
    25   25   26 1  
    26   26   27 1  
    27   26   29 1  
    28   27   28 2  
    29   27   34 am 
    30   29   30 1  
    31   30   31 1  
    32   31   32 1  
    33   32   33 1  
    34   34   35 1  
    35   35   36 1  
    36   35   38 1  
    37   36   37 2  
    38   36   42 am 
    39   38   39 1  
    40   39   40 ar 
    41   39   41 ar 
    42   42   43 1  
    43   43   44 1  
    44   43   46 1  
    45   44   45 2  
    46   44   53 am 
    47   46   47 1  
    48   47   48 1  
    49   48   49 1  
    50   49   50 ar 
    51   50   51 ar 
    52   50   52 ar 
    53   53   54 1  
    54   54   55 1  
    55   54   57 1  
    56   55   56 2  
    57   55   62 am 
    58   57   58 1  
    59   58   59 1  
    60   59   60 1  
    61   60   61 1  
    62   62   63 1  
    63   63   64 1  
    64   63   66 1  
    65   64   65 ar 
    66   66   67 1  
    67   67   68 ar 
    68   67   69 ar 
    69   68   70 ar 
    70   69   71 ar 
    71   70   72 ar 
    72   71   72 ar 
    73   72   73 1  
    74    3   74 1  
    75    3   75 1  
    76    3   76 1  
    77    4   77 1  
    78    5   78 1  
    79    8   79 1  
    80    8   80 1  
    81    9   81 1  
    82   10   82 1  
    83   11   83 1  
    84   14   84 1  
    85   14   85 1  
    86   15   86 1  
    87   15   87 1  
    88   16   88 1  
    89   16   89 1  
    90   17   90 1  
    91   17   91 1  
    92   18   92 1  
    93   18   93 1  
    94   18   94 1  
    95   19   95 1  
    96   20   96 1  
    97   23   97 1  
    98   23   98 1  
    99   24   99 1  
   100   25  100 1  
   101   26  101 1  
   102   29  102 1  
   103   29  103 1  
   104   30  104 1  
   105   30  105 1  
   106   31  106 1  
   107   31  107 1  
   108   32  108 1  
   109   32  109 1  
   110   33  110 1  
   111   33  111 1  
   112   33  112 1  
   113   34  113 1  
   114   35  114 1  
   115   38  115 1  
   116   38  116 1  
   117   42  117 1  
   118   43  118 1  
   119   46  119 1  
   120   46  120 1  
   121   47  121 1  
   122   47  122 1  
   123   48  123 1  
   124   48  124 1  
   125   49  125 1  
   126   51  126 1  
   127   51  127 1  
   128   52  128 1  
   129   52  129 1  
   130   53  130 1  
   131   54  131 1  
   132   57  132 1  
   133   57  133 1  
   134   58  134 1  
   135   58  135 1  
   136   59  136 1  
   137   59  137 1  
   138   60  138 1  
   139   60  139 1  
   140   61  140 1  
   141   61  141 1  
   142   61  142 1  
   143   62  143 1  
   144   63  144 1  
   145   64  145 ar 
   146   66  146 1  
   147   66  147 1  
   148   68  148 1  
   149   69  149 1  
   150   70  150 1  
   151   71  151 1  
   152   73  152 1  
@<TRIPOS>SUBSTRUCTURE
     1 ACE         1

