3m57_ligand
  -I-interpret- 

153153  0  0  0  0  0  0  0  0999 V2000
   21.0480  -27.7650   -4.1720 C   0  0  0  0  0
   20.0700  -27.5490   -3.4440 O   0  0  0  0  0
   21.0680  -27.3990   -5.6460 C   0  0  0  0  0
   22.2570  -28.0150   -3.6570 N   0  0  0  0  0
   22.4510  -28.4270   -2.2640 C   0  0  0  0  0
   22.7690  -27.2300   -1.3840 C   0  0  0  0  0
   23.3340  -26.2530   -1.8440 O   0  0  0  0  0
   23.5710  -29.4450   -2.1920 C   0  0  0  0  0
   23.0890  -30.7630   -2.4160 O   0  0  0  0  0
   22.4180  -27.2890   -0.1060 N   0  0  0  0  0
   22.6590  -26.1400    0.7470 C   0  0  0  0  0
   23.9860  -26.3360    1.4960 C   0  0  0  0  0
   24.0630  -26.2100    2.7250 O   0  0  0  0  0
   21.5150  -25.9540    1.7440 C   0  0  0  0  0
   20.1340  -25.9200    1.0420 C   0  0  0  0  0
   19.0770  -25.2890    1.9570 C   0  0  0  0  0
   17.7120  -25.2840    1.2380 C   0  0  0  0  0
   16.6680  -25.0030    2.2530 N   0  3  0  0  0
   25.0140  -26.6450    0.7230 N   0  0  0  0  0
   26.3720  -26.8290    1.2890 C   0  0  0  0  0
   27.4050  -26.2770    0.3050 C   0  0  0  0  0
   27.1190  -26.1620   -0.8920 O   0  0  0  0  0
   26.6280  -28.2940    1.5770 C   0  0  0  0  0
   26.5240  -29.1350    0.4230 O   0  0  0  0  0
   28.5780  -25.9380    0.8300 N   0  0  0  0  0
   29.6920  -25.3910    0.0200 C   0  0  0  0  0
   30.3440  -26.4560   -0.8580 C   0  0  0  0  0
   30.4130  -27.6650   -0.5150 O   0  0  0  0  0
   30.7470  -24.7710    0.9470 C   0  0  0  0  0
   30.2830  -23.6480    1.8010 C   0  0  0  0  0
   31.2760  -23.2870    2.9210 C   0  0  0  0  0
   30.4940  -22.6160    4.0610 C   0  0  0  0  0
   31.2640  -21.9780    5.1820 N   0  3  0  0  0
   30.8060  -26.0400   -2.0450 N   0  0  0  0  0
   31.7330  -26.8730   -2.8080 C   0  0  0  0  0
   31.1920  -28.2040   -3.2540 C   0  0  0  0  0
   31.9310  -29.1740   -3.3580 O   0  0  0  0  0
   33.0350  -27.1050   -1.9870 C   0  0  0  0  0
   34.2400  -27.3700   -2.8690 C   0  0  0  0  0
   34.4190  -26.6180   -3.8680 O   0  0  0  0  0
   35.0210  -28.3050   -2.5720 O   0  0  0  0  0
   29.8900  -28.2980   -3.5270 N   0  0  0  0  0
   29.4330  -29.5360   -4.1160 C   0  0  0  0  0
   29.8360  -29.5450   -5.5880 C   0  0  0  0  0
   29.9070  -28.4920   -6.2320 O   0  0  0  0  0
   27.9180  -29.6650   -3.9980 C   0  0  0  0  0
   27.4250  -30.9860   -4.5390 C   0  0  0  0  0
   25.9630  -31.1210   -4.2380 C   0  0  0  0  0
   25.3630  -32.3180   -4.8180 N   0  0  0  0  0
   24.8990  -32.3890   -6.0690 C   0  0  0  0  0
   25.0050  -31.3430   -6.8880 N   0  0  0  0  0
   24.3400  -33.5170   -6.5160 N   0  0  0  0  0
   30.1320  -30.7090   -6.1380 N   0  0  0  0  0
   30.4350  -30.7210   -7.5760 C   0  0  0  0  0
   29.1350  -30.9500   -8.3380 C   0  0  0  0  0
   28.5410  -32.0310   -8.2550 O   0  0  0  0  0
   31.4900  -31.7820   -7.9040 C   0  0  0  0  0
   32.7140  -31.6580   -6.9790 C   0  0  0  0  0
   33.1310  -30.1720   -6.8050 C   0  0  0  0  0
   34.4250  -30.0330   -5.9990 C   0  0  0  0  0
   35.2440  -28.8130   -6.3790 N   0  3  0  0  0
   28.6760  -29.9210   -9.0490 N   0  0  0  0  0
   27.4080  -30.0050   -9.7780 C   0  0  0  0  0
   27.6100  -30.5310  -11.1900 C   0  0  0  0  0
   28.7673  -30.5494  -11.6879 O   0  0  0  0  0
   26.7220  -28.6420   -9.8010 C   0  0  0  0  0
   26.3240  -28.1830   -8.4160 C   0  0  0  0  0
   25.3720  -28.8930   -7.6720 C   0  0  0  0  0
   26.9070  -27.0500   -7.8390 C   0  0  0  0  0
   25.0080  -28.4820   -6.3820 C   0  0  0  0  0
   26.5510  -26.6340   -6.5620 C   0  0  0  0  0
   25.6000  -27.3510   -5.8470 C   0  0  0  0  0
   25.2470  -26.9330   -4.5930 O   0  0  0  0  0
   26.6259  -30.9461  -11.8585 O   0  0  0  0  0
   20.2664  -27.9281   -6.1613 H   0  0  0  0  0
   20.9238  -26.3240   -5.7541 H   0  0  0  0  0
   22.0282  -27.6832   -6.0766 H   0  0  0  0  0
   23.0757  -27.9150   -4.2571 H   0  0  0  0  0
   21.5279  -28.8762   -1.8978 H   0  0  0  0  0
   24.0137  -29.4028   -1.1968 H   0  0  0  0  0
   24.3037  -29.2086   -2.9636 H   0  0  0  0  0
   23.8201  -31.3830   -2.3641 H   0  0  0  0  0
   21.9843  -28.1312    0.2722 H   0  0  0  0  0
   22.7158  -25.2448    0.1277 H   0  0  0  0  0
   21.6605  -25.0032    2.2567 H   0  0  0  0  0
   21.5253  -26.7961    2.4360 H   0  0  0  0  0
   19.8327  -26.9408    0.8068 H   0  0  0  0  0
   20.2150  -25.3237    0.1332 H   0  0  0  0  0
   19.3664  -24.2654    2.1947 H   0  0  0  0  0
   19.0009  -25.8678    2.8775 H   0  0  0  0  0
   17.5298  -26.2484    0.7638 H   0  0  0  0  0
   17.6972  -24.5226    0.4581 H   0  0  0  0  0
   15.7524  -24.9938    1.8037 H   0  0  0  0  0
   16.6889  -25.7280    2.9702 H   0  0  0  0  0
   16.8472  -24.0946    2.6809 H   0  0  0  0  0
   24.8699  -26.7587   -0.2803 H   0  0  0  0  0
   26.4527  -26.2854    2.2303 H   0  0  0  0  0
   25.8710  -28.6230    2.2889 H   0  0  0  0  0
   27.6484  -28.3789    1.9509 H   0  0  0  0  0
   26.6969  -30.0450    0.6750 H   0  0  0  0  0
   28.7174  -26.0595    1.8331 H   0  0  0  0  0
   29.2758  -24.6301   -0.6402 H   0  0  0  0  0
   31.5225  -24.3628    0.2988 H   0  0  0  0  0
   31.0612  -25.5632    1.6266 H   0  0  0  0  0
   29.3501  -23.9559    2.2733 H   0  0  0  0  0
   30.1724  -22.7715    1.1626 H   0  0  0  0  0
   32.0385  -22.6076    2.5401 H   0  0  0  0  0
   31.7711  -24.1868    3.2862 H   0  0  0  0  0
   29.9258  -23.4204    4.5280 H   0  0  0  0  0
   29.9488  -21.7985    3.5892 H   0  0  0  0  0
   30.6117  -21.5783    5.8566 H   0  0  0  0  0
   31.8404  -22.6831    5.6413 H   0  0  0  0  0
   31.8609  -21.2410    4.8066 H   0  0  0  0  0
   30.5094  -25.1380   -2.4176 H   0  0  0  0  0
   31.9242  -26.3103   -3.7218 H   0  0  0  0  0
   32.8822  -27.9801   -1.3554 H   0  0  0  0  0
   33.2334  -26.2019   -1.4098 H   0  0  0  0  0
   33.7096  -25.9727   -3.9125 H   0  0  0  0  0
   29.2466  -27.5316   -3.3292 H   0  0  0  0  0
   29.8861  -30.3763   -3.5900 H   0  0  0  0  0
   27.4593  -28.8641   -4.5779 H   0  0  0  0  0
   27.6497  -29.6046   -2.9433 H   0  0  0  0  0
   27.9738  -31.8030   -4.0707 H   0  0  0  0  0
   27.5836  -31.0242   -5.6167 H   0  0  0  0  0
   25.4567  -30.2569   -4.6683 H   0  0  0  0  0
   25.8542  -31.1891   -3.1556 H   0  0  0  0  0
   25.2936  -33.1508   -4.2332 H   0  0  0  0  0
   25.4424  -30.4815   -6.5610 H   0  0  0  0  0
   23.9992  -33.5718   -7.4758 H   0  0  0  0  0
   24.2540  -34.3235   -5.8975 H   0  0  0  0  0
   30.1496  -31.5665   -5.5859 H   0  0  0  0  0
   30.8596  -29.7640   -7.8791 H   0  0  0  0  0
   31.8174  -31.6392   -8.9338 H   0  0  0  0  0
   31.0466  -32.7676   -7.7626 H   0  0  0  0  0
   33.5454  -32.2050   -7.4235 H   0  0  0  0  0
   32.4567  -32.0660   -6.0015 H   0  0  0  0  0
   32.3363  -29.6546   -6.2675 H   0  0  0  0  0
   33.2970  -29.7455   -7.7943 H   0  0  0  0  0
   35.0343  -30.9138   -6.2015 H   0  0  0  0  0
   34.1489  -29.9294   -4.9497 H   0  0  0  0  0
   36.0883  -28.7803   -5.8076 H   0  0  0  0  0
   35.5010  -28.8710   -7.3644 H   0  0  0  0  0
   34.6912  -27.9707   -6.2195 H   0  0  0  0  0
   29.2181  -29.0578   -9.0865 H   0  0  0  0  0
   26.7650  -30.7131   -9.2552 H   0  0  0  0  0
   25.8182  -28.7260  -10.4045 H   0  0  0  0  0
   27.4227  -27.9153  -10.2121 H   0  0  0  0  0
   24.9069  -29.7794   -8.1034 H   0  0  0  0  0
   27.6517  -26.4850   -8.3996 H   0  0  0  0  0
   24.2704  -29.0443   -5.8094 H   0  0  0  0  0
   27.0151  -25.7504   -6.1239 H   0  0  0  0  0
   25.7426  -26.1418   -4.3693 H   0  0  0  0  0
   25.8261  -30.8623  -11.3342 H   0  0  0  0  0
  1  2  2  0  0  0
  1  3  1  0  0  0
  1  4  1  0  0  0
  4  5  1  0  0  0
  5  6  1  0  0  0
  5  8  1  0  0  0
  6  7  2  0  0  0
  6 10  1  0  0  0
  8  9  1  0  0  0
 10 11  1  0  0  0
 11 12  1  0  0  0
 11 14  1  0  0  0
 12 13  2  0  0  0
 12 19  1  0  0  0
 14 15  1  0  0  0
 15 16  1  0  0  0
 16 17  1  0  0  0
 17 18  1  0  0  0
 19 20  1  0  0  0
 20 21  1  0  0  0
 20 23  1  0  0  0
 21 22  2  0  0  0
 21 25  1  0  0  0
 23 24  1  0  0  0
 25 26  1  0  0  0
 26 27  1  0  0  0
 26 29  1  0  0  0
 27 28  2  0  0  0
 27 34  1  0  0  0
 29 30  1  0  0  0
 30 31  1  0  0  0
 31 32  1  0  0  0
 32 33  1  0  0  0
 34 35  1  0  0  0
 35 36  1  0  0  0
 35 38  1  0  0  0
 36 37  2  0  0  0
 36 42  1  0  0  0
 38 39  1  0  0  0
 39 40  1  0  0  0
 39 41  2  0  0  0
 42 43  1  0  0  0
 43 44  1  0  0  0
 43 46  1  0  0  0
 44 45  2  0  0  0
 44 53  1  0  0  0
 46 47  1  0  0  0
 47 48  1  0  0  0
 48 49  1  0  0  0
 49 50  1  0  0  0
 50 51  2  0  0  0
 50 52  1  0  0  0
 53 54  1  0  0  0
 54 55  1  0  0  0
 54 57  1  0  0  0
 55 56  2  0  0  0
 55 62  1  0  0  0
 57 58  1  0  0  0
 58 59  1  0  0  0
 59 60  1  0  0  0
 60 61  1  0  0  0
 62 63  1  0  0  0
 63 64  1  0  0  0
 63 66  1  0  0  0
 64 65  2  0  0  0
 66 67  1  0  0  0
 67 68  4  0  0  0
 67 69  4  0  0  0
 68 70  4  0  0  0
 69 71  4  0  0  0
 70 72  4  0  0  0
 71 72  4  0  0  0
 72 73  1  0  0  0
 64 74  1  0  0  0
  3 75  1  0  0  0
  3 76  1  0  0  0
  3 77  1  0  0  0
  4 78  1  0  0  0
  5 79  1  0  0  0
  8 80  1  0  0  0
  8 81  1  0  0  0
  9 82  1  0  0  0
 10 83  1  0  0  0
 11 84  1  0  0  0
 14 85  1  0  0  0
 14 86  1  0  0  0
 15 87  1  0  0  0
 15 88  1  0  0  0
 16 89  1  0  0  0
 16 90  1  0  0  0
 17 91  1  0  0  0
 17 92  1  0  0  0
 18 93  1  0  0  0
 18 94  1  0  0  0
 18 95  1  0  0  0
 19 96  1  0  0  0
 20 97  1  0  0  0
 23 98  1  0  0  0
 23 99  1  0  0  0
 24100  1  0  0  0
 25101  1  0  0  0
 26102  1  0  0  0
 29103  1  0  0  0
 29104  1  0  0  0
 30105  1  0  0  0
 30106  1  0  0  0
 31107  1  0  0  0
 31108  1  0  0  0
 32109  1  0  0  0
 32110  1  0  0  0
 33111  1  0  0  0
 33112  1  0  0  0
 33113  1  0  0  0
 34114  1  0  0  0
 35115  1  0  0  0
 38116  1  0  0  0
 38117  1  0  0  0
 40118  1  0  0  0
 42119  1  0  0  0
 43120  1  0  0  0
 46121  1  0  0  0
 46122  1  0  0  0
 47123  1  0  0  0
 47124  1  0  0  0
 48125  1  0  0  0
 48126  1  0  0  0
 49127  1  0  0  0
 51128  1  0  0  0
 52129  1  0  0  0
 52130  1  0  0  0
 53131  1  0  0  0
 54132  1  0  0  0
 57133  1  0  0  0
 57134  1  0  0  0
 58135  1  0  0  0
 58136  1  0  0  0
 59137  1  0  0  0
 59138  1  0  0  0
 60139  1  0  0  0
 60140  1  0  0  0
 61141  1  0  0  0
 61142  1  0  0  0
 61143  1  0  0  0
 62144  1  0  0  0
 63145  1  0  0  0
 66146  1  0  0  0
 66147  1  0  0  0
 68148  1  0  0  0
 69149  1  0  0  0
 70150  1  0  0  0
 71151  1  0  0  0
 73152  1  0  0  0
 74153  1  0  0  0
M  END
$$$$
