4pz8_ligand
  -I-interpret- 

 62 63  0  0  0  0  0  0  0  0999 V2000
   66.3030   11.9320   29.3710 N   0  3  0  0  0
   67.3680   12.7870   28.8590 C   0  0  0  0  0
   66.8020   13.9250   28.0140 C   0  0  0  0  0
   66.9360   13.9280   26.7890 O   0  0  0  0  0
   68.3640   11.9670   28.0540 C   0  0  0  0  0
   66.1740   14.8920   28.6770 N   0  0  0  0  0
   65.5650   16.0260   27.9870 C   0  0  0  0  0
   65.6620   17.3370   28.7710 C   0  0  0  0  0
   66.1640   17.3680   29.8960 O   0  0  0  0  0
   64.1090   15.7160   27.6150 C   0  0  0  0  0
   63.3020   15.0850   28.7160 C   0  0  0  0  0
   63.4830   15.2340   30.0610 C   0  0  0  0  0
   62.1890   14.1960   28.5580 C   0  0  0  0  0
   62.5490   14.4970   30.7490 N   0  0  0  0  0
   61.7440   13.8500   29.8490 C   0  0  0  0  0
   61.5250   13.6610   27.4500 C   0  0  0  0  0
   60.6650   12.9940   30.0620 C   0  0  0  0  0
   60.4550   12.8110   27.6640 C   0  0  0  0  0
   60.0370   12.4850   28.9590 C   0  0  0  0  0
   65.1760   18.4140   28.1600 N   0  0  0  0  0
   65.2500   19.7550   28.7360 C   0  0  0  0  0
   64.3960   19.9290   29.9910 C   0  0  0  0  0
   63.5190   19.1120   30.2720 O   0  0  0  0  0
   64.8380   20.7920   27.6890 C   0  0  0  0  0
   65.3860   20.4770   26.3090 C   0  0  0  0  0
   65.8600   19.3690   26.0550 O   0  0  0  0  0
   65.3150   21.4490   25.4070 N   0  0  0  0  0
   64.6660   21.0000   30.7370 N   0  0  0  0  0
   63.9170   21.3410   31.9500 C   0  0  0  0  0
   63.9310   20.2390   33.0100 C   0  0  0  0  0
   63.1910   20.3050   33.9920 O   0  0  0  0  0
   62.4750   21.7370   31.6090 C   0  0  0  0  0
   61.7440   22.0720   32.7770 O   0  0  0  0  0
   64.7065   19.2548   32.8775 O   0  0  0  0  0
   65.6442   12.4961   29.9078 H   0  0  0  0  0
   65.8173   11.4912   28.5898 H   0  0  0  0  0
   66.7053   11.2129   29.9721 H   0  0  0  0  0
   67.8866   13.2286   29.7100 H   0  0  0  0  0
   67.8646   11.5454   27.1817 H   0  0  0  0  0
   69.1835   12.6087   27.7303 H   0  0  0  0  0
   68.7553   11.1612   28.6750 H   0  0  0  0  0
   66.1162   14.8402   29.6940 H   0  0  0  0  0
   66.1413   16.1760   27.0741 H   0  0  0  0  0
   64.1362   15.0024   26.7915 H   0  0  0  0  0
   63.6324   16.6668   27.3762 H   0  0  0  0  0
   64.2562   15.8484   30.5223 H   0  0  0  0  0
   61.8442   13.9088   26.4377 H   0  0  0  0  0
   60.3344   12.7400   31.0691 H   0  0  0  0  0
   59.9281   12.3877   26.8088 H   0  0  0  0  0
   59.1915   11.8099   29.0916 H   0  0  0  0  0
   64.7320   18.2987   27.2490 H   0  0  0  0  0
   66.2864   19.9037   29.0391 H   0  0  0  0  0
   65.2392   21.7575   27.9970 H   0  0  0  0  0
   63.7498   20.7914   27.6261 H   0  0  0  0  0
   65.6611   21.2926   24.4604 H   0  0  0  0  0
   64.9143   22.3520   25.6608 H   0  0  0  0  0
   65.4303   21.6115   30.4501 H   0  0  0  0  0
   64.4331   22.1952   32.3882 H   0  0  0  0  0
   61.9876   20.8908   31.1249 H   0  0  0  0  0
   62.4996   22.6072   30.9530 H   0  0  0  0  0
   60.8477   22.3150   32.5335 H   0  0  0  0  0
   65.2113   19.3534   32.0669 H   0  0  0  0  0
  1  2  1  0  0  0
  2  3  1  0  0  0
  2  5  1  0  0  0
  3  4  2  0  0  0
  3  6  1  0  0  0
  6  7  1  0  0  0
  7  8  1  0  0  0
  7 10  1  0  0  0
  8  9  2  0  0  0
  8 20  1  0  0  0
 10 11  1  0  0  0
 11 12  4  0  0  0
 11 13  4  0  0  0
 12 14  4  0  0  0
 13 15  4  0  0  0
 13 16  4  0  0  0
 14 15  4  0  0  0
 15 17  4  0  0  0
 16 18  4  0  0  0
 17 19  4  0  0  0
 18 19  4  0  0  0
 20 21  1  0  0  0
 21 22  1  0  0  0
 21 24  1  0  0  0
 22 23  2  0  0  0
 22 28  1  0  0  0
 24 25  1  0  0  0
 25 26  2  0  0  0
 25 27  1  0  0  0
 28 29  1  0  0  0
 29 30  1  0  0  0
 29 32  1  0  0  0
 30 31  2  0  0  0
 32 33  1  0  0  0
 30 34  1  0  0  0
  1 35  1  0  0  0
  1 36  1  0  0  0
  1 37  1  0  0  0
  2 38  1  0  0  0
  5 39  1  0  0  0
  5 40  1  0  0  0
  5 41  1  0  0  0
  6 42  1  0  0  0
  7 43  1  0  0  0
 10 44  1  0  0  0
 10 45  1  0  0  0
 12 46  1  0  0  0
 16 47  1  0  0  0
 17 48  1  0  0  0
 18 49  1  0  0  0
 19 50  1  0  0  0
 20 51  1  0  0  0
 21 52  1  0  0  0
 24 53  1  0  0  0
 24 54  1  0  0  0
 27 55  1  0  0  0
 27 56  1  0  0  0
 28 57  1  0  0  0
 29 58  1  0  0  0
 32 59  1  0  0  0
 32 60  1  0  0  0
 33 61  1  0  0  0
 34 62  1  0  0  0
M  END
$$$$
