6nfo_ligand
  -I-interpret- 

 39 41  0  0  0  0  0  0  0  0999 V2000
  -28.5190   20.4580  -20.3700 C   0  0  0  0  0
  -29.3980   15.6020  -24.1640 C   0  0  0  0  0
  -29.5020   19.3930  -27.3250 C   0  0  0  0  0
  -29.2200   14.2910  -23.8070 C   0  0  0  0  0
  -28.2120   15.1780  -19.7640 O   0  0  0  0  0
  -28.5900   16.0590  -20.7750 C   0  0  0  0  0
  -28.6020   17.4080  -20.5570 C   0  0  0  0  0
  -28.9080   18.2600  -21.6110 C   0  0  0  0  0
  -29.0060   19.7780  -21.4820 C   0  0  0  0  0
  -29.5700   20.5080  -22.5360 C   0  0  0  0  0
  -29.7120   21.8920  -22.4600 C   0  0  0  0  0
  -29.2790   22.5630  -21.3290 C   0  0  0  0  0
  -28.6550   21.8510  -20.3070 C   0  0  0  0  0
  -29.2210   17.7420  -22.7990 N   0  0  0  0  0
  -29.1930   16.3810  -23.0090 C   0  0  0  0  0
  -29.8350   16.1300  -25.5250 C   0  0  0  0  0
  -29.8590   17.5610  -25.7760 N   0  0  0  0  0
  -30.2930   18.1050  -27.0440 C   0  0  0  0  0
  -29.9250   20.4500  -26.4920 O   0  0  0  0  0
  -31.8220   18.2990  -26.9860 C   0  0  0  0  0
  -30.1720   15.3630  -26.3560 O   0  0  0  0  0
  -28.9100   15.5640  -21.9940 N   0  0  0  0  0
  -28.9000   14.2640  -22.4560 N   0  0  0  0  0
  -28.0375   19.9135  -19.5577 H   0  0  0  0  0
  -29.6694   19.6822  -28.3625 H   0  0  0  0  0
  -28.4470   19.2003  -27.1303 H   0  0  0  0  0
  -29.3128   13.4264  -24.4642 H   0  0  0  0  0
  -28.3746   17.8101  -19.5697 H   0  0  0  0  0
  -29.9038   19.9840  -23.4316 H   0  0  0  0  0
  -30.1613   22.4432  -23.2861 H   0  0  0  0  0
  -29.4251   23.6394  -21.2390 H   0  0  0  0  0
  -28.2652   22.3878  -19.4421 H   0  0  0  0  0
  -29.5617   18.1992  -25.0380 H   0  0  0  0  0
  -30.0912   17.4343  -27.8792 H   0  0  0  0  0
  -29.4135   21.2375  -26.6915 H   0  0  0  0  0
  -32.3024   17.3373  -26.8058 H   0  0  0  0  0
  -32.0692   18.9872  -26.1777 H   0  0  0  0  0
  -32.1711   18.7091  -27.9337 H   0  0  0  0  0
  -28.6942   13.4315  -21.9037 H   0  0  0  0  0
  9  1  4  0  0  0
  1 13  4  0  0  0
  2  4  2  0  0  0
  2 15  1  0  0  0
 16  2  1  0  0  0
 18  3  1  0  0  0
  3 19  1  0  0  0
  4 23  1  0  0  0
  6  5  2  0  0  0
  6  7  1  0  0  0
 22  6  1  0  0  0
  8  7  2  0  0  0
  8  9  1  0  0  0
 14  8  1  0  0  0
  9 10  4  0  0  0
 10 11  4  0  0  0
 11 12  4  0  0  0
 13 12  4  0  0  0
 15 14  2  0  0  0
 15 22  1  0  0  0
 17 16  1  0  0  0
 16 21  2  0  0  0
 17 18  1  0  0  0
 18 20  1  0  0  0
 22 23  1  0  0  0
  1 24  1  0  0  0
  3 25  1  0  0  0
  3 26  1  0  0  0
  4 27  1  0  0  0
  7 28  1  0  0  0
 10 29  1  0  0  0
 11 30  1  0  0  0
 12 31  1  0  0  0
 13 32  1  0  0  0
 17 33  1  0  0  0
 18 34  1  0  0  0
 19 35  1  0  0  0
 20 36  1  0  0  0
 20 37  1  0  0  0
 20 38  1  0  0  0
 23 39  1  0  0  0
M  END
$$$$
