1d7i_ligand
  -I-interpret- 

 14 13  0  0  0  0  0  0  0  0999 V2000
   60.6710   -5.4620   -0.2410 S   0  0  0  0  0
   60.1490   -6.4880    0.7290 O   0  0  0  0  0
   59.8370   -5.6920   -1.8050 C   0  0  0  0  0
   59.9600   -3.9490    0.1630 C   0  0  0  0  0
   60.5040   -2.6040   -0.8980 S   0  0  0  0  0
   60.0500   -1.1960    0.2120 C   0  0  0  0  0
   60.0380   -6.6962   -2.1783 H   0  0  0  0  0
   58.7637   -5.5630   -1.6654 H   0  0  0  0  0
   60.2025   -4.9566   -2.5218 H   0  0  0  0  0
   60.2582   -3.7061    1.1829 H   0  0  0  0  0
   58.8813   -4.0487    0.0426 H   0  0  0  0  0
   58.9779   -1.2201    0.4074 H   0  0  0  0  0
   60.5941   -1.2862    1.1522 H   0  0  0  0  0
   60.3114   -0.2548   -0.2717 H   0  0  0  0  0
  4  1  1  0  0  0
  1  3  1  0  0  0
  1  2  2  0  0  0
  4  5  1  0  0  0
  5  6  1  0  0  0
  3  7  1  0  0  0
  3  8  1  0  0  0
  3  9  1  0  0  0
  4 10  1  0  0  0
  4 11  1  0  0  0
  6 12  1  0  0  0
  6 13  1  0  0  0
  6 14  1  0  0  0
M  END
$$$$
