1tog_ligand
  -I-interpret- 

 21 21  0  0  0  0  0  0  0  0999 V2000
   47.5630   92.4530  -14.4790 C   0  0  0  0  0
   47.8650   92.0740  -15.6190 O   0  0  0  0  0
   46.3170   92.8790  -14.2670 O   0  0  0  0  0
   48.5460   92.4760  -13.3110 C   0  0  0  0  0
   49.2800   91.1500  -13.0290 C   0  0  0  0  0
   48.4030   90.1070  -12.3430 C   0  0  0  0  0
   48.5420   89.8480  -10.9770 C   0  0  0  0  0
   47.7520   88.8680  -10.3700 C   0  0  0  0  0
   46.8060   88.1360  -11.1090 C   0  0  0  0  0
   46.6410   88.4030  -12.4770 C   0  0  0  0  0
   47.4560   89.3810  -13.0780 C   0  0  0  0  0
   46.2213   93.1403  -13.3482 H   0  0  0  0  0
   47.9607   92.7006  -12.4193 H   0  0  0  0  0
   49.3141   93.2054  -13.5682 H   0  0  0  0  0
   50.1124   91.3706  -12.3608 H   0  0  0  0  0
   49.5931   90.7371  -13.9879 H   0  0  0  0  0
   49.2654   90.4094  -10.3858 H   0  0  0  0  0
   47.8713   88.6676   -9.3052 H   0  0  0  0  0
   46.2053   87.3670  -10.6232 H   0  0  0  0  0
   45.8964   87.8637  -13.0626 H   0  0  0  0  0
   47.3475   89.5790  -14.1444 H   0  0  0  0  0
  1  2  2  0  0  0
  1  3  1  0  0  0
  1  4  1  0  0  0
  4  5  1  0  0  0
  5  6  1  0  0  0
  6  7  4  0  0  0
  6 11  4  0  0  0
  7  8  4  0  0  0
  8  9  4  0  0  0
  9 10  4  0  0  0
 10 11  4  0  0  0
  3 12  1  0  0  0
  4 13  1  0  0  0
  4 14  1  0  0  0
  5 15  1  0  0  0
  5 16  1  0  0  0
  7 17  1  0  0  0
  8 18  1  0  0  0
  9 19  1  0  0  0
 10 20  1  0  0  0
 11 21  1  0  0  0
M  END
$$$$
