4f4p_ligand
  -I-interpret- 

 50 53  0  0  0  0  0  0  0  0999 V2000
   -0.1400    2.6730   12.3210 C   0  0  0  0  0
    0.1300    1.5660   13.1000 C   0  0  0  0  0
   -1.1800    2.5980   11.3950 C   0  0  0  0  0
   -0.5810    0.3910   12.9650 C   0  0  0  0  0
   -1.9190    1.4310   11.2650 C   0  0  0  0  0
   -1.6340    0.3320   12.0580 C   0  0  0  0  0
   -0.2130   -0.6830   13.9070 C   0  0  0  0  0
   -0.7800   -2.5740   15.2650 C   0  0  0  0  0
    0.4980   -2.5900   15.7980 C   0  0  0  0  0
    2.7330   -1.7120   15.9030 N   0  0  0  0  0
    3.8770   -0.0780   14.4380 C   0  0  0  0  0
    5.0510    0.6190   14.1700 C   0  0  0  0  0
    6.1420   -0.4400   16.0050 C   0  0  0  0  0
    6.1720    0.4530   14.9570 C   0  0  0  0  0
    0.7480    6.3520   12.8730 C   0  0  0  0  0
    4.9890    2.8400   13.6140 F   0  0  0  0  0
    5.1330    1.6190   13.0540 C   0  0  0  0  0
    6.3610    1.5480   12.4750 F   0  0  0  0  0
    4.1690    1.4370   12.1040 F   0  0  0  0  0
    4.9860   -1.1460   16.2790 N   0  0  0  0  0
    3.8530   -0.9710   15.5030 C   0  0  0  0  0
    1.4220   -1.6360   15.3910 C   0  0  0  0  0
    1.0590   -0.6860   14.4680 N   0  0  0  0  0
   -1.1470   -1.6190   14.3330 C   0  0  0  0  0
    0.6400    3.8480   12.5240 N   0  0  0  0  0
    2.0780    3.7960   12.8500 C   0  0  0  0  0
    2.3930    4.8600   13.9110 C   0  0  0  0  0
    2.1410    6.1800   13.3320 N   0  3  0  0  0
    0.2720    5.1860   11.9840 C   0  0  0  0  0
    0.9265    1.6214   13.8420 H   0  0  0  0  0
   -1.4134    3.4603   10.7704 H   0  0  0  0  0
   -2.7273    1.3789   10.5356 H   0  0  0  0  0
   -2.2321   -0.5752   11.9718 H   0  0  0  0  0
   -1.5056   -3.3225   15.5833 H   0  0  0  0  0
    0.7770   -3.3461   16.5319 H   0  0  0  0  0
    2.8843   -2.3861   16.6534 H   0  0  0  0  0
    2.9902    0.0738   13.8226 H   0  0  0  0  0
    7.0303   -0.5900   16.6186 H   0  0  0  0  0
    7.0763    1.0254   14.7505 H   0  0  0  0  0
    0.6986    7.2671   12.2829 H   0  0  0  0  0
    0.1057    6.3883   13.7529 H   0  0  0  0  0
   -2.1619   -1.6014   13.9359 H   0  0  0  0  0
    2.6643    3.9899   11.9518 H   0  0  0  0  0
    2.3305    2.8083   13.2358 H   0  0  0  0  0
    3.4355    4.7813   14.2195 H   0  0  0  0  0
    1.7619    4.7108   14.7871 H   0  0  0  0  0
    2.3178    6.8760   14.0563 H   0  0  0  0  0
    2.7507    6.2853   12.5211 H   0  0  0  0  0
    0.7538    5.2937   11.0122 H   0  0  0  0  0
   -0.8157    5.2332   11.9319 H   0  0  0  0  0
  1  2  4  0  0  0
  1  3  4  0  0  0
 25  1  1  0  0  0
  2  4  4  0  0  0
  3  5  4  0  0  0
  4  6  4  0  0  0
  4  7  1  0  0  0
  5  6  4  0  0  0
  7 23  4  0  0  0
  7 24  4  0  0  0
  8  9  4  0  0  0
 24  8  4  0  0  0
 22  9  4  0  0  0
 10 21  1  0  0  0
 22 10  1  0  0  0
 11 12  4  0  0  0
 21 11  4  0  0  0
 12 14  4  0  0  0
 12 17  1  0  0  0
 13 14  4  0  0  0
 20 13  4  0  0  0
 15 28  1  0  0  0
 29 15  1  0  0  0
 17 16  1  0  0  0
 17 18  1  0  0  0
 17 19  1  0  0  0
 21 20  4  0  0  0
 23 22  4  0  0  0
 25 26  1  0  0  0
 25 29  1  0  0  0
 26 27  1  0  0  0
 27 28  1  0  0  0
  2 30  1  0  0  0
  3 31  1  0  0  0
  5 32  1  0  0  0
  6 33  1  0  0  0
  8 34  1  0  0  0
  9 35  1  0  0  0
 10 36  1  0  0  0
 11 37  1  0  0  0
 13 38  1  0  0  0
 14 39  1  0  0  0
 15 40  1  0  0  0
 15 41  1  0  0  0
 24 42  1  0  0  0
 26 43  1  0  0  0
 26 44  1  0  0  0
 27 45  1  0  0  0
 27 46  1  0  0  0
 28 47  1  0  0  0
 28 48  1  0  0  0
 29 49  1  0  0  0
 29 50  1  0  0  0
M  END
$$$$
