6mdq_ligand
  -I-interpret- 

 49 52  0  0  0  0  0  0  0  0999 V2000
   33.0240   16.7240   92.8130 C   0  0  0  0  0
   34.0800   17.7370   93.2510 C   0  0  0  0  0
   35.2300   17.0650   93.9220 C   0  0  0  0  0
   35.8830   17.6230   94.7960 O   0  0  0  0  0
   35.5390   15.7140   93.4840 C   0  0  0  0  0
   34.8670   15.0680   92.5210 C   0  0  0  0  0
   35.3870   13.7720   91.9660 C   0  0  0  0  0
   34.3030   12.7040   91.8830 C   0  0  0  0  0
   33.0830   13.2100   91.1150 C   0  0  0  0  0
   32.5230   14.4770   91.7820 C   0  0  0  0  0
   33.5830   15.6160   91.9020 C   0  0  0  0  0
   31.2000   14.9400   91.1480 C   0  0  0  0  0
   30.1610   13.8290   90.9850 C   0  0  0  0  0
   30.7240   12.6100   90.2470 C   0  0  0  0  0
   31.9770   12.1520   91.0220 C   0  0  0  0  0
   32.2840   10.7670   90.4310 C   0  0  0  0  0
   30.9000   10.1900   90.0730 C   0  0  0  0  0
   29.8920   11.3190   90.3300 C   0  0  0  0  0
   28.7880   11.2530   89.4220 O   0  0  0  0  0
   31.0160   12.9540   88.7740 C   0  0  0  0  0
   33.9360   16.2190   90.5270 C   0  0  0  0  0
   32.2648   17.2638   92.2470 H   0  0  0  0  0
   32.6338   16.2458   93.7115 H   0  0  0  0  0
   33.6235   18.4309   93.9569 H   0  0  0  0  0
   34.4495   18.2571   92.3673 H   0  0  0  0  0
   36.3667   15.1952   93.9676 H   0  0  0  0  0
   36.1704   13.4087   92.6312 H   0  0  0  0  0
   35.7561   13.9591   90.9576 H   0  0  0  0  0
   33.9929   12.4449   92.8953 H   0  0  0  0  0
   34.7082   11.8382   91.3592 H   0  0  0  0  0
   33.4149   13.4379   90.1021 H   0  0  0  0  0
   32.2783   14.2012   92.8077 H   0  0  0  0  0
   31.4338   15.3110   90.1501 H   0  0  0  0  0
   30.7691   15.6886   91.8128 H   0  0  0  0  0
   29.3313   14.2252   90.3996 H   0  0  0  0  0
   29.8499   13.5084   91.9793 H   0  0  0  0  0
   31.8353   12.0406   92.0970 H   0  0  0  0  0
   32.8241   10.1319   91.1332 H   0  0  0  0  0
   32.9402   10.8277   89.5628 H   0  0  0  0  0
   30.6707    9.3111   90.6755 H   0  0  0  0  0
   30.8665    9.8593   89.0349 H   0  0  0  0  0
   29.4072   11.2532   91.3040 H   0  0  0  0  0
   28.3268   10.4195   89.5408 H   0  0  0  0  0
   30.0934   13.2677   88.2857 H   0  0  0  0  0
   31.7456   13.7625   88.7288 H   0  0  0  0  0
   31.4149   12.0743   88.2690 H   0  0  0  0  0
   34.3429   15.4391   89.8833 H   0  0  0  0  0
   33.0368   16.6347   90.0723 H   0  0  0  0  0
   34.6769   17.0078   90.6570 H   0  0  0  0  0
  1  2  1  0  0  0
  1 11  1  0  0  0
  2  3  1  0  0  0
  3  4  2  0  0  0
  3  5  1  0  0  0
  5  6  2  0  0  0
  6  7  1  0  0  0
  6 11  1  0  0  0
  7  8  1  0  0  0
  8  9  1  0  0  0
  9 10  1  0  0  0
  9 15  1  0  0  0
 10 11  1  0  0  0
 10 12  1  0  0  0
 11 21  1  0  0  0
 12 13  1  0  0  0
 13 14  1  0  0  0
 14 15  1  0  0  0
 14 18  1  0  0  0
 14 20  1  0  0  0
 15 16  1  0  0  0
 16 17  1  0  0  0
 17 18  1  0  0  0
 18 19  1  0  0  0
  1 22  1  0  0  0
  1 23  1  0  0  0
  2 24  1  0  0  0
  2 25  1  0  0  0
  5 26  1  0  0  0
  7 27  1  0  0  0
  7 28  1  0  0  0
  8 29  1  0  0  0
  8 30  1  0  0  0
  9 31  1  0  0  0
 10 32  1  0  0  0
 12 33  1  0  0  0
 12 34  1  0  0  0
 13 35  1  0  0  0
 13 36  1  0  0  0
 15 37  1  0  0  0
 16 38  1  0  0  0
 16 39  1  0  0  0
 17 40  1  0  0  0
 17 41  1  0  0  0
 18 42  1  0  0  0
 19 43  1  0  0  0
 20 44  1  0  0  0
 20 45  1  0  0  0
 20 46  1  0  0  0
 21 47  1  0  0  0
 21 48  1  0  0  0
 21 49  1  0  0  0
M  END
$$$$
