2er0_ligand
  -I-interpret- 

136140  0  0  0  0  0  0  0  0999 V2000
    1.6070   20.5290   23.8140 C   0  0  0  0  0
    0.2090   21.1020   24.0810 C   0  0  0  0  0
   -0.4260   21.6970   22.8230 C   0  0  0  0  0
   -0.7880   20.0600   24.5950 C   0  0  0  0  0
    2.1240   21.9550   24.0220 C   0  0  0  0  0
    1.7970   22.6420   24.9860 O   0  0  0  0  0
    2.9420   22.4360   23.1030 N   0  0  0  0  0
    3.4890   23.7950   23.2600 C   0  0  0  0  0
    3.6050   24.5140   21.8990 C   0  0  0  0  0
    4.7060   24.8940   21.4720 O   0  0  0  0  0
    4.8570   23.7060   23.9540 C   0  0  0  0  0
    4.8850   22.6870   25.1160 C   0  0  0  0  0
    4.3660   22.9800   26.3800 N   0  0  0  0  0
    5.3600   21.4100   25.2030 C   0  0  0  0  0
    4.5340   21.9200   27.1570 C   0  0  0  0  0
    5.1240   20.9770   26.4700 N   0  0  0  0  0
    2.4880   24.7430   21.1630 N   0  0  0  0  0
    2.5300   25.3960   19.8490 C   0  0  0  0  0
    3.0800   26.8110   19.8890 C   0  0  0  0  0
    2.9930   27.4800   20.9690 O   0  0  0  0  0
    1.0930   25.4170   19.3910 C   0  0  0  0  0
    0.2490   24.7660   20.4720 C   0  0  0  0  0
    1.1440   24.3500   21.6040 C   0  0  0  0  0
    3.5990   27.1810   18.7160 N   0  0  0  0  0
    4.1870   28.5050   18.4150 C   0  0  0  0  0
    3.4760   29.1240   17.2060 C   0  0  0  0  0
    3.1640   28.4330   16.2260 O   0  0  0  0  0
    5.6570   28.3650   17.9900 C   0  0  0  0  0
    6.6470   28.2490   19.1480 C   0  0  0  0  0
    6.1880   28.2210   20.4680 C   0  0  0  0  0
    8.0190   28.1670   18.8760 C   0  0  0  0  0
    7.1030   28.1040   21.5220 C   0  0  0  0  0
    8.9330   28.0480   19.9290 C   0  0  0  0  0
    8.4750   28.0150   21.2520 C   0  0  0  0  0
    3.2320   30.4140   17.2920 N   0  0  0  0  0
    2.6040   31.1570   16.1900 C   0  0  0  0  0
    3.3310   32.4810   15.9830 C   0  0  0  0  0
    3.0200   33.4860   16.6420 O   0  0  0  0  0
    1.1250   31.4180   16.4680 C   0  0  0  0  0
    0.3070   31.4440   15.1760 C   0  0  0  0  0
    0.9190   31.5190   13.9280 N   0  0  0  0  0
   -1.0300   31.4050   14.9390 C   0  0  0  0  0
   -0.0250   31.5230   13.0050 C   0  0  0  0  0
   -1.1930   31.4560   13.5910 N   0  0  0  0  0
    4.2800   32.4090   15.0630 N   0  0  0  0  0
    5.1410   33.5410   14.6890 C   0  0  0  0  0
    6.6250   33.1820   14.8800 C   0  0  0  0  0
    6.9860   32.5990   16.2540 C   0  0  0  0  0
    6.4840   33.5280   17.3700 C   0  0  0  0  0
    8.3860   32.4700   16.3340 C   0  0  0  0  0
    6.8590   32.9680   18.7500 C   0  0  0  0  0
    8.8000   31.8410   17.6700 C   0  0  0  0  0
    8.3660   32.7370   18.8260 C   0  0  0  0  0
    4.9870   33.8990   13.1960 C   0  0  0  0  0
    5.4740   32.8380   12.3880 O   0  0  0  0  0
    3.5220   34.1400   12.8070 C   0  0  0  0  0
    3.0610   35.5360   13.2460 C   0  0  0  0  0
    2.9260   35.8300   14.4350 O   0  0  0  0  0
    2.8230   36.4110   12.2820 N   0  0  0  0  0
    2.3090   37.7560   12.6010 C   0  0  0  0  0
    0.7750   37.6750   12.6530 C   0  0  0  0  0
    0.1300   38.2210   13.5570 O   0  0  0  0  0
    2.7180   38.7800   11.5350 C   0  0  0  0  0
    3.8730   39.7450   11.9090 C   0  0  0  0  0
    4.0160   40.8950   10.8920 C   0  0  0  0  0
    3.7200   40.4410   13.2640 C   0  0  0  0  0
    0.1560   37.0430   11.7750 N   0  0  0  0  0
    1.8363   19.9543   22.9167 H   0  0  0  0  0
    2.0028   19.6814   24.3735 H   0  0  0  0  0
    0.3870   21.8649   24.8389 H   0  0  0  0  0
   -0.5871   20.9064   22.0901 H   0  0  0  0  0
   -1.3809   22.1548   23.0813 H   0  0  0  0  0
    0.2391   22.4523   22.4043 H   0  0  0  0  0
   -1.7364   20.5472   24.8215 H   0  0  0  0  0
   -0.9426   19.2988   23.8303 H   0  0  0  0  0
   -0.3923   19.5948   25.4978 H   0  0  0  0  0
    3.1928   21.8713   22.2915 H   0  0  0  0  0
    2.8085   24.3843   23.8746 H   0  0  0  0  0
    5.0807   24.6882   24.3704 H   0  0  0  0  0
    5.5840   23.3793   23.2105 H   0  0  0  0  0
    5.8394   20.8430   24.4050 H   0  0  0  0  0
    4.2293   21.8461   28.2009 H   0  0  0  0  0
    3.1996   24.8544   19.1808 H   0  0  0  0  0
    0.9882   24.8737   18.4519 H   0  0  0  0  0
    0.7654   26.4429   19.2230 H   0  0  0  0  0
   -0.2607   23.8925   20.0653 H   0  0  0  0  0
   -0.4969   25.4740   20.8333 H   0  0  0  0  0
    0.8647   24.8240   22.5449 H   0  0  0  0  0
    1.0750   23.2823   21.8121 H   0  0  0  0  0
    3.5894   26.4926   17.9634 H   0  0  0  0  0
    4.0873   29.1126   19.3144 H   0  0  0  0  0
    5.9162   29.2696   17.4399 H   0  0  0  0  0
    5.7343   27.4438   17.4125 H   0  0  0  0  0
    5.1204   28.2901   20.6766 H   0  0  0  0  0
    8.3739   28.1959   17.8458 H   0  0  0  0  0
    6.7477   28.0822   22.5523 H   0  0  0  0  0
   10.0006   27.9810   19.7196 H   0  0  0  0  0
    9.1864   27.9200   22.0723 H   0  0  0  0  0
    3.4852   30.9115   18.1457 H   0  0  0  0  0
    2.6769   30.5512   15.2868 H   0  0  0  0  0
    1.0316   32.3887   16.9550 H   0  0  0  0  0
    0.7459   30.6151   17.1002 H   0  0  0  0  0
   -1.8206   31.3444   15.6869 H   0  0  0  0  0
    0.1416   31.5739   11.9290 H   0  0  0  0  0
    4.4221   31.5183   14.5867 H   0  0  0  0  0
    4.8396   34.3734   15.3250 H   0  0  0  0  0
    7.1870   34.1102   14.7768 H   0  0  0  0  0
    6.8580   32.4133   14.1432 H   0  0  0  0  0
    6.5139   31.6241   16.3758 H   0  0  0  0  0
    5.3988   33.6052   17.3035 H   0  0  0  0  0
    6.9469   34.5073   17.2489 H   0  0  0  0  0
    8.8349   33.4603   16.2579 H   0  0  0  0  0
    8.7265   31.8269   15.5225 H   0  0  0  0  0
    6.3422   32.0211   18.9059 H   0  0  0  0  0
    6.5659   33.6824   19.5193 H   0  0  0  0  0
    9.8838   31.7274   17.6920 H   0  0  0  0  0
    8.3205   30.8674   17.7716 H   0  0  0  0  0
    8.6133   32.2558   19.7723 H   0  0  0  0  0
    8.8847   33.6934   18.7599 H   0  0  0  0  0
    5.5565   34.8142   13.0346 H   0  0  0  0  0
    5.3737   33.0705   11.4620 H   0  0  0  0  0
    2.9007   33.3940   13.3024 H   0  0  0  0  0
    3.4304   34.0654   11.7234 H   0  0  0  0  0
    2.9965   36.1530   11.3105 H   0  0  0  0  0
    2.7253   38.0790   13.5552 H   0  0  0  0  0
    1.8426   39.4076   11.3680 H   0  0  0  0  0
    3.0723   38.2019   10.6815 H   0  0  0  0  0
    4.7369   39.0806   11.9270 H   0  0  0  0  0
    4.2227   40.4817    9.9048 H   0  0  0  0  0
    3.0892   41.4679   10.8606 H   0  0  0  0  0
    4.8368   41.5455   11.1941 H   0  0  0  0  0
    2.8045   41.0325   13.2659 H   0  0  0  0  0
    3.6708   39.6906   14.0530 H   0  0  0  0  0
    4.5762   41.0937   13.4345 H   0  0  0  0  0
   -0.8616   36.9838   11.8111 H   0  0  0  0  0
    0.6671   36.5850   11.0204 H   0  0  0  0  0
  1  2  1  0  0  0
  1  5  1  0  0  0
  2  3  1  0  0  0
  2  4  1  0  0  0
  5  6  2  0  0  0
  5  7  1  0  0  0
  7  8  1  0  0  0
  8  9  1  0  0  0
  8 11  1  0  0  0
  9 10  2  0  0  0
  9 17  1  0  0  0
 11 12  1  0  0  0
 12 13  4  0  0  0
 12 14  4  0  0  0
 13 15  4  0  0  0
 14 16  4  0  0  0
 15 16  4  0  0  0
 17 18  1  0  0  0
 17 23  1  0  0  0
 18 19  1  0  0  0
 18 21  1  0  0  0
 19 20  2  0  0  0
 19 24  1  0  0  0
 21 22  1  0  0  0
 22 23  1  0  0  0
 24 25  1  0  0  0
 25 26  1  0  0  0
 25 28  1  0  0  0
 26 27  2  0  0  0
 26 35  1  0  0  0
 28 29  1  0  0  0
 29 30  4  0  0  0
 29 31  4  0  0  0
 30 32  4  0  0  0
 31 33  4  0  0  0
 32 34  4  0  0  0
 33 34  4  0  0  0
 35 36  1  0  0  0
 36 37  1  0  0  0
 36 39  1  0  0  0
 37 38  2  0  0  0
 37 45  1  0  0  0
 39 40  1  0  0  0
 40 41  4  0  0  0
 40 42  4  0  0  0
 41 43  4  0  0  0
 42 44  4  0  0  0
 43 44  4  0  0  0
 45 46  1  0  0  0
 46 47  1  0  0  0
 46 54  1  0  0  0
 47 48  1  0  0  0
 48 49  1  0  0  0
 48 50  1  0  0  0
 49 51  1  0  0  0
 50 52  1  0  0  0
 51 53  1  0  0  0
 52 53  1  0  0  0
 54 55  1  0  0  0
 54 56  1  0  0  0
 56 57  1  0  0  0
 57 58  2  0  0  0
 57 59  1  0  0  0
 59 60  1  0  0  0
 60 61  1  0  0  0
 60 63  1  0  0  0
 61 62  2  0  0  0
 61 67  1  0  0  0
 63 64  1  0  0  0
 64 65  1  0  0  0
 64 66  1  0  0  0
  1 68  1  0  0  0
  1 69  1  0  0  0
  2 70  1  0  0  0
  3 71  1  0  0  0
  3 72  1  0  0  0
  3 73  1  0  0  0
  4 74  1  0  0  0
  4 75  1  0  0  0
  4 76  1  0  0  0
  7 77  1  0  0  0
  8 78  1  0  0  0
 11 79  1  0  0  0
 11 80  1  0  0  0
 14 81  1  0  0  0
 15 82  1  0  0  0
 18 83  1  0  0  0
 21 84  1  0  0  0
 21 85  1  0  0  0
 22 86  1  0  0  0
 22 87  1  0  0  0
 23 88  1  0  0  0
 23 89  1  0  0  0
 24 90  1  0  0  0
 25 91  1  0  0  0
 28 92  1  0  0  0
 28 93  1  0  0  0
 30 94  1  0  0  0
 31 95  1  0  0  0
 32 96  1  0  0  0
 33 97  1  0  0  0
 34 98  1  0  0  0
 35 99  1  0  0  0
 36100  1  0  0  0
 39101  1  0  0  0
 39102  1  0  0  0
 42103  1  0  0  0
 43104  1  0  0  0
 45105  1  0  0  0
 46106  1  0  0  0
 47107  1  0  0  0
 47108  1  0  0  0
 48109  1  0  0  0
 49110  1  0  0  0
 49111  1  0  0  0
 50112  1  0  0  0
 50113  1  0  0  0
 51114  1  0  0  0
 51115  1  0  0  0
 52116  1  0  0  0
 52117  1  0  0  0
 53118  1  0  0  0
 53119  1  0  0  0
 54120  1  0  0  0
 55121  1  0  0  0
 56122  1  0  0  0
 56123  1  0  0  0
 59124  1  0  0  0
 60125  1  0  0  0
 63126  1  0  0  0
 63127  1  0  0  0
 64128  1  0  0  0
 65129  1  0  0  0
 65130  1  0  0  0
 65131  1  0  0  0
 66132  1  0  0  0
 66133  1  0  0  0
 66134  1  0  0  0
 67135  1  0  0  0
 67136  1  0  0  0
M  END
$$$$
