### 
### Created by X-TOOL on Mon Sep 10 21:12:44 2018
### 

@<TRIPOS>MOLECULE
2er0_ligand
  138   142     1     0     0
SMALL
GAST_HUCK


@<TRIPOS>ATOM
      1 CA          1.6070   20.5290   23.8140 C.3       1 IVA         0.0397
      2 CB          0.2090   21.1020   24.0810 C.3       1 IVA        -0.0298
      3 CG1        -0.4260   21.6970   22.8230 C.3       1 IVA        -0.0606
      4 CG2        -0.7880   20.0600   24.5950 C.3       1 IVA        -0.0606
      5 C           2.1240   21.9550   24.0220 C.2       1 IVA         0.1786
      6 O           1.7970   22.6420   24.9860 O.2       1 IVA        -0.3969
      7 N           2.9420   22.4360   23.1030 N.am      1 HIS        -0.2644
      8 CA          3.4890   23.7950   23.2600 C.3       1 HIS         0.1370
      9 C           3.6050   24.5140   21.8990 C.2       1 HIS         0.2079
     10 O           4.7060   24.8940   21.4720 O.2       1 HIS        -0.3940
     11 CB          4.8570   23.7060   23.9540 C.3       1 HIS         0.0145
     12 CG          4.8850   22.6870   25.1160 C.2       1 HIS        -0.0027
     13 ND1         4.3660   22.9800   26.3800 N.2       1 HIS        -0.3252
     14 CD2         5.3600   21.4100   25.2030 C.2       1 HIS         0.0291
     15 CE1         4.5340   21.9200   27.1570 C.2       1 HIS         0.0907
     16 NE2         5.1240   20.9770   26.4700 N.pl3     1 HIS        -0.2752
     17 N           2.4880   24.7430   21.1630 N.am      1 PRO        -0.2497
     18 CA          2.5300   25.3960   19.8490 C.3       1 PRO         0.1338
     19 C           3.0800   26.8110   19.8890 C.2       1 PRO         0.2042
     20 O           2.9930   27.4800   20.9690 O.2       1 PRO        -0.3944
     21 CB          1.0930   25.4170   19.3910 C.3       1 PRO        -0.0104
     22 CG          0.2490   24.7660   20.4720 C.3       1 PRO        -0.0281
     23 CD          1.1440   24.3500   21.6040 C.3       1 PRO         0.0369
     24 N           3.5990   27.1810   18.7160 N.am      1 PHE        -0.2619
     25 CA          4.1870   28.5050   18.4150 C.3       1 PHE         0.1404
     26 C           3.4760   29.1240   17.2060 C.2       1 PHE         0.2060
     27 O           3.1640   28.4330   16.2260 O.2       1 PHE        -0.3942
     28 CB          5.6570   28.3650   17.9900 C.3       1 PHE         0.0214
     29 CG          6.6470   28.2490   19.1480 C.ar      1 PHE        -0.0386
     30 CD1         6.1880   28.2210   20.4680 C.ar      1 PHE        -0.0601
     31 CD2         8.0190   28.1670   18.8760 C.ar      1 PHE        -0.0601
     32 CE1         7.1030   28.1040   21.5220 C.ar      1 PHE        -0.0686
     33 CE2         8.9330   28.0480   19.9290 C.ar      1 PHE        -0.0686
     34 CZ          8.4750   28.0150   21.2520 C.ar      1 PHE        -0.0687
     35 N           3.2320   30.4140   17.2920 N.am      1 HIS        -0.2623
     36 CA          2.6040   31.1570   16.1900 C.3       1 HIS         0.1368
     37 C           3.3310   32.4810   15.9830 C.2       1 HIS         0.2034
     38 O           3.0200   33.4860   16.6420 O.2       1 HIS        -0.3944
     39 CB          1.1250   31.4180   16.4680 C.3       1 HIS         0.0145
     40 CG          0.3070   31.4440   15.1760 C.2       1 HIS        -0.0027
     41 ND1         0.9190   31.5190   13.9280 N.2       1 HIS        -0.3252
     42 CD2        -1.0300   31.4050   14.9390 C.2       1 HIS         0.0291
     43 CE1        -0.0250   31.5230   13.0050 C.2       1 HIS         0.0907
     44 NE2        -1.1930   31.4560   13.5910 N.pl3     1 HIS        -0.2752
     45 N           4.2800   32.4090   15.0630 N.am      1 CHS        -0.2792
     46 CA          5.1410   33.5410   14.6890 C.3       1 CHS         0.0703
     47 CB          6.6250   33.1820   14.8800 C.3       1 CHS        -0.0245
     48 CG          6.9860   32.5990   16.2540 C.3       1 CHS        -0.0389
     49 CD1         6.4840   33.5280   17.3700 C.3       1 CHS        -0.0501
     50 CD2         8.3860   32.4700   16.3340 C.3       1 CHS        -0.0501
     51 CE1         6.8590   32.9680   18.7500 C.3       1 CHS        -0.0528
     52 CE2         8.8000   31.8410   17.6700 C.3       1 CHS        -0.0528
     53 CZ          8.3660   32.7370   18.8260 C.3       1 CHS        -0.0530
     54 CH          4.9870   33.8990   13.1960 C.3       1 CHS         0.0947
     55 OH          5.4740   32.8380   12.3880 O.3       1 CHS        -0.3872
     56 CM          3.5220   34.1400   12.8070 C.3       1 CHS         0.0655
     57 C           3.0610   35.5360   13.2460 C.2       1 CHS         0.1808
     58 O           2.9260   35.8300   14.4350 O.2       1 CHS        -0.3968
     59 N           2.8230   36.4110   12.2820 N.am      1 LEU        -0.2656
     60 CA          2.3090   37.7560   12.6010 C.3       1 LEU         0.1308
     61 C           0.7750   37.6750   12.6530 C.2       1 LEU         0.1992
     62 O           0.1300   38.2210   13.5570 O.2       1 LEU        -0.3947
     63 CB          2.7180   38.7800   11.5350 C.3       1 LEU        -0.0101
     64 CG          3.8730   39.7450   11.9090 C.3       1 LEU        -0.0425
     65 CD1         4.0160   40.8950   10.8920 C.3       1 LEU        -0.0625
     66 CD2         3.7200   40.4410   13.2640 C.3       1 LEU        -0.0625
     67 N           0.1560   37.0430   11.7750 N.am      1 PHE        -0.2990
     68 H1          1.7565   20.1252   22.8018 H         1 IVA         0.0505
     69 H2          1.9569   19.7966   24.5564 H         1 IVA         0.0505
     70 H3          0.3152   21.8937   24.8373 H         1 IVA         0.0320
     71 H4         -1.4229   22.0925   23.0675 H         1 IVA         0.0234
     72 H5         -0.5199   20.9153   22.0548 H         1 IVA         0.0234
     73 H6          0.2081   22.5111   22.4421 H         1 IVA         0.0234
     74 H7         -0.3898   19.5898   25.5062 H         1 IVA         0.0234
     75 H8         -0.9449   19.2911   23.8242 H         1 IVA         0.0234
     76 H9         -1.7456   20.5504   24.8240 H         1 IVA         0.0234
     77 H10         3.1879   21.8823   22.3074 H         1 HIS         0.1884
     78 H11         2.8074   24.3760   23.8986 H         1 HIS         0.0817
     79 H12         5.1117   24.6988   24.3534 H         1 HIS         0.0420
     80 H13         5.6085   23.4068   23.2085 H         1 HIS         0.0420
     81 H14         5.8389   20.8435   24.4057 H         1 HIS         0.0729
     82 H15         4.2296   21.8461   28.2000 H         1 HIS         0.1199
     83 H16         5.3726   20.0461   26.8339 H         1 HIS         0.2361
     84 H17         3.1446   24.7996   19.1587 H         1 PRO         0.0802
     85 H18         0.9924   24.8563   18.4500 H         1 PRO         0.0313
     86 H19         0.7653   26.4555   19.2358 H         1 PRO         0.0313
     87 H20        -0.2606   23.8823   20.0604 H         1 PRO         0.0287
     88 H21        -0.4998   25.4838   20.8381 H         1 PRO         0.0287
     89 H22         0.8690   24.8736   22.5315 H         1 PRO         0.0524
     90 H23         1.0887   23.2634   21.7661 H         1 PRO         0.0524
     91 H24         3.5896   26.5061   17.9782 H         1 PHE         0.1885
     92 H25         4.0998   29.1580   19.2959 H         1 PHE         0.0823
     93 H26         5.9276   29.2497   17.3950 H         1 PHE         0.0474
     94 H27         5.7496   27.4624   17.3681 H         1 PHE         0.0474
     95 H28         5.1263   28.2897   20.6755 H         1 PHE         0.0557
     96 H29         8.3720   28.1957   17.8515 H         1 PHE         0.0557
     97 H30         6.7497   28.0823   22.5466 H         1 PHE         0.0599
     98 H31         9.9947   27.9814   19.7207 H         1 PHE         0.0599
     99 H32         9.1825   27.9205   22.0678 H         1 PHE         0.0559
    100 H33         3.4803   30.9018   18.1289 H         1 HIS         0.1885
    101 H34         2.6871   30.5578   15.2713 H         1 HIS         0.0817
    102 H35         1.0227   32.3887   16.9752 H         1 HIS         0.0420
    103 H36         0.7379   30.6210   17.1199 H         1 HIS         0.0420
    104 H37        -1.8199   31.3445   15.6862 H         1 HIS         0.0729
    105 H38         0.1415   31.5738   11.9300 H         1 HIS         0.1199
    106 H39        -2.1002   31.4438   13.1034 H         1 HIS         0.2361
    107 H40         4.4193   31.5358   14.5960 H         1 CHS         0.1856
    108 H41         4.8794   34.4094   15.3115 H         1 CHS         0.0583
    109 H42         7.2180   34.0966   14.7322 H         1 CHS         0.0291
    110 H43         6.8970   32.4409   14.1140 H         1 CHS         0.0291
    111 H44         6.5182   31.6099   16.3675 H         1 CHS         0.0302
    112 H45         5.3898   33.6169   17.3013 H         1 CHS         0.0268
    113 H46         6.9411   34.5209   17.2466 H         1 CHS         0.0268
    114 H47         8.8454   33.4656   16.2466 H         1 CHS         0.0268
    115 H48         8.7368   31.8307   15.5105 H         1 CHS         0.0268
    116 H49         6.3354   32.0141   18.9109 H         1 CHS         0.0265
    117 H50         6.5606   33.6859   19.5282 H         1 CHS         0.0265
    118 H51         9.8932   31.7211   17.6928 H         1 CHS         0.0265
    119 H52         8.3208   30.8562   17.7729 H         1 CHS         0.0265
    120 H53         8.6151   32.2508   19.7807 H         1 CHS         0.0265
    121 H54         8.8892   33.7023   18.7586 H         1 CHS         0.0265
    122 H55         5.5673   34.8111   12.9929 H         1 CHS         0.0642
    123 H56         6.3925   32.6903   12.5810 H         1 CHS         0.2101
    124 H57         2.8907   33.3825   13.2945 H         1 CHS         0.0529
    125 H58         3.4206   34.0542   11.7151 H         1 CHS         0.0529
    126 H59         2.9931   36.1581   11.3296 H         1 LEU         0.1883
    127 H60         2.7008   38.0749   13.5781 H         1 LEU         0.0800
    128 H61         1.8338   39.3916   11.3025 H         1 LEU         0.0315
    129 H62         3.0252   38.2233   10.6374 H         1 LEU         0.0315
    130 H63         4.8006   39.1539   11.9206 H         1 LEU         0.0298
    131 H64         4.8441   41.5523   11.1958 H         1 LEU         0.0232
    132 H65         3.0813   41.4740   10.8594 H         1 LEU         0.0232
    133 H66         4.2247   40.4792    9.8952 H         1 LEU         0.0232
    134 H67         3.6111   39.6841   14.0547 H         1 LEU         0.0232
    135 H68         2.8280   41.0845   13.2471 H         1 LEU         0.0232
    136 H69         4.6109   41.0544   13.4638 H         1 LEU         0.0232
    137 H70        -0.8420   36.9894   11.8074 H         1 PHE         0.1815
    138 H71         0.6574   36.5896   11.0381 H         1 PHE         0.1815
@<TRIPOS>BOND
     1    1    2 1  
     2    1    5 1  
     3    2    3 1  
     4    2    4 1  
     5    5    6 2  
     6    5    7 am 
     7    7    8 1  
     8    8    9 1  
     9    8   11 1  
    10    9   10 2  
    11    9   17 am 
    12   11   12 1  
    13   12   13 1  
    14   12   14 2  
    15   13   15 2  
    16   14   16 1  
    17   15   16 1  
    18   17   18 1  
    19   17   23 1  
    20   18   19 1  
    21   18   21 1  
    22   19   20 2  
    23   19   24 am 
    24   21   22 1  
    25   22   23 1  
    26   24   25 1  
    27   25   26 1  
    28   25   28 1  
    29   26   27 2  
    30   26   35 am 
    31   28   29 1  
    32   29   30 ar 
    33   29   31 ar 
    34   30   32 ar 
    35   31   33 ar 
    36   32   34 ar 
    37   33   34 ar 
    38   35   36 1  
    39   36   37 1  
    40   36   39 1  
    41   37   38 2  
    42   37   45 am 
    43   39   40 1  
    44   40   41 1  
    45   40   42 2  
    46   41   43 2  
    47   42   44 1  
    48   43   44 1  
    49   45   46 1  
    50   46   47 1  
    51   46   54 1  
    52   47   48 1  
    53   48   49 1  
    54   48   50 1  
    55   49   51 1  
    56   50   52 1  
    57   51   53 1  
    58   52   53 1  
    59   54   55 1  
    60   54   56 1  
    61   56   57 1  
    62   57   58 2  
    63   57   59 am 
    64   59   60 1  
    65   60   61 1  
    66   60   63 1  
    67   61   62 2  
    68   61   67 am 
    69   63   64 1  
    70   64   65 1  
    71   64   66 1  
    72    1   68 1  
    73    1   69 1  
    74    2   70 1  
    75    3   71 1  
    76    3   72 1  
    77    3   73 1  
    78    4   74 1  
    79    4   75 1  
    80    4   76 1  
    81    7   77 1  
    82    8   78 1  
    83   11   79 1  
    84   11   80 1  
    85   14   81 1  
    86   15   82 1  
    87   16   83 1  
    88   18   84 1  
    89   21   85 1  
    90   21   86 1  
    91   22   87 1  
    92   22   88 1  
    93   23   89 1  
    94   23   90 1  
    95   24   91 1  
    96   25   92 1  
    97   28   93 1  
    98   28   94 1  
    99   30   95 1  
   100   31   96 1  
   101   32   97 1  
   102   33   98 1  
   103   34   99 1  
   104   35  100 1  
   105   36  101 1  
   106   39  102 1  
   107   39  103 1  
   108   42  104 1  
   109   43  105 1  
   110   44  106 1  
   111   45  107 1  
   112   46  108 1  
   113   47  109 1  
   114   47  110 1  
   115   48  111 1  
   116   49  112 1  
   117   49  113 1  
   118   50  114 1  
   119   50  115 1  
   120   51  116 1  
   121   51  117 1  
   122   52  118 1  
   123   52  119 1  
   124   53  120 1  
   125   53  121 1  
   126   54  122 1  
   127   55  123 1  
   128   56  124 1  
   129   56  125 1  
   130   59  126 1  
   131   60  127 1  
   132   63  128 1  
   133   63  129 1  
   134   64  130 1  
   135   65  131 1  
   136   65  132 1  
   137   65  133 1  
   138   66  134 1  
   139   66  135 1  
   140   66  136 1  
   141   67  137 1  
   142   67  138 1  
@<TRIPOS>SUBSTRUCTURE
     1 IVA         1

