5h8b_ligand
  -I-interpret- 

 44 47  0  0  0  0  0  0  0  0999 V2000
   14.5970  -64.7180   -3.0080 C   0  0  0  0  0
   14.6720  -65.0670   -1.6570 C   0  0  0  0  0
   15.6870  -65.8710   -1.1690 C   0  0  0  0  0
   21.5790  -69.8910   -0.8380 N   0  0  0  0  0
   16.0120  -65.5140   -6.3090 C   0  0  0  0  0
   16.0120  -67.0140   -6.2300 C   0  0  0  0  0
   18.7830  -67.7870   -2.0840 C   0  0  0  0  0
   19.5930  -68.5180   -1.2150 C   0  0  0  0  0
   20.7090  -69.2120   -1.6700 C   0  0  0  0  0
   20.1020  -68.3430   -3.8680 C   0  0  0  0  0
   20.5780  -68.4480   -5.1860 C   0  0  0  0  0
   21.7240  -69.2510   -5.0870 C   0  0  0  0  0
   20.0180  -67.8540   -6.3610 C   0  0  0  0  0
   21.4220  -69.9330    0.6190 C   0  0  0  0  0
   19.5910  -67.3760   -7.3100 N   0  0  0  0  0
   21.9870  -69.6490   -3.8110 N   0  0  0  0  0
   20.9200  -69.1480   -3.0770 N   0  0  0  0  0
   20.7580  -71.1020    1.2270 C   0  0  0  0  0
   22.2200  -70.9070    1.3900 C   0  0  0  0  0
   19.0140  -67.7080   -3.4030 N   0  0  0  0  0
   17.6730  -67.1810   -1.5090 N   0  0  0  0  0
   16.6760  -66.3390   -2.0240 C   0  0  0  0  0
   16.6660  -65.9540   -3.3610 C   0  0  0  0  0
   15.6620  -65.1120   -3.8410 C   0  0  0  0  0
   13.4770  -63.8430   -3.5140 C   0  0  0  0  0
   15.5150  -64.8740   -5.2240 N   0  0  0  0  0
   16.3210  -64.9240   -7.3310 O   0  0  0  0  0
   13.9114  -64.6964   -0.9699 H   0  0  0  0  0
   15.7102  -66.1372   -0.1123 H   0  0  0  0  0
   22.3665  -70.3856   -1.2570 H   0  0  0  0  0
   15.3153  -67.4153   -6.9660 H   0  0  0  0  0
   17.0151  -67.3874   -6.4359 H   0  0  0  0  0
   15.7056  -67.3239   -5.2309 H   0  0  0  0  0
   19.3454  -68.5460   -0.1539 H   0  0  0  0  0
   22.3402  -69.5278   -5.9425 H   0  0  0  0  0
   21.2723  -68.8543    0.6642 H   0  0  0  0  0
   19.8555  -71.6829    1.4170 H   0  0  0  0  0
   23.1791  -71.2391    1.7873 H   0  0  0  0  0
   17.5608  -67.3893   -0.5168 H   0  0  0  0  0
   17.4445  -66.3110   -4.0353 H   0  0  0  0  0
   12.5213  -64.3297   -3.3196 H   0  0  0  0  0
   13.5080  -62.8821   -3.0004 H   0  0  0  0  0
   13.5954  -63.6873   -4.5863 H   0  0  0  0  0
   14.9258  -64.0721   -5.4478 H   0  0  0  0  0
  1  2  4  0  0  0
 24  1  4  0  0  0
  1 25  1  0  0  0
  2  3  4  0  0  0
 22  3  4  0  0  0
  9  4  1  0  0  0
  4 14  1  0  0  0
  5  6  1  0  0  0
 26  5  1  0  0  0
  5 27  2  0  0  0
  7  8  4  0  0  0
  7 20  4  0  0  0
 21  7  1  0  0  0
  8  9  4  0  0  0
  9 17  4  0  0  0
 10 11  4  0  0  0
 10 17  4  0  0  0
 20 10  4  0  0  0
 11 12  4  0  0  0
 11 13  1  0  0  0
 16 12  4  0  0  0
 13 15  3  0  0  0
 14 18  1  0  0  0
 14 19  1  0  0  0
 17 16  4  0  0  0
 19 18  2  0  0  0
 22 21  1  0  0  0
 23 22  4  0  0  0
 24 23  4  0  0  0
 24 26  1  0  0  0
  2 28  1  0  0  0
  3 29  1  0  0  0
  4 30  1  0  0  0
  6 31  1  0  0  0
  6 32  1  0  0  0
  6 33  1  0  0  0
  8 34  1  0  0  0
 12 35  1  0  0  0
 14 36  1  0  0  0
 18 37  1  0  0  0
 19 38  1  0  0  0
 21 39  1  0  0  0
 23 40  1  0  0  0
 25 41  1  0  0  0
 25 42  1  0  0  0
 25 43  1  0  0  0
 26 44  1  0  0  0
M  END
$$$$
