1fzq_ligand
  -I-interpret- 

 43 45  0  0  0  0  0  0  0  0999 V2000
   17.9210   10.4740   18.3760 P   0  0  0  0  0
   18.6420   11.2950   17.3510 O   0  0  0  0  0
   18.8180   10.1350   19.5810 O   0  0  0  0  0
   16.6650   10.9840   19.0750 O   0  0  0  0  0
   17.6190    8.9990   17.8500 O   0  0  0  0  0
   17.9250    8.2340   16.5890 P   0  0  0  0  0
   17.3680    8.8930   15.3360 O   0  0  0  0  0
   19.4410    8.1780   16.3700 O   0  0  0  0  0
   17.2910    6.8880   16.8030 O   0  0  0  0  0
   17.6560    6.0580   17.9000 C   0  0  0  0  0
   17.4270    4.5420   17.5430 C   0  0  0  0  0
   16.0510    4.3050   17.3330 O   0  0  0  0  0
   18.1770    4.0960   16.2600 C   0  0  0  0  0
   18.6110    2.7510   16.5880 O   0  0  0  0  0
   17.0730    4.1220   15.2110 C   0  0  0  0  0
   17.2330    3.2810   14.0550 O   0  0  0  0  0
   15.8380    3.7480   16.0310 C   0  0  0  0  0
   14.6160    4.3720   15.4960 N   0  0  0  0  0
   14.3320    5.7010   15.1900 C   0  0  0  0  0
   13.0850    5.8600   14.7230 N   0  0  0  0  0
   12.4980    4.5420   14.7200 C   0  0  0  0  0
   11.1540    3.9440   14.3360 C   0  0  0  0  0
   10.2440    4.6550   13.9110 O   0  0  0  0  0
   10.8920    2.6020   14.4520 N   0  0  0  0  0
   11.8420    1.6750   14.9270 C   0  0  0  0  0
   11.5660    0.3730   15.0290 N   0  0  0  0  0
   13.0880    2.2190   15.2850 N   0  0  0  0  0
   13.4210    3.6740   15.1770 C   0  0  0  0  0
   18.3197    9.6102   20.2118 H   0  0  0  0  0
   16.3517   10.3193   19.6928 H   0  0  0  0  0
   19.8583    7.7690   17.1317 H   0  0  0  0  0
   17.0393    6.3166   18.7608 H   0  0  0  0  0
   18.7108    6.2134   18.1266 H   0  0  0  0  0
   17.8160    3.9706   18.3858 H   0  0  0  0  0
   19.0309    4.6807   15.9179 H   0  0  0  0  0
   19.0932    2.3814   15.8447 H   0  0  0  0  0
   17.0404    5.0973   14.7254 H   0  0  0  0  0
   16.4755    3.3884   13.4752 H   0  0  0  0  0
   15.7083    2.6658   16.0212 H   0  0  0  0  0
   15.0422    6.5183   15.3158 H   0  0  0  0  0
    9.9695    2.2602   14.1827 H   0  0  0  0  0
   12.2740   -0.2725   15.3789 H   0  0  0  0  0
   10.6471    0.0236   14.7570 H   0  0  0  0  0
  1  2  2  0  0  0
  1  3  1  0  0  0
  1  4  1  0  0  0
  1  5  1  0  0  0
  5  6  1  0  0  0
  6  7  2  0  0  0
  6  8  1  0  0  0
  6  9  1  0  0  0
  9 10  1  0  0  0
 10 11  1  0  0  0
 11 12  1  0  0  0
 11 13  1  0  0  0
 12 17  1  0  0  0
 13 14  1  0  0  0
 13 15  1  0  0  0
 15 16  1  0  0  0
 15 17  1  0  0  0
 17 18  1  0  0  0
 18 19  4  0  0  0
 18 28  4  0  0  0
 19 20  4  0  0  0
 20 21  4  0  0  0
 21 22  1  0  0  0
 21 28  4  0  0  0
 22 23  2  0  0  0
 22 24  1  0  0  0
 24 25  1  0  0  0
 25 26  1  0  0  0
 25 27  2  0  0  0
 27 28  1  0  0  0
  3 29  1  0  0  0
  4 30  1  0  0  0
  8 31  1  0  0  0
 10 32  1  0  0  0
 10 33  1  0  0  0
 11 34  1  0  0  0
 13 35  1  0  0  0
 14 36  1  0  0  0
 15 37  1  0  0  0
 16 38  1  0  0  0
 17 39  1  0  0  0
 19 40  1  0  0  0
 24 41  1  0  0  0
 26 42  1  0  0  0
 26 43  1  0  0  0
M  END
$$$$
