4ec4_ligand
  -I-interpret- 

176184  0  0  0  0  0  0  0  0999 V2000
   12.9570    2.1640   27.1080 C   0  0  0  0  0
   12.9410   -0.2890   27.1290 N   0  3  0  0  0
   11.9180    2.1400   27.7710 O   0  0  0  0  0
   13.4990    0.8820   26.4390 C   0  0  0  0  0
   13.2370    0.7470   24.9190 C   0  0  0  0  0
   12.2170    1.7110   24.3280 C   0  0  0  0  0
   11.6520   22.7180   33.2160 C   0  0  0  0  0
   13.8980   -0.7100   28.1690 C   0  0  0  0  0
   14.2410   25.3290   29.8330 C   0  0  0  0  0
   11.5910   22.6450   29.8640 O   0  0  0  0  0
   15.0460    8.4940   26.4470 O   0  0  0  0  0
   14.1900   16.0420   31.4470 O   0  0  0  0  0
   13.9220    5.4240   25.4530 O   0  0  0  0  0
   12.8090   19.4070   32.2390 O   0  0  0  0  0
   16.3410    4.0990   29.7860 O   0  0  0  0  0
   16.5570   20.1760   28.4110 O   0  0  0  0  0
   17.2770    9.7410   20.2940 C   0  0  0  0  0
   14.1640   15.0420   38.0550 C   0  0  0  0  0
   16.9330    8.6170   21.0340 C   0  0  0  0  0
   17.0730   11.0110   20.8310 C   0  0  0  0  0
   14.5720   16.0170   37.1460 C   0  0  0  0  0
   13.6610   13.8270   37.5920 C   0  0  0  0  0
   16.3900    8.7590   22.3130 C   0  0  0  0  0
   16.5290   11.1490   22.1070 C   0  0  0  0  0
   14.4830   15.7870   35.7700 C   0  0  0  0  0
   13.5640   13.6020   36.2200 C   0  0  0  0  0
    8.8920   13.9900   27.7480 C   0  0  0  0  0
    8.5650   13.3680   28.9470 C   0  0  0  0  0
    9.1880   11.8300   26.7020 C   0  0  0  0  0
    8.8580   11.2060   27.9020 C   0  0  0  0  0
   14.0960   12.2310   24.0880 C   0  0  0  0  0
   12.5370   12.6570   32.4460 C   0  0  0  0  0
   12.1970   24.0240   32.6230 C   0  0  0  0  0
   10.9590   13.5600   24.8300 C   0  0  0  0  0
    9.2470   11.7850   31.3780 C   0  0  0  0  0
   12.0700   14.4100   25.4600 C   0  0  0  0  0
    9.9750   10.6110   32.0230 C   0  0  0  0  0
   15.6490    4.4050   28.5620 C   0  0  0  0  0
   15.5670   20.5420   29.3690 C   0  0  0  0  0
    9.5610   13.9470   25.3330 C   0  0  0  0  0
    8.2100   11.3210   30.3450 C   0  0  0  0  0
   14.1780    6.3380   29.1560 C   0  0  0  0  0
   14.5040   18.3040   29.0610 C   0  0  0  0  0
   12.7650    6.9330   29.2830 C   0  0  0  0  0
   13.3650   17.5000   28.4260 C   0  0  0  0  0
   12.1240    8.8610   27.7940 C   0  0  0  0  0
   11.6720   15.9720   29.4550 C   0  0  0  0  0
   11.9080    8.9840   26.2850 C   0  0  0  0  0
   11.0090   15.9840   30.8230 C   0  0  0  0  0
   13.2490   14.5380   24.4850 C   0  0  0  0  0
   11.4540   10.5860   31.6180 C   0  0  0  0  0
   15.7850   12.4130   25.4000 N   0  0  0  0  0
   13.5280   11.8000   34.1100 N   0  0  0  0  0
   15.1600   13.4780   25.4180 N   0  0  0  0  0
   12.9040   10.9000   33.5380 N   0  0  0  0  0
   12.9780   25.0390   30.5370 N   0  3  0  0  0
   14.3680    9.3540   24.4750 N   0  0  0  0  0
   12.9260   15.3180   33.2010 N   0  0  0  0  0
   13.7240    3.2400   26.9760 N   0  0  0  0  0
   13.3640   21.5170   30.7020 N   0  0  0  0  0
   12.5970   22.5970   30.5710 C   0  0  0  0  0
   14.2030    8.6160   25.5670 C   0  0  0  0  0
   13.1440   16.0480   32.0960 C   0  0  0  0  0
   13.3820    5.6520   26.5320 C   0  0  0  0  0
   12.7130   19.1570   31.0320 C   0  0  0  0  0
    9.2060   13.2240   26.6330 C   0  0  0  0  0
    8.5460   11.9790   29.0200 C   0  0  0  0  0
   16.1760   10.0220   22.8530 C   0  0  0  0  0
   13.9750   14.5770   35.3000 C   0  0  0  0  0
   15.1550   11.5970   24.5720 C   0  0  0  0  0
   13.3320   12.9370   33.4570 C   0  0  0  0  0
   14.1990    4.8390   28.8080 C   0  0  0  0  0
   14.2430   19.8240   29.0560 C   0  0  0  0  0
   13.0620   23.8230   31.3710 C   0  0  0  0  0
   12.1250    7.3530   27.9420 C   0  0  0  0  0
   12.0880   17.4330   29.2840 C   0  0  0  0  0
   12.8530    7.9340   25.7040 C   0  0  0  0  0
   11.9360   16.8890   31.6370 C   0  0  0  0  0
   15.5810   10.1580   24.2640 C   0  0  0  0  0
   13.8780   14.3470   33.7820 C   0  0  0  0  0
   13.3330    4.5240   27.5780 C   0  0  0  0  0
   13.0730   20.2530   30.0000 C   0  0  0  0  0
   12.8620    6.8730   26.7410 N   0  0  0  0  0
   12.3080   17.9320   30.6610 N   0  0  0  0  0
   14.1790   13.4200   24.6760 N   0  0  0  0  0
   12.3040   11.3570   32.5610 N   0  0  0  0  0
   12.7886   -1.0479   26.4647 H   0  0  0  0  0
   12.0441   -0.0519   27.5530 H   0  0  0  0  0
   14.5829    0.9471   26.5340 H   0  0  0  0  0
   12.8354   -0.2547   24.7658 H   0  0  0  0  0
   14.1842    0.9636   24.4251 H   0  0  0  0  0
   11.2536    1.5626   24.8157 H   0  0  0  0  0
   12.5524    2.7357   24.4876 H   0  0  0  0  0
   12.1175    1.5223   23.2591 H   0  0  0  0  0
   11.0345   22.2130   32.4732 H   0  0  0  0  0
   12.4844   22.0730   33.4974 H   0  0  0  0  0
   11.0513   22.9434   34.0972 H   0  0  0  0  0
   14.8493   -0.9670   27.7030 H   0  0  0  0  0
   14.0470    0.1063   28.8758 H   0  0  0  0  0
   13.5026   -1.5794   28.6942 H   0  0  0  0  0
   15.0369   25.4762   30.5631 H   0  0  0  0  0
   14.4933   24.4917   29.1824 H   0  0  0  0  0
   14.1230   26.2327   29.2351 H   0  0  0  0  0
   17.2413    3.8330   29.5854 H   0  0  0  0  0
   17.3793   20.6281   28.6136 H   0  0  0  0  0
   17.7047    9.6304   19.2975 H   0  0  0  0  0
   14.2382   15.2293   39.1262 H   0  0  0  0  0
   17.0871    7.6223   20.6158 H   0  0  0  0  0
   17.3388   11.8962   20.2532 H   0  0  0  0  0
   14.9636   16.9664   37.5111 H   0  0  0  0  0
   13.3459   13.0586   38.2979 H   0  0  0  0  0
   16.1320    7.8725   22.8923 H   0  0  0  0  0
   16.3779   12.1439   22.5258 H   0  0  0  0  0
   14.8102   16.5522   35.0661 H   0  0  0  0  0
   13.1633   12.6554   35.8573 H   0  0  0  0  0
    8.9020   15.0780   27.6828 H   0  0  0  0  0
    8.3245   13.9658   29.8261 H   0  0  0  0  0
    9.4307   11.2340   25.8223 H   0  0  0  0  0
    8.8436   10.1181   27.9674 H   0  0  0  0  0
   13.3461   11.8684   23.3849 H   0  0  0  0  0
   12.1564   13.3395   31.6862 H   0  0  0  0  0
   12.8271   24.4874   33.3822 H   0  0  0  0  0
   11.3399   24.6311   32.3316 H   0  0  0  0  0
   11.1373   12.5199   25.1030 H   0  0  0  0  0
   10.9839   13.7214   23.7523 H   0  0  0  0  0
    9.9842   12.4040   30.8667 H   0  0  0  0  0
    8.7254   12.3348   32.1615 H   0  0  0  0  0
   12.4129   13.9302   26.3767 H   0  0  0  0  0
   11.6794   15.4029   25.6831 H   0  0  0  0  0
    9.5069    9.6851   31.6888 H   0  0  0  0  0
    9.9124   10.7153   33.1062 H   0  0  0  0  0
   15.6336    3.5049   27.9475 H   0  0  0  0  0
   16.1710    5.2284   28.0745 H   0  0  0  0  0
   15.4093   21.6198   29.3285 H   0  0  0  0  0
   15.9058   20.2529   30.3638 H   0  0  0  0  0
    8.8326   13.6639   24.5732 H   0  0  0  0  0
    9.5499   15.0202   25.5234 H   0  0  0  0  0
    7.2067   11.6040   30.6636 H   0  0  0  0  0
    8.2357   10.2359   30.2451 H   0  0  0  0  0
   14.6641    6.4511   30.1250 H   0  0  0  0  0
   14.6782    6.8649   28.3435 H   0  0  0  0  0
   15.4063   18.1197   28.4779 H   0  0  0  0  0
   14.5966   17.9860   30.0995 H   0  0  0  0  0
   12.8512    7.8333   29.8915 H   0  0  0  0  0
   12.1295    6.1578   29.7112 H   0  0  0  0  0
   13.7228   16.4781   28.3001 H   0  0  0  0  0
   13.1007   17.9972   27.4927 H   0  0  0  0  0
   11.3732    9.3707   28.3979 H   0  0  0  0  0
   13.0280    9.3484   28.1592 H   0  0  0  0  0
   11.0140   15.6171   28.6618 H   0  0  0  0  0
   12.5088   15.2766   29.3893 H   0  0  0  0  0
   12.1176    9.9869   25.9129 H   0  0  0  0  0
   10.8701    8.8181   25.9962 H   0  0  0  0  0
   10.9017   14.9880   31.2526 H   0  0  0  0  0
    9.9805   16.3439   30.7943 H   0  0  0  0  0
   13.7711   15.4760   24.6737 H   0  0  0  0  0
   12.8728   14.5217   23.4621 H   0  0  0  0  0
   11.5441   11.0389   30.6306 H   0  0  0  0  0
   11.7913    9.5495   31.6255 H   0  0  0  0  0
   12.2533   24.8897   29.8349 H   0  0  0  0  0
   12.7711   25.8275   31.1501 H   0  0  0  0  0
   13.6353    9.3632   23.7654 H   0  0  0  0  0
   12.0330   15.4429   33.6777 H   0  0  0  0  0
   14.5957    3.1753   26.4503 H   0  0  0  0  0
   14.1820   21.5653   31.3094 H   0  0  0  0  0
   13.7783    4.2842   29.6466 H   0  0  0  0  0
   13.8991   20.1226   28.0657 H   0  0  0  0  0
   14.0947   23.6484   31.6729 H   0  0  0  0  0
   11.1283    6.9135   27.9815 H   0  0  0  0  0
   11.3422   18.0410   28.7720 H   0  0  0  0  0
   12.5817    7.5203   24.7328 H   0  0  0  0  0
   11.5034   17.3223   32.5388 H   0  0  0  0  0
   16.3886    9.8150   24.9107 H   0  0  0  0  0
   14.8807   14.4604   33.3700 H   0  0  0  0  0
   12.3021    4.4462   27.9234 H   0  0  0  0  0
   12.2118   20.4045   29.3492 H   0  0  0  0  0
  1  3  2  0  0  0
  1  4  1  0  0  0
 59  1  1  0  0  0
  4  2  1  0  0  0
  2  8  1  0  0  0
  4  5  1  0  0  0
  5  6  1  0  0  0
 33  7  1  0  0  0
 56  9  1  0  0  0
 61 10  2  0  0  0
 62 11  2  0  0  0
 63 12  2  0  0  0
 64 13  2  0  0  0
 65 14  2  0  0  0
 38 15  1  0  0  0
 39 16  1  0  0  0
 19 17  4  0  0  0
 20 17  4  0  0  0
 21 18  4  0  0  0
 22 18  4  0  0  0
 23 19  4  0  0  0
 24 20  4  0  0  0
 25 21  4  0  0  0
 26 22  4  0  0  0
 68 23  4  0  0  0
 68 24  4  0  0  0
 69 25  4  0  0  0
 69 26  4  0  0  0
 28 27  4  0  0  0
 27 66  4  0  0  0
 67 28  4  0  0  0
 30 29  4  0  0  0
 29 66  4  0  0  0
 67 30  4  0  0  0
 31 70  4  0  0  0
 85 31  4  0  0  0
 71 32  4  0  0  0
 32 86  4  0  0  0
 74 33  1  0  0  0
 34 36  1  0  0  0
 40 34  1  0  0  0
 37 35  1  0  0  0
 35 41  1  0  0  0
 36 50  1  0  0  0
 51 37  1  0  0  0
 72 38  1  0  0  0
 73 39  1  0  0  0
 66 40  1  0  0  0
 41 67  1  0  0  0
 44 42  1  0  0  0
 42 72  1  0  0  0
 43 45  1  0  0  0
 73 43  1  0  0  0
 75 44  1  0  0  0
 45 76  1  0  0  0
 48 46  1  0  0  0
 46 75  1  0  0  0
 47 49  1  0  0  0
 76 47  1  0  0  0
 77 48  1  0  0  0
 49 78  1  0  0  0
 50 85  1  0  0  0
 86 51  1  0  0  0
 54 52  4  0  0  0
 52 70  4  0  0  0
 53 55  4  0  0  0
 71 53  4  0  0  0
 85 54  4  0  0  0
 55 86  4  0  0  0
 74 56  1  0  0  0
 57 62  1  0  0  0
 79 57  1  0  0  0
 63 58  1  0  0  0
 58 80  1  0  0  0
 81 59  1  0  0  0
 60 61  1  0  0  0
 82 60  1  0  0  0
 61 74  1  0  0  0
 62 77  1  0  0  0
 78 63  1  0  0  0
 81 64  1  0  0  0
 64 83  1  0  0  0
 82 65  1  0  0  0
 65 84  1  0  0  0
 79 68  1  0  0  0
 80 69  1  0  0  0
 70 79  1  0  0  0
 80 71  1  0  0  0
 72 81  1  0  0  0
 73 82  1  0  0  0
 75 83  1  0  0  0
 76 84  1  0  0  0
 77 83  1  0  0  0
 78 84  1  0  0  0
  2 87  1  0  0  0
  2 88  1  0  0  0
  4 89  1  0  0  0
  5 90  1  0  0  0
  5 91  1  0  0  0
  6 92  1  0  0  0
  6 93  1  0  0  0
  6 94  1  0  0  0
  7 95  1  0  0  0
  7 96  1  0  0  0
  7 97  1  0  0  0
  8 98  1  0  0  0
  8 99  1  0  0  0
  8100  1  0  0  0
  9101  1  0  0  0
  9102  1  0  0  0
  9103  1  0  0  0
 15104  1  0  0  0
 16105  1  0  0  0
 17106  1  0  0  0
 18107  1  0  0  0
 19108  1  0  0  0
 20109  1  0  0  0
 21110  1  0  0  0
 22111  1  0  0  0
 23112  1  0  0  0
 24113  1  0  0  0
 25114  1  0  0  0
 26115  1  0  0  0
 27116  1  0  0  0
 28117  1  0  0  0
 29118  1  0  0  0
 30119  1  0  0  0
 31120  1  0  0  0
 32121  1  0  0  0
 33122  1  0  0  0
 33123  1  0  0  0
 34124  1  0  0  0
 34125  1  0  0  0
 35126  1  0  0  0
 35127  1  0  0  0
 36128  1  0  0  0
 36129  1  0  0  0
 37130  1  0  0  0
 37131  1  0  0  0
 38132  1  0  0  0
 38133  1  0  0  0
 39134  1  0  0  0
 39135  1  0  0  0
 40136  1  0  0  0
 40137  1  0  0  0
 41138  1  0  0  0
 41139  1  0  0  0
 42140  1  0  0  0
 42141  1  0  0  0
 43142  1  0  0  0
 43143  1  0  0  0
 44144  1  0  0  0
 44145  1  0  0  0
 45146  1  0  0  0
 45147  1  0  0  0
 46148  1  0  0  0
 46149  1  0  0  0
 47150  1  0  0  0
 47151  1  0  0  0
 48152  1  0  0  0
 48153  1  0  0  0
 49154  1  0  0  0
 49155  1  0  0  0
 50156  1  0  0  0
 50157  1  0  0  0
 51158  1  0  0  0
 51159  1  0  0  0
 56160  1  0  0  0
 56161  1  0  0  0
 57162  1  0  0  0
 58163  1  0  0  0
 59164  1  0  0  0
 60165  1  0  0  0
 72166  1  0  0  0
 73167  1  0  0  0
 74168  1  0  0  0
 75169  1  0  0  0
 76170  1  0  0  0
 77171  1  0  0  0
 78172  1  0  0  0
 79173  1  0  0  0
 80174  1  0  0  0
 81175  1  0  0  0
 82176  1  0  0  0
M  END
$$$$
