### 
### Created by X-TOOL on Mon Sep 10 21:13:11 2018
### 

@<TRIPOS>MOLECULE
4ec4_ligand
  176   184     1     0     0
SMALL
GAST_HUCK


@<TRIPOS>ATOM
      1 C          12.9570    2.1640   27.1080 C.2       1 0O6         0.2268
      2 N          12.9410   -0.2890   27.1290 N.4       1 0O6         0.2439
      3 O          11.9180    2.1400   27.7710 O.2       1 0O6        -0.3907
      4 CA         13.4990    0.8820   26.4390 C.3       1 0O6         0.0663
      5 CB         13.2370    0.7470   24.9190 C.3       1 0O6         0.0051
      6 CAA        12.2170    1.7110   24.3280 C.3       1 0O6        -0.0580
      7 CAB        11.6520   22.7180   33.2160 C.3       1 0O6        -0.0580
      8 CAC        13.8980   -0.7100   28.1690 C.3       1 0O6        -0.0428
      9 CAD        14.2410   25.3290   29.8330 C.3       1 0O6        -0.0428
     10 OAF        11.5910   22.6450   29.8640 O.2       1 0O6        -0.3907
     11 OAG        15.0460    8.4940   26.4470 O.2       1 0O6        -0.3942
     12 OAH        14.1900   16.0420   31.4470 O.2       1 0O6        -0.3942
     13 OAI        13.9220    5.4240   25.4530 O.2       1 0O6        -0.3942
     14 OAJ        12.8090   19.4070   32.2390 O.2       1 0O6        -0.3942
     15 OAK        16.3410    4.0990   29.7860 O.3       1 0O6        -0.3945
     16 OAL        16.5570   20.1760   28.4110 O.3       1 0O6        -0.3945
     17 CAM        17.2770    9.7410   20.2940 C.ar      1 0O6        -0.0687
     18 CAN        14.1640   15.0420   38.0550 C.ar      1 0O6        -0.0687
     19 CAO        16.9330    8.6170   21.0340 C.ar      1 0O6        -0.0684
     20 CAP        17.0730   11.0110   20.8310 C.ar      1 0O6        -0.0684
     21 CAQ        14.5720   16.0170   37.1460 C.ar      1 0O6        -0.0684
     22 CAR        13.6610   13.8270   37.5920 C.ar      1 0O6        -0.0684
     23 CAS        16.3900    8.7590   22.3130 C.ar      1 0O6        -0.0569
     24 CAT        16.5290   11.1490   22.1070 C.ar      1 0O6        -0.0569
     25 CAU        14.4830   15.7870   35.7700 C.ar      1 0O6        -0.0569
     26 CAV        13.5640   13.6020   36.2200 C.ar      1 0O6        -0.0569
     27 CAW         8.8920   13.9900   27.7480 C.ar      1 0O6        -0.0668
     28 CAX         8.5650   13.3680   28.9470 C.ar      1 0O6        -0.0668
     29 CAY         9.1880   11.8300   26.7020 C.ar      1 0O6        -0.0668
     30 CAZ         8.8580   11.2060   27.9020 C.ar      1 0O6        -0.0668
     31 CBA        14.0960   12.2310   24.0880 C.2       1 0O6         0.0740
     32 CBB        12.5370   12.6570   32.4460 C.2       1 0O6         0.0740
     33 CBD        12.1970   24.0240   32.6230 C.3       1 0O6         0.0051
     34 CBE        10.9590   13.5600   24.8300 C.3       1 0O6        -0.0414
     35 CBF         9.2470   11.7850   31.3780 C.3       1 0O6        -0.0414
     36 CBG        12.0700   14.4100   25.4600 C.3       1 0O6        -0.0208
     37 CBH         9.9750   10.6110   32.0230 C.3       1 0O6        -0.0208
     38 CBI        15.6490    4.4050   28.5620 C.3       1 0O6         0.0512
     39 CBJ        15.5670   20.5420   29.3690 C.3       1 0O6         0.0512
     40 CBK         9.5610   13.9470   25.3330 C.3       1 0O6        -0.0222
     41 CBL         8.2100   11.3210   30.3450 C.3       1 0O6        -0.0222
     42 CBM        14.1780    6.3380   29.1560 C.3       1 0O6        -0.0418
     43 CBN        14.5040   18.3040   29.0610 C.3       1 0O6        -0.0418
     44 CBO        12.7650    6.9330   29.2830 C.3       1 0O6        -0.0289
     45 CBP        13.3650   17.5000   28.4260 C.3       1 0O6        -0.0289
     46 CBQ        12.1240    8.8610   27.7940 C.3       1 0O6        -0.0253
     47 CBR        11.6720   15.9720   29.4550 C.3       1 0O6        -0.0253
     48 CBS        11.9080    8.9840   26.2850 C.3       1 0O6        -0.0101
     49 CBT        11.0090   15.9840   30.8230 C.3       1 0O6        -0.0101
     50 CBU        13.2490   14.5380   24.4850 C.3       1 0O6         0.0757
     51 CBV        11.4540   10.5860   31.6180 C.3       1 0O6         0.0757
     52 NBW        15.7850   12.4130   25.4000 N.2       1 0O6        -0.2219
     53 NBX        13.5280   11.8000   34.1100 N.2       1 0O6        -0.2219
     54 NBY        15.1600   13.4780   25.4180 N.2       1 0O6        -0.1014
     55 NBZ        12.9040   10.9000   33.5380 N.2       1 0O6        -0.1014
     56 NCB        12.9780   25.0390   30.5370 N.4       1 0O6         0.2439
     57 NCC        14.3680    9.3540   24.4750 N.am      1 0O6        -0.2629
     58 NCD        12.9260   15.3180   33.2010 N.am      1 0O6        -0.2629
     59 NCE        13.7240    3.2400   26.9760 N.am      1 0O6        -0.2607
     60 NCF        13.3640   21.5170   30.7020 N.am      1 0O6        -0.2607
     61 CCH        12.5970   22.5970   30.5710 C.2       1 0O6         0.2268
     62 CCI        14.2030    8.6160   25.5670 C.2       1 0O6         0.2053
     63 CCJ        13.1440   16.0480   32.0960 C.2       1 0O6         0.2053
     64 CCK        13.3820    5.6520   26.5320 C.2       1 0O6         0.2070
     65 CCL        12.7130   19.1570   31.0320 C.2       1 0O6         0.2070
     66 CCM         9.2060   13.2240   26.6330 C.ar      1 0O6        -0.0497
     67 CCN         8.5460   11.9790   29.0200 C.ar      1 0O6        -0.0497
     68 CCO        16.1760   10.0220   22.8530 C.ar      1 0O6        -0.0103
     69 CCP        13.9750   14.5770   35.3000 C.ar      1 0O6        -0.0103
     70 CCQ        15.1550   11.5970   24.5720 C.2       1 0O6         0.0734
     71 CCR        13.3320   12.9370   33.4570 C.2       1 0O6         0.0734
     72 CCS        14.1990    4.8390   28.8080 C.3       1 0O6         0.0226
     73 CCT        14.2430   19.8240   29.0560 C.3       1 0O6         0.0226
     74 CCV        13.0620   23.8230   31.3710 C.3       1 0O6         0.0663
     75 CCW        12.1250    7.3530   27.9420 C.3       1 0O6         0.0481
     76 CCX        12.0880   17.4330   29.2840 C.3       1 0O6         0.0481
     77 CCY        12.8530    7.9340   25.7040 C.3       1 0O6         0.1342
     78 CCZ        11.9360   16.8890   31.6370 C.3       1 0O6         0.1342
     79 CDA        15.5810   10.1580   24.2640 C.3       1 0O6         0.1096
     80 CDB        13.8780   14.3470   33.7820 C.3       1 0O6         0.1096
     81 CDC        13.3330    4.5240   27.5780 C.3       1 0O6         0.1362
     82 CDD        13.0730   20.2530   30.0000 C.3       1 0O6         0.1362
     83 NDE        12.8620    6.8730   26.7410 N.am      1 0O6        -0.2468
     84 NDF        12.3080   17.9320   30.6610 N.am      1 0O6        -0.2468
     85 NDG        14.1790   13.4200   24.6760 N.pl3     1 0O6        -0.1805
     86 NDH        12.3040   11.3570   32.5610 N.pl3     1 0O6        -0.1805
     87 H          12.7886   -1.0479   26.4647 H         1 0O6         0.2032
     88 H          12.0441   -0.0519   27.5530 H         1 0O6         0.2032
     89 H          14.5829    0.9471   26.5340 H         1 0O6         0.1099
     90 H          12.8354   -0.2547   24.7658 H         1 0O6         0.0343
     91 H          14.1842    0.9636   24.4251 H         1 0O6         0.0343
     92 H          11.2536    1.5626   24.8157 H         1 0O6         0.0233
     93 H          12.5524    2.7357   24.4876 H         1 0O6         0.0233
     94 H          12.1175    1.5223   23.2591 H         1 0O6         0.0233
     95 H          11.0345   22.2130   32.4732 H         1 0O6         0.0233
     96 H          12.4844   22.0730   33.4974 H         1 0O6         0.0233
     97 H          11.0513   22.9434   34.0972 H         1 0O6         0.0233
     98 H          14.8493   -0.9670   27.7030 H         1 0O6         0.0777
     99 H          14.0470    0.1063   28.8758 H         1 0O6         0.0777
    100 H          13.5026   -1.5794   28.6942 H         1 0O6         0.0777
    101 H          15.0369   25.4762   30.5631 H         1 0O6         0.0777
    102 H          14.4933   24.4917   29.1824 H         1 0O6         0.0777
    103 H          14.1230   26.2327   29.2351 H         1 0O6         0.0777
    104 H          17.2413    3.8331   29.5854 H         1 0O6         0.2094
    105 H          17.3793   20.6281   28.6136 H         1 0O6         0.2094
    106 H          17.7047    9.6304   19.2975 H         1 0O6         0.0559
    107 H          14.2382   15.2293   39.1262 H         1 0O6         0.0559
    108 H          17.0871    7.6223   20.6158 H         1 0O6         0.0599
    109 H          17.3388   11.8962   20.2532 H         1 0O6         0.0599
    110 H          14.9636   16.9664   37.5111 H         1 0O6         0.0599
    111 H          13.3459   13.0586   38.2979 H         1 0O6         0.0599
    112 H          16.1320    7.8725   22.8923 H         1 0O6         0.0559
    113 H          16.3779   12.1439   22.5258 H         1 0O6         0.0559
    114 H          14.8102   16.5522   35.0661 H         1 0O6         0.0559
    115 H          13.1633   12.6554   35.8573 H         1 0O6         0.0559
    116 H           8.9020   15.0780   27.6828 H         1 0O6         0.0540
    117 H           8.3245   13.9658   29.8261 H         1 0O6         0.0540
    118 H           9.4307   11.2340   25.8223 H         1 0O6         0.0540
    119 H           8.8436   10.1181   27.9674 H         1 0O6         0.0540
    120 H          13.3461   11.8684   23.3849 H         1 0O6         0.0907
    121 H          12.1564   13.3395   31.6862 H         1 0O6         0.0907
    122 H          12.8271   24.4874   33.3822 H         1 0O6         0.0343
    123 H          11.3399   24.6311   32.3316 H         1 0O6         0.0343
    124 H          11.1373   12.5199   25.1030 H         1 0O6         0.0287
    125 H          10.9839   13.7214   23.7523 H         1 0O6         0.0287
    126 H           9.9842   12.4040   30.8667 H         1 0O6         0.0287
    127 H           8.7254   12.3348   32.1615 H         1 0O6         0.0287
    128 H          12.4129   13.9302   26.3767 H         1 0O6         0.0296
    129 H          11.6794   15.4029   25.6831 H         1 0O6         0.0296
    130 H           9.5069    9.6851   31.6888 H         1 0O6         0.0296
    131 H           9.9124   10.7153   33.1062 H         1 0O6         0.0296
    132 H          15.6336    3.5049   27.9475 H         1 0O6         0.0562
    133 H          16.1710    5.2284   28.0745 H         1 0O6         0.0562
    134 H          15.4093   21.6198   29.3285 H         1 0O6         0.0562
    135 H          15.9058   20.2529   30.3638 H         1 0O6         0.0562
    136 H           8.8326   13.6639   24.5732 H         1 0O6         0.0413
    137 H           9.5499   15.0202   25.5234 H         1 0O6         0.0413
    138 H           7.2067   11.6040   30.6636 H         1 0O6         0.0413
    139 H           8.2357   10.2359   30.2451 H         1 0O6         0.0413
    140 H          14.6641    6.4511   30.1250 H         1 0O6         0.0272
    141 H          14.6782    6.8649   28.3435 H         1 0O6         0.0272
    142 H          15.4063   18.1197   28.4779 H         1 0O6         0.0272
    143 H          14.5966   17.9860   30.0995 H         1 0O6         0.0272
    144 H          12.8512    7.8333   29.8915 H         1 0O6         0.0288
    145 H          12.1295    6.1578   29.7112 H         1 0O6         0.0288
    146 H          13.7228   16.4781   28.3001 H         1 0O6         0.0288
    147 H          13.1007   17.9972   27.4927 H         1 0O6         0.0288
    148 H          11.3732    9.3707   28.3979 H         1 0O6         0.0290
    149 H          13.0280    9.3484   28.1592 H         1 0O6         0.0290
    150 H          11.0140   15.6171   28.6618 H         1 0O6         0.0290
    151 H          12.5088   15.2766   29.3893 H         1 0O6         0.0290
    152 H          12.1176    9.9869   25.9129 H         1 0O6         0.0313
    153 H          10.8701    8.8181   25.9962 H         1 0O6         0.0313
    154 H          10.9017   14.9880   31.2526 H         1 0O6         0.0313
    155 H           9.9805   16.3439   30.7943 H         1 0O6         0.0313
    156 H          13.7711   15.4760   24.6737 H         1 0O6         0.0648
    157 H          12.8728   14.5217   23.4621 H         1 0O6         0.0648
    158 H          11.5441   11.0389   30.6306 H         1 0O6         0.0648
    159 H          11.7913    9.5495   31.6255 H         1 0O6         0.0648
    160 H          12.2533   24.8897   29.8349 H         1 0O6         0.2032
    161 H          12.7711   25.8275   31.1501 H         1 0O6         0.2032
    162 H          13.6353    9.3632   23.7654 H         1 0O6         0.1901
    163 H          12.0330   15.4429   33.6777 H         1 0O6         0.1901
    164 H          14.5957    3.1753   26.4503 H         1 0O6         0.1885
    165 H          14.1820   21.5653   31.3094 H         1 0O6         0.1885
    166 H          13.7783    4.2842   29.6466 H         1 0O6         0.0370
    167 H          13.8991   20.1226   28.0657 H         1 0O6         0.0370
    168 H          14.0947   23.6484   31.6729 H         1 0O6         0.1099
    169 H          11.1283    6.9135   27.9815 H         1 0O6         0.0560
    170 H          11.3422   18.0410   28.7720 H         1 0O6         0.0560
    171 H          12.5817    7.5203   24.7328 H         1 0O6         0.0802
    172 H          11.5034   17.3223   32.5388 H         1 0O6         0.0802
    173 H          16.3886    9.8150   24.9107 H         1 0O6         0.0834
    174 H          14.8807   14.4604   33.3700 H         1 0O6         0.0834
    175 H          12.3021    4.4462   27.9234 H         1 0O6         0.0803
    176 H          12.2118   20.4045   29.3492 H         1 0O6         0.0803
@<TRIPOS>BOND
     1    1    3 2  
     2    1    4 1  
     3   59    1 am 
     4    4    2 1  
     5    2    8 1  
     6    4    5 1  
     7    5    6 1  
     8   33    7 1  
     9   56    9 1  
    10   61   10 2  
    11   62   11 2  
    12   63   12 2  
    13   64   13 2  
    14   65   14 2  
    15   38   15 1  
    16   39   16 1  
    17   19   17 ar 
    18   20   17 ar 
    19   21   18 ar 
    20   22   18 ar 
    21   23   19 ar 
    22   24   20 ar 
    23   25   21 ar 
    24   26   22 ar 
    25   68   23 ar 
    26   68   24 ar 
    27   69   25 ar 
    28   69   26 ar 
    29   28   27 ar 
    30   27   66 ar 
    31   67   28 ar 
    32   30   29 ar 
    33   29   66 ar 
    34   67   30 ar 
    35   31   70 2  
    36   85   31 1  
    37   71   32 2  
    38   32   86 1  
    39   74   33 1  
    40   34   36 1  
    41   40   34 1  
    42   37   35 1  
    43   35   41 1  
    44   36   50 1  
    45   51   37 1  
    46   72   38 1  
    47   73   39 1  
    48   66   40 1  
    49   41   67 1  
    50   44   42 1  
    51   42   72 1  
    52   43   45 1  
    53   73   43 1  
    54   75   44 1  
    55   45   76 1  
    56   48   46 1  
    57   46   75 1  
    58   47   49 1  
    59   76   47 1  
    60   77   48 1  
    61   49   78 1  
    62   50   85 1  
    63   86   51 1  
    64   54   52 2  
    65   52   70 1  
    66   53   55 2  
    67   71   53 1  
    68   85   54 1  
    69   55   86 1  
    70   74   56 1  
    71   57   62 am 
    72   79   57 1  
    73   63   58 am 
    74   58   80 1  
    75   81   59 1  
    76   60   61 am 
    77   82   60 1  
    78   61   74 1  
    79   62   77 1  
    80   78   63 1  
    81   81   64 1  
    82   64   83 am 
    83   82   65 1  
    84   65   84 am 
    85   79   68 1  
    86   80   69 1  
    87   70   79 1  
    88   80   71 1  
    89   72   81 1  
    90   73   82 1  
    91   75   83 1  
    92   76   84 1  
    93   77   83 1  
    94   78   84 1  
    95    2   87 1  
    96    2   88 1  
    97    4   89 1  
    98    5   90 1  
    99    5   91 1  
   100    6   92 1  
   101    6   93 1  
   102    6   94 1  
   103    7   95 1  
   104    7   96 1  
   105    7   97 1  
   106    8   98 1  
   107    8   99 1  
   108    8  100 1  
   109    9  101 1  
   110    9  102 1  
   111    9  103 1  
   112   15  104 1  
   113   16  105 1  
   114   17  106 1  
   115   18  107 1  
   116   19  108 1  
   117   20  109 1  
   118   21  110 1  
   119   22  111 1  
   120   23  112 1  
   121   24  113 1  
   122   25  114 1  
   123   26  115 1  
   124   27  116 1  
   125   28  117 1  
   126   29  118 1  
   127   30  119 1  
   128   31  120 1  
   129   32  121 1  
   130   33  122 1  
   131   33  123 1  
   132   34  124 1  
   133   34  125 1  
   134   35  126 1  
   135   35  127 1  
   136   36  128 1  
   137   36  129 1  
   138   37  130 1  
   139   37  131 1  
   140   38  132 1  
   141   38  133 1  
   142   39  134 1  
   143   39  135 1  
   144   40  136 1  
   145   40  137 1  
   146   41  138 1  
   147   41  139 1  
   148   42  140 1  
   149   42  141 1  
   150   43  142 1  
   151   43  143 1  
   152   44  144 1  
   153   44  145 1  
   154   45  146 1  
   155   45  147 1  
   156   46  148 1  
   157   46  149 1  
   158   47  150 1  
   159   47  151 1  
   160   48  152 1  
   161   48  153 1  
   162   49  154 1  
   163   49  155 1  
   164   50  156 1  
   165   50  157 1  
   166   51  158 1  
   167   51  159 1  
   168   56  160 1  
   169   56  161 1  
   170   57  162 1  
   171   58  163 1  
   172   59  164 1  
   173   60  165 1  
   174   72  166 1  
   175   73  167 1  
   176   74  168 1  
   177   75  169 1  
   178   76  170 1  
   179   77  171 1  
   180   78  172 1  
   181   79  173 1  
   182   80  174 1  
   183   81  175 1  
   184   82  176 1  
@<TRIPOS>SUBSTRUCTURE
     1 0O6         1

