5hi7_ligand
  -I-interpret- 

 67 69  0  0  0  0  0  0  0  0999 V2000
   12.9090  -10.5470  -17.4610 C   0  0  0  0  0
   12.9290  -11.2320  -18.8120 C   0  0  0  0  0
   12.3560  -12.6530  -18.8520 C   0  0  0  0  0
   11.4290  -12.7630  -21.1410 C   0  0  0  0  0
   10.4710  -15.0440  -21.9110 C   0  0  0  0  0
   13.7910  -13.3490  -20.7230 C   0  0  0  0  0
   15.6330  -14.6380  -21.8720 C   0  0  0  0  0
   14.3870  -12.4000  -24.4340 C   0  0  0  0  0
   15.3380  -12.3660  -26.3470 C   0  0  0  0  0
   13.1780   -8.6950  -16.0010 C   0  0  0  0  0
   13.0390   -9.1090  -17.4010 N   0  3  0  0  0
   14.2220   -8.6680  -18.1620 C   0  0  0  0  0
   12.4160  -13.2740  -20.1610 N   0  3  0  0  0
   10.2100  -13.6070  -21.4340 C   0  0  0  0  0
   10.3790  -15.0990  -23.3250 N   0  3  0  0  0
    9.4540  -16.0150  -21.2940 C   0  0  0  0  0
    8.9090  -16.8920  -22.0190 O   0  0  0  0  0
    9.1640  -15.9490  -20.0610 O   0  0  0  0  0
   14.1350  -14.5550  -21.5970 C   0  0  0  0  0
   13.4910  -14.4540  -22.8580 O   0  0  0  0  0
   14.3720  -14.8600  -23.8920 C   0  0  0  0  0
   15.6460  -15.3690  -23.2150 C   0  0  0  0  0
   15.5550  -16.7540  -23.0170 O   0  0  0  0  0
   16.2870  -15.3790  -20.8670 O   0  0  0  0  0
   14.6660  -13.7120  -24.7160 N   0  0  0  0  0
   14.7760  -11.5480  -25.3930 N   0  0  0  0  0
   15.9410  -12.1070  -27.6130 C   0  0  0  0  0
   16.0390  -10.8570  -28.0740 N   0  0  0  0  0
   16.4080  -13.1600  -28.3250 N   0  0  0  0  0
   16.2840  -14.4060  -27.8140 C   0  0  0  0  0
   15.7420  -14.7810  -26.6480 N   0  0  0  0  0
   15.2800  -13.7000  -25.9500 C   0  0  0  0  0
   13.7865  -10.9297  -16.9397 H   0  0  0  0  0
   11.9191  -10.7561  -17.0554 H   0  0  0  0  0
   13.9776  -11.3162  -19.0975 H   0  0  0  0  0
   12.3023  -10.6302  -19.4701 H   0  0  0  0  0
   11.3045  -12.5866  -18.5726 H   0  0  0  0  0
   12.9549  -13.2632  -18.1759 H   0  0  0  0  0
   11.9686  -12.6999  -22.0859 H   0  0  0  0  0
   11.0425  -11.8415  -20.7056 H   0  0  0  0  0
   11.4712  -15.3385  -21.5934 H   0  0  0  0  0
   14.4557  -13.4134  -19.8615 H   0  0  0  0  0
   13.8887  -12.4796  -21.3732 H   0  0  0  0  0
   16.1485  -13.6777  -21.8872 H   0  0  0  0  0
   13.8948  -12.0794  -23.5158 H   0  0  0  0  0
   14.0740   -9.1480  -15.5767 H   0  0  0  0  0
   13.2597   -7.6092  -15.9509 H   0  0  0  0  0
   12.3032   -9.0211  -15.4384 H   0  0  0  0  0
   12.2073   -8.6829  -17.8099 H   0  0  0  0  0
   14.3024   -7.5823  -18.1092 H   0  0  0  0  0
   15.1167   -9.1210  -17.7350 H   0  0  0  0  0
   14.1185   -8.9758  -19.2025 H   0  0  0  0  0
   12.1273  -14.2353  -19.9794 H   0  0  0  0  0
    9.6861  -13.1084  -22.2494 H   0  0  0  0  0
    9.6696  -13.6949  -20.4915 H   0  0  0  0  0
   10.5526  -16.0538  -23.6389 H   0  0  0  0  0
    9.4452  -14.8089  -23.6153 H   0  0  0  0  0
   11.0732  -14.4737  -23.7343 H   0  0  0  0  0
    9.6598  -15.2344  -19.6546 H   0  0  0  0  0
   13.8023  -15.4385  -21.0522 H   0  0  0  0  0
   13.9395  -15.6404  -24.5181 H   0  0  0  0  0
   16.5532  -15.1917  -23.7926 H   0  0  0  0  0
   15.5643  -17.1990  -23.8676 H   0  0  0  0  0
   17.2266  -15.4182  -21.0601 H   0  0  0  0  0
   15.6811  -10.0794  -27.5194 H   0  0  0  0  0
   16.4717  -10.6802  -28.9806 H   0  0  0  0  0
   16.6774  -15.2121  -28.4333 H   0  0  0  0  0
  2  1  1  0  0  0
  1 11  1  0  0  0
  3  2  1  0  0  0
 13  3  1  0  0  0
 13  4  1  0  0  0
  4 14  1  0  0  0
 14  5  1  0  0  0
  5 15  1  0  0  0
  5 16  1  0  0  0
  6 13  1  0  0  0
 19  6  1  0  0  0
  7 19  1  0  0  0
 22  7  1  0  0  0
  7 24  1  0  0  0
 25  8  4  0  0  0
  8 26  4  0  0  0
 26  9  4  0  0  0
  9 27  4  0  0  0
  9 32  4  0  0  0
 11 10  1  0  0  0
 11 12  1  0  0  0
 16 17  2  0  0  0
 16 18  1  0  0  0
 20 19  1  0  0  0
 21 20  1  0  0  0
 21 22  1  0  0  0
 21 25  1  0  0  0
 22 23  1  0  0  0
 25 32  4  0  0  0
 27 28  1  0  0  0
 27 29  4  0  0  0
 29 30  4  0  0  0
 30 31  4  0  0  0
 31 32  4  0  0  0
  1 33  1  0  0  0
  1 34  1  0  0  0
  2 35  1  0  0  0
  2 36  1  0  0  0
  3 37  1  0  0  0
  3 38  1  0  0  0
  4 39  1  0  0  0
  4 40  1  0  0  0
  5 41  1  0  0  0
  6 42  1  0  0  0
  6 43  1  0  0  0
  7 44  1  0  0  0
  8 45  1  0  0  0
 10 46  1  0  0  0
 10 47  1  0  0  0
 10 48  1  0  0  0
 11 49  1  0  0  0
 12 50  1  0  0  0
 12 51  1  0  0  0
 12 52  1  0  0  0
 13 53  1  0  0  0
 14 54  1  0  0  0
 14 55  1  0  0  0
 15 56  1  0  0  0
 15 57  1  0  0  0
 15 58  1  0  0  0
 18 59  1  0  0  0
 19 60  1  0  0  0
 21 61  1  0  0  0
 22 62  1  0  0  0
 23 63  1  0  0  0
 24 64  1  0  0  0
 28 65  1  0  0  0
 28 66  1  0  0  0
 30 67  1  0  0  0
M  END
$$$$
