3qrj_ligand
  -I-interpret- 

 69 73  0  0  0  0  0  0  0  0999 V2000
    5.4690   -7.3460   27.0400 C   0  0  0  0  0
    4.9360   -6.0800   26.7090 C   0  0  0  0  0
    4.6860   -5.0810   27.6660 C   0  0  0  0  0
    4.9600   -5.3190   29.0050 C   0  0  0  0  0
    5.4910   -6.5580   29.3750 C   0  0  0  0  0
    5.7320   -7.5240   28.4090 C   0  0  0  0  0
    5.0050   -4.6220   31.2460 C   0  0  0  0  0
    4.7450   -4.3740   29.9440 N   0  0  0  0  0
    5.7850   -6.8370   30.7080 C   0  0  0  0  0
    5.5390   -5.8460   31.6560 C   0  0  0  0  0
    2.8770  -19.7360   28.7390 C   0  0  0  0  0
    3.4360  -20.7000   29.5090 N   0  0  0  0  0
    3.9380  -20.3760   30.7400 C   0  0  0  0  0
    3.8410  -19.0690   31.2310 C   0  0  0  0  0
    3.2610  -18.0690   30.4510 C   0  0  0  0  0
    2.7630  -18.4280   29.2060 C   0  0  0  0  0
    4.3690  -14.3040   28.5680 C   0  0  0  0  0
    4.2140  -15.5140   29.2210 C   0  0  0  0  0
    3.3330  -15.6180   30.2950 C   0  0  0  0  0
    2.6190  -14.5080   30.6880 C   0  0  0  0  0
    2.7920  -13.2940   30.0380 C   0  0  0  0  0
    3.6740  -13.1610   28.9860 C   0  0  0  0  0
    6.4270   -9.2380   24.3250 C   0  0  0  0  0
    5.8040  -10.2410   25.0040 C   0  0  0  0  0
    5.4000   -9.6530   26.2090 C   0  0  0  0  0
    5.6990   -8.3290   26.1210 N   0  0  0  0  0
    6.3590   -8.0120   24.9090 N   0  0  0  0  0
    4.7230  -10.1840   27.2680 N   0  0  0  0  0
    4.6980  -11.5070   27.5410 C   0  0  0  0  0
    3.7730  -11.9090   28.4380 N   0  0  0  0  0
    5.4580  -12.2850   26.9640 O   0  0  0  0  0
    3.1430  -16.7870   30.9700 O   0  0  0  0  0
    2.1010  -12.2120   30.4320 F   0  0  0  0  0
    4.6000  -21.4230   31.5840 C   0  0  0  0  0
    5.3880  -21.0560   32.4670 O   0  0  0  0  0
    4.2490  -22.6860   31.3570 N   0  0  0  0  0
    4.5330  -23.7820   32.2710 C   0  0  0  0  0
    7.0110   -9.4650   22.9390 C   0  0  0  0  0
    6.0210  -10.1310   22.0050 C   0  0  0  0  0
    8.2040  -10.4110   23.0150 C   0  0  0  0  0
    7.1980   -8.1070   22.3070 C   0  0  0  0  0
    4.7083   -5.8683   25.6643 H   0  0  0  0  0
    4.2769   -4.1194   27.3560 H   0  0  0  0  0
    6.1502   -8.4777   28.7309 H   0  0  0  0  0
    4.7945   -3.8536   31.9899 H   0  0  0  0  0
    6.1958   -7.8032   31.0009 H   0  0  0  0  0
    5.7612   -6.0242   32.7081 H   0  0  0  0  0
    2.5122  -19.9862   27.7428 H   0  0  0  0  0
    4.2196  -18.8322   32.2253 H   0  0  0  0  0
    2.2759  -17.6762   28.5849 H   0  0  0  0  0
    5.0431  -14.2387   27.7140 H   0  0  0  0  0
    4.7813  -16.3858   28.8950 H   0  0  0  0  0
    1.9132  -14.5833   31.5152 H   0  0  0  0  0
    5.6535  -11.2713   24.6815 H   0  0  0  0  0
    4.2111   -9.5517   27.8832 H   0  0  0  0  0
    3.0846  -11.2175   28.7352 H   0  0  0  0  0
    3.7519  -22.8984   30.4920 H   0  0  0  0  0
    5.6108  -23.8686   32.4087 H   0  0  0  0  0
    4.0574  -23.5848   33.2317 H   0  0  0  0  0
    4.1428  -24.7108   31.8549 H   0  0  0  0  0
    5.7315  -11.0987   22.4146 H   0  0  0  0  0
    5.1385   -9.4995   21.9028 H   0  0  0  0  0
    6.4834  -10.2722   21.0281 H   0  0  0  0  0
    8.9700   -9.9768   23.6575 H   0  0  0  0  0
    7.8820  -11.3675   23.4268 H   0  0  0  0  0
    8.6100  -10.5628   22.0149 H   0  0  0  0  0
    6.2339   -7.6029   22.2401 H   0  0  0  0  0
    7.8780   -7.5137   22.9183 H   0  0  0  0  0
    7.6167   -8.2272   21.3078 H   0  0  0  0  0
  1  2  4  0  0  0
  1  6  4  0  0  0
 26  1  1  0  0  0
  2  3  4  0  0  0
  3  4  4  0  0  0
  5  4  4  0  0  0
  4  8  4  0  0  0
  6  5  4  0  0  0
  5  9  4  0  0  0
  8  7  4  0  0  0
 10  7  4  0  0  0
  9 10  4  0  0  0
 11 12  4  0  0  0
 16 11  4  0  0  0
 13 12  4  0  0  0
 14 13  4  0  0  0
 13 34  1  0  0  0
 15 14  4  0  0  0
 15 16  4  0  0  0
 32 15  1  0  0  0
 17 18  4  0  0  0
 22 17  4  0  0  0
 18 19  4  0  0  0
 20 19  4  0  0  0
 19 32  1  0  0  0
 21 20  4  0  0  0
 22 21  4  0  0  0
 21 33  1  0  0  0
 30 22  1  0  0  0
 24 23  4  0  0  0
 27 23  4  0  0  0
 23 38  1  0  0  0
 25 24  4  0  0  0
 25 26  4  0  0  0
 28 25  1  0  0  0
 26 27  4  0  0  0
 29 28  1  0  0  0
 29 30  1  0  0  0
 29 31  2  0  0  0
 34 35  2  0  0  0
 34 36  1  0  0  0
 36 37  1  0  0  0
 38 39  1  0  0  0
 38 40  1  0  0  0
 38 41  1  0  0  0
  2 42  1  0  0  0
  3 43  1  0  0  0
  6 44  1  0  0  0
  7 45  1  0  0  0
  9 46  1  0  0  0
 10 47  1  0  0  0
 11 48  1  0  0  0
 14 49  1  0  0  0
 16 50  1  0  0  0
 17 51  1  0  0  0
 18 52  1  0  0  0
 20 53  1  0  0  0
 24 54  1  0  0  0
 28 55  1  0  0  0
 30 56  1  0  0  0
 36 57  1  0  0  0
 37 58  1  0  0  0
 37 59  1  0  0  0
 37 60  1  0  0  0
 39 61  1  0  0  0
 39 62  1  0  0  0
 39 63  1  0  0  0
 40 64  1  0  0  0
 40 65  1  0  0  0
 40 66  1  0  0  0
 41 67  1  0  0  0
 41 68  1  0  0  0
 41 69  1  0  0  0
M  END
$$$$
