5k5c_ligand
  -I-interpret- 

 31 31  0  0  0  0  0  0  0  0999 V2000
  173.8820   98.4450   39.1580 C   0  0  0  0  0
  173.6850   99.9280   39.3130 C   0  0  0  0  0
  172.4740  100.3060   40.1650 C   0  0  0  0  0
  171.2440   99.4710   39.9120 C   0  0  0  0  0
  172.1430  101.7140   39.9800 N   0  3  0  0  0
  173.1480  102.4650   40.6760 C   0  0  0  0  0
  172.6560  103.8940   41.0080 C   0  0  0  0  0
  171.3540  103.8730   42.2720 S   0  0  0  0  0
  170.2250  104.7640   41.7760 O   0  0  0  0  0
  170.6440  102.5440   42.4080 O   0  0  0  0  0
  171.8750  104.3730   43.6040 O   0  0  0  0  0
  171.5210   97.9810   39.8580 C   0  0  0  0  0
  172.9640   97.6300   40.0500 C   0  0  0  0  0
  174.9096   98.2148   39.4394 H   0  0  0  0  0
  173.6566   98.1859   38.1235 H   0  0  0  0  0
  173.5216  100.3392   38.3168 H   0  0  0  0  0
  174.5694  100.3219   39.8138 H   0  0  0  0  0
  172.7759  100.1074   41.1934 H   0  0  0  0  0
  170.8445   99.7642   38.9412 H   0  0  0  0  0
  170.5554   99.6453   40.7388 H   0  0  0  0  0
  171.2138  101.9214   40.3461 H   0  0  0  0  0
  172.1261  101.9576   38.9897 H   0  0  0  0  0
  174.0277  102.5415   40.0369 H   0  0  0  0  0
  173.3784  101.9525   41.6100 H   0  0  0  0  0
  172.2482  104.3382   40.1000 H   0  0  0  0  0
  173.4992  104.4690   41.3907 H   0  0  0  0  0
  170.5556  105.6561   41.6479 H   0  0  0  0  0
  171.2292   97.6308   38.8679 H   0  0  0  0  0
  170.9615   97.5157   40.6695 H   0  0  0  0  0
  173.2270   97.8408   41.0866 H   0  0  0  0  0
  173.0919   96.5783   39.7939 H   0  0  0  0  0
  1  2  1  0  0  0
  1 13  1  0  0  0
  2  3  1  0  0  0
  3  4  1  0  0  0
  3  5  1  0  0  0
  4 12  1  0  0  0
  5  6  1  0  0  0
  6  7  1  0  0  0
  7  8  1  0  0  0
  8  9  1  0  0  0
  8 10  2  0  0  0
  8 11  2  0  0  0
 12 13  1  0  0  0
  1 14  1  0  0  0
  1 15  1  0  0  0
  2 16  1  0  0  0
  2 17  1  0  0  0
  3 18  1  0  0  0
  4 19  1  0  0  0
  4 20  1  0  0  0
  5 21  1  0  0  0
  5 22  1  0  0  0
  6 23  1  0  0  0
  6 24  1  0  0  0
  7 25  1  0  0  0
  7 26  1  0  0  0
  9 27  1  0  0  0
 12 28  1  0  0  0
 12 29  1  0  0  0
 13 30  1  0  0  0
 13 31  1  0  0  0
M  END
$$$$
