2ans_ligand
  -I-interpret- 

 34 36  0  0  0  0  0  0  0  0999 V2000
    6.8940   30.9830   17.7950 C   0  0  0  0  0
    6.4930   32.3010   18.0090 C   0  0  0  0  0
    5.4440   32.9070   17.3110 C   0  0  0  0  0
    4.7650   32.2060   16.3730 C   0  0  0  0  0
    5.0970   30.8560   16.0810 C   0  0  0  0  0
    4.3460   30.1760   15.0850 C   0  0  0  0  0
    4.5980   28.8920   14.7490 C   0  0  0  0  0
    5.6290   28.1950   15.3930 C   0  0  0  0  0
    7.9660   30.5030   18.5680 N   0  0  0  0  0
    7.6660   27.5800   17.0110 S   0  0  0  0  0
    6.4260   28.7560   16.3800 C   0  0  0  0  0
    6.1910   30.1720   16.7870 C   0  0  0  0  0
    7.9640   30.2300   19.9440 C   0  0  0  0  0
    8.9440   29.3490   20.4560 C   0  0  0  0  0
    8.9890   29.0420   21.7990 C   0  0  0  0  0
    8.0880   29.5790   22.6790 C   0  0  0  0  0
    7.1080   30.4510   22.2160 C   0  0  0  0  0
    7.0310   30.7860   20.8610 C   0  0  0  0  0
    8.9940   28.1230   16.7680 O   0  0  0  0  0
    7.3750   27.3740   18.4180 O   0  0  0  0  0
    7.4660   26.3350   16.2770 O   0  0  0  0  0
    7.0239   32.8885   18.7581 H   0  0  0  0  0
    5.1736   33.9417   17.5217 H   0  0  0  0  0
    3.9492   32.6858   15.8323 H   0  0  0  0  0
    3.5414   30.7068   14.5761 H   0  0  0  0  0
    4.0019   28.4003   13.9802 H   0  0  0  0  0
    5.8139   27.1604   15.1040 H   0  0  0  0  0
    8.8421   30.3347   18.0735 H   0  0  0  0  0
    9.6745   28.9062   19.7790 H   0  0  0  0  0
    9.7553   28.3597   22.1669 H   0  0  0  0  0
    8.1384   29.3244   23.7376 H   0  0  0  0  0
    6.3918   30.8780   22.9180 H   0  0  0  0  0
    6.2590   31.4704   20.5093 H   0  0  0  0  0
    6.5845   25.9985   16.4541 H   0  0  0  0  0
  1 12  4  0  0  0
  1  9  1  0  0  0
  1  2  4  0  0  0
  2  3  4  0  0  0
  3  4  4  0  0  0
  4  5  4  0  0  0
  5 12  4  0  0  0
  5  6  4  0  0  0
  6  7  4  0  0  0
  7  8  4  0  0  0
  8 11  4  0  0  0
 11 10  1  0  0  0
 11 12  4  0  0  0
 10 19  2  0  0  0
 10 20  2  0  0  0
 10 21  1  0  0  0
  9 13  1  0  0  0
 13 18  4  0  0  0
 13 14  4  0  0  0
 14 15  4  0  0  0
 15 16  4  0  0  0
 16 17  4  0  0  0
 17 18  4  0  0  0
  2 22  1  0  0  0
  3 23  1  0  0  0
  4 24  1  0  0  0
  6 25  1  0  0  0
  7 26  1  0  0  0
  8 27  1  0  0  0
  9 28  1  0  0  0
 14 29  1  0  0  0
 15 30  1  0  0  0
 16 31  1  0  0  0
 17 32  1  0  0  0
 18 33  1  0  0  0
 21 34  1  0  0  0
M  END
$$$$
