2x7s_ligand
  -I-interpret- 

 53 56  0  0  0  0  0  0  0  0999 V2000
   17.8960   25.5750   19.6270 O   0  0  0  0  0
   19.2940   25.9400   19.3530 S   0  0  0  0  0
   20.0610   25.5190   20.5250 O   0  0  0  0  0
   19.8540   25.1190   18.1880 N   0  0  0  0  0
   19.3420   27.4390   19.0180 O   0  0  0  0  0
   20.5550   28.0960   18.6680 C   0  0  0  0  0
   20.7340   28.1940   17.1430 C   0  0  0  0  0
   21.3300   29.5740   16.8590 C   0  0  0  0  0
   21.7200   30.0270   18.2590 C   0  0  0  0  0
   22.0500   31.4930   18.5130 C   0  0  0  0  0
   23.0110   32.0740   17.4870 C   0  0  0  0  0
   23.1990   33.5600   17.7770 C   0  0  0  0  0
   23.3530   33.8570   19.2580 C   0  0  0  0  0
   23.7670   35.1420   19.6090 C   0  0  0  0  0
   23.9390   35.5020   20.9400 C   0  0  0  0  0
   24.3440   36.7730   21.2380 O   0  0  0  0  0
   23.6940   34.5790   21.9430 C   0  0  0  0  0
   23.8720   34.9500   23.2600 O   0  0  0  0  0
   24.4200   34.0470   24.2250 C   0  0  0  0  0
   23.2730   33.2860   21.6030 C   0  0  0  0  0
   23.1050   32.9170   20.2620 C   0  0  0  0  0
   22.6520   31.5380   19.9260 C   0  0  0  0  0
   21.6610   31.0210   20.9790 C   0  0  0  0  0
   21.0700   29.6430   20.6500 C   0  0  0  0  0
   20.6290   29.5240   19.1880 C   0  0  0  0  0
   19.2810   30.2340   18.9960 C   0  0  0  0  0
   19.2650   24.4303   17.7199 H   0  0  0  0  0
   20.8160   25.2608   17.8801 H   0  0  0  0  0
   21.3329   27.4841   19.1247 H   0  0  0  0  0
   19.7799   28.0698   16.6309 H   0  0  0  0  0
   21.3903   27.4044   16.7771 H   0  0  0  0  0
   20.6414   30.2527   16.3557 H   0  0  0  0  0
   22.1640   29.5543   16.1575 H   0  0  0  0  0
   22.7037   29.5947   18.4423 H   0  0  0  0  0
   21.1525   32.1054   18.4258 H   0  0  0  0  0
   22.6054   31.9415   16.4840 H   0  0  0  0  0
   23.9709   31.5612   17.5476 H   0  0  0  0  0
   22.3112   34.0837   17.4226 H   0  0  0  0  0
   24.1106   33.8848   17.2754 H   0  0  0  0  0
   23.9588   35.8759   18.8262 H   0  0  0  0  0
   24.4174   36.8692   22.1903 H   0  0  0  0  0
   23.7828   33.1658   24.2991 H   0  0  0  0  0
   25.4209   33.7480   23.9136 H   0  0  0  0  0
   24.4724   34.5416   25.1949 H   0  0  0  0  0
   23.0741   32.5594   22.3908 H   0  0  0  0  0
   23.5184   30.8766   19.9359 H   0  0  0  0  0
   20.8327   31.7283   21.0207 H   0  0  0  0  0
   22.2055   30.9252   21.9184 H   0  0  0  0  0
   20.1912   29.4967   21.2780 H   0  0  0  0  0
   21.8430   28.8955   20.8287 H   0  0  0  0  0
   19.4034   31.3005   19.1848 H   0  0  0  0  0
   18.9341   30.0821   17.9739 H   0  0  0  0  0
   18.5520   29.8216   19.6935 H   0  0  0  0  0
  1  2  2  0  0  0
  2  3  2  0  0  0
  2  4  1  0  0  0
  2  5  1  0  0  0
  5  6  1  0  0  0
  6  7  1  0  0  0
  6 25  1  0  0  0
  7  8  1  0  0  0
  8  9  1  0  0  0
  9 10  1  0  0  0
  9 25  1  0  0  0
 10 11  1  0  0  0
 10 22  1  0  0  0
 11 12  1  0  0  0
 12 13  1  0  0  0
 13 14  4  0  0  0
 13 21  4  0  0  0
 14 15  4  0  0  0
 15 16  1  0  0  0
 15 17  4  0  0  0
 17 18  1  0  0  0
 17 20  4  0  0  0
 18 19  1  0  0  0
 20 21  4  0  0  0
 21 22  1  0  0  0
 22 23  1  0  0  0
 23 24  1  0  0  0
 24 25  1  0  0  0
 25 26  1  0  0  0
  4 27  1  0  0  0
  4 28  1  0  0  0
  6 29  1  0  0  0
  7 30  1  0  0  0
  7 31  1  0  0  0
  8 32  1  0  0  0
  8 33  1  0  0  0
  9 34  1  0  0  0
 10 35  1  0  0  0
 11 36  1  0  0  0
 11 37  1  0  0  0
 12 38  1  0  0  0
 12 39  1  0  0  0
 14 40  1  0  0  0
 16 41  1  0  0  0
 19 42  1  0  0  0
 19 43  1  0  0  0
 19 44  1  0  0  0
 20 45  1  0  0  0
 22 46  1  0  0  0
 23 47  1  0  0  0
 23 48  1  0  0  0
 24 49  1  0  0  0
 24 50  1  0  0  0
 26 51  1  0  0  0
 26 52  1  0  0  0
 26 53  1  0  0  0
M  END
$$$$
