2ves_ligand
  -I-interpret- 

 50 53  0  0  0  0  0  0  0  0999 V2000
   56.6260   40.6320   19.8480 O   0  0  0  0  0
   57.2700   40.9120   18.8440 C   0  0  0  0  0
   58.0360   41.9940   18.8380 N   0  0  0  0  0
   58.0640   42.7640   20.0090 O   0  0  0  0  0
   57.2090   40.0420   17.6240 C   0  0  0  0  0
   55.9780   40.3330   16.7840 C   0  0  0  0  0
   55.7390   39.2430   15.7540 C   0  0  0  0  0
   55.7900   39.5510   14.3940 C   0  0  0  0  0
   55.5540   38.5720   13.4300 C   0  0  0  0  0
   55.2520   37.2720   13.8180 C   0  0  0  0  0
   55.0110   36.2580   12.8880 C   0  0  0  0  0
   55.1940   36.9440   15.2580 C   0  0  0  0  0
   54.8950   35.6490   15.6630 C   0  0  0  0  0
   54.6620   34.6650   14.6980 C   0  0  0  0  0
   54.7070   34.9750   13.3380 C   0  0  0  0  0
   55.4340   37.9570   16.1780 C   0  0  0  0  0
   58.3580   40.2140   16.7710 N   0  0  0  0  0
   59.5880   39.2370   16.9260 S   0  0  0  0  0
   59.9550   39.1580   18.3100 O   0  0  0  0  0
   60.6530   39.7420   16.1070 O   0  0  0  0  0
   59.1350   37.7910   16.3640 C   0  0  0  0  0
   58.8990   37.6600   14.9870 C   0  0  0  0  0
   58.5080   36.4400   14.4220 C   0  0  0  0  0
   58.3470   35.3150   15.2220 C   0  0  0  0  0
   57.9630   34.0860   14.6880 C   0  0  0  0  0
   58.5910   35.4380   16.6780 C   0  0  0  0  0
   58.9790   36.6750   17.2050 C   0  0  0  0  0
   58.4250   34.3010   17.4750 C   0  0  0  0  0
   58.0240   33.0900   16.8960 C   0  0  0  0  0
   57.8080   32.9790   15.5230 C   0  0  0  0  0
   58.5815   42.2550   18.0166 H   0  0  0  0  0
   58.6490   43.5147   19.8831 H   0  0  0  0  0
   57.1779   39.0208   18.0039 H   0  0  0  0  0
   56.1318   41.2764   16.2600 H   0  0  0  0  0
   55.1121   40.3809   17.4443 H   0  0  0  0  0
   56.0173   40.5702   14.0813 H   0  0  0  0  0
   55.6063   38.8262   12.3714 H   0  0  0  0  0
   55.0603   36.4687   11.8197 H   0  0  0  0  0
   54.8426   35.4027   16.7235 H   0  0  0  0  0
   54.4427   33.6442   15.0111 H   0  0  0  0  0
   54.4987   34.1924   12.6084 H   0  0  0  0  0
   55.3822   37.7394   17.2448 H   0  0  0  0  0
   58.3761   40.9591   16.0746 H   0  0  0  0  0
   59.0231   38.5294   14.3413 H   0  0  0  0  0
   58.3289   36.3722   13.3489 H   0  0  0  0  0
   57.7837   33.9897   13.6172 H   0  0  0  0  0
   59.1616   36.7741   18.2750 H   0  0  0  0  0
   58.6078   34.3571   18.5481 H   0  0  0  0  0
   57.8779   32.2168   17.5318 H   0  0  0  0  0
   57.5154   32.0188   15.0982 H   0  0  0  0  0
  1  2  2  0  0  0
  2  3  1  0  0  0
  2  5  1  0  0  0
  3  4  1  0  0  0
  5  6  1  0  0  0
  5 17  1  0  0  0
  6  7  1  0  0  0
  7  8  4  0  0  0
  7 16  4  0  0  0
  8  9  4  0  0  0
  9 10  4  0  0  0
 10 11  4  0  0  0
 10 12  4  0  0  0
 11 15  4  0  0  0
 12 13  4  0  0  0
 12 16  4  0  0  0
 13 14  4  0  0  0
 14 15  4  0  0  0
 17 18  1  0  0  0
 18 19  2  0  0  0
 18 20  2  0  0  0
 18 21  1  0  0  0
 21 22  4  0  0  0
 21 27  4  0  0  0
 22 23  4  0  0  0
 23 24  4  0  0  0
 24 25  4  0  0  0
 24 26  4  0  0  0
 25 30  4  0  0  0
 26 27  4  0  0  0
 26 28  4  0  0  0
 28 29  4  0  0  0
 29 30  4  0  0  0
  3 31  1  0  0  0
  4 32  1  0  0  0
  5 33  1  0  0  0
  6 34  1  0  0  0
  6 35  1  0  0  0
  8 36  1  0  0  0
  9 37  1  0  0  0
 11 38  1  0  0  0
 13 39  1  0  0  0
 14 40  1  0  0  0
 15 41  1  0  0  0
 16 42  1  0  0  0
 17 43  1  0  0  0
 22 44  1  0  0  0
 23 45  1  0  0  0
 25 46  1  0  0  0
 27 47  1  0  0  0
 28 48  1  0  0  0
 29 49  1  0  0  0
 30 50  1  0  0  0
M  END
$$$$
