5kbr_ligand
  -I-interpret- 

 49 53  0  0  0  0  0  0  0  0999 V2000
    1.7770  -33.5120   22.1940 C   0  0  0  0  0
    0.6210  -32.8010   21.9350 C   0  0  0  0  0
    0.5220  -31.9700   20.8360 C   0  0  0  0  0
    4.0620  -33.2140   18.1650 C   0  0  0  0  0
    3.1140  -34.1140   17.7350 C   0  0  0  0  0
    4.7300  -34.1850   16.2040 C   0  0  0  0  0
    5.1230  -33.2590   17.1850 C   0  0  0  0  0
    6.3380  -32.6040   16.9790 C   0  0  0  0  0
    7.1080  -32.9210   15.8600 C   0  0  0  0  0
    6.6070  -33.8580   14.9630 C   0  0  0  0  0
    8.4090  -32.2580   15.5630 C   0  0  0  0  0
    9.3040  -32.4810   14.4490 C   0  0  0  0  0
    9.0240  -31.2840   16.3100 C   0  0  0  0  0
   11.8130  -28.1670   17.7940 C   0  0  0  0  0
   13.6000  -29.5790   16.9270 C   0  0  0  0  0
   12.6180  -30.6090   16.4000 C   0  0  0  0  0
   -0.7450  -32.9720   23.0040 Cl  0  0  0  0  0
    1.6120  -31.8300   19.9960 C   0  0  0  0  0
    2.7960  -32.5220   20.2430 C   0  0  0  0  0
    2.8690  -33.3530   21.3590 C   0  0  0  0  0
    3.9720  -32.3430   19.3480 C   0  0  0  0  0
    4.7950  -31.4660   19.6010 O   0  0  0  0  0
    5.4340  -34.4890   15.1020 N   0  0  0  0  0
    3.5180  -34.6990   16.5640 N   0  0  0  0  0
   10.1910  -30.9910   15.7140 N   0  0  0  0  0
   10.3730  -31.7170   14.5800 N   0  0  0  0  0
   11.2410  -29.9740   16.1770 C   0  0  0  0  0
   13.0930  -28.8430   18.1010 N   0  3  0  0  0
   10.7640  -29.1900   17.4020 C   0  0  0  0  0
    1.8282  -34.1901   23.0459 H   0  0  0  0  0
   -0.4036  -31.4313   20.6332 H   0  0  0  0  0
    2.1783  -34.3299   18.2508 H   0  0  0  0  0
    6.6826  -31.8504   17.6872 H   0  0  0  0  0
    7.2103  -34.0951   14.0867 H   0  0  0  0  0
    9.1237  -33.1738   13.6270 H   0  0  0  0  0
    8.6353  -30.8306   17.2218 H   0  0  0  0  0
   11.9640  -27.4743   16.9661 H   0  0  0  0  0
   11.4730  -27.6266   18.6775 H   0  0  0  0  0
   13.7772  -28.8538   16.1328 H   0  0  0  0  0
   14.5027  -30.1081   17.2325 H   0  0  0  0  0
   12.5229  -31.4131   17.1297 H   0  0  0  0  0
   12.9871  -30.9963   15.4503 H   0  0  0  0  0
    1.5440  -31.1706   19.1307 H   0  0  0  0  0
    3.7960  -33.8834   21.5766 H   0  0  0  0  0
   11.3648  -29.2595   15.3632 H   0  0  0  0  0
   12.9379  -29.5064   18.8601 H   0  0  0  0  0
   13.7799  -28.1368   18.3651 H   0  0  0  0  0
    9.8317  -28.6784   17.1631 H   0  0  0  0  0
   10.6028  -29.8785   18.2315 H   0  0  0  0  0
  1  2  4  0  0  0
 20  1  4  0  0  0
  3  2  4  0  0  0
  2 17  1  0  0  0
 18  3  4  0  0  0
  4  5  4  0  0  0
  7  4  4  0  0  0
  4 21  1  0  0  0
 24  5  4  0  0  0
  7  6  4  0  0  0
 23  6  4  0  0  0
  6 24  4  0  0  0
  8  7  4  0  0  0
  9  8  4  0  0  0
  9 10  4  0  0  0
 11  9  1  0  0  0
 10 23  4  0  0  0
 12 11  4  0  0  0
 13 11  4  0  0  0
 26 12  4  0  0  0
 25 13  4  0  0  0
 28 14  1  0  0  0
 14 29  1  0  0  0
 16 15  1  0  0  0
 15 28  1  0  0  0
 27 16  1  0  0  0
 19 18  4  0  0  0
 19 20  4  0  0  0
 21 19  1  0  0  0
 21 22  2  0  0  0
 25 26  4  0  0  0
 25 27  1  0  0  0
 27 29  1  0  0  0
  1 30  1  0  0  0
  3 31  1  0  0  0
  5 32  1  0  0  0
  8 33  1  0  0  0
 10 34  1  0  0  0
 12 35  1  0  0  0
 13 36  1  0  0  0
 14 37  1  0  0  0
 14 38  1  0  0  0
 15 39  1  0  0  0
 15 40  1  0  0  0
 16 41  1  0  0  0
 16 42  1  0  0  0
 18 43  1  0  0  0
 20 44  1  0  0  0
 27 45  1  0  0  0
 28 46  1  0  0  0
 28 47  1  0  0  0
 29 48  1  0  0  0
 29 49  1  0  0  0
M  END
$$$$
