2r3n_ligand
  -I-interpret- 

 45 49  0  0  0  0  0  0  0  0999 V2000
   -0.1700   30.5250    8.2710 C   0  0  0  0  0
    0.5290   29.3480    8.5070 C   0  0  0  0  0
    1.7200   29.4750    7.7820 N   0  0  0  0  0
    1.7760   30.6710    7.0870 N   0  0  0  0  0
    0.6430   31.2910    7.4170 C   0  0  0  0  0
    0.2670   28.2140    9.2250 N   0  0  0  0  0
    1.2050   27.2610    9.2090 C   0  0  0  0  0
    2.4650   27.3180    8.4680 C   0  0  0  0  0
    2.7000   28.4550    7.7780 C   0  0  0  0  0
    3.8180   28.6980    7.0510 N   0  0  0  0  0
    0.9730   26.0060    9.9700 C   0  0  0  0  0
    5.0880   27.9970    7.0580 C   0  0  0  0  0
    5.1230   26.8410    6.0960 C   0  0  0  0  0
    5.1070   27.0660    4.7330 C   0  0  0  0  0
    5.1780   26.0770    3.7970 N   0  0  0  0  0
    5.2540   24.8120    4.2580 C   0  0  0  0  0
    5.2490   24.4800    5.6030 C   0  0  0  0  0
    5.1790   25.5120    6.5360 C   0  0  0  0  0
   -0.3180   25.7130   10.3910 C   0  0  0  0  0
   -0.5890   24.5440   11.1080 C   0  0  0  0  0
    0.4480   23.6800   11.4450 C   0  0  0  0  0
    1.7570   23.9690   11.0290 C   0  0  0  0  0
    2.0210   25.1330   10.2880 C   0  0  0  0  0
   -1.5310   30.9660    8.7550 C   0  0  0  0  0
   -2.5240   29.9570    9.2420 C   0  0  0  0  0
   -1.8880   30.9270   10.2160 C   0  0  0  0  0
    0.3752   32.2863    7.0624 H   0  0  0  0  0
    3.1738   26.4900    8.4725 H   0  0  0  0  0
    3.7576   29.4866    6.4069 H   0  0  0  0  0
    5.2442   27.6005    8.0612 H   0  0  0  0  0
    5.8607   28.7044    6.7571 H   0  0  0  0  0
    5.0332   28.0963    4.3849 H   0  0  0  0  0
    5.3234   24.0037    3.5300 H   0  0  0  0  0
    5.2985   23.4391    5.9226 H   0  0  0  0  0
    5.1679   25.2868    7.6024 H   0  0  0  0  0
   -1.1295   26.4029   10.1595 H   0  0  0  0  0
   -1.6119   24.3096   11.4028 H   0  0  0  0  0
    0.2449   22.7827   12.0295 H   0  0  0  0  0
    2.5705   23.2888   11.2814 H   0  0  0  0  0
    3.0370   25.3557    9.9620 H   0  0  0  0  0
   -1.5314   31.7430    7.9905 H   0  0  0  0  0
   -2.7106   28.8864    9.1580 H   0  0  0  0  0
   -3.5181   29.5949    8.9796 H   0  0  0  0  0
   -2.1892   31.6136   11.0072 H   0  0  0  0  0
   -1.3877   30.9102   11.1843 H   0  0  0  0  0
  1  2  4  0  0  0
  1  5  4  0  0  0
  1 24  1  0  0  0
  2  3  4  0  0  0
  2  6  4  0  0  0
  3  4  4  0  0  0
  3  9  4  0  0  0
  4  5  4  0  0  0
  6  7  4  0  0  0
  7  8  4  0  0  0
  7 11  1  0  0  0
  8  9  4  0  0  0
  9 10  1  0  0  0
 10 12  1  0  0  0
 11 19  4  0  0  0
 11 23  4  0  0  0
 12 13  1  0  0  0
 13 14  4  0  0  0
 13 18  4  0  0  0
 14 15  4  0  0  0
 15 16  4  0  0  0
 16 17  4  0  0  0
 17 18  4  0  0  0
 19 20  4  0  0  0
 20 21  4  0  0  0
 21 22  4  0  0  0
 22 23  4  0  0  0
 24 25  1  0  0  0
 24 26  1  0  0  0
 25 26  1  0  0  0
  5 27  1  0  0  0
  8 28  1  0  0  0
 10 29  1  0  0  0
 12 30  1  0  0  0
 12 31  1  0  0  0
 14 32  1  0  0  0
 16 33  1  0  0  0
 17 34  1  0  0  0
 18 35  1  0  0  0
 19 36  1  0  0  0
 20 37  1  0  0  0
 21 38  1  0  0  0
 22 39  1  0  0  0
 23 40  1  0  0  0
 24 41  1  0  0  0
 25 42  1  0  0  0
 25 43  1  0  0  0
 26 44  1  0  0  0
 26 45  1  0  0  0
M  END
$$$$
