1ws5_ligand
  -I-interpret- 

 27 27  0  0  0  0  0  0  0  0999 V2000
   51.3820   54.2590   66.5040 C   0  0  0  0  0
   51.9890   55.6140   66.0330 C   0  0  0  0  0
   51.8740   56.6800   67.1330 C   0  0  0  0  0
   50.3980   56.8450   67.5380 C   0  0  0  0  0
   49.8640   55.4890   68.0340 C   0  0  0  0  0
   48.3930   55.5780   68.4330 C   0  0  0  0  0
   52.5500   52.3250   67.9740 C   0  0  0  0  0
   52.2880   53.6050   67.3030 O   0  0  0  0  0
   51.3600   56.0890   64.8480 O   0  0  0  0  0
   52.4190   57.9070   66.6670 O   0  0  0  0  0
   50.2800   57.8230   68.5520 O   0  0  0  0  0
   49.9950   54.5000   66.9670 O   0  0  0  0  0
   47.5410   55.8960   67.3390 O   0  0  0  0  0
   51.2314   53.5195   65.7176 H   0  0  0  0  0
   53.0416   55.4307   65.8172 H   0  0  0  0  0
   52.4376   56.3685   68.0125 H   0  0  0  0  0
   49.8131   57.1729   66.6787 H   0  0  0  0  0
   50.4464   55.1993   68.9086 H   0  0  0  0  0
   48.2961   56.3729   69.1725 H   0  0  0  0  0
   48.0925   54.6030   68.8166 H   0  0  0  0  0
   51.7454   52.1141   68.6784 H   0  0  0  0  0
   52.6010   51.5300   67.2300 H   0  0  0  0  0
   53.4974   52.3843   68.5098 H   0  0  0  0  0
   51.4316   55.4232   64.1601 H   0  0  0  0  0
   53.3378   57.7752   66.4220 H   0  0  0  0  0
   50.6168   58.6613   68.2272 H   0  0  0  0  0
   46.6320   55.9391   67.6448 H   0  0  0  0  0
  1  2  1  0  0  0
  1  8  1  0  0  0
  1 12  1  0  0  0
  2  3  1  0  0  0
  2  9  1  0  0  0
  3  4  1  0  0  0
  3 10  1  0  0  0
  4  5  1  0  0  0
  4 11  1  0  0  0
  5  6  1  0  0  0
  5 12  1  0  0  0
  6 13  1  0  0  0
  8  7  1  0  0  0
  1 14  1  0  0  0
  2 15  1  0  0  0
  3 16  1  0  0  0
  4 17  1  0  0  0
  5 18  1  0  0  0
  6 19  1  0  0  0
  6 20  1  0  0  0
  7 21  1  0  0  0
  7 22  1  0  0  0
  7 23  1  0  0  0
  9 24  1  0  0  0
 10 25  1  0  0  0
 11 26  1  0  0  0
 13 27  1  0  0  0
M  END
$$$$
