4m2r_ligand
  -I-interpret- 

 45 46  0  0  0  0  0  0  0  0999 V2000
   19.3320    7.7930   13.9050 C   0  0  0  0  0
   17.0760    3.3690   14.4870 C   0  0  0  0  0
   16.0340    4.2130   14.7560 C   0  0  0  0  0
   18.3010    3.5160   13.6450 C   0  0  0  0  0
   18.6110    4.9650   13.4820 C   0  0  0  0  0
   15.3480    0.6850   16.8540 S   0  0  0  0  0
   19.8300    9.1330   13.4760 C   0  0  0  0  0
   19.8030    1.9320   10.5290 C   0  0  0  0  0
   19.5760    2.7470   11.7770 C   0  0  0  0  0
   14.9960    3.4670   15.7860 S   0  0  0  0  0
   15.9470   -0.6850   16.2080 N   0  0  0  0  0
   13.8900    0.7850   16.8530 O   0  0  0  0  0
   15.8250    0.8750   18.2290 O   0  0  0  0  0
   15.8800    2.0250   15.8720 C   0  0  0  0  0
   17.0580    2.1070   15.0910 C   0  0  0  0  0
   16.0800    5.8060   14.0710 S   0  0  0  0  0
   15.8470    6.5690   15.2880 O   0  0  0  0  0
   15.0240    5.9900   13.0760 O   0  0  0  0  0
   17.6140    5.9990   13.4680 N   0  0  0  0  0
   18.2770    2.7760   12.4070 N   0  3  0  0  0
   18.1850    7.2540   13.1200 C   0  0  0  0  0
   20.0320   10.1490   14.3890 O   0  0  0  0  0
   21.1890   10.1720   15.1500 C   0  0  0  0  0
   18.9808    7.9059   14.9307 H   0  0  0  0  0
   20.1582    7.0956   13.7666 H   0  0  0  0  0
   19.1270    3.0423   14.1755 H   0  0  0  0  0
   19.0225    5.0123   12.4738 H   0  0  0  0  0
   19.1827    5.1926   14.3817 H   0  0  0  0  0
   19.0370    9.5133   12.8321 H   0  0  0  0  0
   20.8272    8.9293   13.0859 H   0  0  0  0  0
   19.5929    0.8831   10.7383 H   0  0  0  0  0
   19.1399    2.2862    9.7397 H   0  0  0  0  0
   20.8397    2.0396   10.2099 H   0  0  0  0  0
   19.7435    3.7762   11.4596 H   0  0  0  0  0
   20.2250    2.2851   12.5210 H   0  0  0  0  0
   15.3136   -1.3952   15.8410 H   0  0  0  0  0
   16.9556   -0.8327   16.1705 H   0  0  0  0  0
   17.8132    1.3289   14.9804 H   0  0  0  0  0
   17.6220    3.2326   11.7722 H   0  0  0  0  0
   17.9974    1.8166   12.6114 H   0  0  0  0  0
   18.5870    7.1026   12.1182 H   0  0  0  0  0
   17.3820    7.9733   13.2811 H   0  0  0  0  0
   21.2474    9.2623   15.7476 H   0  0  0  0  0
   22.0549   10.2313   14.4906 H   0  0  0  0  0
   21.1720   11.0404   15.8085 H   0  0  0  0  0
  1  7  1  0  0  0
 21  1  1  0  0  0
  3  2  4  0  0  0
  4  2  1  0  0  0
  2 15  4  0  0  0
  3 10  4  0  0  0
 16  3  1  0  0  0
  5  4  1  0  0  0
  4 20  1  0  0  0
 19  5  1  0  0  0
  6 11  1  0  0  0
  6 12  2  0  0  0
  6 13  2  0  0  0
 14  6  1  0  0  0
  7 22  1  0  0  0
  9  8  1  0  0  0
 20  9  1  0  0  0
 10 14  4  0  0  0
 14 15  4  0  0  0
 16 17  2  0  0  0
 16 18  2  0  0  0
 19 16  1  0  0  0
 19 21  1  0  0  0
 22 23  1  0  0  0
  1 24  1  0  0  0
  1 25  1  0  0  0
  4 26  1  0  0  0
  5 27  1  0  0  0
  5 28  1  0  0  0
  7 29  1  0  0  0
  7 30  1  0  0  0
  8 31  1  0  0  0
  8 32  1  0  0  0
  8 33  1  0  0  0
  9 34  1  0  0  0
  9 35  1  0  0  0
 11 36  1  0  0  0
 11 37  1  0  0  0
 15 38  1  0  0  0
 20 39  1  0  0  0
 20 40  1  0  0  0
 21 41  1  0  0  0
 21 42  1  0  0  0
 23 43  1  0  0  0
 23 44  1  0  0  0
 23 45  1  0  0  0
M  END
$$$$
