### 
### Created by X-TOOL on Mon Sep 10 21:13:26 2018
### 

@<TRIPOS>MOLECULE
5etf_ligand
  132   133     1     0     0
SMALL
GAST_HUCK


@<TRIPOS>ATOM
      1 N          23.5530   -2.4380   19.3570 N.4       1 ARG         0.2379
      2 CA         23.4500   -2.4930   20.8180 C.3       1 ARG         0.0651
      3 C          23.6130   -1.0810   21.3710 C.2       1 ARG         0.2267
      4 O          24.6680   -0.4660   21.1900 O.2       1 ARG        -0.3907
      5 CB         24.5110   -3.4210   21.4130 C.3       1 ARG         0.0110
      6 CG         24.3540   -3.6120   22.8980 C.3       1 ARG        -0.0125
      7 CD         23.0300   -4.2820   23.1670 C.3       1 ARG         0.0629
      8 NE         23.1150   -5.7310   23.0380 N.pl3     1 ARG        -0.2723
      9 CZ         22.9100   -6.4030   21.9150 C.cat     1 ARG         0.2882
     10 NH1        22.6010   -5.7750   20.7910 N.pl3     1 ARG        -0.2849
     11 NH2        23.0030   -7.7220   21.9360 N.pl3     1 ARG        -0.2849
     12 N          22.5930   -0.5750   22.0720 N.am      1 ASN        -0.2613
     13 CA         22.5700    0.8530   22.3920 C.3       1 ASN         0.1285
     14 C          23.3550    1.2250   23.6540 C.2       1 ASN         0.2061
     15 O          24.3210    1.9930   23.5500 O.2       1 ASN        -0.3942
     16 CB         21.1220    1.3480   22.4930 C.3       1 ASN        -0.0244
     17 N          23.0010    0.7410   24.8490 N.am      1 PRO        -0.2498
     18 CA         23.6830    1.2380   26.0590 C.3       1 PRO         0.1338
     19 C          25.1050    0.6970   26.1660 C.2       1 PRO         0.2039
     20 O          25.4120   -0.4180   25.7320 O.2       1 PRO        -0.3944
     21 CB         22.8080    0.7280   27.2180 C.3       1 PRO        -0.0104
     22 CG         21.6110    0.0140   26.5630 C.3       1 PRO        -0.0281
     23 CD         22.0640   -0.3520   25.1720 C.3       1 PRO         0.0369
     24 N          25.9730    1.4990   26.7830 N.am      1 GLY        -0.2664
     25 CA         27.4030    1.2450   26.7260 C.3       1 GLY         0.1201
     26 C          27.9320    0.1420   27.6230 C.2       1 GLY         0.2007
     27 O          27.7860    0.2200   28.8460 O.2       1 GLY        -0.3947
     28 N          28.5510   -0.8840   27.0270 N.am      1 LEU        -0.2640
     29 CA         29.2640   -1.8990   27.8010 C.3       1 LEU         0.1312
     30 C          30.4470   -1.2970   28.5560 C.2       1 LEU         0.2039
     31 O          31.1610   -0.4320   28.0420 O.2       1 LEU        -0.3944
     32 CB         29.7700   -3.0100   26.8840 C.3       1 LEU        -0.0101
     33 CG         29.0060   -4.3350   26.8410 C.3       1 LEU        -0.0425
     34 CD1        27.4900   -4.0990   26.7440 C.3       1 LEU        -0.0625
     35 CD2        29.5370   -5.1680   25.6730 C.3       1 LEU        -0.0625
     36 N          30.6710   -1.7860   29.7770 N.am      1 LYS        -0.2637
     37 CA         31.7490   -1.2850   30.6210 C.3       1 LYS         0.1310
     38 C          33.0940   -1.8860   30.2300 C.2       1 LYS         0.2039
     39 O          33.2040   -3.0830   29.9450 O.2       1 LYS        -0.3944
     40 CB         31.4720   -1.5800   32.0980 C.3       1 LYS        -0.0122
     41 CG         30.1240   -1.1310   32.5620 C.3       1 LYS        -0.0440
     42 CD         29.9030   -1.4470   34.0120 C.3       1 LYS        -0.0124
     43 CE         28.5780   -0.8510   34.4820 C.3       1 LYS        -0.0354
     44 NZ         28.3020   -1.2110   35.8740 N.4       1 LYS         0.2185
     45 N          34.1280   -1.0510   30.2470 N.am      1 ILE        -0.2635
     46 CA         35.4770   -1.4500   29.8610 C.3       1 ILE         0.1336
     47 C          36.4030   -1.2330   31.0480 C.2       1 ILE         0.2061
     48 O          36.2160   -0.2820   31.8240 O.2       1 ILE        -0.3942
     49 CB         35.9400   -0.6460   28.6320 C.3       1 ILE        -0.0037
     50 CG1        34.8810   -0.7010   27.5100 C.3       1 ILE        -0.0491
     51 CG2        37.3040   -1.1120   28.1550 C.3       1 ILE        -0.0582
     52 CD1        34.5560   -2.0940   27.0300 C.3       1 ILE        -0.0648
     53 N          37.3980   -2.1170   31.2530 N.am      1 PRO        -0.2556
     54 CA         38.3820   -1.9280   32.3380 C.3       1 PRO         0.0972
     55 C          39.5700   -1.0530   31.9330 C.2       1 PRO         0.0603
     56 O          39.4000   -0.0780   31.1830 O.co2     1 PRO        -0.5666
     57 CB         38.8480   -3.3460   32.6730 C.3       1 PRO        -0.0159
     58 CG         38.3950   -4.2030   31.5150 C.3       1 PRO        -0.0288
     59 CD         37.4000   -3.4500   30.7000 C.3       1 PRO         0.0362
     60 OXT        40.7090   -1.3140   32.3530 O.co2     1 PRO        -0.5666
     61 H1         23.4469   -3.3658   18.9776 H         1 ARG         0.2015
     62 H2         24.4547   -2.0699   19.0973 H         1 ARG         0.2015
     63 H3         22.8282   -1.8406   18.9913 H         1 ARG         0.2015
     64 H4         22.4556   -2.8751   21.0920 H         1 ARG         0.1098
     65 H5         25.5040   -2.9902   21.2174 H         1 ARG         0.0347
     66 H6         24.4340   -4.4026   20.9226 H         1 ARG         0.0347
     67 H7         24.3819   -2.6342   23.4011 H         1 ARG         0.0302
     68 H8         25.1710   -4.2432   23.2776 H         1 ARG         0.0302
     69 H9         22.2883   -3.9044   22.4477 H         1 ARG         0.0689
     70 H10        22.7082   -4.0349   24.1894 H         1 ARG         0.0689
     71 H11        23.3518   -6.2723   23.8817 H         1 ARG         0.2642
     72 H12        22.4449   -6.3130   19.9267 H         1 ARG         0.2615
     73 H13        22.5168   -4.7485   20.7810 H         1 ARG         0.2615
     74 H14        23.2436   -8.2074   22.8120 H         1 ARG         0.2615
     75 H15        22.8349   -8.2639   21.0763 H         1 ARG         0.2615
     76 H16        21.8490   -1.1698   22.3764 H         1 ASN         0.1884
     77 H17        23.0462    1.3792   21.5515 H         1 ASN         0.0797
     78 H18        21.1174    2.4214   22.7336 H         1 ASN         0.0277
     79 H19        20.5990    0.7924   23.2853 H         1 ASN         0.0277
     80 H20        20.6110    1.1854   21.5326 H         1 ASN         0.0277
     81 H21        23.7168    2.3375   26.0561 H         1 PRO         0.0802
     82 H22        22.4603    1.5704   27.8339 H         1 PRO         0.0313
     83 H23        23.3759    0.0251   27.8452 H         1 PRO         0.0313
     84 H24        20.7413    0.6860   26.5185 H         1 PRO         0.0287
     85 H25        21.3468   -0.8905   27.1305 H         1 PRO         0.0287
     86 H26        22.5715   -1.3278   25.1622 H         1 PRO         0.0524
     87 H27        21.2176   -0.3718   24.4697 H         1 PRO         0.0524
     88 H28        25.6343    2.2891   27.2939 H         1 GLY         0.1881
     89 H29        27.9189    2.1764   27.0023 H         1 GLY         0.0763
     90 H30        27.6542    0.9807   25.6882 H         1 GLY         0.0763
     91 H31        28.5253   -0.9581   26.0301 H         1 LEU         0.1883
     92 H32        28.5649   -2.3323   28.5314 H         1 LEU         0.0800
     93 H33        30.8001   -3.2406   27.1934 H         1 LEU         0.0315
     94 H34        29.7760   -2.6069   25.8605 H         1 LEU         0.0315
     95 H35        29.2028   -4.8828   27.7744 H         1 LEU         0.0298
     96 H36        26.9693   -5.0675   26.7150 H         1 LEU         0.0232
     97 H37        27.2647   -3.5340   25.8275 H         1 LEU         0.0232
     98 H38        27.1512   -3.5267   27.6202 H         1 LEU         0.0232
     99 H39        30.6219   -5.3092   25.7868 H         1 LEU         0.0232
    100 H40        29.3325   -4.6453   24.7270 H         1 LEU         0.0232
    101 H41        29.0385   -6.1485   25.6654 H         1 LEU         0.0232
    102 H42        30.0828   -2.5169   30.1230 H         1 LYS         0.1883
    103 H43        31.8057   -0.1945   30.4885 H         1 LYS         0.0800
    104 H44        32.2349   -1.0678   32.7027 H         1 LYS         0.0312
    105 H45        31.5483   -2.6661   32.2547 H         1 LYS         0.0312
    106 H46        29.3534   -1.6402   31.9647 H         1 LYS         0.0269
    107 H47        30.0410   -0.0437   32.4174 H         1 LYS         0.0269
    108 H48        30.7248   -1.0215   34.6066 H         1 LYS         0.0317
    109 H49        29.8795   -2.5384   34.1472 H         1 LYS         0.0317
    110 H50        27.7665   -1.2323   33.8448 H         1 LYS         0.0813
    111 H51        28.6268    0.2446   34.3973 H         1 LYS         0.0813
    112 H52        27.4239   -0.8057   36.1581 H         1 LYS         0.1994
    113 H53        29.0402   -0.8608   36.4643 H         1 LYS         0.1994
    114 H54        28.2518   -2.2142   35.9580 H         1 LYS         0.1994
    115 H55        33.9742   -0.1066   30.5375 H         1 ILE         0.1883
    116 H56        35.4763   -2.5186   29.6002 H         1 ILE         0.0803
    117 H57        36.0407    0.4053   28.9395 H         1 ILE         0.0345
    118 H58        35.2556   -0.1205   26.6541 H         1 ILE         0.0267
    119 H59        33.9553   -0.2421   27.8873 H         1 ILE         0.0267
    120 H60        38.0222   -1.0551   28.9862 H         1 ILE         0.0235
    121 H61        37.6445   -0.4672   27.3315 H         1 ILE         0.0235
    122 H62        37.2336   -2.1514   27.8018 H         1 ILE         0.0235
    123 H63        33.7973   -2.0403   26.2353 H         1 ILE         0.0230
    124 H64        34.1667   -2.6894   27.8690 H         1 ILE         0.0230
    125 H65        35.4670   -2.5678   26.6357 H         1 ILE         0.0230
    126 H66        37.8916   -1.4704   33.2099 H         1 PRO         0.0728
    127 H67        38.3868   -3.6910   33.6102 H         1 PRO         0.0306
    128 H68        39.9433   -3.3781   32.7697 H         1 PRO         0.0306
    129 H69        37.9325   -5.1241   31.8992 H         1 PRO         0.0286
    130 H70        39.2617   -4.4614   30.8888 H         1 PRO         0.0286
    131 H71        37.7022   -3.4297   29.6425 H         1 PRO         0.0524
    132 H72        36.4032   -3.9067   30.7878 H         1 PRO         0.0524
@<TRIPOS>BOND
     1    1    2 1  
     2    2    3 1  
     3    2    5 1  
     4    3    4 2  
     5    3   12 am 
     6    5    6 1  
     7    6    7 1  
     8    7    8 1  
     9    8    9 ar 
    10    9   10 ar 
    11    9   11 ar 
    12   12   13 1  
    13   13   14 1  
    14   13   16 1  
    15   14   15 2  
    16   14   17 am 
    17   17   18 1  
    18   17   23 1  
    19   18   19 1  
    20   18   21 1  
    21   19   20 2  
    22   19   24 am 
    23   21   22 1  
    24   22   23 1  
    25   24   25 1  
    26   25   26 1  
    27   26   27 2  
    28   26   28 am 
    29   28   29 1  
    30   29   30 1  
    31   29   32 1  
    32   30   31 2  
    33   30   36 am 
    34   32   33 1  
    35   33   34 1  
    36   33   35 1  
    37   36   37 1  
    38   37   38 1  
    39   37   40 1  
    40   38   39 2  
    41   38   45 am 
    42   40   41 1  
    43   41   42 1  
    44   42   43 1  
    45   43   44 1  
    46   45   46 1  
    47   46   47 1  
    48   46   49 1  
    49   47   48 2  
    50   47   53 am 
    51   49   50 1  
    52   49   51 1  
    53   50   52 1  
    54   53   54 1  
    55   53   59 1  
    56   54   55 1  
    57   54   57 1  
    58   55   56 ar 
    59   55   60 ar 
    60   57   58 1  
    61   58   59 1  
    62    1   61 1  
    63    1   62 1  
    64    1   63 1  
    65    2   64 1  
    66    5   65 1  
    67    5   66 1  
    68    6   67 1  
    69    6   68 1  
    70    7   69 1  
    71    7   70 1  
    72    8   71 1  
    73   10   72 1  
    74   10   73 1  
    75   11   74 1  
    76   11   75 1  
    77   12   76 1  
    78   13   77 1  
    79   16   78 1  
    80   16   79 1  
    81   16   80 1  
    82   18   81 1  
    83   21   82 1  
    84   21   83 1  
    85   22   84 1  
    86   22   85 1  
    87   23   86 1  
    88   23   87 1  
    89   24   88 1  
    90   25   89 1  
    91   25   90 1  
    92   28   91 1  
    93   29   92 1  
    94   32   93 1  
    95   32   94 1  
    96   33   95 1  
    97   34   96 1  
    98   34   97 1  
    99   34   98 1  
   100   35   99 1  
   101   35  100 1  
   102   35  101 1  
   103   36  102 1  
   104   37  103 1  
   105   40  104 1  
   106   40  105 1  
   107   41  106 1  
   108   41  107 1  
   109   42  108 1  
   110   42  109 1  
   111   43  110 1  
   112   43  111 1  
   113   44  112 1  
   114   44  113 1  
   115   44  114 1  
   116   45  115 1  
   117   46  116 1  
   118   49  117 1  
   119   50  118 1  
   120   50  119 1  
   121   51  120 1  
   122   51  121 1  
   123   51  122 1  
   124   52  123 1  
   125   52  124 1  
   126   52  125 1  
   127   54  126 1  
   128   57  127 1  
   129   57  128 1  
   130   58  129 1  
   131   58  130 1  
   132   59  131 1  
   133   59  132 1  
@<TRIPOS>SUBSTRUCTURE
     1 ARG         1

