5etf_ligand
  -I-interpret- 

132133  0  0  0  0  0  0  0  0999 V2000
   23.5530   -2.4380   19.3570 N   0  3  0  0  0
   23.4500   -2.4930   20.8180 C   0  0  0  0  0
   23.6130   -1.0810   21.3710 C   0  0  0  0  0
   24.6680   -0.4660   21.1900 O   0  0  0  0  0
   24.5110   -3.4210   21.4130 C   0  0  0  0  0
   24.3540   -3.6120   22.8980 C   0  0  0  0  0
   23.0300   -4.2820   23.1670 C   0  0  0  0  0
   23.1150   -5.7310   23.0380 N   0  0  0  0  0
   22.9100   -6.4030   21.9150 C   0  0  0  0  0
   22.6010   -5.7750   20.7910 N   0  0  0  0  0
   23.0030   -7.7220   21.9360 N   0  0  0  0  0
   22.5930   -0.5750   22.0720 N   0  0  0  0  0
   22.5700    0.8530   22.3920 C   0  0  0  0  0
   23.3550    1.2250   23.6540 C   0  0  0  0  0
   24.3210    1.9930   23.5500 O   0  0  0  0  0
   21.1220    1.3480   22.4930 C   0  0  0  0  0
   23.0010    0.7410   24.8490 N   0  0  0  0  0
   23.6830    1.2380   26.0590 C   0  0  0  0  0
   25.1050    0.6970   26.1660 C   0  0  0  0  0
   25.4120   -0.4180   25.7320 O   0  0  0  0  0
   22.8080    0.7280   27.2180 C   0  0  0  0  0
   21.6110    0.0140   26.5630 C   0  0  0  0  0
   22.0640   -0.3520   25.1720 C   0  0  0  0  0
   25.9730    1.4990   26.7830 N   0  0  0  0  0
   27.4030    1.2450   26.7260 C   0  0  0  0  0
   27.9320    0.1420   27.6230 C   0  0  0  0  0
   27.7860    0.2200   28.8460 O   0  0  0  0  0
   28.5510   -0.8840   27.0270 N   0  0  0  0  0
   29.2640   -1.8990   27.8010 C   0  0  0  0  0
   30.4470   -1.2970   28.5560 C   0  0  0  0  0
   31.1610   -0.4320   28.0420 O   0  0  0  0  0
   29.7700   -3.0100   26.8840 C   0  0  0  0  0
   29.0060   -4.3350   26.8410 C   0  0  0  0  0
   27.4900   -4.0990   26.7440 C   0  0  0  0  0
   29.5370   -5.1680   25.6730 C   0  0  0  0  0
   30.6710   -1.7860   29.7770 N   0  0  0  0  0
   31.7490   -1.2850   30.6210 C   0  0  0  0  0
   33.0940   -1.8860   30.2300 C   0  0  0  0  0
   33.2040   -3.0830   29.9450 O   0  0  0  0  0
   31.4720   -1.5800   32.0980 C   0  0  0  0  0
   30.1240   -1.1310   32.5620 C   0  0  0  0  0
   29.9030   -1.4470   34.0120 C   0  0  0  0  0
   28.5780   -0.8510   34.4820 C   0  0  0  0  0
   28.3020   -1.2110   35.8740 N   0  3  0  0  0
   34.1280   -1.0510   30.2470 N   0  0  0  0  0
   35.4770   -1.4500   29.8610 C   0  0  0  0  0
   36.4030   -1.2330   31.0480 C   0  0  0  0  0
   36.2160   -0.2820   31.8240 O   0  0  0  0  0
   35.9400   -0.6460   28.6320 C   0  0  0  0  0
   34.8810   -0.7010   27.5100 C   0  0  0  0  0
   37.3040   -1.1120   28.1550 C   0  0  0  0  0
   34.5560   -2.0940   27.0300 C   0  0  0  0  0
   37.3980   -2.1170   31.2530 N   0  0  0  0  0
   38.3820   -1.9280   32.3380 C   0  0  0  0  0
   39.5700   -1.0530   31.9330 C   0  0  0  0  0
   39.4000   -0.0780   31.1830 O   0  0  0  0  0
   38.8480   -3.3460   32.6730 C   0  0  0  0  0
   38.3950   -4.2030   31.5150 C   0  0  0  0  0
   37.4000   -3.4500   30.7000 C   0  0  0  0  0
   40.7090   -1.3140   32.3530 O   0  0  0  0  0
   22.8350   -1.8134   18.9900 H   0  0  0  0  0
   24.4750   -2.0890   19.0953 H   0  0  0  0  0
   23.4204   -3.3734   18.9726 H   0  0  0  0  0
   22.4740   -2.8930   21.0930 H   0  0  0  0  0
   25.4867   -2.9684   21.2364 H   0  0  0  0  0
   24.4048   -4.3964   20.9383 H   0  0  0  0  0
   24.3861   -2.6447   23.3994 H   0  0  0  0  0
   25.1652   -4.2333   23.2774 H   0  0  0  0  0
   22.3085   -3.9166   22.4362 H   0  0  0  0  0
   22.7310   -4.0478   24.1887 H   0  0  0  0  0
   23.3495   -6.2670   23.8735 H   0  0  0  0  0
   22.4339   -6.3087   19.9380 H   0  0  0  0  0
   22.5301   -4.7576   20.7782 H   0  0  0  0  0
   23.2290   -8.2035   22.8063 H   0  0  0  0  0
   21.8341   -1.1817   22.3825 H   0  0  0  0  0
   23.0798    1.3555   21.5700 H   0  0  0  0  0
   20.6168    1.1863   21.5408 H   0  0  0  0  0
   20.6049    0.7967   23.2783 H   0  0  0  0  0
   21.1188    2.4116   22.7314 H   0  0  0  0  0
   23.7874    2.3230   26.0559 H   0  0  0  0  0
   22.4781    1.5489   27.8547 H   0  0  0  0  0
   23.3654    0.0513   27.8656 H   0  0  0  0  0
   20.7307    0.6563   26.5378 H   0  0  0  0  0
   21.3166   -0.8691   27.1300 H   0  0  0  0  0
   22.5214   -1.3398   25.1158 H   0  0  0  0  0
   21.2418   -0.4362   24.4614 H   0  0  0  0  0
   25.6276    2.3049   27.3042 H   0  0  0  0  0
   27.8858    2.1632   27.0606 H   0  0  0  0  0
   27.6125    0.9289   25.7041 H   0  0  0  0  0
   28.5248   -0.9596   26.0101 H   0  0  0  0  0
   28.5599   -2.3098   28.5246 H   0  0  0  0  0
   30.7576   -3.2656   27.2681 H   0  0  0  0  0
   29.6879   -2.6037   25.8759 H   0  0  0  0  0
   29.1681   -4.8860   27.7674 H   0  0  0  0  0
   27.1556   -3.5318   27.6127 H   0  0  0  0  0
   27.2681   -3.5391   25.8355 H   0  0  0  0  0
   26.9752   -5.0593   26.7153 H   0  0  0  0  0
   29.3868   -4.6224   24.7414 H   0  0  0  0  0
   30.6007   -5.3572   25.8173 H   0  0  0  0  0
   29.0005   -6.1159   25.6309 H   0  0  0  0  0
   30.0710   -2.5315   30.1300 H   0  0  0  0  0
   31.7929   -0.2062   30.4715 H   0  0  0  0  0
   32.2141   -1.0359   32.6823 H   0  0  0  0  0
   31.5158   -2.6615   32.2266 H   0  0  0  0  0
   29.3675   -1.6542   31.9772 H   0  0  0  0  0
   30.0580   -0.0508   32.4318 H   0  0  0  0  0
   30.7160   -1.0202   34.5994 H   0  0  0  0  0
   29.8753   -2.5288   34.1425 H   0  0  0  0  0
   27.7773   -1.2434   33.8551 H   0  0  0  0  0
   28.6384    0.2348   34.4081 H   0  0  0  0  0
   27.4133   -0.8004   36.1603 H   0  0  0  0  0
   28.2515   -2.2263   35.9578 H   0  0  0  0  0
   29.0496   -0.8562   36.4703 H   0  0  0  0  0
   33.9712   -0.0877   30.5433 H   0  0  0  0  0
   35.4942   -2.5040   29.5837 H   0  0  0  0  0
   36.0466    0.3984   28.9253 H   0  0  0  0  0
   35.2875   -0.1553   26.6585 H   0  0  0  0  0
   33.9616   -0.2792   27.9161 H   0  0  0  0  0
   38.0325   -0.9776   28.9545 H   0  0  0  0  0
   37.2517   -2.1662   27.8828 H   0  0  0  0  0
   37.6036   -0.5256   27.2864 H   0  0  0  0  0
   35.4595   -2.5624   26.6396 H   0  0  0  0  0
   34.1704   -2.6829   27.8622 H   0  0  0  0  0
   33.8042   -2.0394   26.2427 H   0  0  0  0  0
   37.9331   -1.4052   33.1825 H   0  0  0  0  0
   38.4711   -0.0135   30.9494 H   0  0  0  0  0
   38.4259   -3.6930   33.6161 H   0  0  0  0  0
   39.9291   -3.3908   32.8044 H   0  0  0  0  0
   37.9370   -5.1159   31.8956 H   0  0  0  0  0
   39.2538   -4.4594   30.8946 H   0  0  0  0  0
   37.6621   -3.4485   29.6420 H   0  0  0  0  0
   36.4117   -3.9076   30.7443 H   0  0  0  0  0
  1  2  1  0  0  0
  2  3  1  0  0  0
  2  5  1  0  0  0
  3  4  2  0  0  0
  3 12  1  0  0  0
  5  6  1  0  0  0
  6  7  1  0  0  0
  7  8  1  0  0  0
  8  9  1  0  0  0
  9 10  1  0  0  0
  9 11  2  0  0  0
 12 13  1  0  0  0
 13 14  1  0  0  0
 13 16  1  0  0  0
 14 15  2  0  0  0
 14 17  1  0  0  0
 17 18  1  0  0  0
 17 23  1  0  0  0
 18 19  1  0  0  0
 18 21  1  0  0  0
 19 20  2  0  0  0
 19 24  1  0  0  0
 21 22  1  0  0  0
 22 23  1  0  0  0
 24 25  1  0  0  0
 25 26  1  0  0  0
 26 27  2  0  0  0
 26 28  1  0  0  0
 28 29  1  0  0  0
 29 30  1  0  0  0
 29 32  1  0  0  0
 30 31  2  0  0  0
 30 36  1  0  0  0
 32 33  1  0  0  0
 33 34  1  0  0  0
 33 35  1  0  0  0
 36 37  1  0  0  0
 37 38  1  0  0  0
 37 40  1  0  0  0
 38 39  2  0  0  0
 38 45  1  0  0  0
 40 41  1  0  0  0
 41 42  1  0  0  0
 42 43  1  0  0  0
 43 44  1  0  0  0
 45 46  1  0  0  0
 46 47  1  0  0  0
 46 49  1  0  0  0
 47 48  2  0  0  0
 47 53  1  0  0  0
 49 50  1  0  0  0
 49 51  1  0  0  0
 50 52  1  0  0  0
 53 54  1  0  0  0
 53 59  1  0  0  0
 54 55  1  0  0  0
 54 57  1  0  0  0
 55 56  1  0  0  0
 55 60  2  0  0  0
 57 58  1  0  0  0
 58 59  1  0  0  0
  1 61  1  0  0  0
  1 62  1  0  0  0
  1 63  1  0  0  0
  2 64  1  0  0  0
  5 65  1  0  0  0
  5 66  1  0  0  0
  6 67  1  0  0  0
  6 68  1  0  0  0
  7 69  1  0  0  0
  7 70  1  0  0  0
  8 71  1  0  0  0
 10 72  1  0  0  0
 10 73  1  0  0  0
 11 74  1  0  0  0
 12 75  1  0  0  0
 13 76  1  0  0  0
 16 77  1  0  0  0
 16 78  1  0  0  0
 16 79  1  0  0  0
 18 80  1  0  0  0
 21 81  1  0  0  0
 21 82  1  0  0  0
 22 83  1  0  0  0
 22 84  1  0  0  0
 23 85  1  0  0  0
 23 86  1  0  0  0
 24 87  1  0  0  0
 25 88  1  0  0  0
 25 89  1  0  0  0
 28 90  1  0  0  0
 29 91  1  0  0  0
 32 92  1  0  0  0
 32 93  1  0  0  0
 33 94  1  0  0  0
 34 95  1  0  0  0
 34 96  1  0  0  0
 34 97  1  0  0  0
 35 98  1  0  0  0
 35 99  1  0  0  0
 35100  1  0  0  0
 36101  1  0  0  0
 37102  1  0  0  0
 40103  1  0  0  0
 40104  1  0  0  0
 41105  1  0  0  0
 41106  1  0  0  0
 42107  1  0  0  0
 42108  1  0  0  0
 43109  1  0  0  0
 43110  1  0  0  0
 44111  1  0  0  0
 44112  1  0  0  0
 44113  1  0  0  0
 45114  1  0  0  0
 46115  1  0  0  0
 49116  1  0  0  0
 50117  1  0  0  0
 50118  1  0  0  0
 51119  1  0  0  0
 51120  1  0  0  0
 51121  1  0  0  0
 52122  1  0  0  0
 52123  1  0  0  0
 52124  1  0  0  0
 54125  1  0  0  0
 56126  1  0  0  0
 57127  1  0  0  0
 57128  1  0  0  0
 58129  1  0  0  0
 58130  1  0  0  0
 59131  1  0  0  0
 59132  1  0  0  0
M  END
$$$$
