5eth_ligand
  -I-interpret- 

 58 62  0  0  0  0  0  0  0  0999 V2000
  -44.9810    1.7050    9.4110 C   0  0  0  0  0
  -45.9670    5.6850    9.1210 C   0  0  0  0  0
  -44.8580    6.4100    9.4390 C   0  0  0  0  0
  -42.8730    7.3190    9.7310 C   0  0  0  0  0
  -43.6150    9.2570   11.1510 C   0  0  0  0  0
  -48.8610    4.8170   16.2230 O   0  0  0  0  0
  -48.2480    4.2230   15.3480 C   0  0  0  0  0
  -47.3490    3.1890   15.7140 C   0  0  0  0  0
  -46.7150    3.3200   17.2860 S   0  0  0  0  0
  -45.8110    1.8840   17.0640 C   0  0  0  0  0
  -46.0010    1.3170   15.8290 C   0  0  0  0  0
  -46.8990    2.0710   15.0510 C   0  0  0  0  0
  -48.5570    4.3310   14.0100 N   0  0  0  0  0
  -47.6740    4.0560   12.9460 C   0  0  0  0  0
  -46.3290    4.3710   12.9700 C   0  0  0  0  0
  -45.5340    4.0520   11.8910 C   0  0  0  0  0
  -46.0920    3.4350   10.7910 C   0  0  0  0  0
  -45.2680    3.1480    9.5660 N   0  0  0  0  0
  -43.5220    1.3530    9.6380 C   0  0  0  0  0
  -42.7990    2.3880   10.1290 F   0  0  0  0  0
  -43.4170    0.3860   10.5700 F   0  0  0  0  0
  -42.9450    0.9030    8.4880 F   0  0  0  0  0
  -45.7210    4.2080    8.1830 S   0  0  0  0  0
  -43.4860    6.2670    9.1190 C   0  0  0  0  0
  -43.8300    8.0530   10.3800 N   0  0  0  0  0
  -45.0680    7.5190   10.2300 C   0  0  0  0  0
  -46.2770    7.9470   10.7320 C   0  0  0  0  0
  -47.3510    7.1670   10.3970 C   0  0  0  0  0
  -47.2030    6.0490    9.6090 C   0  0  0  0  0
  -47.0400    3.8600    7.6940 O   0  0  0  0  0
  -44.6040    4.4210    7.2740 O   0  0  0  0  0
  -47.4340    3.1290   10.7540 C   0  0  0  0  0
  -48.2110    3.4400   11.8380 C   0  0  0  0  0
  -49.6600    3.1410   11.8320 C   0  0  0  0  0
  -50.2790    4.4570   12.2420 C   0  0  0  0  0
  -49.8710    4.8260   13.6560 C   0  0  0  0  0
  -45.2302    1.4285    8.3865 H   0  0  0  0  0
  -45.5680    1.1710   10.1583 H   0  0  0  0  0
  -41.8056    7.5384    9.7080 H   0  0  0  0  0
  -42.9370    9.0418   11.9769 H   0  0  0  0  0
  -43.1782   10.0236   10.5110 H   0  0  0  0  0
  -44.5683    9.6101   11.5443 H   0  0  0  0  0
  -45.1529    1.4636   17.8244 H   0  0  0  0  0
  -45.5179    0.3994   15.4933 H   0  0  0  0  0
  -47.2029    1.8004   14.0398 H   0  0  0  0  0
  -45.8989    4.8696   13.8386 H   0  0  0  0  0
  -44.4695    4.2860   11.9066 H   0  0  0  0  0
  -43.0221    5.4867    8.5156 H   0  0  0  0  0
  -46.3716    8.8400   11.3498 H   0  0  0  0  0
  -48.3422    7.4368   10.7615 H   0  0  0  0  0
  -48.0759    5.4426    9.3673 H   0  0  0  0  0
  -47.8698    2.6482    9.8782 H   0  0  0  0  0
  -49.9256    2.3222   12.5007 H   0  0  0  0  0
  -50.0154    2.7902   10.8631 H   0  0  0  0  0
  -51.3642    4.3629   12.2022 H   0  0  0  0  0
  -49.9334    5.2354   11.5617 H   0  0  0  0  0
  -49.8463    5.9137   13.7225 H   0  0  0  0  0
  -50.5916    4.3760   14.3388 H   0  0  0  0  0
 18  1  1  0  0  0
  1 19  1  0  0  0
  2  3  4  0  0  0
 23  2  1  0  0  0
  2 29  4  0  0  0
  3 24  4  0  0  0
  3 26  4  0  0  0
 24  4  4  0  0  0
  4 25  4  0  0  0
 25  5  1  0  0  0
  7  6  2  0  0  0
  7  8  1  0  0  0
 13  7  1  0  0  0
  8  9  4  0  0  0
  8 12  4  0  0  0
  9 10  4  0  0  0
 11 10  4  0  0  0
 12 11  4  0  0  0
 14 13  1  0  0  0
 13 36  1  0  0  0
 15 14  4  0  0  0
 14 33  4  0  0  0
 16 15  4  0  0  0
 17 16  4  0  0  0
 18 17  1  0  0  0
 17 32  4  0  0  0
 18 23  1  0  0  0
 19 20  1  0  0  0
 19 21  1  0  0  0
 19 22  1  0  0  0
 23 30  2  0  0  0
 23 31  2  0  0  0
 25 26  4  0  0  0
 26 27  4  0  0  0
 27 28  4  0  0  0
 28 29  4  0  0  0
 32 33  4  0  0  0
 33 34  1  0  0  0
 34 35  1  0  0  0
 35 36  1  0  0  0
  1 37  1  0  0  0
  1 38  1  0  0  0
  4 39  1  0  0  0
  5 40  1  0  0  0
  5 41  1  0  0  0
  5 42  1  0  0  0
 10 43  1  0  0  0
 11 44  1  0  0  0
 12 45  1  0  0  0
 15 46  1  0  0  0
 16 47  1  0  0  0
 24 48  1  0  0  0
 27 49  1  0  0  0
 28 50  1  0  0  0
 29 51  1  0  0  0
 32 52  1  0  0  0
 34 53  1  0  0  0
 34 54  1  0  0  0
 35 55  1  0  0  0
 35 56  1  0  0  0
 36 57  1  0  0  0
 36 58  1  0  0  0
M  END
$$$$
