### 
### Created by X-TOOL on Mon Sep 10 21:13:03 2018
### 

@<TRIPOS>MOLECULE
3g5y_ligand
  227   228     1     0     0
SMALL
GAST_HUCK


@<TRIPOS>ATOM
      1 N           1.6430   20.7810    8.3570 N.4       1 CYS         0.2385
      2 CA          1.4170   22.2500    8.5010 C.3       1 CYS         0.0749
      3 C           2.7520   22.9840    8.6810 C.2       1 CYS         0.2273
      4 O           3.6380   22.4810    9.3700 O.2       1 CYS        -0.3907
      5 CB          0.4650   22.5180    9.6710 C.3       1 CYS         0.0643
      6 SG         -1.1720   21.6600    9.5080 S.3       1 CYS        -0.0848
      7 N           2.8900   24.1560    8.0560 N.am      1 GLY        -0.2637
      8 CA          4.1350   24.9440    8.1080 C.3       1 GLY         0.1202
      9 C           4.5890   25.3000    9.5170 C.2       1 GLY         0.2007
     10 O           3.8160   25.1870   10.4810 O.2       1 GLY        -0.3947
     11 N           5.8460   25.7320    9.6430 N.am      1 ALA        -0.2642
     12 CA          6.4720   25.9520   10.9580 C.3       1 ALA         0.1282
     13 C           5.7910   27.0700   11.7530 C.2       1 ALA         0.2037
     14 O           6.0770   27.2790   12.9340 O.2       1 ALA        -0.3944
     15 CB          7.9730   26.2130   10.8080 C.3       1 ALA        -0.0244
     16 N           4.8820   27.7770   11.0930 N.am      1 ASP        -0.2622
     17 CA          4.1210   28.8620   11.7070 C.3       1 ASP         0.1423
     18 C           2.7350   28.3860   12.1740 C.2       1 ASP         0.2057
     19 O           1.9320   29.1810   12.6590 O.2       1 ASP        -0.3943
     20 CB          3.9430   29.9810   10.6780 C.3       1 ASP         0.0406
     21 CG          3.0450   29.5540    9.5210 C.2       1 ASP         0.0393
     22 OD1         3.2520   28.4310    8.9760 O.co2     1 ASP        -0.5688
     23 OD2         2.1160   30.3250    9.1810 O.co2     1 ASP        -0.5688
     24 N           2.4710   27.0920   12.0310 N.am      1 SER        -0.2615
     25 CA          1.1290   26.5280   12.1670 C.3       1 SER         0.1539
     26 C           1.0770   25.2400   12.9770 C.2       1 SER         0.2063
     27 O           2.1040   24.6170   13.2370 O.2       1 SER        -0.3943
     28 CB          0.5760   26.2160   10.7810 C.3       1 SER         0.0843
     29 OG         -0.3780   27.1770   10.4170 O.3       1 SER        -0.3903
     30 N          -0.1310   24.8450   13.3770 N.am      1 TYR        -0.2621
     31 CA         -0.3750   23.4820   13.8530 C.3       1 TYR         0.1390
     32 C          -1.6910   22.9550   13.2780 C.2       1 TYR         0.2057
     33 O          -2.5590   23.7460   12.9250 O.2       1 TYR        -0.3942
     34 CB         -0.2990   23.3620   15.4020 C.3       1 TYR         0.0163
     35 CG         -1.2700   24.1840   16.2360 C.ar      1 TYR        -0.0493
     36 CD1        -2.4000   23.5940   16.7970 C.ar      1 TYR        -0.0685
     37 CD2        -1.0190   25.5300   16.5280 C.ar      1 TYR        -0.0685
     38 CE1        -3.2890   24.3310   17.5770 C.ar      1 TYR        -0.0398
     39 CE2        -1.9010   26.2760   17.3060 C.ar      1 TYR        -0.0398
     40 CZ         -3.0300   25.6690   17.8290 C.ar      1 TYR         0.0805
     41 OH         -3.9020   26.3990   18.6040 O.3       1 TYR        -0.3376
     42 N          -1.8260   21.6380   13.1510 N.am      1 GLU        -0.2635
     43 CA         -3.1060   21.0600   12.7150 C.3       1 GLU         0.1325
     44 C          -4.1990   21.2240   13.7720 C.2       1 GLU         0.2040
     45 O          -4.0370   20.8200   14.9350 O.2       1 GLU        -0.3944
     46 CB         -2.9570   19.5860   12.3300 C.3       1 GLU        -0.0008
     47 CG         -4.2300   19.0180   11.6560 C.3       1 GLU         0.0044
     48 CD         -4.1350   17.5270   11.4030 C.2       1 GLU         0.0350
     49 OE1        -3.8540   16.7950   12.3760 O.co2     1 GLU        -0.5690
     50 OE2        -4.3540   17.0690   10.2510 O.co2     1 GLU        -0.5690
     51 N          -5.3120   21.8240   13.3750 N.am      1 MET        -0.2637
     52 CA         -6.4490   21.9480   14.2830 C.3       1 MET         0.1317
     53 C          -7.6640   21.2160   13.7020 C.2       1 MET         0.2039
     54 O          -7.5960   20.7140   12.5840 O.2       1 MET        -0.3944
     55 CB         -6.7560   23.4220   14.5980 C.3       1 MET        -0.0034
     56 CG         -7.0190   24.3440   13.4050 C.3       1 MET        -0.0024
     57 SD         -8.7520   24.5060   12.9340 S.3       1 MET        -0.1639
     58 CE         -9.4860   25.3540   14.3390 C.3       1 MET        -0.0181
     59 N          -8.7240   21.0790   14.4900 N.am      1 GLU        -0.2636
     60 CA         -9.9060   20.4390   13.9850 C.3       1 GLU         0.1325
     61 C         -11.0780   21.3930   14.1800 C.2       1 GLU         0.2040
     62 O         -11.2950   21.9070   15.2790 O.2       1 GLU        -0.3944
     63 CB        -10.1170   19.0910   14.6910 C.3       1 GLU        -0.0008
     64 CG        -11.4750   18.4540   14.4630 C.3       1 GLU         0.0044
     65 CD        -12.5460   18.9100   15.4390 C.2       1 GLU         0.0350
     66 OE1       -13.5990   19.3710   14.9750 O.co2     1 GLU        -0.5690
     67 OE2       -12.3620   18.7840   16.6770 O.co2     1 GLU        -0.5690
     68 N         -11.8340   21.6150   13.1110 N.am      1 GLU        -0.2636
     69 CA        -13.0370   22.4480   13.1520 C.3       1 GLU         0.1325
     70 C         -14.1700   21.6450   12.4990 C.2       1 GLU         0.2041
     71 O         -14.0700   21.3250   11.3300 O.2       1 GLU        -0.3944
     72 CB        -12.7910   23.7480   12.3670 C.3       1 GLU        -0.0008
     73 CG        -13.9540   24.7270   12.3980 C.3       1 GLU         0.0044
     74 CD        -13.7770   25.9370   11.4540 C.2       1 GLU         0.0350
     75 OE1       -12.6540   26.1480   10.8920 O.co2     1 GLU        -0.5690
     76 OE2       -14.7840   26.6820   11.2950 O.co2     1 GLU        -0.5690
     77 N         -15.2180   21.2900   13.2520 N.am      1 ASP        -0.2622
     78 CA        -16.3900   20.5830   12.6760 C.3       1 ASP         0.1423
     79 C         -16.0360   19.2100   12.1370 C.2       1 ASP         0.2054
     80 O         -16.7000   18.6940   11.2200 O.2       1 ASP        -0.3943
     81 CB        -17.0660   21.3960   11.5560 C.3       1 ASP         0.0406
     82 CG        -17.9780   22.4800   12.0880 C.2       1 ASP         0.0393
     83 OD1       -18.3490   22.4070   13.2730 O.co2     1 ASP        -0.5688
     84 OD2       -18.3170   23.3990   11.3130 O.co2     1 ASP        -0.5688
     85 N         -14.9850   18.6240   12.6900 N.am      1 GLY        -0.2663
     86 CA        -14.5380   17.3060   12.2260 C.3       1 GLY         0.1201
     87 C         -13.5030   17.4180   11.1040 C.2       1 GLY         0.2008
     88 O         -12.9820   16.4080   10.6550 O.2       1 GLY        -0.3947
     89 N         -13.1960   18.6370   10.6420 N.am      1 VAL        -0.2637
     90 CA        -12.2350   18.8300    9.5370 C.3       1 VAL         0.1332
     91 C         -10.9020   19.2900   10.0950 C.2       1 VAL         0.2041
     92 O         -10.8320   20.2780   10.8280 O.2       1 VAL        -0.3944
     93 CB        -12.7570   19.8730    8.4900 C.3       1 VAL        -0.0063
     94 CG1       -11.8060   19.9720    7.2720 C.3       1 VAL        -0.0584
     95 CG2       -14.1930   19.5300    8.0480 C.3       1 VAL        -0.0584
     96 N          -9.8370   18.5750    9.7620 N.am      1 ARG        -0.2637
     97 CA         -8.4830   18.9800   10.1790 C.3       1 ARG         0.1311
     98 C          -7.9750   20.0240    9.2100 C.2       1 ARG         0.2039
     99 O          -8.2240   19.9150    7.9830 O.2       1 ARG        -0.3944
    100 CB         -7.5310   17.7830   10.1780 C.3       1 ARG        -0.0092
    101 CG         -7.7020   16.8350   11.3840 C.3       1 ARG        -0.0156
    102 CD         -9.1140   16.3720   11.5070 C.3       1 ARG         0.0627
    103 NE         -9.1700   15.2560   12.4490 N.pl3     1 ARG        -0.2723
    104 CZ        -10.2610   14.5660   12.7640 C.cat     1 ARG         0.2882
    105 NH1       -11.4410   14.8660   12.2220 N.pl3     1 ARG        -0.2849
    106 NH2       -10.1520   13.5590   13.6290 N.pl3     1 ARG        -0.2849
    107 N          -7.2820   21.0330    9.7470 N.am      1 LYS        -0.2637
    108 CA         -6.8640   22.2000    8.9560 C.3       1 LYS         0.1309
    109 C          -5.6060   22.6850    9.6020 C.2       1 LYS         0.2034
    110 O          -5.4450   22.5230   10.8030 O.2       1 LYS        -0.3944
    111 CB         -7.8840   23.3560    8.9870 C.3       1 LYS        -0.0122
    112 CG         -9.2720   22.9790    8.4790 C.3       1 LYS        -0.0440
    113 CD        -10.2790   24.0680    8.7950 C.3       1 LYS        -0.0124
    114 CE        -11.6450   23.6690    8.2960 C.3       1 LYS        -0.0354
    115 NZ        -12.6160   24.7340    8.5820 N.4       1 LYS         0.2185
    116 N          -4.7310   23.2800    8.8040 N.am      1 CYS        -0.2687
    117 CA         -3.4950   23.8960    9.3000 C.3       1 CYS         0.1041
    118 C          -3.7900   25.2950    9.7960 C.2       1 CYS         0.0609
    119 O          -4.3490   26.0850    9.0370 O.co2     1 CYS        -0.5666
    120 CB         -2.4710   23.9630    8.1740 C.3       1 CYS         0.0388
    121 SG         -1.9420   22.3180    7.7310 S.3       1 CYS        -0.0887
    122 OXT        -3.4520   25.6670   10.9430 O.co2     1 CYS        -0.5666
    123 H1          0.7571   20.3147    8.2398 H         1 CYS         0.2015
    124 H2          2.1013   20.4290    9.1829 H         1 CYS         0.2015
    125 H3          2.2231   20.6077    7.5511 H         1 CYS         0.2015
    126 H4          0.9438   22.6215    7.5801 H         1 CYS         0.1107
    127 H5          0.2852   23.6015    9.7319 H         1 CYS         0.0466
    128 H6          0.9473   22.1737   10.5977 H         1 CYS         0.0466
    129 H7          2.1175   24.5137    7.5314 H         1 GLY         0.1882
    130 H8          3.9754   25.8787    7.5504 H         1 GLY         0.0763
    131 H9          4.9330   24.3607    7.6254 H         1 GLY         0.0763
    132 H10         6.3803   25.9122    8.8171 H         1 ALA         0.1883
    133 H11         6.3532   25.0236   11.5358 H         1 ALA         0.0797
    134 H12         8.4181   26.3741   11.8009 H         1 ALA         0.0277
    135 H13         8.1294   27.1071   10.1866 H         1 ALA         0.0277
    136 H14         8.4500   25.3454   10.3288 H         1 ALA         0.0277
    137 H15         4.7105   27.5570   10.1327 H         1 ASP         0.1884
    138 H16         4.6786   29.2451   12.5743 H         1 ASP         0.0819
    139 H17         4.9301   30.2569   10.2786 H         1 ASP         0.0478
    140 H18         3.4919   30.8525   11.1750 H         1 ASP         0.0478
    141 H19         3.2275   26.4731   11.8199 H         1 SER         0.1884
    142 H20         0.4898   27.2764   12.6583 H         1 SER         0.0823
    143 H21         0.1054   25.2218   10.7920 H         1 SER         0.0606
    144 H22         1.3983   26.2244   10.0505 H         1 SER         0.0606
    145 H23        -0.7164   26.9742    9.5527 H         1 SER         0.2097
    146 H24        -0.8899   25.4957   13.3515 H         1 TYR         0.1885
    147 H25         0.4298   22.8496   13.4502 H         1 TYR         0.0821
    148 H26         0.7178   23.6553   15.7022 H         1 TYR         0.0453
    149 H27        -0.4656   22.3047   15.6556 H         1 TYR         0.0453
    150 H28        -2.5916   22.5413   16.6236 H         1 TYR         0.0530
    151 H29        -0.1219   26.0001   16.1416 H         1 TYR         0.0530
    152 H30        -4.1770   23.8610   17.9839 H         1 TYR         0.0525
    153 H31        -1.7049   27.3242   17.5006 H         1 TYR         0.0525
    154 H32        -4.6189   25.8415   18.8828 H         1 TYR         0.2458
    155 H33        -1.0525   21.0373   13.3532 H         1 GLU         0.1883
    156 H34        -3.4256   21.6096   11.8173 H         1 GLU         0.0801
    157 H35        -2.7493   19.0030   13.2394 H         1 GLU         0.0330
    158 H36        -2.1137   19.4875   11.6307 H         1 GLU         0.0330
    159 H37        -4.3788   19.5304   10.6941 H         1 GLU         0.0433
    160 H38        -5.0923   19.2106   12.3113 H         1 GLU         0.0433
    161 H39        -5.3736   22.1941   12.4480 H         1 MET         0.1883
    162 H40        -6.1817   21.4562   15.2299 H         1 MET         0.0800
    163 H41        -5.8966   23.8299   15.1503 H         1 MET         0.0320
    164 H42        -7.6491   23.4458   15.2397 H         1 MET         0.0320
    165 H43        -6.4659   23.9490   12.5401 H         1 MET         0.0378
    166 H44        -6.6390   25.3450   13.6572 H         1 MET         0.0378
    167 H45       -10.5597   25.5067   14.1550 H         1 MET         0.0340
    168 H46        -8.9952   26.3288   14.4762 H         1 MET         0.0340
    169 H47        -9.3523   24.7453   15.2454 H         1 MET         0.0340
    170 H48        -8.6992   21.4196   15.4299 H         1 GLU         0.1883
    171 H49        -9.7823   20.2487   12.9087 H         1 GLU         0.0801
    172 H50        -9.9912   19.2486   15.7723 H         1 GLU         0.0330
    173 H51        -9.3475   18.3926   14.3303 H         1 GLU         0.0330
    174 H52       -11.3649   17.3635   14.5558 H         1 GLU         0.0433
    175 H53       -11.8070   18.7037   13.4445 H         1 GLU         0.0433
    176 H54       -11.5706   21.1958   12.2422 H         1 GLU         0.1883
    177 H55       -13.2964   22.6889   14.1935 H         1 GLU         0.0801
    178 H56       -12.5905   23.4844   11.3181 H         1 GLU         0.0330
    179 H57       -11.9090   24.2471   12.7947 H         1 GLU         0.0330
    180 H58       -14.0636   25.1026   13.4260 H         1 GLU         0.0433
    181 H59       -14.8677   24.1893   12.1046 H         1 GLU         0.0433
    182 H60       -15.2116   21.5066   14.2283 H         1 ASP         0.1884
    183 H61       -17.1209   20.4494   13.4871 H         1 ASP         0.0819
    184 H62       -17.6602   20.7107   10.9337 H         1 ASP         0.0478
    185 H63       -16.2839   21.8651   10.9409 H         1 ASP         0.0478
    186 H64       -14.4925   19.0833   13.4293 H         1 GLY         0.1881
    187 H65       -15.4082   16.7462   11.8527 H         1 GLY         0.0763
    188 H66       -14.0888   16.7645   13.0716 H         1 GLY         0.0763
    189 H67       -13.6288   19.4377   11.0561 H         1 VAL         0.1883
    190 H68       -12.0931   17.8659    9.0267 H         1 VAL         0.0802
    191 H69       -12.7803   20.8583    8.9785 H         1 VAL         0.0343
    192 H70       -12.2001   20.7104    6.5582 H         1 VAL         0.0234
    193 H71       -11.7347   18.9899    6.7817 H         1 VAL         0.0234
    194 H72       -10.8077   20.2861    7.6108 H         1 VAL         0.0234
    195 H73       -14.8436   19.4666    8.9327 H         1 VAL         0.0234
    196 H74       -14.1939   18.5638    7.5222 H         1 VAL         0.0234
    197 H75       -14.5664   20.3148    7.3737 H         1 VAL         0.0234
    198 H76        -9.9545   17.7447    9.2173 H         1 ARG         0.1883
    199 H77        -8.5263   19.4059   11.1923 H         1 ARG         0.0800
    200 H78        -6.4989   18.1635   10.1825 H         1 ARG         0.0313
    201 H79        -7.7048   17.2052    9.2582 H         1 ARG         0.0313
    202 H80        -7.4174   17.3680   12.3032 H         1 ARG         0.0301
    203 H81        -7.0478   15.9610   11.2495 H         1 ARG         0.0301
    204 H82        -9.4809   16.0429   10.5236 H         1 ARG         0.0689
    205 H83        -9.7416   17.1969   11.8753 H         1 ARG         0.0689
    206 H84        -8.2895   14.9812   12.9074 H         1 ARG         0.2642
    207 H85       -12.2778   14.3218   12.4762 H         1 ARG         0.2615
    208 H86       -11.5162   15.6420   11.5489 H         1 ARG         0.2615
    209 H87        -9.2366   13.3331   14.0437 H         1 ARG         0.2615
    210 H88       -10.9831   13.0062   13.8832 H         1 ARG         0.2615
    211 H89        -7.0404   20.9930   10.7165 H         1 LYS         0.1883
    212 H90        -6.6826   21.9001    7.9134 H         1 LYS         0.0800
    213 H91        -7.4978   24.1737    8.3607 H         1 LYS         0.0312
    214 H92        -7.9798   23.7038   10.0261 H         1 LYS         0.0312
    215 H93        -9.5903   22.0433    8.9619 H         1 LYS         0.0269
    216 H94        -9.2293   22.8333    7.3895 H         1 LYS         0.0269
    217 H95        -9.9707   25.0027    8.3039 H         1 LYS         0.0317
    218 H96       -10.3196   24.2217    9.8834 H         1 LYS         0.0317
    219 H97       -11.9607   22.7435    8.7998 H         1 LYS         0.0813
    220 H98       -11.6007   23.4987    7.2102 H         1 LYS         0.0813
    221 H99       -13.5254   24.4588    8.2453 H         1 LYS         0.1994
    222 H100      -12.3294   25.5829    8.1201 H         1 LYS         0.1994
    223 H101      -12.6594   24.8909    9.5768 H         1 LYS         0.1994
    224 H102       -4.9211   23.3104    7.8227 H         1 CYS         0.1876
    225 H103       -3.0915   23.2922   10.1262 H         1 CYS         0.0734
    226 H104       -1.6010   24.5479    8.5072 H         1 CYS         0.0425
    227 H105       -2.9250   24.4480    7.2973 H         1 CYS         0.0425
@<TRIPOS>BOND
     1    1    2 1  
     2    2    3 1  
     3    2    5 1  
     4    3    4 2  
     5    3    7 am 
     6    5    6 1  
     7    6  121 1  
     8    7    8 1  
     9    8    9 1  
    10    9   10 2  
    11    9   11 am 
    12   11   12 1  
    13   12   13 1  
    14   12   15 1  
    15   13   14 2  
    16   13   16 am 
    17   16   17 1  
    18   17   18 1  
    19   17   20 1  
    20   18   19 2  
    21   18   24 am 
    22   20   21 1  
    23   21   22 ar 
    24   21   23 ar 
    25   24   25 1  
    26   25   26 1  
    27   25   28 1  
    28   26   27 2  
    29   26   30 am 
    30   28   29 1  
    31   30   31 1  
    32   31   32 1  
    33   31   34 1  
    34   32   33 2  
    35   32   42 am 
    36   34   35 1  
    37   35   36 ar 
    38   35   37 ar 
    39   36   38 ar 
    40   37   39 ar 
    41   38   40 ar 
    42   39   40 ar 
    43   40   41 1  
    44   42   43 1  
    45   43   44 1  
    46   43   46 1  
    47   44   45 2  
    48   44   51 am 
    49   46   47 1  
    50   47   48 1  
    51   48   49 ar 
    52   48   50 ar 
    53   51   52 1  
    54   52   53 1  
    55   52   55 1  
    56   53   54 2  
    57   53   59 am 
    58   55   56 1  
    59   56   57 1  
    60   57   58 1  
    61   59   60 1  
    62   60   61 1  
    63   60   63 1  
    64   61   62 2  
    65   61   68 am 
    66   63   64 1  
    67   64   65 1  
    68   65   66 ar 
    69   65   67 ar 
    70   68   69 1  
    71   69   70 1  
    72   69   72 1  
    73   70   71 2  
    74   70   77 am 
    75   72   73 1  
    76   73   74 1  
    77   74   75 ar 
    78   74   76 ar 
    79   77   78 1  
    80   78   79 1  
    81   78   81 1  
    82   79   80 2  
    83   79   85 am 
    84   81   82 1  
    85   82   83 ar 
    86   82   84 ar 
    87   85   86 1  
    88   86   87 1  
    89   87   88 2  
    90   87   89 am 
    91   89   90 1  
    92   90   91 1  
    93   90   93 1  
    94   91   92 2  
    95   91   96 am 
    96   93   94 1  
    97   93   95 1  
    98   96   97 1  
    99   97   98 1  
   100   97  100 1  
   101   98   99 2  
   102   98  107 am 
   103  100  101 1  
   104  101  102 1  
   105  102  103 1  
   106  103  104 ar 
   107  104  105 ar 
   108  104  106 ar 
   109  107  108 1  
   110  108  109 1  
   111  108  111 1  
   112  109  110 2  
   113  109  116 am 
   114  111  112 1  
   115  112  113 1  
   116  113  114 1  
   117  114  115 1  
   118  116  117 1  
   119  117  118 1  
   120  117  120 1  
   121  118  119 ar 
   122  118  122 ar 
   123  120  121 1  
   124    1  123 1  
   125    1  124 1  
   126    1  125 1  
   127    2  126 1  
   128    5  127 1  
   129    5  128 1  
   130    7  129 1  
   131    8  130 1  
   132    8  131 1  
   133   11  132 1  
   134   12  133 1  
   135   15  134 1  
   136   15  135 1  
   137   15  136 1  
   138   16  137 1  
   139   17  138 1  
   140   20  139 1  
   141   20  140 1  
   142   24  141 1  
   143   25  142 1  
   144   28  143 1  
   145   28  144 1  
   146   29  145 1  
   147   30  146 1  
   148   31  147 1  
   149   34  148 1  
   150   34  149 1  
   151   36  150 1  
   152   37  151 1  
   153   38  152 1  
   154   39  153 1  
   155   41  154 1  
   156   42  155 1  
   157   43  156 1  
   158   46  157 1  
   159   46  158 1  
   160   47  159 1  
   161   47  160 1  
   162   51  161 1  
   163   52  162 1  
   164   55  163 1  
   165   55  164 1  
   166   56  165 1  
   167   56  166 1  
   168   58  167 1  
   169   58  168 1  
   170   58  169 1  
   171   59  170 1  
   172   60  171 1  
   173   63  172 1  
   174   63  173 1  
   175   64  174 1  
   176   64  175 1  
   177   68  176 1  
   178   69  177 1  
   179   72  178 1  
   180   72  179 1  
   181   73  180 1  
   182   73  181 1  
   183   77  182 1  
   184   78  183 1  
   185   81  184 1  
   186   81  185 1  
   187   85  186 1  
   188   86  187 1  
   189   86  188 1  
   190   89  189 1  
   191   90  190 1  
   192   93  191 1  
   193   94  192 1  
   194   94  193 1  
   195   94  194 1  
   196   95  195 1  
   197   95  196 1  
   198   95  197 1  
   199   96  198 1  
   200   97  199 1  
   201  100  200 1  
   202  100  201 1  
   203  101  202 1  
   204  101  203 1  
   205  102  204 1  
   206  102  205 1  
   207  103  206 1  
   208  105  207 1  
   209  105  208 1  
   210  106  209 1  
   211  106  210 1  
   212  107  211 1  
   213  108  212 1  
   214  111  213 1  
   215  111  214 1  
   216  112  215 1  
   217  112  216 1  
   218  113  217 1  
   219  113  218 1  
   220  114  219 1  
   221  114  220 1  
   222  115  221 1  
   223  115  222 1  
   224  115  223 1  
   225  116  224 1  
   226  117  225 1  
   227  120  226 1  
   228  120  227 1  
@<TRIPOS>SUBSTRUCTURE
     1 CYS         1

