3g5y_ligand
  -I-interpret- 

232233  0  0  0  0  0  0  0  0999 V2000
    1.6430   20.7810    8.3570 N   0  3  0  0  0
    1.4170   22.2500    8.5010 C   0  0  0  0  0
    2.7520   22.9840    8.6810 C   0  0  0  0  0
    3.6380   22.4810    9.3700 O   0  0  0  0  0
    0.4650   22.5180    9.6710 C   0  0  0  0  0
   -1.1720   21.6600    9.5080 S   0  0  0  0  0
    2.8900   24.1560    8.0560 N   0  0  0  0  0
    4.1350   24.9440    8.1080 C   0  0  0  0  0
    4.5890   25.3000    9.5170 C   0  0  0  0  0
    3.8160   25.1870   10.4810 O   0  0  0  0  0
    5.8460   25.7320    9.6430 N   0  0  0  0  0
    6.4720   25.9520   10.9580 C   0  0  0  0  0
    5.7910   27.0700   11.7530 C   0  0  0  0  0
    6.0770   27.2790   12.9340 O   0  0  0  0  0
    7.9730   26.2130   10.8080 C   0  0  0  0  0
    4.8820   27.7770   11.0930 N   0  0  0  0  0
    4.1210   28.8620   11.7070 C   0  0  0  0  0
    2.7350   28.3860   12.1740 C   0  0  0  0  0
    1.9320   29.1810   12.6590 O   0  0  0  0  0
    3.9430   29.9810   10.6780 C   0  0  0  0  0
    3.0450   29.5540    9.5210 C   0  0  0  0  0
    3.2520   28.4310    8.9760 O   0  0  0  0  0
    2.1160   30.3250    9.1810 O   0  0  0  0  0
    2.4710   27.0920   12.0310 N   0  0  0  0  0
    1.1290   26.5280   12.1670 C   0  0  0  0  0
    1.0770   25.2400   12.9770 C   0  0  0  0  0
    2.1040   24.6170   13.2370 O   0  0  0  0  0
    0.5760   26.2160   10.7810 C   0  0  0  0  0
   -0.3780   27.1770   10.4170 O   0  0  0  0  0
   -0.1310   24.8450   13.3770 N   0  0  0  0  0
   -0.3750   23.4820   13.8530 C   0  0  0  0  0
   -1.6910   22.9550   13.2780 C   0  0  0  0  0
   -2.5590   23.7460   12.9250 O   0  0  0  0  0
   -0.2990   23.3620   15.4020 C   0  0  0  0  0
   -1.2700   24.1840   16.2360 C   0  0  0  0  0
   -2.4000   23.5940   16.7970 C   0  0  0  0  0
   -1.0190   25.5300   16.5280 C   0  0  0  0  0
   -3.2890   24.3310   17.5770 C   0  0  0  0  0
   -1.9010   26.2760   17.3060 C   0  0  0  0  0
   -3.0300   25.6690   17.8290 C   0  0  0  0  0
   -3.9020   26.3990   18.6040 O   0  0  0  0  0
   -1.8260   21.6380   13.1510 N   0  0  0  0  0
   -3.1060   21.0600   12.7150 C   0  0  0  0  0
   -4.1990   21.2240   13.7720 C   0  0  0  0  0
   -4.0370   20.8200   14.9350 O   0  0  0  0  0
   -2.9570   19.5860   12.3300 C   0  0  0  0  0
   -4.2300   19.0180   11.6560 C   0  0  0  0  0
   -4.1350   17.5270   11.4030 C   0  0  0  0  0
   -3.8540   16.7950   12.3760 O   0  0  0  0  0
   -4.3540   17.0690   10.2510 O   0  0  0  0  0
   -5.3120   21.8240   13.3750 N   0  0  0  0  0
   -6.4490   21.9480   14.2830 C   0  0  0  0  0
   -7.6640   21.2160   13.7020 C   0  0  0  0  0
   -7.5960   20.7140   12.5840 O   0  0  0  0  0
   -6.7560   23.4220   14.5980 C   0  0  0  0  0
   -7.0190   24.3440   13.4050 C   0  0  0  0  0
   -8.7520   24.5060   12.9340 S   0  0  0  0  0
   -9.4860   25.3540   14.3390 C   0  0  0  0  0
   -8.7240   21.0790   14.4900 N   0  0  0  0  0
   -9.9060   20.4390   13.9850 C   0  0  0  0  0
  -11.0780   21.3930   14.1800 C   0  0  0  0  0
  -11.2950   21.9070   15.2790 O   0  0  0  0  0
  -10.1170   19.0910   14.6910 C   0  0  0  0  0
  -11.4750   18.4540   14.4630 C   0  0  0  0  0
  -12.5460   18.9100   15.4390 C   0  0  0  0  0
  -13.5990   19.3710   14.9750 O   0  0  0  0  0
  -12.3620   18.7840   16.6770 O   0  0  0  0  0
  -11.8340   21.6150   13.1110 N   0  0  0  0  0
  -13.0370   22.4480   13.1520 C   0  0  0  0  0
  -14.1700   21.6450   12.4990 C   0  0  0  0  0
  -14.0700   21.3250   11.3300 O   0  0  0  0  0
  -12.7910   23.7480   12.3670 C   0  0  0  0  0
  -13.9540   24.7270   12.3980 C   0  0  0  0  0
  -13.7770   25.9370   11.4540 C   0  0  0  0  0
  -12.6540   26.1480   10.8920 O   0  0  0  0  0
  -14.7840   26.6820   11.2950 O   0  0  0  0  0
  -15.2180   21.2900   13.2520 N   0  0  0  0  0
  -16.3900   20.5830   12.6760 C   0  0  0  0  0
  -16.0360   19.2100   12.1370 C   0  0  0  0  0
  -16.7000   18.6940   11.2200 O   0  0  0  0  0
  -17.0660   21.3960   11.5560 C   0  0  0  0  0
  -17.9780   22.4800   12.0880 C   0  0  0  0  0
  -18.3490   22.4070   13.2730 O   0  0  0  0  0
  -18.3170   23.3990   11.3130 O   0  0  0  0  0
  -14.9850   18.6240   12.6900 N   0  0  0  0  0
  -14.5380   17.3060   12.2260 C   0  0  0  0  0
  -13.5030   17.4180   11.1040 C   0  0  0  0  0
  -12.9820   16.4080   10.6550 O   0  0  0  0  0
  -13.1960   18.6370   10.6420 N   0  0  0  0  0
  -12.2350   18.8300    9.5370 C   0  0  0  0  0
  -10.9020   19.2900   10.0950 C   0  0  0  0  0
  -10.8320   20.2780   10.8280 O   0  0  0  0  0
  -12.7570   19.8730    8.4900 C   0  0  0  0  0
  -11.8060   19.9720    7.2720 C   0  0  0  0  0
  -14.1930   19.5300    8.0480 C   0  0  0  0  0
   -9.8370   18.5750    9.7620 N   0  0  0  0  0
   -8.4830   18.9800   10.1790 C   0  0  0  0  0
   -7.9750   20.0240    9.2100 C   0  0  0  0  0
   -8.2240   19.9150    7.9830 O   0  0  0  0  0
   -7.5310   17.7830   10.1780 C   0  0  0  0  0
   -7.7020   16.8350   11.3840 C   0  0  0  0  0
   -9.1140   16.3720   11.5070 C   0  0  0  0  0
   -9.1700   15.2560   12.4490 N   0  0  0  0  0
  -10.2610   14.5660   12.7640 C   0  0  0  0  0
  -11.4410   14.8660   12.2220 N   0  0  0  0  0
  -10.1520   13.5590   13.6290 N   0  0  0  0  0
   -7.2820   21.0330    9.7470 N   0  0  0  0  0
   -6.8640   22.2000    8.9560 C   0  0  0  0  0
   -5.6060   22.6850    9.6020 C   0  0  0  0  0
   -5.4450   22.5230   10.8030 O   0  0  0  0  0
   -7.8840   23.3560    8.9870 C   0  0  0  0  0
   -9.2720   22.9790    8.4790 C   0  0  0  0  0
  -10.2790   24.0680    8.7950 C   0  0  0  0  0
  -11.6450   23.6690    8.2960 C   0  0  0  0  0
  -12.6160   24.7340    8.5820 N   0  3  0  0  0
   -4.7310   23.2800    8.8040 N   0  0  0  0  0
   -3.4950   23.8960    9.3000 C   0  0  0  0  0
   -3.7900   25.2950    9.7960 C   0  0  0  0  0
   -4.3490   26.0850    9.0370 O   0  0  0  0  0
   -2.4710   23.9630    8.1740 C   0  0  0  0  0
   -1.9420   22.3180    7.7310 S   0  0  0  0  0
   -3.4520   25.6670   10.9430 O   0  0  0  0  0
    2.2773   20.6107    7.5766 H   0  0  0  0  0
    2.0534   20.4155    9.2163 H   0  0  0  0  0
    0.7521   20.3169    8.1801 H   0  0  0  0  0
    0.9533   22.6328    7.5919 H   0  0  0  0  0
    0.2710   23.5903    9.6955 H   0  0  0  0  0
    0.9434   22.1404   10.5747 H   0  0  0  0  0
    2.1020   24.5209    7.5209 H   0  0  0  0  0
    3.9449   25.8811    7.5847 H   0  0  0  0  0
    4.9205   24.3346    7.6611 H   0  0  0  0  0
    6.3909   25.9158    8.8006 H   0  0  0  0  0
    6.3368   25.0361   11.5332 H   0  0  0  0  0
    8.4444   25.3526   10.3330 H   0  0  0  0  0
    8.1266   27.0991   10.1921 H   0  0  0  0  0
    8.4129   26.3725   11.7925 H   0  0  0  0  0
    4.7071   27.5526   10.1135 H   0  0  0  0  0
    4.6698   29.2171   12.5793 H   0  0  0  0  0
    4.9237   30.2325   10.2741 H   0  0  0  0  0
    3.4772   30.8315   11.1757 H   0  0  0  0  0
    4.0097   28.0107    9.3894 H   0  0  0  0  0
    3.2427   26.4607   11.8157 H   0  0  0  0  0
    0.5416   27.2777   12.6971 H   0  0  0  0  0
    0.1063   25.2325   10.7957 H   0  0  0  0  0
    1.3919   26.2294   10.0583 H   0  0  0  0  0
   -0.7199   26.9720    9.5437 H   0  0  0  0  0
   -0.9051   25.5087   13.3510 H   0  0  0  0  0
    0.4301   22.8461   13.4848 H   0  0  0  0  0
    0.6918   23.7288   15.6702 H   0  0  0  0  0
   -0.5408   22.3221   15.6217 H   0  0  0  0  0
   -2.5927   22.5354   16.6226 H   0  0  0  0  0
   -0.1170   26.0027   16.1394 H   0  0  0  0  0
   -4.1820   23.8584   17.9861 H   0  0  0  0  0
   -1.7038   27.3300   17.5017 H   0  0  0  0  0
   -3.5814   27.3005   18.6818 H   0  0  0  0  0
   -1.0371   21.0253   13.3572 H   0  0  0  0  0
   -3.4106   21.6169   11.8289 H   0  0  0  0  0
   -2.7766   19.0167   13.2418 H   0  0  0  0  0
   -2.1352   19.5055   11.6185 H   0  0  0  0  0
   -4.3523   19.5157   10.6940 H   0  0  0  0  0
   -5.0722   19.1930   12.3255 H   0  0  0  0  0
   -4.5505   17.7930    9.6520 H   0  0  0  0  0
   -5.3748   22.2015   12.4295 H   0  0  0  0  0
   -6.1943   21.4762   15.2320 H   0  0  0  0  0
   -5.8651   23.8145   15.0882 H   0  0  0  0  0
   -7.6772   23.4173   15.1807 H   0  0  0  0  0
   -6.5003   23.9088   12.5508 H   0  0  0  0  0
   -6.6775   25.3379   13.6943 H   0  0  0  0  0
   -9.3528   24.7499   15.2365 H   0  0  0  0  0
   -8.9988   26.3197   14.4739 H   0  0  0  0  0
  -10.5498   25.5048   14.1555 H   0  0  0  0  0
   -8.6987   21.4265   15.4487 H   0  0  0  0  0
   -9.8117   20.2190   12.9216 H   0  0  0  0  0
  -10.0334   19.2796   15.7613 H   0  0  0  0  0
   -9.3747   18.4036   14.2854 H   0  0  0  0  0
  -11.3534   17.3791   14.5968 H   0  0  0  0  0
  -11.8037   18.7441   13.4650 H   0  0  0  0  0
  -11.4911   18.4117   16.8337 H   0  0  0  0  0
  -11.5653   21.1874   12.2248 H   0  0  0  0  0
  -13.2960   22.7112   14.1776 H   0  0  0  0  0
  -12.6344   23.4688   11.3251 H   0  0  0  0  0
  -11.9396   24.2464   12.8305 H   0  0  0  0  0
  -14.0245   25.1154   13.4140 H   0  0  0  0  0
  -14.8421   24.1867   12.0703 H   0  0  0  0  0
  -12.0340   25.4623   11.1510 H   0  0  0  0  0
  -15.2115   21.5109   14.2478 H   0  0  0  0  0
  -17.0871   20.4650   13.5056 H   0  0  0  0  0
  -17.6722   20.7099   10.9644 H   0  0  0  0  0
  -16.2813   21.8766   10.9718 H   0  0  0  0  0
  -17.9160   23.2548   10.4527 H   0  0  0  0  0
  -14.4826   19.0924   13.4440 H   0  0  0  0  0
  -15.4036   16.7673   11.8405 H   0  0  0  0  0
  -14.0774   16.7857   13.0658 H   0  0  0  0  0
  -13.6375   19.4538   11.0644 H   0  0  0  0  0
  -12.1157   17.8745    9.0262 H   0  0  0  0  0
  -12.7753   20.8509    8.9711 H   0  0  0  0  0
  -10.8172   20.2833    7.6090 H   0  0  0  0  0
  -11.7362   18.9983    6.7871 H   0  0  0  0  0
  -12.1975   20.7039    6.5655 H   0  0  0  0  0
  -14.2053   18.5388    7.5947 H   0  0  0  0  0
  -14.8517   19.5420    8.9164 H   0  0  0  0  0
  -14.5341   20.2675    7.3214 H   0  0  0  0  0
   -9.9569   17.7281    9.2064 H   0  0  0  0  0
   -8.5262   19.3820   11.1912 H   0  0  0  0  0
   -6.5167   18.1796   10.2229 H   0  0  0  0  0
   -7.7460   17.2027    9.2807 H   0  0  0  0  0
   -7.4312   17.3736   12.2921 H   0  0  0  0  0
   -7.0613   15.9654   11.2376 H   0  0  0  0  0
   -9.4804   16.0486   10.5327 H   0  0  0  0  0
   -9.7380   17.1892   11.8687 H   0  0  0  0  0
   -8.2981   14.9838   12.9029 H   0  0  0  0  0
  -12.2684   14.3230   12.4688 H   0  0  0  0  0
  -11.5167   15.6386   11.5603 H   0  0  0  0  0
   -9.2444   13.3313   14.0349 H   0  0  0  0  0
   -7.0355   20.9922   10.7359 H   0  0  0  0  0
   -6.7541   21.9044    7.9126 H   0  0  0  0  0
   -7.5031   24.1387    8.3309 H   0  0  0  0  0
   -7.9941   23.6599   10.0280 H   0  0  0  0  0
   -9.5864   22.0580    8.9700 H   0  0  0  0  0
   -9.2256   22.8479    7.3979 H   0  0  0  0  0
   -9.9738   24.9918    8.3036 H   0  0  0  0  0
  -10.3207   24.2153    9.8742 H   0  0  0  0  0
  -11.9575   22.7543    8.7998 H   0  0  0  0  0
  -11.5995   23.5052    7.2193 H   0  0  0  0  0
  -13.5357   24.4545    8.2409 H   0  0  0  0  0
  -12.6590   24.8918    9.5888 H   0  0  0  0  0
  -12.3250   25.5924    8.1142 H   0  0  0  0  0
   -4.9249   23.3110    7.8031 H   0  0  0  0  0
   -3.0962   23.2968   10.1185 H   0  0  0  0  0
   -1.6081   24.5392    8.5080 H   0  0  0  0  0
   -2.9244   24.4399    7.3050 H   0  0  0  0  0
   -3.0316   24.9373   11.4039 H   0  0  0  0  0
  1  2  1  0  0  0
  2  3  1  0  0  0
  2  5  1  0  0  0
  3  4  2  0  0  0
  3  7  1  0  0  0
  5  6  1  0  0  0
  6121  1  0  0  0
  7  8  1  0  0  0
  8  9  1  0  0  0
  9 10  2  0  0  0
  9 11  1  0  0  0
 11 12  1  0  0  0
 12 13  1  0  0  0
 12 15  1  0  0  0
 13 14  2  0  0  0
 13 16  1  0  0  0
 16 17  1  0  0  0
 17 18  1  0  0  0
 17 20  1  0  0  0
 18 19  2  0  0  0
 18 24  1  0  0  0
 20 21  1  0  0  0
 21 22  1  0  0  0
 21 23  2  0  0  0
 24 25  1  0  0  0
 25 26  1  0  0  0
 25 28  1  0  0  0
 26 27  2  0  0  0
 26 30  1  0  0  0
 28 29  1  0  0  0
 30 31  1  0  0  0
 31 32  1  0  0  0
 31 34  1  0  0  0
 32 33  2  0  0  0
 32 42  1  0  0  0
 34 35  1  0  0  0
 35 36  4  0  0  0
 35 37  4  0  0  0
 36 38  4  0  0  0
 37 39  4  0  0  0
 38 40  4  0  0  0
 39 40  4  0  0  0
 40 41  1  0  0  0
 42 43  1  0  0  0
 43 44  1  0  0  0
 43 46  1  0  0  0
 44 45  2  0  0  0
 44 51  1  0  0  0
 46 47  1  0  0  0
 47 48  1  0  0  0
 48 49  2  0  0  0
 48 50  1  0  0  0
 51 52  1  0  0  0
 52 53  1  0  0  0
 52 55  1  0  0  0
 53 54  2  0  0  0
 53 59  1  0  0  0
 55 56  1  0  0  0
 56 57  1  0  0  0
 57 58  1  0  0  0
 59 60  1  0  0  0
 60 61  1  0  0  0
 60 63  1  0  0  0
 61 62  2  0  0  0
 61 68  1  0  0  0
 63 64  1  0  0  0
 64 65  1  0  0  0
 65 66  2  0  0  0
 65 67  1  0  0  0
 68 69  1  0  0  0
 69 70  1  0  0  0
 69 72  1  0  0  0
 70 71  2  0  0  0
 70 77  1  0  0  0
 72 73  1  0  0  0
 73 74  1  0  0  0
 74 75  1  0  0  0
 74 76  2  0  0  0
 77 78  1  0  0  0
 78 79  1  0  0  0
 78 81  1  0  0  0
 79 80  2  0  0  0
 79 85  1  0  0  0
 81 82  1  0  0  0
 82 83  2  0  0  0
 82 84  1  0  0  0
 85 86  1  0  0  0
 86 87  1  0  0  0
 87 88  2  0  0  0
 87 89  1  0  0  0
 89 90  1  0  0  0
 90 91  1  0  0  0
 90 93  1  0  0  0
 91 92  2  0  0  0
 91 96  1  0  0  0
 93 94  1  0  0  0
 93 95  1  0  0  0
 96 97  1  0  0  0
 97 98  1  0  0  0
 97100  1  0  0  0
 98 99  2  0  0  0
 98107  1  0  0  0
100101  1  0  0  0
101102  1  0  0  0
102103  1  0  0  0
103104  1  0  0  0
104105  1  0  0  0
104106  2  0  0  0
107108  1  0  0  0
108109  1  0  0  0
108111  1  0  0  0
109110  2  0  0  0
109116  1  0  0  0
111112  1  0  0  0
112113  1  0  0  0
113114  1  0  0  0
114115  1  0  0  0
116117  1  0  0  0
117118  1  0  0  0
117120  1  0  0  0
118119  2  0  0  0
118122  1  0  0  0
120121  1  0  0  0
  1123  1  0  0  0
  1124  1  0  0  0
  1125  1  0  0  0
  2126  1  0  0  0
  5127  1  0  0  0
  5128  1  0  0  0
  7129  1  0  0  0
  8130  1  0  0  0
  8131  1  0  0  0
 11132  1  0  0  0
 12133  1  0  0  0
 15134  1  0  0  0
 15135  1  0  0  0
 15136  1  0  0  0
 16137  1  0  0  0
 17138  1  0  0  0
 20139  1  0  0  0
 20140  1  0  0  0
 22141  1  0  0  0
 24142  1  0  0  0
 25143  1  0  0  0
 28144  1  0  0  0
 28145  1  0  0  0
 29146  1  0  0  0
 30147  1  0  0  0
 31148  1  0  0  0
 34149  1  0  0  0
 34150  1  0  0  0
 36151  1  0  0  0
 37152  1  0  0  0
 38153  1  0  0  0
 39154  1  0  0  0
 41155  1  0  0  0
 42156  1  0  0  0
 43157  1  0  0  0
 46158  1  0  0  0
 46159  1  0  0  0
 47160  1  0  0  0
 47161  1  0  0  0
 50162  1  0  0  0
 51163  1  0  0  0
 52164  1  0  0  0
 55165  1  0  0  0
 55166  1  0  0  0
 56167  1  0  0  0
 56168  1  0  0  0
 58169  1  0  0  0
 58170  1  0  0  0
 58171  1  0  0  0
 59172  1  0  0  0
 60173  1  0  0  0
 63174  1  0  0  0
 63175  1  0  0  0
 64176  1  0  0  0
 64177  1  0  0  0
 67178  1  0  0  0
 68179  1  0  0  0
 69180  1  0  0  0
 72181  1  0  0  0
 72182  1  0  0  0
 73183  1  0  0  0
 73184  1  0  0  0
 75185  1  0  0  0
 77186  1  0  0  0
 78187  1  0  0  0
 81188  1  0  0  0
 81189  1  0  0  0
 84190  1  0  0  0
 85191  1  0  0  0
 86192  1  0  0  0
 86193  1  0  0  0
 89194  1  0  0  0
 90195  1  0  0  0
 93196  1  0  0  0
 94197  1  0  0  0
 94198  1  0  0  0
 94199  1  0  0  0
 95200  1  0  0  0
 95201  1  0  0  0
 95202  1  0  0  0
 96203  1  0  0  0
 97204  1  0  0  0
100205  1  0  0  0
100206  1  0  0  0
101207  1  0  0  0
101208  1  0  0  0
102209  1  0  0  0
102210  1  0  0  0
103211  1  0  0  0
105212  1  0  0  0
105213  1  0  0  0
106214  1  0  0  0
107215  1  0  0  0
108216  1  0  0  0
111217  1  0  0  0
111218  1  0  0  0
112219  1  0  0  0
112220  1  0  0  0
113221  1  0  0  0
113222  1  0  0  0
114223  1  0  0  0
114224  1  0  0  0
115225  1  0  0  0
115226  1  0  0  0
115227  1  0  0  0
116228  1  0  0  0
117229  1  0  0  0
120230  1  0  0  0
120231  1  0  0  0
122232  1  0  0  0
M  END
$$$$
