5ev8_ligand
  -I-interpret- 

 25 26  0  0  0  0  0  0  0  0999 V2000
   -3.8850   -2.2050   40.0670 O   0  0  0  0  0
   -4.6310   -5.5910   40.4020 N   0  3  0  0  0
   -4.6430   -3.1900   40.0770 C   0  0  0  0  0
   -5.6950   -3.3970   39.4410 O   0  0  0  0  0
   -4.1870   -4.3150   41.0050 C   0  0  0  0  0
   -4.8580   -4.1130   42.3800 C   0  0  0  0  0
   -5.7720   -5.6320   42.7850 S   0  0  0  0  0
   -5.0460   -6.5800   41.3520 C   0  0  0  0  0
   -3.7830   -7.2960   41.7710 C   0  0  0  0  0
   -2.6880   -7.2800   40.3090 S   0  0  0  0  0
   -3.8350   -6.1540   39.3520 C   0  0  0  0  0
   -4.6280   -7.0450   38.3560 C   0  0  0  0  0
   -5.8430   -6.0260   37.5420 S   0  0  0  0  0
   -5.4615   -5.2671   39.9063 H   0  0  0  0  0
   -6.0444   -4.2601   39.6748 H   0  0  0  0  0
   -3.1048   -4.3199   41.1348 H   0  0  0  0  0
   -5.5374   -3.2613   42.3468 H   0  0  0  0  0
   -4.1046   -3.9115   43.1416 H   0  0  0  0  0
   -5.7745   -7.2970   40.9735 H   0  0  0  0  0
   -3.9953   -8.3150   42.0946 H   0  0  0  0  0
   -3.3131   -6.8030   42.6220 H   0  0  0  0  0
   -3.3810   -5.3693   38.7468 H   0  0  0  0  0
   -5.1187   -7.8586   38.8902 H   0  0  0  0  0
   -3.9505   -7.4795   37.6210 H   0  0  0  0  0
   -6.5366   -6.7669   36.6824 H   0  0  0  0  0
  3  1  2  0  0  0
  5  2  1  0  0  0
  2  8  1  0  0  0
  2 11  1  0  0  0
  3  4  1  0  0  0
  3  5  1  0  0  0
  5  6  1  0  0  0
  6  7  1  0  0  0
  7  8  1  0  0  0
  8  9  1  0  0  0
  9 10  1  0  0  0
 10 11  1  0  0  0
 11 12  1  0  0  0
 12 13  1  0  0  0
  2 14  1  0  0  0
  4 15  1  0  0  0
  5 16  1  0  0  0
  6 17  1  0  0  0
  6 18  1  0  0  0
  8 19  1  0  0  0
  9 20  1  0  0  0
  9 21  1  0  0  0
 11 22  1  0  0  0
 12 23  1  0  0  0
 12 24  1  0  0  0
 13 25  1  0  0  0
M  END
$$$$
