1w4q_ligand
  -I-interpret- 

 33 34  0  0  0  0  0  0  0  0999 V2000
   36.2250   -2.3660   12.1580 N   0  0  0  0  0
   35.0290   -2.5550   11.4210 C   0  0  0  0  0
   34.7000   -1.7980   10.5870 O   0  0  0  0  0
   34.3270   -3.7120   11.7940 N   0  0  0  0  0
   34.6750   -4.6670   12.7960 C   0  0  0  0  0
   33.9250   -5.6050   12.9580 O   0  0  0  0  0
   35.9240   -4.3900   13.5180 C   0  0  0  0  0
   36.6450   -3.2830   13.1940 C   0  0  0  0  0
   39.2530   -0.4990   15.5460 O   0  0  0  0  0
   40.0020   -0.1650   14.2100 C   0  0  0  0  0
   38.7750    0.1200   13.3080 C   0  0  0  0  0
   38.4020   -1.1420   12.9600 O   0  0  0  0  0
   37.6410    1.0610   13.2010 C   0  0  0  0  0
   37.5420    2.5320   12.9110 O   0  0  0  0  0
   36.5030    0.3120   12.3010 C   0  0  0  0  0
   36.2460    1.3130   11.5430 F   0  0  0  0  0
   37.1740   -1.1150   11.8700 C   0  0  0  0  0
   35.4680    3.1250   13.5200 O   0  0  0  0  0
   37.0160    3.5030   13.6300 P   0  0  0  0  0
   37.3410    3.6810   15.0910 O   0  0  0  0  0
   37.4710    4.6660   12.8340 O   0  0  0  0  0
   33.4611   -3.8925   11.2861 H   0  0  0  0  0
   36.2686   -5.0629   14.3032 H   0  0  0  0  0
   37.5703   -3.0805   13.7334 H   0  0  0  0  0
   39.8955   -0.7049   16.2289 H   0  0  0  0  0
   40.6665   -0.9492   13.8474 H   0  0  0  0  0
   40.7215    0.6509   14.2782 H   0  0  0  0  0
   39.2337    0.9915   12.8409 H   0  0  0  0  0
   37.6335    1.2475   14.2749 H   0  0  0  0  0
   35.5380   -0.0783   12.6243 H   0  0  0  0  0
   37.4200   -1.1847   10.8104 H   0  0  0  0  0
   35.2860    2.3617   14.0731 H   0  0  0  0  0
   37.0355    2.9143   15.5813 H   0  0  0  0  0
  1  2  1  0  0  0
  1  8  1  0  0  0
 17  1  1  0  0  0
  2  3  2  0  0  0
  2  4  1  0  0  0
  4  5  1  0  0  0
  5  6  2  0  0  0
  7  5  1  0  0  0
  8  7  2  0  0  0
 10  9  1  0  0  0
 11 10  1  0  0  0
 12 11  1  0  0  0
 11 13  1  0  0  0
 12 17  1  0  0  0
 13 14  1  0  0  0
 13 15  1  0  0  0
 14 19  1  0  0  0
 15 16  1  0  0  0
 15 17  1  0  0  0
 19 18  1  0  0  0
 19 20  1  0  0  0
 19 21  2  0  0  0
  4 22  1  0  0  0
  7 23  1  0  0  0
  8 24  1  0  0  0
  9 25  1  0  0  0
 10 26  1  0  0  0
 10 27  1  0  0  0
 11 28  1  0  0  0
 13 29  1  0  0  0
 15 30  1  0  0  0
 17 31  1  0  0  0
 18 32  1  0  0  0
 20 33  1  0  0  0
M  END
$$$$
