1npz_ligand
  -I-interpret- 

 76 78  0  0  0  0  0  0  0  0999 V2000
  -16.4930   62.0140  -37.5710 N   0  0  0  0  0
  -16.6420   62.7380  -38.7250 C   0  0  0  0  0
  -16.5370   62.1810  -39.8420 O   0  0  0  0  0
  -16.9200   64.0970  -38.7740 N   0  0  0  0  0
  -17.0790   64.7780  -40.1390 C   0  0  0  0  0
  -18.2170   65.7750  -40.2120 C   0  0  0  0  0
  -18.2550   66.6370  -38.9710 O   0  0  0  0  0
  -18.3040   65.8650  -37.7270 C   0  0  0  0  0
  -17.0920   64.9570  -37.5810 C   0  0  0  0  0
  -16.2230   60.5470  -37.6660 C   0  0  0  0  0
  -17.4470   59.9310  -38.2680 C   0  0  0  0  0
  -18.5540   60.2540  -37.8750 O   0  0  0  0  0
  -17.2290   59.0180  -39.2350 N   0  0  0  0  0
  -18.3090   58.3240  -39.9410 C   0  0  0  0  0
  -18.2340   56.8300  -39.6600 C   0  0  0  0  0
  -16.9430   56.1570  -40.2360 C   0  0  0  0  0
  -17.4540   55.0100  -41.5650 S   0  0  0  0  0
  -18.3860   55.6760  -42.5810 O   0  0  0  0  0
  -18.0690   53.7060  -41.0800 O   0  0  0  0  0
  -16.0010   54.5810  -42.5120 C   0  0  0  0  0
  -16.0870   53.7960  -43.7000 C   0  0  0  0  0
  -14.8920   53.3950  -44.4000 C   0  0  0  0  0
  -13.6230   53.7940  -43.9470 C   0  0  0  0  0
  -13.5140   54.6010  -42.8170 C   0  0  0  0  0
  -14.6860   55.0130  -42.1070 C   0  0  0  0  0
  -18.1690   58.6900  -41.4480 C   0  0  0  0  0
  -18.4830   60.1570  -41.7160 C   0  0  0  0  0
  -18.3070   60.5880  -43.1490 C   0  0  0  0  0
  -19.3920   60.5140  -44.0800 C   0  0  0  0  0
  -19.2210   60.9160  -45.4440 C   0  0  0  0  0
  -17.9640   61.3970  -45.8840 C   0  0  0  0  0
  -16.8630   61.4840  -44.9610 C   0  0  0  0  0
  -17.0330   61.0790  -43.5930 C   0  0  0  0  0
  -16.0200   59.8570  -36.3220 C   0  0  0  0  0
  -15.0320   60.4900  -35.3810 C   0  0  0  0  0
  -13.8410   60.9920  -36.1610 C   0  0  0  0  0
  -14.6910   59.6010  -34.2800 C   0  0  0  0  0
  -16.5653   62.4693  -36.6611 H   0  0  0  0  0
  -17.2938   63.9936  -40.8647 H   0  0  0  0  0
  -16.1582   65.3289  -40.3308 H   0  0  0  0  0
  -19.1576   65.2299  -40.2905 H   0  0  0  0  0
  -18.0679   66.4159  -41.0810 H   0  0  0  0  0
  -19.1992   65.2433  -37.7433 H   0  0  0  0  0
  -18.3136   66.5627  -36.8896 H   0  0  0  0  0
  -16.2034   65.5783  -37.4691 H   0  0  0  0  0
  -17.2389   64.3183  -36.7101 H   0  0  0  0  0
  -15.3058   60.4227  -38.2416 H   0  0  0  0  0
  -16.2652   58.7995  -39.4877 H   0  0  0  0  0
  -19.2978   58.6318  -39.6010 H   0  0  0  0  0
  -19.0929   56.3605  -40.1397 H   0  0  0  0  0
  -18.2202   56.6981  -38.5781 H   0  0  0  0  0
  -16.4169   55.6147  -39.4504 H   0  0  0  0  0
  -16.2657   56.9146  -40.6303 H   0  0  0  0  0
  -17.0634   53.4971  -44.0814 H   0  0  0  0  0
  -14.9740   52.7743  -45.2922 H   0  0  0  0  0
  -12.7269   53.4730  -44.4782 H   0  0  0  0  0
  -12.5307   54.9204  -42.4717 H   0  0  0  0  0
  -14.5827   55.6674  -41.2415 H   0  0  0  0  0
  -18.8777   58.0832  -42.0115 H   0  0  0  0  0
  -17.1377   58.5038  -41.7477 H   0  0  0  0  0
  -17.7844   60.7446  -41.1203 H   0  0  0  0  0
  -19.5335   60.3069  -41.4667 H   0  0  0  0  0
  -20.3623   60.1464  -43.7460 H   0  0  0  0  0
  -20.0562   60.8518  -46.1414 H   0  0  0  0  0
  -17.8301   61.7015  -46.9220 H   0  0  0  0  0
  -15.8973   61.8583  -45.3009 H   0  0  0  0  0
  -16.1982   61.1442  -42.8952 H   0  0  0  0  0
  -15.6263   58.8663  -36.5492 H   0  0  0  0  0
  -16.9845   59.8956  -35.8157 H   0  0  0  0  0
  -15.4865   61.3573  -34.9022 H   0  0  0  0  0
  -13.3675   60.1564  -36.6765 H   0  0  0  0  0
  -14.1716   61.7307  -36.8911 H   0  0  0  0  0
  -13.1269   61.4501  -35.4766 H   0  0  0  0  0
  -15.5930   59.3577  -33.7185 H   0  0  0  0  0
  -14.2504   58.6862  -34.6764 H   0  0  0  0  0
  -13.9752   60.0957  -33.6236 H   0  0  0  0  0
  1  2  1  0  0  0
  1 10  1  0  0  0
  2  3  2  0  0  0
  2  4  1  0  0  0
  4  5  1  0  0  0
  4  9  1  0  0  0
  5  6  1  0  0  0
  6  7  1  0  0  0
  7  8  1  0  0  0
  8  9  1  0  0  0
 10 11  1  0  0  0
 10 34  1  0  0  0
 11 12  2  0  0  0
 11 13  1  0  0  0
 13 14  1  0  0  0
 14 15  1  0  0  0
 14 26  1  0  0  0
 15 16  1  0  0  0
 16 17  1  0  0  0
 17 18  2  0  0  0
 17 19  2  0  0  0
 17 20  1  0  0  0
 20 21  4  0  0  0
 20 25  4  0  0  0
 21 22  4  0  0  0
 22 23  4  0  0  0
 23 24  4  0  0  0
 24 25  4  0  0  0
 26 27  1  0  0  0
 27 28  1  0  0  0
 28 29  4  0  0  0
 28 33  4  0  0  0
 29 30  4  0  0  0
 30 31  4  0  0  0
 31 32  4  0  0  0
 32 33  4  0  0  0
 34 35  1  0  0  0
 35 36  1  0  0  0
 35 37  1  0  0  0
  1 38  1  0  0  0
  5 39  1  0  0  0
  5 40  1  0  0  0
  6 41  1  0  0  0
  6 42  1  0  0  0
  8 43  1  0  0  0
  8 44  1  0  0  0
  9 45  1  0  0  0
  9 46  1  0  0  0
 10 47  1  0  0  0
 13 48  1  0  0  0
 14 49  1  0  0  0
 15 50  1  0  0  0
 15 51  1  0  0  0
 16 52  1  0  0  0
 16 53  1  0  0  0
 21 54  1  0  0  0
 22 55  1  0  0  0
 23 56  1  0  0  0
 24 57  1  0  0  0
 25 58  1  0  0  0
 26 59  1  0  0  0
 26 60  1  0  0  0
 27 61  1  0  0  0
 27 62  1  0  0  0
 29 63  1  0  0  0
 30 64  1  0  0  0
 31 65  1  0  0  0
 32 66  1  0  0  0
 33 67  1  0  0  0
 34 68  1  0  0  0
 34 69  1  0  0  0
 35 70  1  0  0  0
 36 71  1  0  0  0
 36 72  1  0  0  0
 36 73  1  0  0  0
 37 74  1  0  0  0
 37 75  1  0  0  0
 37 76  1  0  0  0
M  END
$$$$
