1lhw_ligand
  -I-interpret- 

 48 51  0  0  0  0  0  0  0  0999 V2000
   20.5540    9.0130   33.4050 C   0  0  0  0  0
   20.9210   10.3670   33.4410 C   0  0  0  0  0
   23.1460    9.8710   32.3250 C   0  0  0  0  0
   24.5870   10.3250   32.1460 C   0  0  0  0  0
   24.7000   11.7870   31.6690 C   0  0  0  0  0
   23.9390   12.6610   32.6610 C   0  0  0  0  0
   24.3180   14.0970   32.2300 C   0  0  0  0  0
   25.7490   13.9280   31.6970 C   0  0  0  0  0
   26.0630   12.4400   31.7880 C   0  0  0  0  0
   24.1420   11.8940   30.2190 C   0  0  0  0  0
   19.2630    8.5960   33.5510 C   0  0  0  0  0
   18.2560    9.5210   33.7390 C   0  0  0  0  0
   18.5920   10.8680   33.7950 C   0  0  0  0  0
   19.8940   11.3040   33.6540 C   0  0  0  0  0
   20.1630   12.8100   33.7270 C   0  0  0  0  0
   21.6490   13.1860   33.7010 C   0  0  0  0  0
   22.4460   12.2860   32.7540 C   0  0  0  0  0
   22.3650   10.7990   33.2610 C   0  0  0  0  0
   26.9810   12.0830   30.7200 O   0  0  0  0  0
   16.9710    9.0850   33.8630 O   0  0  0  0  0
   18.8040    7.2760   33.5290 O   0  0  0  0  0
   19.7890    6.2700   33.3550 C   0  0  0  0  0
   21.3316    8.2642   33.2543 H   0  0  0  0  0
   23.1546    8.8730   32.7632 H   0  0  0  0  0
   22.6606    9.8835   31.3491 H   0  0  0  0  0
   25.0443    9.6906   31.3867 H   0  0  0  0  0
   25.0822   10.2512   33.1142 H   0  0  0  0  0
   24.2092   12.5254   33.7082 H   0  0  0  0  0
   24.2524   14.8156   33.0469 H   0  0  0  0  0
   23.6355   14.5104   31.4874 H   0  0  0  0  0
   26.4578   14.5157   32.2804 H   0  0  0  0  0
   25.8308   14.2850   30.6704 H   0  0  0  0  0
   26.5602   12.1246   32.7053 H   0  0  0  0  0
   24.0477   12.9445   29.9440 H   0  0  0  0  0
   24.8253   11.3968   29.5305 H   0  0  0  0  0
   23.1639   11.4153   30.1712 H   0  0  0  0  0
   17.8032   11.6030   33.9552 H   0  0  0  0  0
   19.7589   13.1629   34.6758 H   0  0  0  0  0
   19.7020   13.2616   32.8486 H   0  0  0  0  0
   22.0506   13.0658   34.7072 H   0  0  0  0  0
   21.7362   14.2145   33.3509 H   0  0  0  0  0
   22.0023   12.4138   31.7666 H   0  0  0  0  0
   22.8348   10.7328   34.2423 H   0  0  0  0  0
   27.1824   11.1458   30.7726 H   0  0  0  0  0
   16.3892    9.8384   33.9873 H   0  0  0  0  0
   20.3014    6.4254   32.4056 H   0  0  0  0  0
   20.5094    6.3236   34.1712 H   0  0  0  0  0
   19.3103    5.2907   33.3550 H   0  0  0  0  0
  2  1  4  0  0  0
  1 11  4  0  0  0
  2 14  4  0  0  0
 18  2  1  0  0  0
  3  4  1  0  0  0
  3 18  1  0  0  0
  4  5  1  0  0  0
  5  6  1  0  0  0
  5  9  1  0  0  0
  5 10  1  0  0  0
  6  7  1  0  0  0
  6 17  1  0  0  0
  7  8  1  0  0  0
  8  9  1  0  0  0
  9 19  1  0  0  0
 11 12  4  0  0  0
 11 21  1  0  0  0
 12 13  4  0  0  0
 12 20  1  0  0  0
 13 14  4  0  0  0
 14 15  1  0  0  0
 15 16  1  0  0  0
 16 17  1  0  0  0
 17 18  1  0  0  0
 21 22  1  0  0  0
  1 23  1  0  0  0
  3 24  1  0  0  0
  3 25  1  0  0  0
  4 26  1  0  0  0
  4 27  1  0  0  0
  6 28  1  0  0  0
  7 29  1  0  0  0
  7 30  1  0  0  0
  8 31  1  0  0  0
  8 32  1  0  0  0
  9 33  1  0  0  0
 10 34  1  0  0  0
 10 35  1  0  0  0
 10 36  1  0  0  0
 13 37  1  0  0  0
 15 38  1  0  0  0
 15 39  1  0  0  0
 16 40  1  0  0  0
 16 41  1  0  0  0
 17 42  1  0  0  0
 18 43  1  0  0  0
 19 44  1  0  0  0
 20 45  1  0  0  0
 22 46  1  0  0  0
 22 47  1  0  0  0
 22 48  1  0  0  0
M  END
$$$$
