### 
### Created by X-TOOL on Mon Sep 10 21:12:44 2018
### 

@<TRIPOS>MOLECULE
6tim_ligand
   17    16     1     0     0
SMALL
GAST_HUCK


@<TRIPOS>ATOM
      1 H1         45.3169   13.4043   -7.6299 H         1 G3P         0.2095
      2 H2         45.1634   15.7260   -7.4499 H         1 G3P         0.0584
      3 H3         44.4091   15.7080   -9.0801 H         1 G3P         0.0584
      4 H4         46.7386   14.0345   -9.0619 H         1 G3P         0.0643
      5 H5         47.5246   15.3129   -7.3741 H         1 G3P         0.2100
      6 H6         45.6058   16.2210  -10.6194 H         1 G3P         0.0639
      7 H7         46.3281   14.6507  -11.1086 H         1 G3P         0.0639
      8 O1         44.6970   13.8400   -8.2030 O.3       1 G3P        -0.3924
      9 C1         45.1100   15.1900   -8.4090 C.3       1 G3P         0.0726
     10 C2         46.4780   15.1030   -9.0410 C.3       1 G3P         0.1058
     11 O2         47.4900   15.7400   -8.2220 O.3       1 G3P        -0.3869
     12 C3         46.4740   15.5560  -10.5010 C.3       1 G3P         0.1064
     13 O4P        47.6000   16.2500  -11.0660 O.3       1 G3P        -0.2734
     14 O1P        46.7160   18.1880  -12.4610 O.co2     1 G3P        -0.5537
     15 O2P        48.8600   17.0020  -13.1090 O.co2     1 G3P        -0.5537
     16 O3P        46.6490   15.7170  -13.2390 O.co2     1 G3P        -0.5537
     17 P          47.4480   16.8590  -12.5590 P.3       1 G3P         0.2008
@<TRIPOS>BOND
     1    8    1 1  
     2    9    2 1  
     3    9    3 1  
     4   10    4 1  
     5   11    5 1  
     6   12    6 1  
     7   12    7 1  
     8    9    8 1  
     9   10    9 1  
    10   10   11 1  
    11   10   12 1  
    12   12   13 1  
    13   13   17 1  
    14   17   16 ar 
    15   17   15 ar 
    16   17   14 ar 
@<TRIPOS>SUBSTRUCTURE
     1 G3P         1

