6tim_ligand
  -I-interpret- 

 19 18  0  0  0  0  0  0  0  0999 V2000
   44.6970   13.8400   -8.2030 O   0  0  0  0  0
   45.1100   15.1900   -8.4090 C   0  0  0  0  0
   46.4780   15.1030   -9.0410 C   0  0  0  0  0
   47.4900   15.7400   -8.2220 O   0  0  0  0  0
   46.4740   15.5560  -10.5010 C   0  0  0  0  0
   47.6000   16.2500  -11.0660 O   0  0  0  0  0
   46.7160   18.1880  -12.4610 O   0  0  0  0  0
   48.8600   17.0020  -13.1090 O   0  0  0  0  0
   46.6490   15.7170  -13.2390 O   0  0  0  0  0
   47.4480   16.8590  -12.5590 P   0  0  0  0  0
   43.8258   13.8310   -7.7998 H   0  0  0  0  0
   45.1383   15.7458   -7.4718 H   0  0  0  0  0
   44.4094   15.7284   -9.0472 H   0  0  0  0  0
   46.7575   14.0501   -9.0791 H   0  0  0  0  0
   47.4300   15.4062   -7.3239 H   0  0  0  0  0
   45.6643   16.2841  -10.5490 H   0  0  0  0  0
   46.4275   14.6249  -11.0659 H   0  0  0  0  0
   49.2754   16.1375  -13.1499 H   0  0  0  0  0
   47.1844   14.9204  -13.2574 H   0  0  0  0  0
  2  1  1  0  0  0
  3  2  1  0  0  0
  3  4  1  0  0  0
  3  5  1  0  0  0
  5  6  1  0  0  0
  6 10  1  0  0  0
 10  9  1  0  0  0
 10  8  1  0  0  0
 10  7  2  0  0  0
  1 11  1  0  0  0
  2 12  1  0  0  0
  2 13  1  0  0  0
  3 14  1  0  0  0
  4 15  1  0  0  0
  5 16  1  0  0  0
  5 17  1  0  0  0
  8 18  1  0  0  0
  9 19  1  0  0  0
M  END
$$$$
