4ejl_ligand
  -I-interpret- 

 24 25  0  0  0  0  0  0  0  0999 V2000
   -8.8780   21.7220  -25.1880 C   0  0  0  0  0
   -7.7910   21.1570  -25.4010 O   0  0  0  0  0
   -9.0110   22.9620  -25.2640 O   0  0  0  0  0
  -10.0570   20.8510  -24.8280 C   0  0  0  0  0
  -11.1160   21.6960  -24.1240 C   0  0  0  0  0
  -13.3850   19.1050  -22.7720 N   0  0  0  0  0
  -12.2180   19.4650  -23.3560 C   0  0  0  0  0
  -12.2060   20.8460  -23.5200 C   0  0  0  0  0
  -13.4060   21.3070  -23.0090 C   0  0  0  0  0
  -13.9040   22.6020  -22.9190 C   0  0  0  0  0
  -15.1690   22.7860  -22.3570 C   0  0  0  0  0
  -15.9130   21.7010  -21.8860 C   0  0  0  0  0
  -15.3970   20.4080  -21.9870 C   0  0  0  0  0
  -14.1330   20.2110  -22.5510 C   0  0  0  0  0
   -9.9201   23.1980  -25.0652 H   0  0  0  0  0
   -9.7292   20.0512  -24.1640 H   0  0  0  0  0
  -10.4802   20.4186  -25.7347 H   0  0  0  0  0
  -11.5692   22.3588  -24.8612 H   0  0  0  0  0
  -10.6312   22.2507  -23.3206 H   0  0  0  0  0
  -11.4189   18.7843  -23.6495 H   0  0  0  0  0
  -13.3223   23.4512  -23.2777 H   0  0  0  0  0
  -15.5826   23.7919  -22.2846 H   0  0  0  0  0
  -16.8944   21.8640  -21.4406 H   0  0  0  0  0
  -15.9760   19.5570  -21.6283 H   0  0  0  0  0
  1  2  2  0  0  0
  1  3  1  0  0  0
  4  1  1  0  0  0
  5  4  1  0  0  0
  8  5  1  0  0  0
  7  6  4  0  0  0
  6 14  4  0  0  0
  7  8  4  0  0  0
  8  9  4  0  0  0
  9 10  4  0  0  0
  9 14  4  0  0  0
 10 11  4  0  0  0
 11 12  4  0  0  0
 12 13  4  0  0  0
 13 14  4  0  0  0
  3 15  1  0  0  0
  4 16  1  0  0  0
  4 17  1  0  0  0
  5 18  1  0  0  0
  5 19  1  0  0  0
  7 20  1  0  0  0
 10 21  1  0  0  0
 11 22  1  0  0  0
 12 23  1  0  0  0
 13 24  1  0  0  0
M  END
$$$$
