3nee_ligand
  -I-interpret- 

 48 49  0  0  0  0  0  0  0  0999 V2000
  -19.5200   -2.2660    2.3740 O   0  0  0  0  0
  -20.7120   -1.9000    2.5000 C   0  0  0  0  0
  -21.6530   -2.6440    2.8460 O   0  0  0  0  0
  -21.0670   -0.4490    2.1990 C   0  0  0  0  0
  -22.3370   -0.4600    1.4950 O   0  0  0  0  0
  -22.0600   -0.2040    0.1910 C   0  0  0  0  0
  -21.0090   -0.8810   -0.4040 C   0  0  0  0  0
  -20.6870   -0.6420   -1.7310 C   0  0  0  0  0
  -19.5180   -1.4060   -2.3690 C   0  0  0  0  0
  -21.4130    0.2700   -2.4940 C   0  0  0  0  0
  -22.4630    0.9580   -1.8760 C   0  0  0  0  0
  -22.7920    0.7230   -0.5420 C   0  0  0  0  0
  -23.2740    1.9780   -2.6880 C   0  0  0  0  0
  -21.0040    0.5230   -3.9540 C   0  0  0  0  0
  -21.7990   -0.2540   -5.0080 C   0  0  0  0  0
  -21.6730    0.1520   -6.3340 C   0  0  0  0  0
  -22.3560   -0.5080   -7.3490 C   0  0  0  0  0
  -22.2150   -0.0510   -8.8110 C   0  0  0  0  0
  -22.0950    1.4690   -8.8360 C   0  0  0  0  0
  -20.9600   -0.6650   -9.4240 C   0  0  0  0  0
  -23.1700   -1.5840   -7.0200 C   0  0  0  0  0
  -23.8520   -2.2220   -8.0000 O   0  0  0  0  0
  -23.2990   -1.9930   -5.6960 C   0  0  0  0  0
  -22.6130   -1.3360   -4.6800 C   0  0  0  0  0
  -18.9841   -1.5182    2.0996 H   0  0  0  0  0
  -20.2930    0.0193    1.5910 H   0  0  0  0  0
  -21.1416    0.1289    3.1202 H   0  0  0  0  0
  -20.4328   -1.6044    0.1729 H   0  0  0  0  0
  -18.6006   -1.1857   -1.8231 H   0  0  0  0  0
  -19.7192   -2.4765   -2.3270 H   0  0  0  0  0
  -19.4072   -1.0963   -3.4082 H   0  0  0  0  0
  -23.6173    1.2622   -0.0770 H   0  0  0  0  0
  -22.6102    2.7637   -3.0486 H   0  0  0  0  0
  -23.7404    1.4769   -3.5363 H   0  0  0  0  0
  -24.0452    2.4149   -2.0536 H   0  0  0  0  0
  -19.9677    0.1979   -4.0460 H   0  0  0  0  0
  -21.1846    1.5804   -4.1473 H   0  0  0  0  0
  -21.0308    0.9979   -6.5791 H   0  0  0  0  0
  -23.0857   -0.3707   -9.3835 H   0  0  0  0  0
  -22.9880    1.9100   -8.3931 H   0  0  0  0  0
  -21.2172    1.7723   -8.2654 H   0  0  0  0  0
  -21.9943    1.8073   -9.8673 H   0  0  0  0  0
  -20.0858   -0.3425   -8.8584 H   0  0  0  0  0
  -21.0353   -1.7519   -9.3906 H   0  0  0  0  0
  -20.8655   -0.3377  -10.4594 H   0  0  0  0  0
  -24.3654   -2.9374   -7.6175 H   0  0  0  0  0
  -23.9444   -2.8370   -5.4527 H   0  0  0  0  0
  -22.7106   -1.6622   -3.6445 H   0  0  0  0  0
  1  2  1  0  0  0
  2  3  2  0  0  0
  2  4  1  0  0  0
  4  5  1  0  0  0
  5  6  1  0  0  0
  6  7  4  0  0  0
  6 12  4  0  0  0
  7  8  4  0  0  0
  8  9  1  0  0  0
  8 10  4  0  0  0
 10 11  4  0  0  0
 10 14  1  0  0  0
 11 12  4  0  0  0
 11 13  1  0  0  0
 14 15  1  0  0  0
 15 16  4  0  0  0
 15 24  4  0  0  0
 16 17  4  0  0  0
 17 18  1  0  0  0
 17 21  4  0  0  0
 18 19  1  0  0  0
 18 20  1  0  0  0
 21 22  1  0  0  0
 21 23  4  0  0  0
 23 24  4  0  0  0
  1 25  1  0  0  0
  4 26  1  0  0  0
  4 27  1  0  0  0
  7 28  1  0  0  0
  9 29  1  0  0  0
  9 30  1  0  0  0
  9 31  1  0  0  0
 12 32  1  0  0  0
 13 33  1  0  0  0
 13 34  1  0  0  0
 13 35  1  0  0  0
 14 36  1  0  0  0
 14 37  1  0  0  0
 16 38  1  0  0  0
 18 39  1  0  0  0
 19 40  1  0  0  0
 19 41  1  0  0  0
 19 42  1  0  0  0
 20 43  1  0  0  0
 20 44  1  0  0  0
 20 45  1  0  0  0
 22 46  1  0  0  0
 23 47  1  0  0  0
 24 48  1  0  0  0
M  END
$$$$
