5l17_ligand
  -I-interpret- 

 45 45  0  0  0  0  0  0  0  0999 V2000
   23.6840  -19.6470  -64.5900 C   0  0  0  0  0
   24.1350  -20.8230  -64.5610 O   0  0  0  0  0
   22.7020  -19.3460  -65.3150 O   0  0  0  0  0
   24.3460  -18.6210  -63.7120 C   0  0  0  0  0
   23.5140  -17.2770  -63.0500 C   0  0  0  0  0
   24.2980  -16.3830  -62.1960 C   0  0  0  0  0
   25.9060  -16.6580  -62.3250 C   0  0  0  0  0
   26.5250  -15.8910  -61.1680 N   0  0  0  0  0
   27.1310  -14.6300  -61.3980 C   0  0  0  0  0
   27.1660  -14.1500  -62.5190 O   0  0  0  0  0
   27.7320  -13.8880  -60.2240 C   0  0  0  0  0
   26.2620  -17.8930  -62.2670 C   0  0  0  0  0
   25.6720  -18.7840  -63.3810 O   0  0  0  0  0
   27.8240  -18.0000  -62.4570 C   0  0  0  0  0
   28.1260  -17.5700  -63.7300 O   0  0  0  0  0
   28.2420  -19.4260  -62.3320 C   0  0  0  0  0
   27.9380  -19.9230  -61.0350 O   0  0  0  0  0
   29.7330  -19.5460  -62.6340 C   0  0  0  0  0
   30.5140  -19.1390  -61.5330 O   0  0  0  0  0
   24.0130  -14.9690  -62.4560 N   0  0  0  0  0
   23.8800  -14.0960  -61.4880 C   0  0  0  0  0
   24.0160  -14.4780  -60.1270 N   0  0  0  0  0
   23.6030  -12.7480  -61.8170 N   0  0  0  0  0
   24.8796  -20.8641  -63.9565 H   0  0  0  0  0
   23.6547  -18.3209  -64.4995 H   0  0  0  0  0
   22.7284  -17.6891  -62.4166 H   0  0  0  0  0
   23.1867  -16.6757  -63.8982 H   0  0  0  0  0
   23.9907  -16.6092  -61.1750 H   0  0  0  0  0
   26.2391  -16.3377  -63.3122 H   0  0  0  0  0
   26.5045  -16.2832  -60.2266 H   0  0  0  0  0
   28.7951  -13.7271  -60.4032 H   0  0  0  0  0
   27.2319  -12.9263  -60.1091 H   0  0  0  0  0
   27.6004  -14.4780  -59.3170 H   0  0  0  0  0
   25.9000  -18.2369  -61.2981 H   0  0  0  0  0
   28.3361  -17.3988  -61.7057 H   0  0  0  0  0
   29.0742  -17.6263  -63.8690 H   0  0  0  0  0
   27.6900  -20.0295  -63.0526 H   0  0  0  0  0
   28.2134  -20.8405  -60.9725 H   0  0  0  0  0
   29.9677  -18.9028  -63.4821 H   0  0  0  0  0
   29.9595  -20.5895  -62.8528 H   0  0  0  0  0
   31.4445  -19.2256  -61.7527 H   0  0  0  0  0
   23.9151  -14.6545  -63.4214 H   0  0  0  0  0
   23.9140  -13.7812  -59.3891 H   0  0  0  0  0
   24.2157  -15.4491  -59.8874 H   0  0  0  0  0
   23.5102  -12.4702  -62.7940 H   0  0  0  0  0
  1  2  1  0  0  0
  1  3  2  0  0  0
  1  4  1  0  0  0
  4  5  1  0  0  0
  4 13  1  0  0  0
  5  6  1  0  0  0
  6  7  1  0  0  0
  6 20  1  0  0  0
  7  8  1  0  0  0
  7 12  1  0  0  0
  8  9  1  0  0  0
  9 10  2  0  0  0
  9 11  1  0  0  0
 12 13  1  0  0  0
 12 14  1  0  0  0
 14 15  1  0  0  0
 14 16  1  0  0  0
 16 17  1  0  0  0
 16 18  1  0  0  0
 18 19  1  0  0  0
 20 21  1  0  0  0
 21 22  1  0  0  0
 21 23  2  0  0  0
  2 24  1  0  0  0
  4 25  1  0  0  0
  5 26  1  0  0  0
  5 27  1  0  0  0
  6 28  1  0  0  0
  7 29  1  0  0  0
  8 30  1  0  0  0
 11 31  1  0  0  0
 11 32  1  0  0  0
 11 33  1  0  0  0
 12 34  1  0  0  0
 14 35  1  0  0  0
 15 36  1  0  0  0
 16 37  1  0  0  0
 17 38  1  0  0  0
 18 39  1  0  0  0
 18 40  1  0  0  0
 19 41  1  0  0  0
 20 42  1  0  0  0
 22 43  1  0  0  0
 22 44  1  0  0  0
 23 45  1  0  0  0
M  END
$$$$
