3rdo_ligand
  -I-interpret- 

 32 33  0  0  0  0  0  0  0  0999 V2000
  -24.4410  -19.6750   14.3640 C   0  0  0  0  0
  -23.8120  -20.7430   14.1980 O   0  0  0  0  0
  -25.4260  -19.6630   15.1460 O   0  0  0  0  0
  -23.9890  -18.4020   13.6940 C   0  0  0  0  0
  -25.1660  -17.5860   13.1570 C   0  0  0  0  0
  -25.8300  -18.2890   11.9640 C   0  0  0  0  0
  -26.9730  -17.4360   11.4130 C   0  0  0  0  0
  -27.5900  -18.0400   10.1280 C   0  0  0  0  0
  -26.6390  -17.9760    8.6980 S   0  0  0  0  0
  -28.0780  -18.5030    7.7250 C   0  0  0  0  0
  -29.2640  -17.7400    8.3090 C   0  0  0  0  0
  -29.4290  -16.4380    7.7140 N   0  0  0  0  0
  -29.1930  -15.4960    8.5970 C   0  0  0  0  0
  -29.2060  -14.1630    8.2800 O   0  0  0  0  0
  -28.9660  -15.9710    9.8160 N   0  0  0  0  0
  -28.9560  -17.4300    9.7770 C   0  0  0  0  0
  -25.8035  -18.7807   15.1698 H   0  0  0  0  0
  -23.3484  -18.6688   12.8535 H   0  0  0  0  0
  -23.4641  -17.7965   14.4329 H   0  0  0  0  0
  -24.7951  -16.6157   12.8269 H   0  0  0  0  0
  -25.9044  -17.4759   13.9512 H   0  0  0  0  0
  -26.2293  -19.2481   12.2939 H   0  0  0  0  0
  -25.0871  -18.4370   11.1802 H   0  0  0  0  0
  -26.5726  -16.4527   11.1661 H   0  0  0  0  0
  -27.7538  -17.3859   12.1719 H   0  0  0  0  0
  -27.6700  -19.0869   10.4207 H   0  0  0  0  0
  -28.2277  -19.5811    7.7837 H   0  0  0  0  0
  -27.9455  -18.2862    6.6650 H   0  0  0  0  0
  -30.1458  -18.3588    8.1427 H   0  0  0  0  0
  -29.6923  -16.2717    6.7427 H   0  0  0  0  0
  -28.8209  -15.4036   10.6511 H   0  0  0  0  0
  -29.6578  -17.8425   10.5018 H   0  0  0  0  0
  1  2  2  0  0  0
  1  3  1  0  0  0
  1  4  1  0  0  0
  4  5  1  0  0  0
  5  6  1  0  0  0
  6  7  1  0  0  0
  7  8  1  0  0  0
  8  9  1  0  0  0
  8 16  1  0  0  0
  9 10  1  0  0  0
 10 11  1  0  0  0
 11 12  1  0  0  0
 11 16  1  0  0  0
 12 13  1  0  0  0
 13 14  2  0  0  0
 13 15  1  0  0  0
 15 16  1  0  0  0
  3 17  1  0  0  0
  4 18  1  0  0  0
  4 19  1  0  0  0
  5 20  1  0  0  0
  5 21  1  0  0  0
  6 22  1  0  0  0
  6 23  1  0  0  0
  7 24  1  0  0  0
  7 25  1  0  0  0
  8 26  1  0  0  0
 10 27  1  0  0  0
 10 28  1  0  0  0
 11 29  1  0  0  0
 12 30  1  0  0  0
 15 31  1  0  0  0
 16 32  1  0  0  0
M  END
$$$$
