5ll4_ligand
  -I-interpret- 

 35 37  0  0  0  0  0  0  0  0999 V2000
    5.8350    8.0710   -2.5550 O   0  0  0  0  0
    6.5420    7.0970   -2.2830 C   0  0  0  0  0
    6.0160    5.9750   -1.4800 C   0  0  0  0  0
    4.6810    6.0390   -1.0900 C   0  0  0  0  0
    4.1960    4.9920   -0.2940 C   0  0  0  0  0
    6.8360    4.9300   -1.0520 C   0  0  0  0  0
    6.3430    3.9060   -0.2750 C   0  0  0  0  0
    4.9820    3.9130    0.0600 C   0  0  0  0  0
    4.3100    2.5880    1.0180 S   0  0  0  0  0
    4.9060    2.7670    2.3420 O   0  0  0  0  0
    4.8220    1.2170    0.3690 N   0  0  0  0  0
    2.9070    2.6870    0.9120 O   0  0  0  0  0
    8.0380    7.1060   -2.4150 C   0  0  0  0  0
    8.4070    8.3400   -3.1350 N   0  0  0  0  0
    8.6740    9.5130   -2.4800 C   0  0  0  0  0
    8.7440    9.7690   -1.1660 C   0  0  0  0  0
    9.1050   11.0430   -0.7500 C   0  0  0  0  0
    9.3320   12.0510   -1.6730 C   0  0  0  0  0
    9.2790   11.7960   -3.0300 C   0  0  0  0  0
    8.9510   10.4710   -3.4020 C   0  0  0  0  0
    8.8280    9.9420   -4.6430 N   0  0  0  0  0
    8.4050    8.6520   -4.4400 C   0  0  0  0  0
    4.0403    6.8679   -1.3908 H   0  0  0  0  0
    3.1648    5.0307    0.0570 H   0  0  0  0  0
    7.8876    4.9244   -1.3386 H   0  0  0  0  0
    6.9974    3.1065    0.0724 H   0  0  0  0  0
    5.4706    0.6205    0.8827 H   0  0  0  0  0
    4.4996    0.9400   -0.5582 H   0  0  0  0  0
    8.3797    6.2269   -2.9614 H   0  0  0  0  0
    8.5095    7.0801   -1.4326 H   0  0  0  0  0
    8.5212    8.9901   -0.4368 H   0  0  0  0  0
    9.2111   11.2527    0.3144 H   0  0  0  0  0
    9.5555   13.0591   -1.3239 H   0  0  0  0  0
    9.4783   12.5705   -3.7706 H   0  0  0  0  0
    8.1062    7.9696   -5.2357 H   0  0  0  0  0
  1  2  2  0  0  0
  2  3  1  0  0  0
  2 13  1  0  0  0
  3  4  4  0  0  0
  3  6  4  0  0  0
  4  5  4  0  0  0
  5  8  4  0  0  0
  6  7  4  0  0  0
  7  8  4  0  0  0
  8  9  1  0  0  0
  9 10  2  0  0  0
  9 11  1  0  0  0
  9 12  2  0  0  0
 13 14  1  0  0  0
 14 15  4  0  0  0
 14 22  4  0  0  0
 15 16  4  0  0  0
 15 20  4  0  0  0
 16 17  4  0  0  0
 17 18  4  0  0  0
 18 19  4  0  0  0
 19 20  4  0  0  0
 20 21  4  0  0  0
 21 22  4  0  0  0
  4 23  1  0  0  0
  5 24  1  0  0  0
  6 25  1  0  0  0
  7 26  1  0  0  0
 11 27  1  0  0  0
 11 28  1  0  0  0
 13 29  1  0  0  0
 13 30  1  0  0  0
 16 31  1  0  0  0
 17 32  1  0  0  0
 18 33  1  0  0  0
 19 34  1  0  0  0
 22 35  1  0  0  0
M  END
$$$$
