3huc_ligand
  -I-interpret- 

 42 45  0  0  0  0  0  0  0  0999 V2000
   24.7520   -1.9090  -20.8760 C   0  0  0  0  0
   25.3510   -2.9980  -21.5080 C   0  0  0  0  0
   24.8970   -4.2750  -21.2010 C   0  0  0  0  0
   23.8760   -4.4740  -20.2690 C   0  0  0  0  0
   23.2760   -3.3800  -19.6380 C   0  0  0  0  0
   23.7150   -2.0910  -19.9500 C   0  0  0  0  0
   23.1530   -0.9930  -19.3060 C   0  0  0  0  0
   23.0020    0.1980  -19.9310 N   0  0  0  0  0
   22.7970   -1.1460  -18.0150 N   0  0  0  0  0
   22.2710   -0.1250  -17.3250 C   0  0  0  0  0
   21.9000   -0.3240  -15.9950 C   0  0  0  0  0
   21.3380    0.7140  -15.2550 C   0  0  0  0  0
   21.0190    0.4530  -13.9710 N   0  0  0  0  0
   20.1930    1.1450  -13.1760 C   0  0  0  0  0
   19.5700    2.1540  -13.5240 O   0  0  0  0  0
   20.0260    0.6750  -11.8710 C   0  0  0  0  0
   19.1830    1.3240  -10.9700 C   0  0  0  0  0
   21.1580    1.9670  -15.8690 C   0  0  0  0  0
   21.5350    2.1660  -17.2050 C   0  0  0  0  0
   22.0950    1.1170  -17.9450 C   0  0  0  0  0
   22.4780    1.2630  -19.2890 C   0  0  0  0  0
   22.3330    2.4370  -19.9390 N   0  0  0  0  0
   22.4610    2.5860  -21.2810 C   0  0  0  0  0
   22.5710    3.7560  -21.9050 C   0  0  0  0  0
   22.6670    3.4550  -23.2030 C   0  0  0  0  0
   22.6040    2.1190  -23.3250 N   0  0  0  0  0
   22.4840    1.6090  -22.2000 N   0  0  0  0  0
   25.0953   -0.9002  -21.1054 H   0  0  0  0  0
   26.1572   -2.8510  -22.2267 H   0  0  0  0  0
   25.3455   -5.1363  -21.6961 H   0  0  0  0  0
   23.5458   -5.4856  -20.0327 H   0  0  0  0  0
   22.4766   -3.5308  -18.9125 H   0  0  0  0  0
   22.0510   -1.2989  -15.5313 H   0  0  0  0  0
   21.4589   -0.3686  -13.5564 H   0  0  0  0  0
   20.5653   -0.2165  -11.5510 H   0  0  0  0  0
   18.6386    2.2164  -11.2788 H   0  0  0  0  0
   19.0683    0.9390   -9.9567 H   0  0  0  0  0
   20.7221    2.7895  -15.3019 H   0  0  0  0  0
   21.3915    3.1415  -17.6696 H   0  0  0  0  0
   22.1131    3.2651  -19.3856 H   0  0  0  0  0
   22.5807    4.7481  -21.4536 H   0  0  0  0  0
   22.7771    4.1684  -24.0197 H   0  0  0  0  0
  1  2  4  0  0  0
  1  6  4  0  0  0
  2  3  4  0  0  0
  3  4  4  0  0  0
  4  5  4  0  0  0
  5  6  4  0  0  0
  6  7  1  0  0  0
  7  8  4  0  0  0
  7  9  4  0  0  0
  8 21  4  0  0  0
  9 10  4  0  0  0
 10 11  4  0  0  0
 10 20  4  0  0  0
 11 12  4  0  0  0
 12 13  1  0  0  0
 12 18  4  0  0  0
 13 14  1  0  0  0
 14 15  2  0  0  0
 14 16  1  0  0  0
 16 17  2  0  0  0
 18 19  4  0  0  0
 19 20  4  0  0  0
 20 21  4  0  0  0
 21 22  1  0  0  0
 22 23  1  0  0  0
 23 24  4  0  0  0
 23 27  4  0  0  0
 24 25  4  0  0  0
 25 26  4  0  0  0
 26 27  4  0  0  0
  1 28  1  0  0  0
  2 29  1  0  0  0
  3 30  1  0  0  0
  4 31  1  0  0  0
  5 32  1  0  0  0
 11 33  1  0  0  0
 13 34  1  0  0  0
 16 35  1  0  0  0
 17 36  1  0  0  0
 17 37  1  0  0  0
 18 38  1  0  0  0
 19 39  1  0  0  0
 22 40  1  0  0  0
 24 41  1  0  0  0
 25 42  1  0  0  0
M  END
$$$$
