1w8m_ligand
  -I-interpret- 

 28 28  0  0  0  0  0  0  0  0999 V2000
    5.9000   58.8910   51.3070 C   0  0  0  0  0
    6.6180   58.1530   50.1670 C   0  0  0  0  0
    5.8080   56.9570   49.6620 C   0  0  0  0  0
    5.4160   55.9920   50.7780 C   0  0  0  0  0
    4.7370   56.7190   51.9240 C   0  0  0  0  0
    5.5710   57.8750   52.3330 N   0  0  0  0  0
    6.0070   57.9710   53.5800 C   0  0  0  0  0
    6.7210   58.8830   54.0070 O   0  0  0  0  0
    5.6060   56.8390   54.5000 C   0  0  0  0  0
    6.3060   55.8410   54.5470 O   0  0  0  0  0
    4.4840   57.0390   55.2400 O   0  0  0  0  0
    4.1710   56.0540   56.2450 C   0  0  0  0  0
    2.7710   56.2860   56.8140 C   0  0  0  0  0
    4.9971   59.3815   50.9434 H   0  0  0  0  0
    6.5356   59.6720   51.7244 H   0  0  0  0  0
    7.5715   57.7846   50.5455 H   0  0  0  0  0
    6.7510   58.8496   49.3393 H   0  0  0  0  0
    6.4284   56.4105   48.9517 H   0  0  0  0  0
    4.8905   57.3406   49.2157 H   0  0  0  0  0
    6.3198   55.5151   51.1572 H   0  0  0  0  0
    4.7200   55.2577   50.3726 H   0  0  0  0  0
    4.6166   56.0391   52.7674 H   0  0  0  0  0
    3.7567   57.0714   51.6031 H   0  0  0  0  0
    4.8972   56.1338   57.0540 H   0  0  0  0  0
    4.2063   55.0640   55.7903 H   0  0  0  0  0
    2.7232   57.2771   57.2652 H   0  0  0  0  0
    2.0375   56.2152   56.0109 H   0  0  0  0  0
    2.5577   55.5305   57.5702 H   0  0  0  0  0
  1  2  1  0  0  0
  1  6  1  0  0  0
  2  3  1  0  0  0
  3  4  1  0  0  0
  4  5  1  0  0  0
  5  6  1  0  0  0
  6  7  1  0  0  0
  7  8  2  0  0  0
  7  9  1  0  0  0
  9 10  2  0  0  0
  9 11  1  0  0  0
 11 12  1  0  0  0
 12 13  1  0  0  0
  1 14  1  0  0  0
  1 15  1  0  0  0
  2 16  1  0  0  0
  2 17  1  0  0  0
  3 18  1  0  0  0
  3 19  1  0  0  0
  4 20  1  0  0  0
  4 21  1  0  0  0
  5 22  1  0  0  0
  5 23  1  0  0  0
 12 24  1  0  0  0
 12 25  1  0  0  0
 13 26  1  0  0  0
 13 27  1  0  0  0
 13 28  1  0  0  0
M  END
$$$$
