1il3_ligand
  -I-interpret- 

 16 17  0  0  0  0  0  0  0  0999 V2000
   -1.0790    0.5580    7.8420 N   0  0  0  0  0
   -1.6900    0.9590    6.7110 C   0  0  0  0  0
   -0.7530    1.4910    5.8210 C   0  0  0  0  0
    0.4780    1.3890    6.4690 C   0  0  0  0  0
    1.7920    1.7360    6.1280 C   0  0  0  0  0
    2.0990    2.2520    5.0770 O   0  0  0  0  0
    2.7650    1.4720    7.0390 N   0  0  0  0  0
    2.4990    0.8970    8.2450 C   0  0  0  0  0
    3.4650    0.6360    9.1430 N   0  0  0  0  0
    1.2360    0.5640    8.5950 N   0  0  0  0  0
    0.2360    0.8060    7.7150 C   0  0  0  0  0
   -2.7598    0.8801    6.5178 H   0  0  0  0  0
   -0.9440    1.8998    4.8288 H   0  0  0  0  0
    3.7296    1.7131    6.8116 H   0  0  0  0  0
    3.2275    0.2069   10.0373 H   0  0  0  0  0
    4.4353    0.8671    8.9299 H   0  0  0  0  0
  1  2  4  0  0  0
  1 11  4  0  0  0
  2  3  4  0  0  0
  3  4  4  0  0  0
  4  5  1  0  0  0
  4 11  4  0  0  0
  5  6  2  0  0  0
  5  7  1  0  0  0
  7  8  1  0  0  0
  8  9  1  0  0  0
  8 10  2  0  0  0
 10 11  1  0  0  0
  2 12  1  0  0  0
  3 13  1  0  0  0
  7 14  1  0  0  0
  9 15  1  0  0  0
  9 16  1  0  0  0
M  END
$$$$
