2j4k_ligand
  -I-interpret- 

 34 35  0  0  0  0  0  0  0  0999 V2000
   39.3860    9.1620   -0.0140 N   0  0  0  0  0
   39.3590    7.7270   -0.5400 C   0  0  0  0  0
   38.2400    7.4180   -1.3420 N   0  0  0  0  0
   37.1730    8.2930   -1.6990 C   0  0  0  0  0
   37.1900    9.7450   -1.1890 C   0  0  0  0  0
   38.2650   10.0940   -0.3930 C   0  0  0  0  0
   40.1770    6.8710   -0.3290 O   0  0  0  0  0
   35.9980    7.8500   -2.5610 O   0  0  0  0  0
   40.2890   14.2900   -1.4690 P   0  0  0  0  0
   39.3670   14.0180   -2.5900 O   0  0  0  0  0
   40.1650   15.6280   -0.8100 O   0  0  0  0  0
   41.8010   14.0330   -1.8890 O   0  0  0  0  0
   40.5890    9.5790    0.8990 C   0  0  0  0  0
   41.9920    9.6280    0.1180 C   0  0  0  0  0
   42.9910    9.0240    0.9860 O   0  0  0  0  0
   41.8910   11.0880   -0.4040 C   0  0  0  0  0
   41.3940   11.8140    0.8770 C   0  0  0  0  0
   43.1530   11.6290   -0.7840 O   0  0  0  0  0
   40.3760   10.9960    1.3020 O   0  0  0  0  0
   40.7680   13.1530    0.8270 C   0  0  0  0  0
   40.0490   13.2160   -0.3810 O   0  0  0  0  0
   38.1892    6.4663   -1.7053 H   0  0  0  0  0
   36.4022   10.4551   -1.4402 H   0  0  0  0  0
   38.3042   11.1149   -0.0131 H   0  0  0  0  0
   40.8082   15.6948   -0.1004 H   0  0  0  0  0
   42.3752   14.2176   -1.1421 H   0  0  0  0  0
   40.6272    8.8514    1.7097 H   0  0  0  0  0
   42.2869    9.0492   -0.7573 H   0  0  0  0  0
   43.8447    9.0375    0.5472 H   0  0  0  0  0
   41.2645   11.1801   -1.2912 H   0  0  0  0  0
   42.2971   11.9823    1.4636 H   0  0  0  0  0
   43.0331   12.5285   -1.0973 H   0  0  0  0  0
   41.5232   13.9377    0.8718 H   0  0  0  0  0
   40.1083   13.3064    1.6810 H   0  0  0  0  0
  1  2  1  0  0  0
  1  6  1  0  0  0
 13  1  1  0  0  0
  2  3  1  0  0  0
  2  7  2  0  0  0
  3  4  1  0  0  0
  5  4  1  0  0  0
  4  8  2  0  0  0
  6  5  2  0  0  0
  9 10  2  0  0  0
  9 11  1  0  0  0
  9 12  1  0  0  0
 21  9  1  0  0  0
 13 14  1  0  0  0
 19 13  1  0  0  0
 14 15  1  0  0  0
 16 14  1  0  0  0
 17 16  1  0  0  0
 16 18  1  0  0  0
 17 19  1  0  0  0
 20 17  1  0  0  0
 20 21  1  0  0  0
  3 22  1  0  0  0
  5 23  1  0  0  0
  6 24  1  0  0  0
 11 25  1  0  0  0
 12 26  1  0  0  0
 13 27  1  0  0  0
 14 28  1  0  0  0
 15 29  1  0  0  0
 16 30  1  0  0  0
 17 31  1  0  0  0
 18 32  1  0  0  0
 20 33  1  0  0  0
 20 34  1  0  0  0
M  END
$$$$
