### 
### Created by X-TOOL on Mon Sep 10 21:12:56 2018
### 

@<TRIPOS>MOLECULE
2j4k_ligand
   32    33     1     0     0
SMALL
GAST_HUCK


@<TRIPOS>ATOM
      1 N1         39.3860    9.1620   -0.0140 N.am      1 U5P        -0.1928
      2 C2         39.3590    7.7270   -0.5400 C.2       1 U5P         0.2930
      3 N3         38.2400    7.4180   -1.3420 N.am      1 U5P        -0.2377
      4 C4         37.1730    8.2930   -1.6990 C.2       1 U5P         0.1465
      5 C5         37.1900    9.7450   -1.1890 C.2       1 U5P        -0.0433
      6 C6         38.2650   10.0940   -0.3930 C.2       1 U5P         0.0193
      7 O2         40.1770    6.8710   -0.3290 O.2       1 U5P        -0.3906
      8 O4         35.9980    7.8500   -2.5610 O.2       1 U5P        -0.3654
      9 P          40.2890   14.2900   -1.4690 P.3       1 U5P         0.2008
     10 O1P        39.3670   14.0180   -2.5900 O.co2     1 U5P        -0.5537
     11 O2P        40.1650   15.6280   -0.8100 O.co2     1 U5P        -0.5537
     12 O3P        41.8010   14.0330   -1.8890 O.co2     1 U5P        -0.5537
     13 C1'        40.5890    9.5790    0.8990 C.3       1 U5P         0.1938
     14 C2'        41.9920    9.6280    0.1180 C.3       1 U5P         0.1361
     15 O2'        42.9910    9.0240    0.9860 O.3       1 U5P        -0.3839
     16 C3'        41.8910   11.0880   -0.4040 C.3       1 U5P         0.1146
     17 C4'        41.3940   11.8140    0.8770 C.3       1 U5P         0.1179
     18 O3'        43.1530   11.6290   -0.7840 O.3       1 U5P        -0.3864
     19 O4'        40.3760   10.9960    1.3020 O.3       1 U5P        -0.3385
     20 C5'        40.7680   13.1530    0.8270 C.3       1 U5P         0.1071
     21 O5'        40.0490   13.2160   -0.3810 O.3       1 U5P        -0.2734
     22 H1         38.1902    6.4849   -1.6982 H         1 U5P         0.1895
     23 H3         36.4029   10.4545   -1.4400 H         1 U5P         0.0257
     24 H4         38.3041   11.1140   -0.0134 H         1 U5P         0.0801
     25 H6         40.6498    8.9083    1.7687 H         1 U5P         0.0964
     26 H7         41.9709    8.9815   -0.7717 H         1 U5P         0.0673
     27 H8         42.7444    8.1261    1.1738 H         1 U5P         0.2101
     28 H9         41.1790   11.1724   -1.2382 H         1 U5P         0.0648
     29 H10        42.2246   11.8521    1.5971 H         1 U5P         0.0650
     30 H11        43.0585   12.5581   -0.9580 H         1 U5P         0.2100
     31 H12        41.5416   13.9347    0.8494 H         1 U5P         0.0639
     32 H13        40.0875   13.2860    1.6810 H         1 U5P         0.0639
@<TRIPOS>BOND
     1    1    2 am 
     2    1    6 1  
     3   13    1 1  
     4    2    3 am 
     5    2    7 2  
     6    3    4 am 
     7    5    4 1  
     8    4    8 2  
     9    6    5 2  
    10    9   10 ar 
    11    9   11 ar 
    12    9   12 ar 
    13   21    9 1  
    14   13   14 1  
    15   19   13 1  
    16   14   15 1  
    17   16   14 1  
    18   17   16 1  
    19   16   18 1  
    20   17   19 1  
    21   20   17 1  
    22   20   21 1  
    23    3   22 1  
    24    5   23 1  
    25    6   24 1  
    26   13   25 1  
    27   14   26 1  
    28   15   27 1  
    29   16   28 1  
    30   17   29 1  
    31   18   30 1  
    32   20   31 1  
    33   20   32 1  
@<TRIPOS>SUBSTRUCTURE
     1 U5P         1

