3new_ligand
  -I-interpret- 

 30 32  0  0  0  0  0  0  0  0999 V2000
   24.6130   15.5740   11.5250 C   0  0  0  0  0
   22.3440   19.2700    8.9370 C   0  0  0  0  0
   24.0840   15.0070   10.3890 C   0  0  0  0  0
   24.8140   14.7620   12.6090 C   0  0  0  0  0
   22.6790   18.1460    9.6650 C   0  0  0  0  0
   23.3430   17.1420    8.9450 C   0  0  0  0  0
   25.4160   15.2980   13.8570 C   0  0  0  0  0
   23.9930   12.8700   11.5220 C   0  0  0  0  0
   23.8050   13.6570   10.4090 C   0  0  0  0  0
   24.5020   13.4260   12.6410 C   0  0  0  0  0
   22.6500   19.3420    7.5790 C   0  0  0  0  0
   23.8820   15.8280    9.1930 C   0  0  0  0  0
   23.5640   17.3800    7.5910 C   0  0  0  0  0
   22.3710   18.0560   11.1140 C   0  0  0  0  0
   24.1760   16.2210    7.1650 N   0  0  0  0  0
   23.2540   18.4460    6.8030 N   0  0  0  0  0
   24.3740   15.2940    8.0790 N   0  0  0  0  0
   22.2790   20.4890    6.9520 O   0  0  0  0  0
   24.5620   15.0630   14.8590 F   0  0  0  0  0
   26.5740   14.6190   14.0990 F   0  0  0  0  0
   25.8220   16.5950   14.0330 F   0  0  0  0  0
   21.4870   18.9290   11.6140 F   0  0  0  0  0
   22.0520   16.8250   11.6040 F   0  0  0  0  0
   23.4530   18.3390   11.8410 F   0  0  0  0  0
   24.8638   16.6341   11.5611 H   0  0  0  0  0
   21.8389   20.1034    9.4253 H   0  0  0  0  0
   23.7341   11.8114   11.4999 H   0  0  0  0  0
   23.4180   13.1921    9.5022 H   0  0  0  0  0
   24.6603   12.8329   13.5417 H   0  0  0  0  0
   23.4481   18.5399    5.8061 H   0  0  0  0  0
  3  1  4  0  0  0
  1  4  4  0  0  0
  5  2  2  0  0  0
  2 11  1  0  0  0
  3  9  4  0  0  0
 12  3  1  0  0  0
  4  7  1  0  0  0
  4 10  4  0  0  0
  6  5  1  0  0  0
  5 14  1  0  0  0
  6 12  4  0  0  0
  6 13  4  0  0  0
  7 19  1  0  0  0
  7 20  1  0  0  0
  7 21  1  0  0  0
  9  8  4  0  0  0
  8 10  4  0  0  0
 11 16  1  0  0  0
 11 18  2  0  0  0
 12 17  4  0  0  0
 13 15  4  0  0  0
 13 16  1  0  0  0
 14 22  1  0  0  0
 14 23  1  0  0  0
 14 24  1  0  0  0
 15 17  4  0  0  0
  1 25  1  0  0  0
  2 26  1  0  0  0
  8 27  1  0  0  0
  9 28  1  0  0  0
 10 29  1  0  0  0
 16 30  1  0  0  0
M  END
$$$$
