2pvh_ligand
  -I-interpret- 

 37 40  0  0  0  0  0  0  0  0999 V2000
   19.6130   10.4240   19.1490 N   0  0  0  0  0
   19.7530   10.7890   17.8550 C   0  0  0  0  0
   20.7410    9.9760   17.2870 C   0  0  0  0  0
   21.1840    9.0930   18.3460 C   0  0  0  0  0
   20.4670    9.4040   19.4660 N   0  0  0  0  0
   22.1120    8.1230   18.3910 N   0  0  0  0  0
   22.2920    7.5010   19.5510 C   0  0  0  0  0
   21.6020    7.7910   20.6520 N   0  0  0  0  0
   20.6820    8.7520   20.6000 C   0  0  0  0  0
   19.9680    9.0610   21.7140 N   0  0  0  0  0
   20.0910    8.4590   22.9270 C   0  0  0  0  0
   20.2640    7.0810   23.0730 C   0  0  0  0  0
   20.3340    6.4790   24.3290 C   0  0  0  0  0
   20.2250    7.2750   25.4670 C   0  0  0  0  0
   20.0710    8.6550   25.3340 C   0  0  0  0  0
   20.0070    9.2480   24.0730 C   0  0  0  0  0
   23.2470    6.5330   19.5930 N   0  0  0  0  0
   23.1830    5.3760   20.3040 C   0  0  0  0  0
   22.5070    5.2570   21.5200 C   0  0  0  0  0
   22.4580    4.0560   22.2260 C   0  0  0  0  0
   23.1040    2.9410   21.6990 C   0  0  0  0  0
   23.7950    3.0460   20.4920 C   0  0  0  0  0
   23.8350    4.2540   19.7960 C   0  0  0  0  0
   19.1964   11.5754   17.3452 H   0  0  0  0  0
   21.1025   10.0022   16.2590 H   0  0  0  0  0
   19.2799    9.8096   21.6333 H   0  0  0  0  0
   20.3465    6.4593   22.1815 H   0  0  0  0  0
   20.4720    5.4015   24.4189 H   0  0  0  0  0
   20.2599    6.8213   26.4575 H   0  0  0  0  0
   19.9998    9.2774   26.2260 H   0  0  0  0  0
   19.8913   10.3282   23.9838 H   0  0  0  0  0
   24.0893    6.6899   19.0396 H   0  0  0  0  0
   22.0014    6.1312   21.9303 H   0  0  0  0  0
   21.9235    3.9910   23.1737 H   0  0  0  0  0
   23.0699    1.9887   22.2282 H   0  0  0  0  0
   24.3096    2.1741   20.0881 H   0  0  0  0  0
   24.3773    4.3206   18.8528 H   0  0  0  0  0
  1  2  4  0  0  0
  1  5  4  0  0  0
  2  3  4  0  0  0
  3  4  4  0  0  0
  4  5  4  0  0  0
  4  6  4  0  0  0
  5  9  4  0  0  0
  6  7  4  0  0  0
  7  8  4  0  0  0
  7 17  1  0  0  0
  8  9  4  0  0  0
  9 10  1  0  0  0
 10 11  1  0  0  0
 11 12  4  0  0  0
 11 16  4  0  0  0
 12 13  4  0  0  0
 13 14  4  0  0  0
 14 15  4  0  0  0
 15 16  4  0  0  0
 17 18  1  0  0  0
 18 19  4  0  0  0
 18 23  4  0  0  0
 19 20  4  0  0  0
 20 21  4  0  0  0
 21 22  4  0  0  0
 22 23  4  0  0  0
  2 24  1  0  0  0
  3 25  1  0  0  0
 10 26  1  0  0  0
 12 27  1  0  0  0
 13 28  1  0  0  0
 14 29  1  0  0  0
 15 30  1  0  0  0
 16 31  1  0  0  0
 17 32  1  0  0  0
 19 33  1  0  0  0
 20 34  1  0  0  0
 21 35  1  0  0  0
 22 36  1  0  0  0
 23 37  1  0  0  0
M  END
$$$$
