4yll_ligand
  -I-interpret- 

 29 32  0  0  0  0  0  0  0  0999 V2000
   20.9680   52.7000   33.9800 O   0  0  0  0  0
   20.2680   52.6000   35.0900 C   0  0  0  0  0
   20.3110   52.9900   36.3150 O   0  0  0  0  0
   19.4950   51.5840   35.0810 C   0  0  0  0  0
   19.7710   50.8460   33.8540 N   0  0  0  0  0
   19.1720   49.6020   33.7960 C   0  0  0  0  0
   19.4720   48.7060   32.7550 C   0  0  0  0  0
   18.8730   47.4730   32.6890 C   0  0  0  0  0
   17.9310   47.1510   33.6590 C   0  0  0  0  0
   17.6500   48.0140   34.7140 C   0  0  0  0  0
   18.2530   49.2650   34.7910 C   0  0  0  0  0
   17.8930   50.1220   35.8500 C   0  0  0  0  0
   18.5000   51.3080   36.1470 C   0  0  0  0  0
   17.8450   51.7950   37.3210 C   0  0  0  0  0
   17.9490   52.9510   38.1440 C   0  0  0  0  0
   17.0480   53.0780   39.2260 C   0  0  0  0  0
   16.1090   52.0960   39.5750 C   0  0  0  0  0
   16.0150   50.9540   38.8020 C   0  0  0  0  0
   14.7620   49.5440   39.1890 Br  0  0  0  0  0
   16.8480   50.8430   37.6880 C   0  0  0  0  0
   16.9380   49.8420   36.7410 N   0  0  0  0  0
   17.0860   45.2010   33.5880 I   0  0  0  0  0
   20.5234   52.2189   33.2782 H   0  0  0  0  0
   20.1913   48.9950   31.9887 H   0  0  0  0  0
   19.1285   46.7668   31.8990 H   0  0  0  0  0
   16.9488   47.7058   35.4895 H   0  0  0  0  0
   18.7005   53.7154   37.9463 H   0  0  0  0  0
   17.0850   53.9897   39.8222 H   0  0  0  0  0
   15.4633   52.2315   40.4426 H   0  0  0  0  0
  1  2  1  0  0  0
  2  3  2  0  0  0
  2  4  1  0  0  0
  4  5  4  0  0  0
  4 13  4  0  0  0
  5  6  4  0  0  0
  6  7  4  0  0  0
  6 11  4  0  0  0
  7  8  4  0  0  0
  8  9  4  0  0  0
  9 10  4  0  0  0
  9 22  1  0  0  0
 10 11  4  0  0  0
 11 12  4  0  0  0
 12 13  4  0  0  0
 12 21  4  0  0  0
 13 14  4  0  0  0
 14 15  4  0  0  0
 14 20  4  0  0  0
 15 16  4  0  0  0
 16 17  4  0  0  0
 17 18  4  0  0  0
 18 19  1  0  0  0
 18 20  4  0  0  0
 20 21  4  0  0  0
  1 23  1  0  0  0
  7 24  1  0  0  0
  8 25  1  0  0  0
 10 26  1  0  0  0
 15 27  1  0  0  0
 16 28  1  0  0  0
 17 29  1  0  0  0
M  END
$$$$
