5mb1_ligand
  -I-interpret- 

 29 29  0  0  0  0  0  0  0  0999 V2000
   -7.1080    4.3330   12.4090 O   0  0  0  0  0
   -7.9490    5.3600   11.9290 S   0  0  0  0  0
   -8.6410    6.1500   12.9190 O   0  0  0  0  0
   -7.0960    6.3960   10.9920 N   0  0  0  0  0
   -6.1550    5.8510    9.9990 C   0  0  0  0  0
   -9.0670    4.6320   10.8070 C   0  0  0  0  0
   -8.8140    3.3780   10.2580 C   0  0  0  0  0
   -7.6370    2.4720   10.6060 C   0  0  0  0  0
   -9.7270    2.8490    9.3280 C   0  0  0  0  0
  -10.8200    3.6050    8.9250 C   0  0  0  0  0
  -11.8040    3.0720    7.9120 C   0  0  0  0  0
  -11.0420    4.8600    9.4630 C   0  0  0  0  0
  -10.1600    5.3850   10.4150 C   0  0  0  0  0
  -10.4910    6.7810   10.9160 C   0  0  0  0  0
   -7.2144    7.4039   11.0943 H   0  0  0  0  0
   -5.3977    5.2542   10.5073 H   0  0  0  0  0
   -6.6981    5.2249    9.2911 H   0  0  0  0  0
   -5.6752    6.6720    9.4662 H   0  0  0  0  0
   -6.7038    2.9873   10.3786 H   0  0  0  0  0
   -7.6694    2.2281   11.6679 H   0  0  0  0  0
   -7.6997    1.5555   10.0193 H   0  0  0  0  0
   -9.5770    1.8477    8.9244 H   0  0  0  0  0
  -11.2834    2.8606    6.9780 H   0  0  0  0  0
  -12.2556    2.1561    8.2931 H   0  0  0  0  0
  -12.5811    3.8158    7.7360 H   0  0  0  0  0
  -11.9067    5.4422    9.1445 H   0  0  0  0  0
  -10.6314    6.7540   11.9966 H   0  0  0  0  0
   -9.6717    7.4571   10.6715 H   0  0  0  0  0
  -11.4065    7.1296   10.4380 H   0  0  0  0  0
  1  2  2  0  0  0
  2  3  2  0  0  0
  2  4  1  0  0  0
  2  6  1  0  0  0
  4  5  1  0  0  0
  6  7  4  0  0  0
  6 13  4  0  0  0
  7  8  1  0  0  0
  7  9  4  0  0  0
  9 10  4  0  0  0
 10 11  1  0  0  0
 10 12  4  0  0  0
 12 13  4  0  0  0
 13 14  1  0  0  0
  4 15  1  0  0  0
  5 16  1  0  0  0
  5 17  1  0  0  0
  5 18  1  0  0  0
  8 19  1  0  0  0
  8 20  1  0  0  0
  8 21  1  0  0  0
  9 22  1  0  0  0
 11 23  1  0  0  0
 11 24  1  0  0  0
 11 25  1  0  0  0
 12 26  1  0  0  0
 14 27  1  0  0  0
 14 28  1  0  0  0
 14 29  1  0  0  0
M  END
$$$$
