1n43_ligand
  -I-interpret- 

 32 33  0  0  0  0  0  0  0  0999 V2000
    6.4620  -16.3600   24.7060 C   0  0  0  0  0
    5.9640  -15.2510   25.0220 O   0  0  0  0  0
    5.9560  -17.0760   23.8040 O   0  0  0  0  0
    7.6700  -16.7890   25.4510 C   0  0  0  0  0
    8.5460  -15.6250   25.9020 C   0  0  0  0  0
    8.9690  -14.7510   24.7220 C   0  0  0  0  0
   10.1490  -13.8000   25.0530 C   0  0  0  0  0
   10.7860  -13.0660   23.8940 C   0  0  0  0  0
   11.9910  -14.0020   22.8870 S   0  0  0  0  0
   12.3740  -12.4820   21.9520 C   0  0  0  0  0
   12.4060  -11.3560   22.9710 C   0  0  0  0  0
   13.6860  -11.1820   23.6210 N   0  0  0  0  0
   13.6230  -11.4040   24.9380 C   0  0  0  0  0
   14.5770  -11.3060   25.7460 O   0  0  0  0  0
   12.3540  -11.7180   25.2760 N   0  0  0  0  0
   11.4590  -11.7300   24.1320 C   0  0  0  0  0
    6.4728  -17.8791   23.7069 H   0  0  0  0  0
    8.2661  -17.4100   24.7823 H   0  0  0  0  0
    7.3359  -17.3154   26.3451 H   0  0  0  0  0
    9.4431  -16.0298   26.3704 H   0  0  0  0  0
    7.9733  -15.0117   26.5976 H   0  0  0  0  0
    8.1146  -14.1321   24.4481 H   0  0  0  0  0
    9.2960  -15.4147   23.9216 H   0  0  0  0  0
   10.9322  -14.4323   25.4711 H   0  0  0  0  0
    9.7359  -13.0284   25.7027 H   0  0  0  0  0
    9.8397  -12.9061   23.3773 H   0  0  0  0  0
   11.6256  -12.2946   21.1820 H   0  0  0  0  0
   13.3282  -12.5696   21.4324 H   0  0  0  0  0
   12.1441  -10.4546   22.4170 H   0  0  0  0  0
   14.5407  -10.9195   23.1301 H   0  0  0  0  0
   12.0566  -11.9241   26.2297 H   0  0  0  0  0
   10.6158  -11.0517   24.2624 H   0  0  0  0  0
  1  2  2  0  0  0
  1  3  1  0  0  0
  1  4  1  0  0  0
  4  5  1  0  0  0
  5  6  1  0  0  0
  6  7  1  0  0  0
  7  8  1  0  0  0
  8  9  1  0  0  0
  8 16  1  0  0  0
  9 10  1  0  0  0
 10 11  1  0  0  0
 11 12  1  0  0  0
 11 16  1  0  0  0
 12 13  1  0  0  0
 13 14  2  0  0  0
 13 15  1  0  0  0
 15 16  1  0  0  0
  3 17  1  0  0  0
  4 18  1  0  0  0
  4 19  1  0  0  0
  5 20  1  0  0  0
  5 21  1  0  0  0
  6 22  1  0  0  0
  6 23  1  0  0  0
  7 24  1  0  0  0
  7 25  1  0  0  0
  8 26  1  0  0  0
 10 27  1  0  0  0
 10 28  1  0  0  0
 11 29  1  0  0  0
 12 30  1  0  0  0
 15 31  1  0  0  0
 16 32  1  0  0  0
M  END
$$$$
