5b5b_ligand
  -I-interpret- 

 94 98  0  0  0  0  0  0  0  0999 V2000
  160.6300   -0.5540   50.9850 O   0  0  0  0  0
  160.0330    0.7840   51.0020 C   0  0  0  0  0
  158.6390    0.6380   50.3800 C   0  0  0  0  0
  158.5800    0.1190   48.9740 C   0  0  0  0  0
  158.5130    0.9690   47.8660 C   0  0  0  0  0
  158.4500    0.4230   46.5730 C   0  0  0  0  0
  158.4600   -0.9650   46.4210 C   0  0  0  0  0
  158.5340   -1.7900   47.5390 C   0  0  0  0  0
  158.5880   -1.2480   48.7970 C   0  0  0  0  0
  159.8440    1.2650   52.4620 C   0  0  0  0  0
  159.2950    2.6840   52.7080 C   0  0  0  0  0
  157.9130    2.9280   52.7730 C   0  0  0  0  0
  157.4230    4.2030   53.0200 C   0  0  0  0  0
  158.3030    5.2570   53.2410 C   0  0  0  0  0
  159.6760    5.0200   53.1950 C   0  0  0  0  0
  160.1560    3.7540   52.9210 C   0  0  0  0  0
  160.8400    1.7680   50.1190 C   0  0  0  0  0
  162.3080    1.9120   50.5160 C   0  0  0  0  0
  163.0370    2.9990   49.6850 C   0  0  0  0  0
  164.0410    2.3630   48.7940 C   0  0  0  0  0
  163.3080    1.2970   47.9650 C   0  0  0  0  0
  164.9360    3.3240   47.9360 C   0  0  0  0  0
  164.4530    4.5590   47.1530 C   0  0  0  0  0
  163.2530    4.3170   46.2490 C   0  0  0  0  0
  164.2100    5.8430   47.9570 C   0  0  0  0  0
  164.0830    7.0880   47.0200 C   0  0  0  0  0
  165.3380    7.2650   46.1490 C   0  0  0  0  0
  165.6450    2.5200   46.8370 C   0  0  0  0  0
  166.0980    3.4750   45.7050 C   0  0  0  0  0
  165.6780    4.7990   46.2570 C   0  0  0  0  0
  165.5240    6.0020   45.3430 C   0  0  0  0  0
  165.5060    5.9780   43.9740 C   0  0  0  0  0
  165.3000    7.2310   43.1930 C   0  0  0  0  0
  165.1130    7.2800   41.8590 C   0  0  0  0  0
  164.8980    8.6200   41.1740 C   0  0  0  0  0
  165.5460    8.6510   39.7730 C   0  0  0  0  0
  166.9740    8.6430   39.8610 O   0  0  0  0  0
  165.0610    6.0190   41.0280 C   0  0  0  0  0
  165.5720    6.1530   39.5970 C   0  0  0  0  0
  165.1560    5.0520   38.8150 O   0  0  0  0  0
  165.1220    7.4320   38.9920 C   0  0  0  0  0
  164.4110    7.4880   37.8720 C   0  0  0  0  0
  160.7423   -0.8415   50.0760 H   0  0  0  0  0
  158.2181    1.6429   50.3471 H   0  0  0  0  0
  158.1119   -0.0935   50.9925 H   0  0  0  0  0
  158.5097    2.0501   48.0046 H   0  0  0  0  0
  158.3941    1.0740   45.7005 H   0  0  0  0  0
  158.4097   -1.4032   45.4242 H   0  0  0  0  0
  158.5491   -2.8727   47.4139 H   0  0  0  0  0
  158.6377   -1.9044   49.6658 H   0  0  0  0  0
  160.8462    1.2705   52.8906 H   0  0  0  0  0
  159.0971    0.5945   52.8869 H   0  0  0  0  0
  157.2150    2.1036   52.6273 H   0  0  0  0  0
  156.3474    4.3783   53.0408 H   0  0  0  0  0
  157.9233    6.2575   53.4479 H   0  0  0  0  0
  160.3740    5.8374   53.3761 H   0  0  0  0  0
  161.2325    3.5908   52.8708 H   0  0  0  0  0
  160.3801    2.7499   50.2312 H   0  0  0  0  0
  160.8202    1.3758   49.1022 H   0  0  0  0  0
  162.8031    0.9581   50.3343 H   0  0  0  0  0
  162.3479    2.2044   51.5653 H   0  0  0  0  0
  163.5412    3.6905   50.3600 H   0  0  0  0  0
  162.3086    3.5384   49.0796 H   0  0  0  0  0
  164.8017    1.9098   49.4296 H   0  0  0  0  0
  162.8673    0.5579   48.6340 H   0  0  0  0  0
  162.5219    1.7721   47.3781 H   0  0  0  0  0
  164.0166    0.8075   47.2969 H   0  0  0  0  0
  165.4680    3.7451   48.7891 H   0  0  0  0  0
  163.5040    3.5560   45.5101 H   0  0  0  0  0
  162.4095    3.9775   46.8501 H   0  0  0  0  0
  162.9890    5.2448   45.7415 H   0  0  0  0  0
  165.0569    5.9981   48.6255 H   0  0  0  0  0
  163.2790    5.7321   48.5130 H   0  0  0  0  0
  163.9634    7.9768   47.6396 H   0  0  0  0  0
  163.2245    6.9418   46.3645 H   0  0  0  0  0
  166.2110    7.4450   46.7763 H   0  0  0  0  0
  165.2202    8.1223   45.4863 H   0  0  0  0  0
  164.9581    1.7774   46.4312 H   0  0  0  0  0
  166.5165    2.0197   47.2592 H   0  0  0  0  0
  165.6592    3.2447   44.7342 H   0  0  0  0  0
  167.1619    3.4119   45.4766 H   0  0  0  0  0
  166.5512    5.1522   46.8056 H   0  0  0  0  0
  165.6438    5.0324   43.4496 H   0  0  0  0  0
  165.3006    8.1742   43.7393 H   0  0  0  0  0
  165.3584    9.3970   41.7842 H   0  0  0  0  0
  163.8259    8.7819   41.0618 H   0  0  0  0  0
  165.2198    9.5657   39.2780 H   0  0  0  0  0
  167.3481    8.6627   38.9771 H   0  0  0  0  0
  164.0104    5.7376   40.9570 H   0  0  0  0  0
  165.7090    5.2951   41.5221 H   0  0  0  0  0
  166.6617    6.1595   39.6236 H   0  0  0  0  0
  165.4865    5.1539   37.9195 H   0  0  0  0  0
  164.1020    8.4530   37.4703 H   0  0  0  0  0
  164.1363    6.5690   37.3543 H   0  0  0  0  0
  1  2  1  0  0  0
  2  3  1  0  0  0
  2 10  1  0  0  0
  2 17  1  0  0  0
  3  4  1  0  0  0
  4  5  4  0  0  0
  4  9  4  0  0  0
  5  6  4  0  0  0
  6  7  4  0  0  0
  7  8  4  0  0  0
  8  9  4  0  0  0
 10 11  1  0  0  0
 11 12  4  0  0  0
 11 16  4  0  0  0
 12 13  4  0  0  0
 13 14  4  0  0  0
 14 15  4  0  0  0
 15 16  4  0  0  0
 17 18  1  0  0  0
 18 19  1  0  0  0
 19 20  1  0  0  0
 20 21  1  0  0  0
 20 22  1  0  0  0
 22 23  1  0  0  0
 22 28  1  0  0  0
 23 24  1  0  0  0
 23 25  1  0  0  0
 23 30  1  0  0  0
 25 26  1  0  0  0
 26 27  1  0  0  0
 27 31  1  0  0  0
 28 29  1  0  0  0
 29 30  1  0  0  0
 30 31  1  0  0  0
 31 32  2  0  0  0
 32 33  1  0  0  0
 33 34  2  0  0  0
 34 35  1  0  0  0
 34 38  1  0  0  0
 35 36  1  0  0  0
 36 37  1  0  0  0
 36 41  1  0  0  0
 38 39  1  0  0  0
 39 40  1  0  0  0
 39 41  1  0  0  0
 41 42  2  0  0  0
  1 43  1  0  0  0
  3 44  1  0  0  0
  3 45  1  0  0  0
  5 46  1  0  0  0
  6 47  1  0  0  0
  7 48  1  0  0  0
  8 49  1  0  0  0
  9 50  1  0  0  0
 10 51  1  0  0  0
 10 52  1  0  0  0
 12 53  1  0  0  0
 13 54  1  0  0  0
 14 55  1  0  0  0
 15 56  1  0  0  0
 16 57  1  0  0  0
 17 58  1  0  0  0
 17 59  1  0  0  0
 18 60  1  0  0  0
 18 61  1  0  0  0
 19 62  1  0  0  0
 19 63  1  0  0  0
 20 64  1  0  0  0
 21 65  1  0  0  0
 21 66  1  0  0  0
 21 67  1  0  0  0
 22 68  1  0  0  0
 24 69  1  0  0  0
 24 70  1  0  0  0
 24 71  1  0  0  0
 25 72  1  0  0  0
 25 73  1  0  0  0
 26 74  1  0  0  0
 26 75  1  0  0  0
 27 76  1  0  0  0
 27 77  1  0  0  0
 28 78  1  0  0  0
 28 79  1  0  0  0
 29 80  1  0  0  0
 29 81  1  0  0  0
 30 82  1  0  0  0
 32 83  1  0  0  0
 33 84  1  0  0  0
 35 85  1  0  0  0
 35 86  1  0  0  0
 36 87  1  0  0  0
 37 88  1  0  0  0
 38 89  1  0  0  0
 38 90  1  0  0  0
 39 91  1  0  0  0
 40 92  1  0  0  0
 42 93  1  0  0  0
 42 94  1  0  0  0
M  END
$$$$
