5j6d_ligand
  -I-interpret- 

 75 78  0  0  0  0  0  0  0  0999 V2000
  -16.8220   -3.0100   -8.8080 N   0  0  0  0  0
  -20.3960   -5.5050   -6.1860 C   0  0  0  0  0
  -15.1530   -1.5430   -9.0750 N   0  0  0  0  0
  -19.2450   -4.8240   -5.8190 C   0  0  0  0  0
  -15.0340   -2.2620  -11.8690 C   0  0  0  0  0
  -16.0150   -2.4190   -9.6100 C   0  0  0  0  0
  -17.7490   -3.9390   -9.1620 C   0  0  0  0  0
  -18.6560   -4.4930   -8.1210 C   0  0  0  0  0
  -18.3760   -4.3210   -6.7790 C   0  0  0  0  0
  -15.5650   -1.0920  -12.6550 C   0  0  0  0  0
  -17.5510   -3.0590  -15.0110 C   0  0  0  0  0
  -18.8870   -3.3890  -14.9100 C   0  0  0  0  0
  -19.5970   -3.8130  -16.0360 C   0  0  0  0  0
  -21.4410   -5.2830  -16.5780 C   0  0  0  0  0
  -18.9540   -3.9010  -17.2620 C   0  0  0  0  0
  -17.6000   -3.5650  -17.3570 C   0  0  0  0  0
  -16.6110    0.9980  -14.1840 C   0  0  0  0  0
  -15.1750    0.2450  -12.3940 C   0  0  0  0  0
  -12.8220    0.3660  -11.6730 C   0  0  0  0  0
  -11.9620    0.5710  -10.4330 C   0  0  0  0  0
  -19.8370   -5.1520   -8.4980 C   0  0  0  0  0
  -13.7340    1.7690   -9.2460 C   0  0  0  0  0
  -12.3140    1.8940   -9.8040 C   0  0  0  0  0
  -16.8930   -3.1330  -16.2350 C   0  0  0  0  0
  -22.7380   -8.7500   -3.7020 O   0  0  0  0  0
  -22.0120   -7.7340   -3.4840 C   0  0  0  0  0
  -22.1420   -7.0510   -2.4410 O   0  0  0  0  0
  -20.9560   -7.3440   -4.4940 C   0  0  0  0  0
  -20.7690   -8.3610   -5.5720 N   0  3  0  0  0
  -21.3460   -6.0110   -5.1270 C   0  0  0  0  0
  -20.6980   -5.6500   -7.5380 C   0  0  0  0  0
  -17.9090   -4.3100  -10.3290 O   0  0  0  0  0
  -16.0110   -2.7170  -10.9120 N   0  0  0  0  0
  -14.2460    0.6770  -11.4290 N   0  0  0  0  0
  -14.7370    1.5740  -10.3760 C   0  0  0  0  0
  -15.6940    1.2650  -13.1760 C   0  0  0  0  0
  -17.0130   -0.3050  -14.4410 C   0  0  0  0  0
  -16.4870   -1.3560  -13.6680 C   0  0  0  0  0
  -16.8630   -2.6560  -13.9020 O   0  0  0  0  0
  -20.9110   -4.1450  -15.8940 O   0  0  0  0  0
  -15.1585   -1.3712   -8.0696 H   0  0  0  0  0
  -19.0190   -4.6814   -4.7623 H   0  0  0  0  0
  -14.1361   -1.9502  -11.3354 H   0  0  0  0  0
  -14.8087   -3.0764  -12.5575 H   0  0  0  0  0
  -17.4738   -3.7910   -6.4737 H   0  0  0  0  0
  -19.3913   -3.3185  -13.9462 H   0  0  0  0  0
  -21.3181   -5.1491  -17.6527 H   0  0  0  0  0
  -20.9074   -6.1782  -16.2587 H   0  0  0  0  0
  -22.5002   -5.3863  -16.3422 H   0  0  0  0  0
  -19.5008   -4.2300  -18.1457 H   0  0  0  0  0
  -17.0916   -3.6415  -18.3181 H   0  0  0  0  0
  -17.0176    1.8171  -14.7771 H   0  0  0  0  0
  -12.7508   -0.6822  -11.9632 H   0  0  0  0  0
  -12.4585    1.0381  -12.4503 H   0  0  0  0  0
  -10.9083    0.5658  -10.7119 H   0  0  0  0  0
  -12.1455   -0.2342   -9.7216 H   0  0  0  0  0
  -20.0766   -5.2717   -9.5546 H   0  0  0  0  0
  -13.9833    2.6820   -8.7052 H   0  0  0  0  0
  -13.7782    0.9065   -8.5809 H   0  0  0  0  0
  -12.2614    2.6948  -10.5416 H   0  0  0  0  0
  -11.6102    2.1393   -9.0087 H   0  0  0  0  0
  -15.8414   -2.8576  -16.3156 H   0  0  0  0  0
  -22.4946   -9.1411   -4.5443 H   0  0  0  0  0
  -20.0094   -7.2693   -3.9587 H   0  0  0  0  0
  -20.0474   -8.0412   -6.2180 H   0  0  0  0  0
  -20.4854   -9.2479   -5.1556 H   0  0  0  0  0
  -21.6470   -8.4860   -6.0759 H   0  0  0  0  0
  -22.3085   -6.1642   -5.6151 H   0  0  0  0  0
  -21.3478   -5.2712   -4.3265 H   0  0  0  0  0
  -21.6146   -6.1569   -7.8395 H   0  0  0  0  0
  -16.7610   -3.3158  -11.2574 H   0  0  0  0  0
  -14.9214    2.5483  -10.8286 H   0  0  0  0  0
  -15.6348    1.1263   -9.9499 H   0  0  0  0  0
  -15.3774    2.2925  -12.9969 H   0  0  0  0  0
  -17.7303   -0.5124  -15.2351 H   0  0  0  0  0
  6  1  4  0  0  0
  1  7  1  0  0  0
  4  2  4  0  0  0
  2 30  1  0  0  0
 31  2  4  0  0  0
  6  3  2  0  0  0
  9  4  4  0  0  0
 10  5  1  0  0  0
  5 33  1  0  0  0
 33  6  1  0  0  0
  7  8  1  0  0  0
  7 32  2  0  0  0
  8  9  4  0  0  0
  8 21  4  0  0  0
 10 18  4  0  0  0
 38 10  4  0  0  0
 11 12  4  0  0  0
 11 24  4  0  0  0
 39 11  1  0  0  0
 12 13  4  0  0  0
 13 15  4  0  0  0
 13 40  1  0  0  0
 40 14  1  0  0  0
 16 15  4  0  0  0
 24 16  4  0  0  0
 17 36  4  0  0  0
 37 17  4  0  0  0
 18 34  1  0  0  0
 18 36  4  0  0  0
 19 20  1  0  0  0
 34 19  1  0  0  0
 20 23  1  0  0  0
 21 31  4  0  0  0
 22 23  1  0  0  0
 35 22  1  0  0  0
 26 25  1  0  0  0
 26 27  2  0  0  0
 28 26  1  0  0  0
 28 29  1  0  0  0
 30 28  1  0  0  0
 34 35  1  0  0  0
 38 37  4  0  0  0
 38 39  1  0  0  0
  3 41  1  0  0  0
  4 42  1  0  0  0
  5 43  1  0  0  0
  5 44  1  0  0  0
  9 45  1  0  0  0
 12 46  1  0  0  0
 14 47  1  0  0  0
 14 48  1  0  0  0
 14 49  1  0  0  0
 15 50  1  0  0  0
 16 51  1  0  0  0
 17 52  1  0  0  0
 19 53  1  0  0  0
 19 54  1  0  0  0
 20 55  1  0  0  0
 20 56  1  0  0  0
 21 57  1  0  0  0
 22 58  1  0  0  0
 22 59  1  0  0  0
 23 60  1  0  0  0
 23 61  1  0  0  0
 24 62  1  0  0  0
 25 63  1  0  0  0
 28 64  1  0  0  0
 29 65  1  0  0  0
 29 66  1  0  0  0
 29 67  1  0  0  0
 30 68  1  0  0  0
 30 69  1  0  0  0
 31 70  1  0  0  0
 33 71  1  0  0  0
 35 72  1  0  0  0
 35 73  1  0  0  0
 36 74  1  0  0  0
 37 75  1  0  0  0
M  END
$$$$
