6j0o_ligand
  -I-interpret- 

 50 53  0  0  0  0  0  0  0  0999 V2000
  -32.5240    5.8610   -8.9630 F   0  0  0  0  0
  -32.7520    4.5760   -8.6430 C   0  0  0  0  0
  -33.8670    3.8770   -9.1850 C   0  0  0  0  0
  -31.8860    3.9270   -7.7530 C   0  0  0  0  0
  -32.1050    2.5580   -7.4580 C   0  0  0  0  0
  -33.2290    1.8110   -7.9540 C   0  0  0  0  0
  -33.3730    0.3680   -7.6350 C   0  0  0  0  0
  -33.1130   -0.3410   -6.4240 C   0  0  0  0  0
  -32.7840    0.2470   -5.0890 C   0  0  0  0  0
  -33.8500    0.4930   -4.1820 C   0  0  0  0  0
  -33.6060    1.0470   -2.9250 C   0  0  0  0  0
  -31.5070    0.5480   -4.7800 N   0  0  0  0  0
  -31.2700    1.0800   -3.5480 C   0  0  0  0  0
  -29.8410    1.4130   -3.1910 C   0  0  0  0  0
  -32.2720    1.3420   -2.6300 C   0  0  0  0  0
  -33.2890   -1.6600   -6.5780 N   0  0  0  0  0
  -33.5960   -1.8660   -7.8920 N   0  0  0  0  0
  -33.6580   -0.6510   -8.5390 C   0  0  0  0  0
  -34.0660    2.5200   -8.8510 C   0  0  0  0  0
  -30.6640    4.6270   -7.2010 C   0  0  0  0  0
  -29.8520    5.5180   -7.9860 C   0  0  0  0  0
  -28.6490    6.0610   -7.4140 C   0  0  0  0  0
  -28.3280    5.6960   -6.1290 C   0  0  0  0  0
  -29.0680    4.8240   -5.3190 C   0  0  0  0  0
  -30.2310    4.2390   -5.9120 C   0  0  0  0  0
  -26.8030    6.3700   -5.4740 S   0  0  0  0  0
  -26.7300    7.6420   -6.1530 O   0  0  0  0  0
  -26.8090    6.1610   -4.0050 O   0  0  0  0  0
  -25.4220    5.2490   -6.0140 C   0  0  0  0  0
  -25.1410    5.3570   -7.5300 C   0  0  0  0  0
  -25.9830    4.3910   -8.1570 O   0  0  0  0  0
  -34.5621    4.3857   -9.8530 H   0  0  0  0  0
  -31.3837    2.0448   -6.8220 H   0  0  0  0  0
  -34.8712    0.2457   -4.4720 H   0  0  0  0  0
  -34.4095    1.2387   -2.2139 H   0  0  0  0  0
  -29.2366    0.5069   -3.2336 H   0  0  0  0  0
  -29.4519    2.1444   -3.8993 H   0  0  0  0  0
  -29.8067    1.8272   -2.1833 H   0  0  0  0  0
  -32.0180    1.7833   -1.6662 H   0  0  0  0  0
  -33.8934   -0.5100   -9.5939 H   0  0  0  0  0
  -34.9043    1.9918   -9.3052 H   0  0  0  0  0
  -30.1451    5.7788   -9.0030 H   0  0  0  0  0
  -28.0128    6.7400   -7.9817 H   0  0  0  0  0
  -28.7734    4.6035   -4.2930 H   0  0  0  0  0
  -30.7916    3.4831   -5.3621 H   0  0  0  0  0
  -25.7140    4.2218   -5.7956 H   0  0  0  0  0
  -24.5184    5.5427   -5.4799 H   0  0  0  0  0
  -24.0906    5.1672   -7.7509 H   0  0  0  0  0
  -25.3499    6.3611   -7.8992 H   0  0  0  0  0
  -25.8462    4.4173   -9.1068 H   0  0  0  0  0
  1  2  1  0  0  0
  2  3  4  0  0  0
  2  4  4  0  0  0
  3 19  4  0  0  0
  4  5  4  0  0  0
  4 20  1  0  0  0
  5  6  4  0  0  0
  6  7  1  0  0  0
  6 19  4  0  0  0
  7  8  4  0  0  0
  7 18  4  0  0  0
  8  9  1  0  0  0
  8 16  4  0  0  0
  9 10  4  0  0  0
  9 12  4  0  0  0
 10 11  4  0  0  0
 11 15  4  0  0  0
 12 13  4  0  0  0
 13 14  1  0  0  0
 13 15  4  0  0  0
 16 17  4  0  0  0
 17 18  4  0  0  0
 20 21  4  0  0  0
 20 25  4  0  0  0
 21 22  4  0  0  0
 22 23  4  0  0  0
 23 24  4  0  0  0
 23 26  1  0  0  0
 24 25  4  0  0  0
 26 27  2  0  0  0
 26 28  2  0  0  0
 26 29  1  0  0  0
 29 30  1  0  0  0
 30 31  1  0  0  0
  3 32  1  0  0  0
  5 33  1  0  0  0
 10 34  1  0  0  0
 11 35  1  0  0  0
 14 36  1  0  0  0
 14 37  1  0  0  0
 14 38  1  0  0  0
 15 39  1  0  0  0
 18 40  1  0  0  0
 19 41  1  0  0  0
 21 42  1  0  0  0
 22 43  1  0  0  0
 24 44  1  0  0  0
 25 45  1  0  0  0
 29 46  1  0  0  0
 29 47  1  0  0  0
 30 48  1  0  0  0
 30 49  1  0  0  0
 31 50  1  0  0  0
M  END
$$$$
