### 
### Created by X-TOOL on Mon Sep 10 21:13:20 2018
### 

@<TRIPOS>MOLECULE
4wyp_ligand
   35    37     1     0     0
SMALL
GAST_HUCK


@<TRIPOS>ATOM
      1 P          17.8790   -5.3440   -0.5650 P.3       1 AMP         0.2008
      2 O1P        18.5580   -5.3480   -1.9130 O.co2     1 AMP        -0.5537
      3 O2P        17.1020   -6.6160   -0.2500 O.co2     1 AMP        -0.5537
      4 O3P        17.0620   -4.1230   -0.3490 O.co2     1 AMP        -0.5537
      5 O5'        19.0260   -5.1050    0.5260 O.3       1 AMP        -0.2734
      6 C5'        19.8190   -6.1780    0.9950 C.3       1 AMP         0.1072
      7 C4'        21.0700   -5.6990    1.6930 C.3       1 AMP         0.1182
      8 O4'        21.9290   -5.0390    0.7290 O.3       1 AMP        -0.3365
      9 C3'        20.8840   -4.7190    2.8530 C.3       1 AMP         0.1149
     10 O3'        21.7350   -5.1170    3.9340 O.3       1 AMP        -0.3864
     11 C2'        21.3940   -3.3940    2.2940 C.3       1 AMP         0.1385
     12 O2'        21.9770   -2.5600    3.2700 O.3       1 AMP        -0.3836
     13 C1'        22.4320   -3.8470    1.2850 C.3       1 AMP         0.2010
     14 N9         22.7180   -2.9260    0.1780 N.pl3     1 AMP        -0.1919
     15 C8         21.9810   -2.7430   -0.9300 C.2       1 AMP         0.1123
     16 N7         22.6030   -1.8760   -1.7480 N.2       1 AMP        -0.2958
     17 C5         23.7620   -1.5180   -1.1550 C.ar      1 AMP         0.1045
     18 C6         24.8110   -0.6570   -1.5140 C.ar      1 AMP         0.1298
     19 N6         24.7590    0.0520   -2.7610 N.pl3     1 AMP        -0.3152
     20 N1         25.8560   -0.5080   -0.6770 N.ar      1 AMP        -0.2698
     21 C2         25.8810   -1.1610    0.4880 C.ar      1 AMP         0.0533
     22 N3         24.9060   -2.0030    0.8590 N.ar      1 AMP        -0.2714
     23 C4         23.8440   -2.1900    0.0580 C.ar      1 AMP         0.1613
     24 H1         20.1088   -6.8052    0.1390 H         1 AMP         0.0639
     25 H2         19.2249   -6.7750    1.7025 H         1 AMP         0.0639
     26 H3         21.5831   -6.5887    2.0868 H         1 AMP         0.0650
     27 H4         19.8348   -4.6557    3.1771 H         1 AMP         0.0648
     28 H5         21.6263   -4.5137    4.6598 H         1 AMP         0.2100
     29 H6         20.5778   -2.8456    1.8009 H         1 AMP         0.0676
     30 H7         22.7165   -3.0063    3.6655 H         1 AMP         0.2101
     31 H8         23.3739   -4.0426    1.8184 H         1 AMP         0.0996
     32 H9         21.0254   -3.2236   -1.1345 H         1 AMP         0.1349
     33 H10        25.5276    0.6842   -3.0264 H         1 AMP         0.1820
     34 H11        23.9531   -0.0715   -3.3904 H         1 AMP         0.1820
     35 H12        26.7194   -1.0046    1.1571 H         1 AMP         0.0996
@<TRIPOS>BOND
     1    1    2 ar 
     2    1    3 ar 
     3    1    4 ar 
     4    1    5 1  
     5    5    6 1  
     6    6    7 1  
     7    7    8 1  
     8    7    9 1  
     9    8   13 1  
    10    9   10 1  
    11    9   11 1  
    12   11   12 1  
    13   11   13 1  
    14   13   14 1  
    15   14   15 1  
    16   14   23 1  
    17   15   16 2  
    18   16   17 1  
    19   17   18 ar 
    20   17   23 ar 
    21   18   19 1  
    22   18   20 ar 
    23   20   21 ar 
    24   21   22 ar 
    25   22   23 ar 
    26    6   24 1  
    27    6   25 1  
    28    7   26 1  
    29    9   27 1  
    30   10   28 1  
    31   11   29 1  
    32   12   30 1  
    33   13   31 1  
    34   15   32 1  
    35   19   33 1  
    36   19   34 1  
    37   21   35 1  
@<TRIPOS>SUBSTRUCTURE
     1 AMP         1

