4wyp_ligand
  -I-interpret- 

 37 39  0  0  0  0  0  0  0  0999 V2000
   17.8790   -5.3440   -0.5650 P   0  0  0  0  0
   18.5580   -5.3480   -1.9130 O   0  0  0  0  0
   17.1020   -6.6160   -0.2500 O   0  0  0  0  0
   17.0620   -4.1230   -0.3490 O   0  0  0  0  0
   19.0260   -5.1050    0.5260 O   0  0  0  0  0
   19.8190   -6.1780    0.9950 C   0  0  0  0  0
   21.0700   -5.6990    1.6930 C   0  0  0  0  0
   21.9290   -5.0390    0.7290 O   0  0  0  0  0
   20.8840   -4.7190    2.8530 C   0  0  0  0  0
   21.7350   -5.1170    3.9340 O   0  0  0  0  0
   21.3940   -3.3940    2.2940 C   0  0  0  0  0
   21.9770   -2.5600    3.2700 O   0  0  0  0  0
   22.4320   -3.8470    1.2850 C   0  0  0  0  0
   22.7180   -2.9260    0.1780 N   0  0  0  0  0
   21.9810   -2.7430   -0.9300 C   0  0  0  0  0
   22.6030   -1.8760   -1.7480 N   0  0  0  0  0
   23.7620   -1.5180   -1.1550 C   0  0  0  0  0
   24.8110   -0.6570   -1.5140 C   0  0  0  0  0
   24.7590    0.0520   -2.7610 N   0  0  0  0  0
   25.8560   -0.5080   -0.6770 N   0  0  0  0  0
   25.8810   -1.1610    0.4880 C   0  0  0  0  0
   24.9060   -2.0030    0.8590 N   0  0  0  0  0
   23.8440   -2.1900    0.0580 C   0  0  0  0  0
   19.0728   -6.1527   -2.0083 H   0  0  0  0  0
   17.6643   -7.3791   -0.4021 H   0  0  0  0  0
   20.1183   -6.7795    0.1367 H   0  0  0  0  0
   19.2282   -6.7491    1.7111 H   0  0  0  0  0
   21.4877   -6.6089    2.1239 H   0  0  0  0  0
   19.8569   -4.6700    3.2147 H   0  0  0  0  0
   21.6252   -4.5073    4.6674 H   0  0  0  0  0
   20.5890   -2.7873    1.8793 H   0  0  0  0  0
   22.2762   -1.7467    2.8569 H   0  0  0  0  0
   23.3754   -3.9356    1.8238 H   0  0  0  0  0
   21.0245   -3.2240   -1.1347 H   0  0  0  0  0
   23.9609   -0.0703   -3.3843 H   0  0  0  0  0
   25.5201    0.6781   -3.0238 H   0  0  0  0  0
   26.7240   -1.0037    1.1608 H   0  0  0  0  0
  1  2  1  0  0  0
  1  3  1  0  0  0
  1  4  2  0  0  0
  1  5  1  0  0  0
  5  6  1  0  0  0
  6  7  1  0  0  0
  7  8  1  0  0  0
  7  9  1  0  0  0
  8 13  1  0  0  0
  9 10  1  0  0  0
  9 11  1  0  0  0
 11 12  1  0  0  0
 11 13  1  0  0  0
 13 14  1  0  0  0
 14 15  4  0  0  0
 14 23  4  0  0  0
 15 16  4  0  0  0
 16 17  4  0  0  0
 17 18  4  0  0  0
 17 23  4  0  0  0
 18 19  1  0  0  0
 18 20  4  0  0  0
 20 21  4  0  0  0
 21 22  4  0  0  0
 22 23  4  0  0  0
  2 24  1  0  0  0
  3 25  1  0  0  0
  6 26  1  0  0  0
  6 27  1  0  0  0
  7 28  1  0  0  0
  9 29  1  0  0  0
 10 30  1  0  0  0
 11 31  1  0  0  0
 12 32  1  0  0  0
 13 33  1  0  0  0
 15 34  1  0  0  0
 19 35  1  0  0  0
 19 36  1  0  0  0
 21 37  1  0  0  0
M  END
$$$$
