2yis_ligand
  -I-interpret- 

 82 87  0  0  0  0  0  0  0  0999 V2000
    2.8970    1.4920   10.6400 C   0  0  0  0  0
    3.4050    2.4620   11.7260 C   0  0  0  0  0
    4.1840    1.6750   12.7640 C   0  0  0  0  0
    4.3610    3.4680   11.0190 C   0  0  0  0  0
    2.2060    3.1680   12.3750 C   0  0  0  0  0
    1.2600    2.7070   13.3310 C   0  0  0  0  0
    0.3640    3.7380   13.5830 C   0  0  0  0  0
   -0.7110    3.7980   14.4690 N   0  0  0  0  0
   -1.0660    2.9900   15.4640 C   0  0  0  0  0
   -0.2830    2.0660   15.8190 O   0  0  0  0  0
   -2.1990    3.2950   16.1560 N   0  0  0  0  0
   -2.5530    2.4960   17.3140 C   0  0  0  0  0
   -3.7870    1.6260   17.3140 C   0  0  0  0  0
   -4.5910    1.4220   16.2060 C   0  0  0  0  0
   -5.7190    0.5920   16.2960 C   0  0  0  0  0
   -6.0550   -0.0260   17.5210 C   0  0  0  0  0
   -5.2400    0.1610   18.6240 C   0  0  0  0  0
   -4.0760    0.9950   18.5420 C   0  0  0  0  0
   -2.9680    1.2780   19.9460 S   0  0  0  0  0
   -2.6680   -0.3900   20.5020 C   0  0  0  0  0
   -2.6440   -1.4410   19.5470 C   0  0  0  0  0
   -2.4300   -2.7530   19.8980 C   0  0  0  0  0
   -2.1780   -3.0740   21.2610 C   0  0  0  0  0
   -1.9040   -4.2080   21.8790 N   0  0  0  0  0
   -1.7110   -3.9890   23.1080 N   0  0  0  0  0
   -1.9040   -2.7130   23.3700 C   0  0  0  0  0
   -1.7290   -2.0720   24.6990 C   0  0  0  0  0
   -2.6580   -2.2240   25.7710 C   0  0  0  0  0
   -2.4000   -1.5810   26.9890 C   0  0  0  0  0
   -1.2480   -0.8060   27.1640 C   0  0  0  0  0
   -0.3210   -0.6460   26.1400 C   0  0  0  0  0
   -0.5350   -1.2760   24.8830 C   0  0  0  0  0
    0.6400   -1.0840   23.5380 S   0  0  0  0  0
    1.3680    0.5570   23.6560 C   0  0  0  0  0
    0.4020    1.5860   23.0500 C   0  0  0  0  0
   -0.9290    1.5290   23.6360 O   0  0  0  0  0
   -2.1900   -2.0650   22.2040 N   0  0  0  0  0
   -2.4600   -0.7160   21.8290 C   0  0  0  0  0
    0.7060    4.7750   12.7870 N   0  0  0  0  0
    1.8640    4.3990   12.1040 N   0  0  0  0  0
    0.1960    6.1190   12.7400 C   0  0  0  0  0
    0.2300    6.9360   11.5670 C   0  0  0  0  0
   -0.2540    8.2530   11.5910 C   0  0  0  0  0
   -0.7340    8.7630   12.8280 C   0  0  0  0  0
   -1.2020   10.0240   12.9220 O   0  0  0  0  0
   -0.7390    7.9740   13.9890 C   0  0  0  0  0
   -1.3210    8.5620   15.4940 Cl  0  0  0  0  0
   -0.2620    6.6780   13.9490 C   0  0  0  0  0
    2.2388    0.7518   11.0949 H   0  0  0  0  0
    2.3480    2.0517    9.8827 H   0  0  0  0  0
    3.7464    0.9893   10.1775 H   0  0  0  0  0
    4.5471    2.3539   13.5356 H   0  0  0  0  0
    3.5326    0.9261   13.2144 H   0  0  0  0  0
    5.0297    1.1818   12.2848 H   0  0  0  0  0
    3.8151    3.9995   10.2395 H   0  0  0  0  0
    4.7402    4.1820   11.7501 H   0  0  0  0  0
    5.1944    2.9241   10.5743 H   0  0  0  0  0
    1.2412    1.7170   13.7867 H   0  0  0  0  0
   -1.3300    4.5968   14.3306 H   0  0  0  0  0
   -2.7898    4.0737   15.8643 H   0  0  0  0  0
   -2.7505    3.2332   18.0922 H   0  0  0  0  0
   -1.7306    1.7866   17.4058 H   0  0  0  0  0
   -4.3474    1.9074   15.2609 H   0  0  0  0  0
   -6.3393    0.4233   15.4158 H   0  0  0  0  0
   -6.9489   -0.6451   17.5970 H   0  0  0  0  0
   -5.4855   -0.3309   19.5652 H   0  0  0  0  0
   -2.8012   -1.1983   18.4961 H   0  0  0  0  0
   -2.4531   -3.5374   19.1415 H   0  0  0  0  0
   -3.5546   -2.8309   25.6446 H   0  0  0  0  0
   -3.1068   -1.6860   27.8121 H   0  0  0  0  0
   -1.0738   -0.3177   28.1228 H   0  0  0  0  0
    0.5693   -0.0380   26.3006 H   0  0  0  0  0
    2.3117    0.5774   23.1109 H   0  0  0  0  0
    1.5509    0.8005   24.7026 H   0  0  0  0  0
    0.3067    1.3665   21.9866 H   0  0  0  0  0
    0.8086    2.5784   23.2445 H   0  0  0  0  0
   -1.4883    2.1903   23.2220 H   0  0  0  0  0
   -2.5025    0.0613   22.5920 H   0  0  0  0  0
    0.6376    6.5301   10.6411 H   0  0  0  0  0
   -0.2616    8.8656   10.6895 H   0  0  0  0  0
   -1.4809   10.1941   13.8247 H   0  0  0  0  0
   -0.2399    6.0825   14.8617 H   0  0  0  0  0
  1  2  1  0  0  0
  2  3  1  0  0  0
  2  4  1  0  0  0
  2  5  1  0  0  0
  5  6  4  0  0  0
  5 40  4  0  0  0
  6  7  4  0  0  0
  7  8  1  0  0  0
  7 39  4  0  0  0
  8  9  1  0  0  0
  9 10  2  0  0  0
  9 11  1  0  0  0
 11 12  1  0  0  0
 12 13  1  0  0  0
 13 14  4  0  0  0
 13 18  4  0  0  0
 14 15  4  0  0  0
 15 16  4  0  0  0
 16 17  4  0  0  0
 17 18  4  0  0  0
 18 19  1  0  0  0
 19 20  1  0  0  0
 20 21  4  0  0  0
 20 38  4  0  0  0
 21 22  4  0  0  0
 22 23  4  0  0  0
 23 24  4  0  0  0
 23 37  4  0  0  0
 24 25  4  0  0  0
 25 26  4  0  0  0
 26 27  1  0  0  0
 26 37  4  0  0  0
 27 28  4  0  0  0
 27 32  4  0  0  0
 28 29  4  0  0  0
 29 30  4  0  0  0
 30 31  4  0  0  0
 31 32  4  0  0  0
 32 33  1  0  0  0
 33 34  1  0  0  0
 34 35  1  0  0  0
 35 36  1  0  0  0
 37 38  4  0  0  0
 39 40  4  0  0  0
 39 41  1  0  0  0
 41 42  4  0  0  0
 41 48  4  0  0  0
 42 43  4  0  0  0
 43 44  4  0  0  0
 44 45  1  0  0  0
 44 46  4  0  0  0
 46 47  1  0  0  0
 46 48  4  0  0  0
  1 49  1  0  0  0
  1 50  1  0  0  0
  1 51  1  0  0  0
  3 52  1  0  0  0
  3 53  1  0  0  0
  3 54  1  0  0  0
  4 55  1  0  0  0
  4 56  1  0  0  0
  4 57  1  0  0  0
  6 58  1  0  0  0
  8 59  1  0  0  0
 11 60  1  0  0  0
 12 61  1  0  0  0
 12 62  1  0  0  0
 14 63  1  0  0  0
 15 64  1  0  0  0
 16 65  1  0  0  0
 17 66  1  0  0  0
 21 67  1  0  0  0
 22 68  1  0  0  0
 28 69  1  0  0  0
 29 70  1  0  0  0
 30 71  1  0  0  0
 31 72  1  0  0  0
 34 73  1  0  0  0
 34 74  1  0  0  0
 35 75  1  0  0  0
 35 76  1  0  0  0
 36 77  1  0  0  0
 38 78  1  0  0  0
 42 79  1  0  0  0
 43 80  1  0  0  0
 45 81  1  0  0  0
 48 82  1  0  0  0
M  END
$$$$
