5ou3_ligand
  -I-interpret- 

 49 52  0  0  0  0  0  0  0  0999 V2000
  127.8980  -15.9100   -1.8010 C   0  0  0  0  0
  126.1560  -16.4060   -0.6010 N   0  0  0  0  0
  125.2060  -17.0700    0.2390 C   0  0  0  0  0
  135.2360  -13.9290    1.2740 C   0  0  0  0  0
  135.9070  -15.1010    0.9270 C   0  0  0  0  0
  135.2840  -13.1670    2.6150 C   0  0  0  0  0
  135.1250  -11.0800    3.8370 C   0  0  0  0  0
  133.3840  -13.3990   -4.8210 C   0  0  0  0  0
  133.9480  -14.7830   -4.5390 C   0  0  0  0  0
  132.9570  -15.8580   -4.6480 O   0  0  0  0  0
  131.7080  -15.8680   -3.9120 C   0  0  0  0  0
  131.4950  -16.8110   -2.9000 C   0  0  0  0  0
  130.2540  -16.8490   -2.1910 C   0  0  0  0  0
  129.2620  -15.9600   -2.5220 C   0  0  0  0  0
  129.4670  -15.0230   -3.5480 C   0  0  0  0  0
  130.6830  -14.9960   -4.2410 C   0  0  0  0  0
  127.3060  -16.8850   -1.0030 C   0  0  0  0  0
  125.9920  -15.1330   -1.1160 C   0  0  0  0  0
  127.0790  -14.8480   -1.8540 N   0  0  0  0  0
  134.6560  -14.8950   -3.1530 C   0  0  0  0  0
  135.7290  -15.4710   -3.0670 O   0  0  0  0  0
  134.0560  -14.3190   -1.9930 N   0  0  0  0  0
  134.6860  -14.4200   -0.7570 C   0  0  0  0  0
  134.5000  -13.5380    0.2570 N   0  0  0  0  0
  135.5560  -15.3870   -0.3320 N   0  0  0  0  0
  135.0920  -11.7850    2.6160 C   0  0  0  0  0
  135.3570  -11.7660    5.0140 C   0  0  0  0  0
  135.5580  -13.1440    5.0100 C   0  0  0  0  0
  135.5210  -13.8620    3.7810 C   0  0  0  0  0
  135.4140  -10.8400    6.6580 Br  0  0  0  0  0
  124.8801  -17.9924   -0.2417 H   0  0  0  0  0
  125.6704  -17.3027    1.1973 H   0  0  0  0  0
  124.3466  -16.4188    0.3988 H   0  0  0  0  0
  136.5860  -15.6733    1.5590 H   0  0  0  0  0
  134.9686  -10.0014    3.8522 H   0  0  0  0  0
  132.9843  -13.3706   -5.8347 H   0  0  0  0  0
  132.5882  -13.1804   -4.1090 H   0  0  0  0  0
  134.1767  -12.6577   -4.7207 H   0  0  0  0  0
  134.6906  -14.9145   -5.3260 H   0  0  0  0  0
  132.2820  -17.5226   -2.6502 H   0  0  0  0  0
  130.0972  -17.5771   -1.3951 H   0  0  0  0  0
  128.6782  -14.3159   -3.8050 H   0  0  0  0  0
  130.8252  -14.2795   -5.0500 H   0  0  0  0  0
  127.7216  -17.8627   -0.7590 H   0  0  0  0  0
  125.1357  -14.4786   -0.9529 H   0  0  0  0  0
  133.1631  -13.8321   -2.0706 H   0  0  0  0  0
  134.9178  -11.2542    1.6800 H   0  0  0  0  0
  135.7432  -13.6717    5.9456 H   0  0  0  0  0
  135.6771  -14.9406    3.7629 H   0  0  0  0  0
 14  1  1  0  0  0
  1 17  4  0  0  0
  1 19  4  0  0  0
  2  3  1  0  0  0
 17  2  4  0  0  0
 18  2  4  0  0  0
  4  5  4  0  0  0
  4  6  1  0  0  0
 24  4  4  0  0  0
  5 25  4  0  0  0
  6 26  4  0  0  0
  6 29  4  0  0  0
 26  7  4  0  0  0
  7 27  4  0  0  0
  9  8  1  0  0  0
  9 10  1  0  0  0
 20  9  1  0  0  0
 10 11  1  0  0  0
 11 12  4  0  0  0
 11 16  4  0  0  0
 12 13  4  0  0  0
 13 14  4  0  0  0
 15 14  4  0  0  0
 16 15  4  0  0  0
 19 18  4  0  0  0
 20 21  2  0  0  0
 22 20  1  0  0  0
 23 22  1  0  0  0
 23 24  4  0  0  0
 23 25  4  0  0  0
 27 28  4  0  0  0
 27 30  1  0  0  0
 28 29  4  0  0  0
  3 31  1  0  0  0
  3 32  1  0  0  0
  3 33  1  0  0  0
  5 34  1  0  0  0
  7 35  1  0  0  0
  8 36  1  0  0  0
  8 37  1  0  0  0
  8 38  1  0  0  0
  9 39  1  0  0  0
 12 40  1  0  0  0
 13 41  1  0  0  0
 15 42  1  0  0  0
 16 43  1  0  0  0
 17 44  1  0  0  0
 18 45  1  0  0  0
 22 46  1  0  0  0
 26 47  1  0  0  0
 28 48  1  0  0  0
 29 49  1  0  0  0
M  END
$$$$
