4qaa_ligand
  -I-interpret- 

 52 53  0  0  0  0  0  0  0  0999 V2000
   -6.4260  -15.3570   61.9750 C   0  0  0  0  0
   -6.2970  -13.8120   61.9340 C   0  0  0  0  0
   -6.8990  -13.1830   60.6480 C   0  0  0  0  0
   -6.5860  -11.6550   60.4990 C   0  0  0  0  0
   -6.1080  -11.2430   59.0390 C   0  0  0  0  0
   -7.0690  -11.7470   57.8810 C   0  0  0  0  0
   -6.4630  -11.8540   56.3910 C   0  0  0  0  0
   -7.4490  -11.3310   55.2210 C   0  0  0  0  0
   -6.9870  -11.5500   53.7790 N   0  0  0  0  0
   -6.1030  -10.6660   53.0430 C   0  0  0  0  0
   -6.5170  -10.0970   51.7470 C   0  0  0  0  0
   -5.5760   -9.2420   51.0550 C   0  0  0  0  0
   -4.3600   -8.9930   51.6160 N   0  0  0  0  0
   -4.0240   -9.5550   52.8200 C   0  0  0  0  0
   -2.7360   -9.2720   53.3680 N   0  0  0  0  0
   -4.8510  -10.3870   53.5750 N   0  0  0  0  0
   -5.8170   -8.5090   49.6420 C   0  0  0  0  0
   -6.2980   -9.1850   48.4940 C   0  0  0  0  0
   -6.4910   -8.5470   47.1910 C   0  0  0  0  0
   -6.1890   -7.1810   47.0020 C   0  0  0  0  0
   -6.3740   -6.5730   45.7810 O   0  0  0  0  0
   -5.7520   -5.2570   45.5790 C   0  0  0  0  0
   -5.6890   -6.4790   48.1150 C   0  0  0  0  0
   -5.5150   -7.1420   49.3780 C   0  0  0  0  0
   -7.4795  -15.6336   61.9340 H   0  0  0  0  0
   -5.9027  -15.7868   61.1209 H   0  0  0  0  0
   -5.9861  -15.7327   62.8988 H   0  0  0  0  0
   -5.2349  -13.5681   61.9555 H   0  0  0  0  0
   -6.8460  -13.4115   62.7863 H   0  0  0  0  0
   -7.9820  -13.2931   60.7038 H   0  0  0  0  0
   -6.4563  -13.6944   59.7933 H   0  0  0  0  0
   -5.7747  -11.4187   61.1876 H   0  0  0  0  0
   -7.5071  -11.1107   60.7073 H   0  0  0  0  0
   -5.1338  -11.7036   58.8750 H   0  0  0  0  0
   -6.0946  -10.1539   58.9978 H   0  0  0  0  0
   -7.8629  -11.0027   57.8184 H   0  0  0  0  0
   -7.3449  -12.7651   58.1557 H   0  0  0  0  0
   -6.2764  -12.9107   56.1997 H   0  0  0  0  0
   -5.5752  -11.2222   56.3636 H   0  0  0  0  0
   -7.5208  -10.2512   55.3511 H   0  0  0  0  0
   -8.3710  -11.9022   55.3295 H   0  0  0  0  0
   -7.3270  -12.3825   53.2976 H   0  0  0  0  0
   -7.4983  -10.3129   51.3245 H   0  0  0  0  0
   -2.0901   -8.6638   52.8647 H   0  0  0  0  0
   -2.4620   -9.6781   54.2627 H   0  0  0  0  0
   -6.5389  -10.2440   48.5865 H   0  0  0  0  0
   -6.8728   -9.1341   46.3558 H   0  0  0  0  0
   -6.1439   -4.5546   46.3146 H   0  0  0  0  0
   -4.6721   -5.3448   45.6980 H   0  0  0  0  0
   -5.9802   -4.8989   44.5751 H   0  0  0  0  0
   -5.4318   -5.4242   48.0181 H   0  0  0  0  0
   -5.1189   -6.5496   50.2028 H   0  0  0  0  0
  1  2  1  0  0  0
  2  3  1  0  0  0
  3  4  1  0  0  0
  4  5  1  0  0  0
  5  6  1  0  0  0
  6  7  1  0  0  0
  7  8  1  0  0  0
  8  9  1  0  0  0
  9 10  1  0  0  0
 10 11  4  0  0  0
 10 16  4  0  0  0
 11 12  4  0  0  0
 12 13  4  0  0  0
 12 17  1  0  0  0
 13 14  4  0  0  0
 14 15  1  0  0  0
 14 16  4  0  0  0
 17 18  4  0  0  0
 17 24  4  0  0  0
 18 19  4  0  0  0
 19 20  4  0  0  0
 20 21  1  0  0  0
 20 23  4  0  0  0
 21 22  1  0  0  0
 23 24  4  0  0  0
  1 25  1  0  0  0
  1 26  1  0  0  0
  1 27  1  0  0  0
  2 28  1  0  0  0
  2 29  1  0  0  0
  3 30  1  0  0  0
  3 31  1  0  0  0
  4 32  1  0  0  0
  4 33  1  0  0  0
  5 34  1  0  0  0
  5 35  1  0  0  0
  6 36  1  0  0  0
  6 37  1  0  0  0
  7 38  1  0  0  0
  7 39  1  0  0  0
  8 40  1  0  0  0
  8 41  1  0  0  0
  9 42  1  0  0  0
 11 43  1  0  0  0
 15 44  1  0  0  0
 15 45  1  0  0  0
 18 46  1  0  0  0
 19 47  1  0  0  0
 22 48  1  0  0  0
 22 49  1  0  0  0
 22 50  1  0  0  0
 23 51  1  0  0  0
 24 52  1  0  0  0
M  END
$$$$
