1fhr_ligand
  -I-interpret- 

131132  0  0  0  0  0  0  0  0999 V2000
    2.7950  -17.6990   -8.4190 N   0  3  0  0  0
    3.6110  -18.4780   -9.3860 C   0  0  0  0  0
    4.6060  -17.5810  -10.1150 C   0  0  0  0  0
    4.5050  -17.3780  -11.3250 O   0  0  0  0  0
    2.6680  -19.1490  -10.3880 C   0  0  0  0  0
    1.9850  -20.3920   -9.8430 C   0  0  0  0  0
    0.7910  -20.0650   -8.9660 C   0  0  0  0  0
    0.3120  -18.9130   -9.0220 O   0  0  0  0  0
    0.3340  -20.9600   -8.2260 O   0  0  0  0  0
    5.5690  -17.0480   -9.3710 N   0  0  0  0  0
    6.5840  -16.1730   -9.9460 C   0  0  0  0  0
    7.8740  -16.9430  -10.2140 C   0  0  0  0  0
    8.9710  -16.4450   -9.9600 O   0  0  0  0  0
    6.8570  -14.9910   -9.0110 C   0  0  0  0  0
    6.7790  -13.6580   -9.7280 C   0  0  0  0  0
    7.6140  -12.7770   -9.4350 O   0  0  0  0  0
    5.8840  -13.4960  -10.5840 O   0  0  0  0  0
    7.7340  -18.1590  -10.7290 N   0  0  0  0  0
    8.8880  -19.0010  -11.0350 C   0  0  0  0  0
    9.0020  -19.2380  -12.5380 C   0  0  0  0  0
    9.4400  -20.3000  -12.9790 O   0  0  0  0  0
    8.8190  -20.3680  -10.3090 C   0  0  0  0  0
    7.5860  -20.4530   -9.4020 C   0  0  0  0  0
   10.0870  -20.6030   -9.5000 C   0  0  0  0  0
    7.6240  -19.4910   -8.2320 C   0  0  0  0  0
    8.6030  -18.2400  -13.3180 N   0  0  0  0  0
    8.6540  -18.3360  -14.7730 C   0  0  0  0  0
   10.0500  -18.0160  -15.2960 C   0  0  0  0  0
   10.8570  -17.3950  -14.6040 O   0  0  0  0  0
    7.6310  -17.3880  -15.3990 C   0  0  0  0  0
    6.2210  -17.6120  -14.9010 C   0  0  0  0  0
    5.6930  -18.8950  -14.8080 C   0  0  0  0  0
    5.4190  -16.5440  -14.5210 C   0  0  0  0  0
    4.4070  -19.1050  -14.3500 C   0  0  0  0  0
    4.1310  -16.7460  -14.0630 C   0  0  0  0  0
    3.6310  -18.0290  -13.9790 C   0  0  0  0  0
    2.3270  -18.2380  -13.5140 O   0  0  0  0  0
    1.1670  -18.2350  -14.5570 P   0  0  0  0  0
    1.6960  -19.0960  -15.7340 O   0  0  0  0  0
    0.0070  -18.9890  -13.8580 O   0  0  0  0  0
    0.7810  -16.8490  -14.9840 O   0  0  0  0  0
   10.3270  -18.4440  -16.5240 N   0  0  0  0  0
   11.6240  -18.2040  -17.1450 C   0  0  0  0  0
   11.5440  -18.3890  -18.6580 C   0  0  0  0  0
   10.9850  -19.3730  -19.1430 O   0  0  0  0  0
   12.6760  -19.1480  -16.5580 C   0  0  0  0  0
   12.4280  -20.6060  -16.8720 C   0  0  0  0  0
   11.6480  -21.3940  -16.0350 C   0  0  0  0  0
   12.9730  -21.1940  -18.0070 C   0  0  0  0  0
   11.4190  -22.7270  -16.3200 C   0  0  0  0  0
   12.7480  -22.5260  -18.2980 C   0  0  0  0  0
   11.9710  -23.2870  -17.4510 C   0  0  0  0  0
   11.7440  -24.6140  -17.7390 O   0  0  0  0  0
   12.1070  -17.4390  -19.3970 N   0  0  0  0  0
   12.0990  -17.4990  -20.8550 C   0  0  0  0  0
   13.5180  -17.4410  -21.4110 C   0  0  0  0  0
   14.4120  -16.8580  -20.7980 O   0  0  0  0  0
   11.2660  -16.3510  -21.4300 C   0  0  0  0  0
    9.7920  -16.3540  -21.0220 C   0  0  0  0  0
    9.1360  -15.0310  -21.3840 C   0  0  0  0  0
    9.0590  -17.5120  -21.6820 C   0  0  0  0  0
   13.7170  -18.0520  -22.5750 N   0  0  0  0  0
   15.0280  -18.0710  -23.2140 C   0  0  0  0  0
   15.3700  -16.7020  -23.7930 C   0  0  0  0  0
   16.3630  -16.0980  -23.3340 O   0  0  0  0  0
   15.0640  -19.1270  -24.3190 C   0  0  0  0  0
   14.8530  -20.5300  -23.7850 C   0  0  0  0  0
   15.6160  -20.9460  -22.8890 O   0  0  0  0  0
   13.9230  -21.2130  -24.2630 O   0  0  0  0  0
   14.6450  -16.2450  -24.7000 O   0  0  0  0  0
    3.4108  -17.2455   -7.7441 H   0  0  0  0  0
    2.2589  -16.9912   -8.9210 H   0  0  0  0  0
    2.1571  -18.3274   -7.9305 H   0  0  0  0  0
    4.1846  -19.2321   -8.8471 H   0  0  0  0  0
    3.2669  -19.4550  -11.2458 H   0  0  0  0  0
    1.8876  -18.4291  -10.6347 H   0  0  0  0  0
    2.7096  -20.9333   -9.2347 H   0  0  0  0  0
    1.6283  -20.9774  -10.6904 H   0  0  0  0  0
    0.8133  -18.3895   -9.6514 H   0  0  0  0  0
    5.5991  -17.2560   -8.3729 H   0  0  0  0  0
    6.2089  -15.7917  -10.8957 H   0  0  0  0  0
    7.8657  -15.1016   -8.6129 H   0  0  0  0  0
    6.0987  -14.9979   -8.2280 H   0  0  0  0  0
    5.3570  -14.2957  -10.6496 H   0  0  0  0  0
    6.7963  -18.5144  -10.9158 H   0  0  0  0  0
    9.7687  -18.4663  -10.6791 H   0  0  0  0  0
    8.7343  -21.1468  -11.0669 H   0  0  0  0  0
    7.5509  -21.4628   -8.9930 H   0  0  0  0  0
    6.7171  -20.1957  -10.0077 H   0  0  0  0  0
   10.9486  -20.5977  -10.1676 H   0  0  0  0  0
   10.1954  -19.8114   -8.7586 H   0  0  0  0  0
   10.0217  -21.5676   -8.9966 H   0  0  0  0  0
    8.4970  -19.7051   -7.6154 H   0  0  0  0  0
    7.6834  -18.4687   -8.6056 H   0  0  0  0  0
    6.7189  -19.6095   -7.6363 H   0  0  0  0  0
    8.2517  -17.3840  -12.8887 H   0  0  0  0  0
    8.4120  -19.3612  -15.0531 H   0  0  0  0  0
    7.6320  -17.5672  -16.4742 H   0  0  0  0  0
    7.9171  -16.3714  -15.1292 H   0  0  0  0  0
    6.3039  -19.7488  -15.1013 H   0  0  0  0  0
    5.8120  -15.5293  -14.5851 H   0  0  0  0  0
    4.0081  -20.1171  -14.2825 H   0  0  0  0  0
    3.5138  -15.8967  -13.7699 H   0  0  0  0  0
    1.9284  -19.9696  -15.4108 H   0  0  0  0  0
    0.3034  -19.8665  -13.6054 H   0  0  0  0  0
    9.6134  -18.9535  -17.0452 H   0  0  0  0  0
   11.9146  -17.1741  -16.9376 H   0  0  0  0  0
   12.6435  -19.0382  -15.4740 H   0  0  0  0  0
   13.6365  -18.8790  -16.9975 H   0  0  0  0  0
   11.2096  -20.9541  -15.1392 H   0  0  0  0  0
   13.5879  -20.5949  -18.6786 H   0  0  0  0  0
   10.8047  -23.3320  -15.6531 H   0  0  0  0  0
   13.1825  -22.9725  -19.1924 H   0  0  0  0  0
   12.1954  -24.8451  -18.5541 H   0  0  0  0  0
   12.5557  -16.6486  -18.9339 H   0  0  0  0  0
   11.6510  -18.4475  -21.1511 H   0  0  0  0  0
   11.2924  -16.4558  -22.5146 H   0  0  0  0  0
   11.6969  -15.4265  -21.0457 H   0  0  0  0  0
    9.7339  -16.4816  -19.9411 H   0  0  0  0  0
    9.6460  -14.2198  -20.8644 H   0  0  0  0  0
    9.2055  -14.8750  -22.4605 H   0  0  0  0  0
    8.0878  -15.0530  -21.0857 H   0  0  0  0  0
    9.1270  -17.4132  -22.7654 H   0  0  0  0  0
    9.5147  -18.4525  -21.3724 H   0  0  0  0  0
    8.0119  -17.4972  -21.3795 H   0  0  0  0  0
   12.9338  -18.5188  -23.0322 H   0  0  0  0  0
   15.7705  -18.3218  -22.4564 H   0  0  0  0  0
   16.7712  -16.6309  -22.6478 H   0  0  0  0  0
   16.0466  -19.0895  -24.7893 H   0  0  0  0  0
   14.2588  -18.9086  -25.0204 H   0  0  0  0  0
   13.4653  -20.7026  -24.9350 H   0  0  0  0  0
  1  2  1  0  0  0
  2  3  1  0  0  0
  2  5  1  0  0  0
  3  4  2  0  0  0
  3 10  1  0  0  0
  5  6  1  0  0  0
  6  7  1  0  0  0
  7  8  1  0  0  0
  7  9  2  0  0  0
 10 11  1  0  0  0
 11 12  1  0  0  0
 11 14  1  0  0  0
 12 13  2  0  0  0
 12 18  1  0  0  0
 14 15  1  0  0  0
 15 16  2  0  0  0
 15 17  1  0  0  0
 18 19  1  0  0  0
 19 20  1  0  0  0
 19 22  1  0  0  0
 20 21  2  0  0  0
 20 26  1  0  0  0
 22 23  1  0  0  0
 22 24  1  0  0  0
 23 25  1  0  0  0
 26 27  1  0  0  0
 27 28  1  0  0  0
 27 30  1  0  0  0
 28 29  2  0  0  0
 28 42  1  0  0  0
 30 31  1  0  0  0
 31 32  4  0  0  0
 31 33  4  0  0  0
 32 34  4  0  0  0
 33 35  4  0  0  0
 34 36  4  0  0  0
 35 36  4  0  0  0
 36 37  1  0  0  0
 37 38  1  0  0  0
 38 39  1  0  0  0
 38 40  1  0  0  0
 38 41  2  0  0  0
 42 43  1  0  0  0
 43 44  1  0  0  0
 43 46  1  0  0  0
 44 45  2  0  0  0
 44 54  1  0  0  0
 46 47  1  0  0  0
 47 48  4  0  0  0
 47 49  4  0  0  0
 48 50  4  0  0  0
 49 51  4  0  0  0
 50 52  4  0  0  0
 51 52  4  0  0  0
 52 53  1  0  0  0
 54 55  1  0  0  0
 55 56  1  0  0  0
 55 58  1  0  0  0
 56 57  2  0  0  0
 56 62  1  0  0  0
 58 59  1  0  0  0
 59 60  1  0  0  0
 59 61  1  0  0  0
 62 63  1  0  0  0
 63 64  1  0  0  0
 63 66  1  0  0  0
 64 65  1  0  0  0
 64 70  2  0  0  0
 66 67  1  0  0  0
 67 68  2  0  0  0
 67 69  1  0  0  0
  1 71  1  0  0  0
  1 72  1  0  0  0
  1 73  1  0  0  0
  2 74  1  0  0  0
  5 75  1  0  0  0
  5 76  1  0  0  0
  6 77  1  0  0  0
  6 78  1  0  0  0
  8 79  1  0  0  0
 10 80  1  0  0  0
 11 81  1  0  0  0
 14 82  1  0  0  0
 14 83  1  0  0  0
 17 84  1  0  0  0
 18 85  1  0  0  0
 19 86  1  0  0  0
 22 87  1  0  0  0
 23 88  1  0  0  0
 23 89  1  0  0  0
 24 90  1  0  0  0
 24 91  1  0  0  0
 24 92  1  0  0  0
 25 93  1  0  0  0
 25 94  1  0  0  0
 25 95  1  0  0  0
 26 96  1  0  0  0
 27 97  1  0  0  0
 30 98  1  0  0  0
 30 99  1  0  0  0
 32100  1  0  0  0
 33101  1  0  0  0
 34102  1  0  0  0
 35103  1  0  0  0
 39104  1  0  0  0
 40105  1  0  0  0
 42106  1  0  0  0
 43107  1  0  0  0
 46108  1  0  0  0
 46109  1  0  0  0
 48110  1  0  0  0
 49111  1  0  0  0
 50112  1  0  0  0
 51113  1  0  0  0
 53114  1  0  0  0
 54115  1  0  0  0
 55116  1  0  0  0
 58117  1  0  0  0
 58118  1  0  0  0
 59119  1  0  0  0
 60120  1  0  0  0
 60121  1  0  0  0
 60122  1  0  0  0
 61123  1  0  0  0
 61124  1  0  0  0
 61125  1  0  0  0
 62126  1  0  0  0
 63127  1  0  0  0
 65128  1  0  0  0
 66129  1  0  0  0
 66130  1  0  0  0
 69131  1  0  0  0
M  END
$$$$
