### 
### Created by X-TOOL on Mon Sep 10 21:12:48 2018
### 

@<TRIPOS>MOLECULE
1fhr_ligand
  125   126     1     0     0
SMALL
GAST_HUCK


@<TRIPOS>ATOM
      1 N           2.7950  -17.6990   -8.4190 N.4       1 GLU         0.2380
      2 CA          3.6110  -18.4780   -9.3860 C.3       1 GLU         0.0665
      3 C           4.6060  -17.5810  -10.1150 C.2       1 GLU         0.2269
      4 O           4.5050  -17.3780  -11.3250 O.2       1 GLU        -0.3907
      5 CB          2.6680  -19.1490  -10.3880 C.3       1 GLU         0.0194
      6 CG          1.9850  -20.3920   -9.8430 C.3       1 GLU         0.0075
      7 CD          0.7910  -20.0650   -8.9660 C.2       1 GLU         0.0351
      8 OE1         0.3120  -18.9130   -9.0220 O.co2     1 GLU        -0.5690
      9 OE2         0.3340  -20.9600   -8.2260 O.co2     1 GLU        -0.5690
     10 H1          2.1477  -18.3151   -7.9527 H         1 GLU         0.2015
     11 H2          2.2829  -16.9837   -8.9111 H         1 GLU         0.2015
     12 H3          3.4008  -17.2698   -7.7372 H         1 GLU         0.2015
     13 H4          4.1697  -19.2529   -8.8408 H         1 GLU         0.1099
     14 H5          3.2504  -19.4338  -11.2766 H         1 GLU         0.0363
     15 H6          1.8924  -18.4237  -10.6749 H         1 GLU         0.0363
     16 H7          2.7136  -20.9619   -9.2478 H         1 GLU         0.0434
     17 H8          1.6428  -21.0056  -10.6894 H         1 GLU         0.0434
     18 N           5.5690  -17.0480   -9.3710 N.am      1 ASP        -0.2595
     19 CA          6.5840  -16.1730   -9.9460 C.3       1 ASP         0.1424
     20 C           7.8740  -16.9430  -10.2140 C.2       1 ASP         0.2056
     21 O           8.9710  -16.4450   -9.9600 O.2       1 ASP        -0.3943
     22 CB          6.8570  -14.9910   -9.0110 C.3       1 ASP         0.0406
     23 CG          6.7790  -13.6580   -9.7280 C.2       1 ASP         0.0393
     24 OD1         7.6140  -12.7770   -9.4350 O.co2     1 ASP        -0.5688
     25 OD2         5.8840  -13.4960  -10.5840 O.co2     1 ASP        -0.5688
     26 H9          5.5985  -17.2519   -8.3924 H         1 ASP         0.1886
     27 H10         6.2061  -15.7828  -10.9025 H         1 ASP         0.0819
     28 H11         7.8642  -15.1039   -8.5835 H         1 ASP         0.0478
     29 H12         6.1120  -15.0011   -8.2018 H         1 ASP         0.0478
     30 N           7.7340  -18.1590  -10.7290 N.am      1 ILE        -0.2634
     31 CA          8.8880  -19.0010  -11.0350 C.3       1 ILE         0.1335
     32 C           9.0020  -19.2380  -12.5380 C.2       1 ILE         0.2044
     33 O           9.4400  -20.3000  -12.9790 O.2       1 ILE        -0.3944
     34 CB          8.8190  -20.3680  -10.3090 C.3       1 ILE        -0.0037
     35 CG1         7.5860  -20.4530   -9.4020 C.3       1 ILE        -0.0491
     36 CG2        10.0870  -20.6030   -9.5000 C.3       1 ILE        -0.0582
     37 CD1         7.6240  -19.4910   -8.2320 C.3       1 ILE        -0.0648
     38 H13         6.8147  -18.5074  -10.9121 H         1 ILE         0.1883
     39 H14         9.7918  -18.4746  -10.6944 H         1 ILE         0.0803
     40 H15         8.7414  -21.1582  -11.0703 H         1 ILE         0.0345
     41 H16         7.5149  -21.4773   -9.0073 H         1 ILE         0.0267
     42 H17         6.6942  -20.2301  -10.0062 H         1 ILE         0.0267
     43 H18        10.9622  -20.5391  -10.1633 H         1 ILE         0.0235
     44 H19        10.0483  -21.6011   -9.0392 H         1 ILE         0.0235
     45 H20        10.1668  -19.8386   -8.7130 H         1 ILE         0.0235
     46 H21         6.7110  -19.6097   -7.6300 H         1 ILE         0.0230
     47 H22         7.6839  -18.4589   -8.6077 H         1 ILE         0.0230
     48 H23         8.5046  -19.7061   -7.6089 H         1 ILE         0.0230
     49 N           8.6030  -18.2400  -13.3180 N.am      1 PTR        -0.2607
     50 CA          8.6540  -18.3360  -14.7730 C.3       1 PTR         0.1468
     51 C          10.0500  -18.0160  -15.2960 C.2       1 PTR         0.2075
     52 O          10.8570  -17.3950  -14.6040 O.2       1 PTR        -0.3941
     53 CB          7.6310  -17.3880  -15.3990 C.3       1 PTR         0.0400
     54 CG          6.2210  -17.6120  -14.9010 C.ar      1 PTR        -0.0004
     55 CD1         5.6930  -18.8950  -14.8080 C.ar      1 PTR        -0.0239
     56 CD2         5.4190  -16.5440  -14.5210 C.ar      1 PTR        -0.0239
     57 CE1         4.4070  -19.1050  -14.3500 C.ar      1 PTR         0.0115
     58 CE2         4.1310  -16.7460  -14.0630 C.ar      1 PTR         0.0115
     59 CZ          3.6310  -18.0290  -13.9790 C.ar      1 PTR         0.1728
     60 OH          2.3270  -18.2380  -13.5140 O.3       1 PTR        -0.2040
     61 P           1.1670  -18.2350  -14.5570 P.3       1 PTR         0.1348
     62 O1P         1.6960  -19.0960  -15.7340 O.co2     1 PTR        -0.6653
     63 O2P         0.0070  -18.9890  -13.8580 O.co2     1 PTR        -0.6653
     64 O3P         0.7810  -16.8490  -14.9840 O.co2     1 PTR        -0.6653
     65 H24         8.2586  -17.4008  -12.8971 H         1 PTR         0.1886
     66 H25         8.4015  -19.3667  -15.0625 H         1 PTR         0.0840
     67 H26         7.6428  -17.5330  -16.4893 H         1 PTR         0.0584
     68 H27         7.9238  -16.3542  -15.1634 H         1 PTR         0.0584
     69 H28         6.3005  -19.7441  -15.0997 H         1 PTR         0.0703
     70 H29         5.8099  -15.5349  -14.5847 H         1 PTR         0.0703
     71 H30         4.0103  -20.1116  -14.2828 H         1 PTR         0.0736
     72 H31         3.5172  -15.9014  -13.7715 H         1 PTR         0.0736
     73 N          10.3270  -18.4440  -16.5240 N.am      1 TYR        -0.2619
     74 CA         11.6240  -18.2040  -17.1450 C.3       1 TYR         0.1390
     75 C          11.5440  -18.3890  -18.6580 C.2       1 TYR         0.2057
     76 O          10.9850  -19.3730  -19.1430 O.2       1 TYR        -0.3942
     77 CB         12.6760  -19.1480  -16.5580 C.3       1 TYR         0.0163
     78 CG         12.4280  -20.6060  -16.8720 C.ar      1 TYR        -0.0493
     79 CD1        11.6480  -21.3940  -16.0350 C.ar      1 TYR        -0.0685
     80 CD2        12.9730  -21.1940  -18.0070 C.ar      1 TYR        -0.0685
     81 CE1        11.4190  -22.7270  -16.3200 C.ar      1 TYR        -0.0398
     82 CE2        12.7480  -22.5260  -18.2980 C.ar      1 TYR        -0.0398
     83 CZ         11.9710  -23.2870  -17.4510 C.ar      1 TYR         0.0805
     84 OH         11.7440  -24.6140  -17.7390 O.3       1 TYR        -0.3376
     85 H32         9.6274  -18.9436  -17.0349 H         1 TYR         0.1885
     86 H33        11.9250  -17.1671  -16.9346 H         1 TYR         0.0821
     87 H34        12.6820  -19.0245  -15.4650 H         1 TYR         0.0453
     88 H35        13.6591  -18.8678  -16.9641 H         1 TYR         0.0453
     89 H36        11.2120  -20.9565  -15.1442 H         1 TYR         0.0530
     90 H37        13.5845  -20.5982  -18.6749 H         1 TYR         0.0530
     91 H38        10.8081  -23.3287  -15.6568 H         1 TYR         0.0525
     92 H39        13.1801  -22.9700  -19.1875 H         1 TYR         0.0525
     93 H40        11.1947  -24.9940  -17.0636 H         1 TYR         0.2458
     94 N          12.1070  -17.4390  -19.3970 N.am      1 LEU        -0.2636
     95 CA         12.0990  -17.4990  -20.8550 C.3       1 LEU         0.1312
     96 C          13.5180  -17.4410  -21.4110 C.2       1 LEU         0.2034
     97 O          14.4120  -16.8580  -20.7980 O.2       1 LEU        -0.3944
     98 CB         11.2660  -16.3510  -21.4300 C.3       1 LEU        -0.0101
     99 CG          9.7920  -16.3540  -21.0220 C.3       1 LEU        -0.0425
    100 CD1         9.1360  -15.0310  -21.3840 C.3       1 LEU        -0.0625
    101 CD2         9.0590  -17.5120  -21.6820 C.3       1 LEU        -0.0625
    102 H41        12.5469  -16.6641  -18.9430 H         1 LEU         0.1883
    103 H42        11.6427  -18.4519  -21.1613 H         1 LEU         0.0800
    104 H43        11.3163  -16.4092  -22.5273 H         1 LEU         0.0315
    105 H44        11.7115  -15.4037  -21.0922 H         1 LEU         0.0315
    106 H45         9.7339  -16.4831  -19.9312 H         1 LEU         0.0298
    107 H46         8.0781  -15.0520  -21.0834 H         1 LEU         0.0232
    108 H47         9.2054  -14.8724  -22.4703 H         1 LEU         0.0232
    109 H48         9.6498  -14.2115  -20.8602 H         1 LEU         0.0232
    110 H49         9.5477  -18.4588  -21.4086 H         1 LEU         0.0232
    111 H50         9.0857  -17.3878  -22.7746 H         1 LEU         0.0232
    112 H51         8.0136  -17.5269  -21.3400 H         1 LEU         0.0232
    113 N          13.7170  -18.0520  -22.5750 N.am      1 ASP        -0.2679
    114 CA         15.0280  -18.0710  -23.2140 C.3       1 ASP         0.1057
    115 C          15.3700  -16.7020  -23.7930 C.2       1 ASP         0.0618
    116 O          16.3630  -16.0980  -23.3340 O.co2     1 ASP        -0.5665
    117 CB         15.0640  -19.1270  -24.3190 C.3       1 ASP         0.0351
    118 CG         14.8530  -20.5300  -23.7850 C.2       1 ASP         0.0387
    119 OD1        15.6160  -20.9460  -22.8890 O.co2     1 ASP        -0.5688
    120 OD2        13.9230  -21.2130  -24.2630 O.co2     1 ASP        -0.5688
    121 OXT        14.6450  -16.2450  -24.7000 O.co2     1 ASP        -0.5665
    122 H52        12.9491  -18.5097  -23.0233 H         1 ASP         0.1876
    123 H53        15.7820  -18.3288  -22.4557 H         1 ASP         0.0745
    124 H54        16.0432  -19.0827  -24.8182 H         1 ASP         0.0471
    125 H55        14.2706  -18.9033  -25.0473 H         1 ASP         0.0471
@<TRIPOS>BOND
     1    1    2 1  
     2    1   10 1  
     3    1   11 1  
     4    1   12 1  
     5    2    3 1  
     6    2    5 1  
     7    2   13 1  
     8    3    4 2  
     9    3   18 am 
    10    5    6 1  
    11    5   14 1  
    12    5   15 1  
    13    6    7 1  
    14    6   16 1  
    15    6   17 1  
    16    7    8 ar 
    17    7    9 ar 
    18   18   19 1  
    19   18   26 1  
    20   19   20 1  
    21   19   22 1  
    22   19   27 1  
    23   20   21 2  
    24   20   30 am 
    25   22   23 1  
    26   22   28 1  
    27   22   29 1  
    28   23   24 ar 
    29   23   25 ar 
    30   30   31 1  
    31   30   38 1  
    32   31   32 1  
    33   31   34 1  
    34   31   39 1  
    35   32   33 2  
    36   32   49 am 
    37   34   35 1  
    38   34   36 1  
    39   34   40 1  
    40   35   37 1  
    41   35   41 1  
    42   35   42 1  
    43   36   43 1  
    44   36   44 1  
    45   36   45 1  
    46   37   46 1  
    47   37   47 1  
    48   37   48 1  
    49   49   50 1  
    50   49   65 1  
    51   50   51 1  
    52   50   53 1  
    53   50   66 1  
    54   51   52 2  
    55   51   73 am 
    56   53   54 1  
    57   53   67 1  
    58   53   68 1  
    59   54   55 ar 
    60   54   56 ar 
    61   55   57 ar 
    62   55   69 1  
    63   56   58 ar 
    64   56   70 1  
    65   57   59 ar 
    66   57   71 1  
    67   58   59 ar 
    68   58   72 1  
    69   59   60 1  
    70   60   61 1  
    71   61   62 ar 
    72   61   63 ar 
    73   61   64 ar 
    74   73   74 1  
    75   73   85 1  
    76   74   75 1  
    77   74   77 1  
    78   74   86 1  
    79   75   76 2  
    80   75   94 am 
    81   77   78 1  
    82   77   87 1  
    83   77   88 1  
    84   78   79 ar 
    85   78   80 ar 
    86   79   81 ar 
    87   79   89 1  
    88   80   82 ar 
    89   80   90 1  
    90   81   83 ar 
    91   81   91 1  
    92   82   83 ar 
    93   82   92 1  
    94   83   84 1  
    95   84   93 1  
    96   94   95 1  
    97   94  102 1  
    98   95   96 1  
    99   95   98 1  
   100   95  103 1  
   101   96   97 2  
   102   96  113 am 
   103   98   99 1  
   104   98  104 1  
   105   98  105 1  
   106   99  100 1  
   107   99  101 1  
   108   99  106 1  
   109  100  107 1  
   110  100  108 1  
   111  100  109 1  
   112  101  110 1  
   113  101  111 1  
   114  101  112 1  
   115  113  114 1  
   116  113  122 1  
   117  114  115 1  
   118  114  117 1  
   119  114  123 1  
   120  115  116 ar 
   121  115  121 ar 
   122  117  118 1  
   123  117  124 1  
   124  117  125 1  
   125  118  119 ar 
   126  118  120 ar 
@<TRIPOS>SUBSTRUCTURE
     1 GLU         1

