6r0u_ligand
  -I-interpret- 

 28 30  0  0  0  0  0  0  0  0999 V2000
   27.2370  -15.3360    5.6220 C   0  0  0  0  0
   26.8530  -14.0340    5.9140 C   0  0  0  0  0
   26.3040  -13.2140    4.9290 C   0  0  0  0  0
   24.6200  -14.4730   -2.1400 C   0  0  0  0  0
   26.1300  -13.7630    3.6710 C   0  0  0  0  0
   25.6030  -13.1220    2.4510 C   0  0  0  0  0
   25.1350  -13.7860    0.1000 C   0  0  0  0  0
   25.8040  -14.1490   -1.2470 C   0  0  0  0  0
   23.8060  -14.4900   -0.0130 C   0  0  0  0  0
   27.4440  -17.1610    4.0590 N   0  0  0  0  0
   25.7110  -14.0590    1.4160 N   0  0  0  0  0
   27.0730  -15.8760    4.3370 C   0  0  0  0  0
   23.5280  -14.6340   -1.3310 N   0  0  0  0  0
   26.1680  -16.3540    1.3210 O   0  0  0  0  0
   26.1760  -15.2970    1.9140 C   0  0  0  0  0
   26.5110  -15.0610    3.3420 C   0  0  0  0  0
   25.1350  -12.0160    2.3240 O   0  0  0  0  0
   24.5460  -14.6200   -3.3580 O   0  0  0  0  0
   23.0750  -14.7780    0.8890 O   0  0  0  0  0
   27.6751  -15.9518    6.4075 H   0  0  0  0  0
   26.9823  -13.6484    6.9253 H   0  0  0  0  0
   26.0233  -12.1824    5.1414 H   0  0  0  0  0
   25.2021  -12.6995    0.1557 H   0  0  0  0  0
   26.4229  -13.3433   -1.6419 H   0  0  0  0  0
   26.5066  -14.9778   -1.1599 H   0  0  0  0  0
   27.8478  -17.7450    4.7913 H   0  0  0  0  0
   27.3172  -17.5364    3.1191 H   0  0  0  0  0
   22.5948  -14.8423   -1.6862 H   0  0  0  0  0
  2  1  4  0  0  0
  1 12  4  0  0  0
  3  2  4  0  0  0
  5  3  4  0  0  0
  8  4  1  0  0  0
  4 13  1  0  0  0
  4 18  2  0  0  0
  6  5  1  0  0  0
  5 16  4  0  0  0
 11  6  1  0  0  0
  6 17  2  0  0  0
  7  8  1  0  0  0
  7  9  1  0  0  0
 11  7  1  0  0  0
  9 13  1  0  0  0
  9 19  2  0  0  0
 12 10  1  0  0  0
 11 15  1  0  0  0
 12 16  4  0  0  0
 15 14  2  0  0  0
 15 16  1  0  0  0
  1 20  1  0  0  0
  2 21  1  0  0  0
  3 22  1  0  0  0
  7 23  1  0  0  0
  8 24  1  0  0  0
  8 25  1  0  0  0
 10 26  1  0  0  0
 10 27  1  0  0  0
 13 28  1  0  0  0
M  END
$$$$
