5ti6_ligand
  -I-interpret- 

 38 40  0  0  0  0  0  0  0  0999 V2000
   48.9490   36.6570   77.6350 C   0  0  0  0  0
   48.9400   39.9290   80.3330 C   0  0  0  0  0
   51.1900   37.2930   76.9670 C   0  0  0  0  0
   51.2000   36.2680   76.0000 C   0  0  0  0  0
   45.7330   36.2800   77.7280 O   0  0  0  0  0
   46.1960   35.4170   76.4570 S   0  0  0  0  0
   46.3160   36.5260   75.0900 C   0  0  0  0  0
   46.0650   37.9070   75.2130 C   0  0  0  0  0
   45.7140   38.4450   76.3500 F   0  0  0  0  0
   46.2050   38.7300   74.0780 C   0  0  0  0  0
   46.5830   38.1770   72.8500 C   0  0  0  0  0
   46.8350   36.8100   72.7340 C   0  0  0  0  0
   46.7090   35.9830   73.8590 C   0  0  0  0  0
   46.9260   34.6970   73.7630 F   0  0  0  0  0
   47.8200   34.8120   76.5620 N   0  0  0  0  0
   48.9180   35.6200   76.7020 C   0  0  0  0  0
   50.0570   37.5080   77.7810 C   0  0  0  0  0
   49.9570   38.4700   78.7510 N   0  0  0  0  0
   48.7180   38.6750   79.4720 C   0  0  0  0  0
   50.4550   40.1590   80.2850 C   0  0  0  0  0
   50.9310   39.3000   79.2060 C   0  0  0  0  0
   52.1230   39.3820   78.8040 O   0  0  0  0  0
   50.0550   35.4400   75.8710 C   0  0  0  0  0
   45.2370   34.1840   76.1500 O   0  0  0  0  0
   48.0804   36.8127   78.2749 H   0  0  0  0  0
   48.5775   39.7960   81.3523 H   0  0  0  0  0
   48.3828   40.7876   79.9583 H   0  0  0  0  0
   52.0679   37.9276   77.0879 H   0  0  0  0  0
   52.0710   36.1141   75.3630 H   0  0  0  0  0
   46.0182   39.8010   74.1571 H   0  0  0  0  0
   46.6815   38.8203   71.9756 H   0  0  0  0  0
   47.1285   36.3868   71.7733 H   0  0  0  0  0
   47.9643   33.8032   76.5172 H   0  0  0  0  0
   47.8780   38.8050   78.7897 H   0  0  0  0  0
   48.4680   37.8101   80.0865 H   0  0  0  0  0
   50.9315   39.9172   81.2351 H   0  0  0  0  0
   50.7001   41.2061   80.1069 H   0  0  0  0  0
   50.0482   34.6505   75.1195 H   0  0  0  0  0
  1 16  4  0  0  0
 17  1  4  0  0  0
 19  2  1  0  0  0
  2 20  1  0  0  0
  3  4  4  0  0  0
 17  3  4  0  0  0
  4 23  4  0  0  0
  6  5  2  0  0  0
  6  7  1  0  0  0
 15  6  1  0  0  0
  6 24  2  0  0  0
  7  8  4  0  0  0
  7 13  4  0  0  0
  8  9  1  0  0  0
  8 10  4  0  0  0
 10 11  4  0  0  0
 12 11  4  0  0  0
 13 12  4  0  0  0
 13 14  1  0  0  0
 16 15  1  0  0  0
 16 23  4  0  0  0
 18 17  1  0  0  0
 18 19  1  0  0  0
 18 21  1  0  0  0
 20 21  1  0  0  0
 21 22  2  0  0  0
  1 25  1  0  0  0
  2 26  1  0  0  0
  2 27  1  0  0  0
  3 28  1  0  0  0
  4 29  1  0  0  0
 10 30  1  0  0  0
 11 31  1  0  0  0
 12 32  1  0  0  0
 15 33  1  0  0  0
 19 34  1  0  0  0
 19 35  1  0  0  0
 20 36  1  0  0  0
 20 37  1  0  0  0
 23 38  1  0  0  0
M  END
$$$$
