6ckc_ligand
  -I-interpret- 

 43 46  0  0  0  0  0  0  0  0999 V2000
  -36.5240  -38.0030   -4.5120 C   0  0  0  0  0
  -37.8010  -37.4520   -4.4900 C   0  0  0  0  0
  -28.4240  -41.0240   -6.1780 C   0  0  0  0  0
  -29.7500  -38.9690   -6.1610 C   0  0  0  0  0
  -30.8560  -41.1230   -6.1810 C   0  0  0  0  0
  -28.5040  -39.6220   -6.1730 C   0  0  0  0  0
  -29.6070  -41.7750   -6.1840 C   0  0  0  0  0
  -36.8170  -34.1990   -2.2940 C   0  0  0  0  0
  -37.7110  -36.2320   -3.7820 C   0  0  0  0  0
  -30.9300  -39.7200   -6.1670 C   0  0  0  0  0
  -36.3770  -36.0990   -3.3610 C   0  0  0  0  0
  -38.5940  -35.2210   -3.4130 C   0  0  0  0  0
  -32.5430  -39.1160   -3.6170 C   0  0  0  0  0
  -33.9490  -38.8540   -3.0570 C   0  0  0  0  0
  -32.4640  -38.2320   -4.8630 C   0  0  0  0  0
  -34.2730  -37.4730   -3.5940 C   0  0  0  0  0
  -32.2600  -39.0180   -6.1540 C   0  0  0  0  0
  -35.8690  -35.1150   -2.5750 N   0  0  0  0  0
  -38.1160  -34.1730   -2.7040 N   0  0  0  0  0
  -35.6720  -37.1930   -3.8170 N   0  0  0  0  0
  -39.9510  -35.2290   -3.8050 N   0  0  0  0  0
  -33.7230  -37.5100   -4.9080 O   0  0  0  0  0
  -31.5000  -38.7060   -2.7260 O   0  0  0  0  0
  -34.0410  -38.9690   -1.6410 O   0  0  0  0  0
  -33.2830  -40.0080   -6.2970 O   0  0  0  0  0
  -36.2470  -38.9343   -5.0060 H   0  0  0  0  0
  -38.6999  -37.8796   -4.9342 H   0  0  0  0  0
  -27.4542  -41.5216   -6.1772 H   0  0  0  0  0
  -29.7958  -37.8801   -6.1471 H   0  0  0  0  0
  -31.7730  -41.7122   -6.1896 H   0  0  0  0  0
  -27.5879  -39.0315   -6.1785 H   0  0  0  0  0
  -29.5609  -42.8640   -6.1910 H   0  0  0  0  0
  -36.5039  -33.3722   -1.6564 H   0  0  0  0  0
  -32.4036  -40.1823   -3.7947 H   0  0  0  0  0
  -34.6744  -39.6044   -3.3712 H   0  0  0  0  0
  -31.5976  -37.5742   -4.7935 H   0  0  0  0  0
  -33.9071  -36.7371   -2.8780 H   0  0  0  0  0
  -32.2996  -38.3022   -6.9750 H   0  0  0  0  0
  -40.3122  -35.9925   -4.3769 H   0  0  0  0  0
  -40.5698  -34.4713   -3.5162 H   0  0  0  0  0
  -30.6474  -38.8927   -3.1258 H   0  0  0  0  0
  -34.9434  -38.7929   -1.3647 H   0  0  0  0  0
  -34.1429  -39.5811   -6.2913 H   0  0  0  0  0
  1  2  4  0  0  0
 20  1  4  0  0  0
  9  2  4  0  0  0
  6  3  4  0  0  0
  7  3  4  0  0  0
  4  6  4  0  0  0
 10  4  4  0  0  0
  5  7  4  0  0  0
 10  5  4  0  0  0
 18  8  4  0  0  0
  8 19  4  0  0  0
 11  9  4  0  0  0
  9 12  4  0  0  0
 17 10  1  0  0  0
 11 18  4  0  0  0
 20 11  4  0  0  0
 12 19  4  0  0  0
 12 21  1  0  0  0
 14 13  1  0  0  0
 13 15  1  0  0  0
 13 23  1  0  0  0
 16 14  1  0  0  0
 14 24  1  0  0  0
 15 17  1  0  0  0
 15 22  1  0  0  0
 16 20  1  0  0  0
 16 22  1  0  0  0
 17 25  1  0  0  0
  1 26  1  0  0  0
  2 27  1  0  0  0
  3 28  1  0  0  0
  4 29  1  0  0  0
  5 30  1  0  0  0
  6 31  1  0  0  0
  7 32  1  0  0  0
  8 33  1  0  0  0
 13 34  1  0  0  0
 14 35  1  0  0  0
 15 36  1  0  0  0
 16 37  1  0  0  0
 17 38  1  0  0  0
 21 39  1  0  0  0
 21 40  1  0  0  0
 23 41  1  0  0  0
 24 42  1  0  0  0
 25 43  1  0  0  0
M  END
$$$$
