2o7n_ligand
  -I-interpret- 

 43 46  0  0  0  0  0  0  0  0999 V2000
    2.6560   22.3970   -5.0690 C   0  0  0  0  0
    2.4160   24.6610   -4.1060 C   0  0  0  0  0
    1.7200   22.2900   -3.8330 C   0  0  0  0  0
    4.6110   23.6630   -4.7870 C   0  0  0  0  0
    5.0190   22.2440   -5.0240 C   0  0  0  0  0
    3.8850   21.4920   -5.1600 C   0  0  0  0  0
    3.7380   20.0630   -5.4340 C   0  0  0  0  0
    8.2650   20.1940   -4.7320 C   0  0  0  0  0
    9.2110   21.0660   -5.2660 C   0  0  0  0  0
    7.4210   22.7220   -5.5970 C   0  0  0  0  0
    5.3100   24.6610   -4.6190 O   0  0  0  0  0
    2.5690   22.8080   -7.6320 C   0  0  0  0  0
    2.9740   21.7810   -8.5120 C   0  0  0  0  0
    3.7930   22.0650   -9.6150 C   0  0  0  0  0
    3.2760   23.6800   -4.7630 N   0  0  0  0  0
    1.3500   23.7530   -3.4600 C   0  0  0  0  0
    3.6880   18.9300   -5.6500 N   0  0  0  0  0
    6.4690   21.8290   -5.0710 C   0  0  0  0  0
    6.9220   20.5680   -4.6080 C   0  0  0  0  0
    8.7590   22.3250   -5.6680 C   0  0  0  0  0
    9.9290   23.4200   -6.2600 Cl  0  0  0  0  0
    8.7640   18.6380   -4.2650 Cl  0  0  0  0  0
    1.8050   22.4820   -6.3700 C   0  0  0  0  0
    4.1860   23.3850   -9.8540 C   0  0  0  0  0
    3.7500   24.4310   -9.0320 C   0  0  0  0  0
    2.9310   24.1320   -7.9350 C   0  0  0  0  0
    5.0290   23.6920  -10.9630 C   0  0  0  0  0
    5.6800   23.9470  -11.8880 N   0  0  0  0  0
    2.0012   25.4033   -4.7879 H   0  0  0  0  0
    2.9425   25.2925   -3.3904 H   0  0  0  0  0
    2.2113   21.7799   -3.0044 H   0  0  0  0  0
    0.8316   21.6992   -4.0562 H   0  0  0  0  0
   10.2577   20.7786   -5.3657 H   0  0  0  0  0
    7.1188   23.7100   -5.9443 H   0  0  0  0  0
    2.6470   20.7568   -8.3326 H   0  0  0  0  0
    4.1196   21.2645  -10.2789 H   0  0  0  0  0
    0.3540   24.0055   -3.8237 H   0  0  0  0  0
    1.3331   23.8846   -2.3781 H   0  0  0  0  0
    6.2134   19.8790   -4.1483 H   0  0  0  0  0
    1.0936   23.2943   -6.2211 H   0  0  0  0  0
    1.3694   21.4940   -6.5192 H   0  0  0  0  0
    4.0425   25.4599   -9.2416 H   0  0  0  0  0
    2.5672   24.9427   -7.3037 H   0  0  0  0  0
  1  3  1  0  0  0
  1  6  1  0  0  0
  1 15  1  0  0  0
 23  1  1  0  0  0
 15  2  1  0  0  0
  2 16  1  0  0  0
  3 16  1  0  0  0
  4  5  1  0  0  0
  4 11  2  0  0  0
 15  4  1  0  0  0
  6  5  2  0  0  0
  5 18  1  0  0  0
  6  7  1  0  0  0
  7 17  3  0  0  0
  9  8  4  0  0  0
  8 19  4  0  0  0
  8 22  1  0  0  0
 20  9  4  0  0  0
 18 10  4  0  0  0
 10 20  4  0  0  0
 12 13  4  0  0  0
 12 23  1  0  0  0
 12 26  4  0  0  0
 13 14  4  0  0  0
 14 24  4  0  0  0
 18 19  4  0  0  0
 20 21  1  0  0  0
 24 25  4  0  0  0
 24 27  1  0  0  0
 25 26  4  0  0  0
 27 28  3  0  0  0
  2 29  1  0  0  0
  2 30  1  0  0  0
  3 31  1  0  0  0
  3 32  1  0  0  0
  9 33  1  0  0  0
 10 34  1  0  0  0
 13 35  1  0  0  0
 14 36  1  0  0  0
 16 37  1  0  0  0
 16 38  1  0  0  0
 19 39  1  0  0  0
 23 40  1  0  0  0
 23 41  1  0  0  0
 25 42  1  0  0  0
 26 43  1  0  0  0
M  END
$$$$
