6a9c_ligand
  -I-interpret- 

152155  0  0  0  0  0  0  0  0999 V2000
    8.3340  -10.8660  -25.4100 N   0  3  0  0  0
    8.6420  -11.0520  -23.9430 C   0  0  0  0  0
   10.1020  -10.6450  -23.6470 C   0  0  0  0  0
   10.7640  -11.1990  -22.7770 O   0  0  0  0  0
    8.3460  -12.4970  -23.5060 C   0  0  0  0  0
    8.4160  -13.5260  -24.6450 C   0  0  0  0  0
    7.9470  -14.9010  -24.2010 C   0  0  0  0  0
    7.0990  -15.5150  -25.3080 C   0  0  0  0  0
    7.5200  -16.9000  -25.6080 N   0  3  0  0  0
   10.5730   -9.6450  -24.3760 N   0  0  0  0  0
   11.9550   -9.1920  -24.2850 C   0  0  0  0  0
   12.0240   -7.9730  -23.3320 C   0  0  0  0  0
   11.3610   -6.9590  -23.5600 O   0  0  0  0  0
   12.4300   -8.9030  -25.7130 C   0  0  0  0  0
   13.8370   -8.3380  -25.7210 C   0  0  0  0  0
   12.4450  -10.2070  -26.5450 C   0  0  0  0  0
   12.9040   -7.9950  -22.3440 N   0  0  0  0  0
   13.0480   -6.8180  -21.4720 C   0  0  0  0  0
   13.6620   -5.6730  -22.2650 C   0  0  0  0  0
   14.3340   -5.9110  -23.2620 O   0  0  0  0  0
   13.8490   -7.1660  -20.2420 C   0  0  0  0  0
   13.2990   -4.3950  -21.9570 N   0  0  0  0  0
   13.9750   -3.4450  -22.8370 C   0  0  0  0  0
   15.3790   -3.2070  -22.2510 C   0  0  0  0  0
   15.7140   -3.7590  -21.2400 O   0  0  0  0  0
   13.0860   -2.2540  -22.8250 C   0  0  0  0  0
   12.2670   -2.3680  -21.5990 C   0  0  0  0  0
   12.0290   -3.8580  -21.4950 C   0  0  0  0  0
   16.2110   -2.4490  -22.9270 N   0  0  0  0  0
   17.4900   -2.1300  -22.3320 C   0  0  0  0  0
   17.2860   -1.1340  -21.2410 C   0  0  0  0  0
   16.3530   -0.3620  -21.2660 O   0  0  0  0  0
   18.2780   -1.5040  -23.5040 C   0  0  0  0  0
   17.2540   -1.0710  -24.4710 C   0  0  0  0  0
   16.1790   -2.1010  -24.3460 C   0  0  0  0  0
   18.1560   -1.1510  -20.2610 N   0  0  0  0  0
   17.9870   -0.2510  -19.1930 C   0  0  0  0  0
   18.2940    1.1560  -19.7480 C   0  0  0  0  0
   18.9830    1.3300  -20.7200 O   0  0  0  0  0
   18.8510   -0.6080  -17.9600 C   0  0  0  0  0
   20.3680   -0.5500  -18.3160 C   0  0  0  0  0
   18.4250   -1.9560  -17.4090 C   0  0  0  0  0
   21.3240   -0.8900  -17.1780 C   0  0  0  0  0
   17.7920    2.1790  -19.0750 N   0  0  0  0  0
   18.0650    3.5440  -19.4840 C   0  0  0  0  0
   19.5640    3.8230  -19.3700 C   0  0  0  0  0
   20.1310    3.6250  -18.2990 O   0  0  0  0  0
   17.2580    4.3710  -18.4360 C   0  0  0  0  0
   16.0880    3.5200  -18.1130 C   0  0  0  0  0
   16.5750    2.0920  -18.2340 C   0  0  0  0  0
   20.1690    4.2380  -20.4850 N   0  0  0  0  0
   21.6150    4.5390  -20.5590 C   0  0  0  0  0
   21.9360    5.7630  -19.7870 C   0  0  0  0  0
   22.1410    6.8870  -20.3840 O   0  0  0  0  0
   22.0620    4.8370  -21.9850 C   0  0  0  0  0
   22.4570    3.6360  -22.7520 C   0  0  0  0  0
   22.8040    2.4390  -22.1560 N   0  0  0  0  0
   22.6050    3.4580  -24.0810 C   0  0  0  0  0
   23.1250    1.5660  -23.0910 C   0  0  0  0  0
   23.0160    2.1610  -24.2670 N   0  0  0  0  0
   22.0020    5.5830  -18.4740 N   0  0  0  0  0
   22.0230    6.7290  -17.6040 C   0  0  0  0  0
   22.5370    6.3230  -16.2500 C   0  0  0  0  0
   23.2960    5.3550  -16.1540 O   0  0  0  0  0
   20.6020    7.2760  -17.5060 C   0  0  0  0  0
   19.9690    7.5840  -18.8800 C   0  0  0  0  0
   18.6290    6.9960  -18.9850 C   0  0  0  0  0
   17.5700    7.9610  -19.1630 N   0  0  0  0  0
   16.4840    7.7870  -19.9340 C   0  0  0  0  0
   15.5480    8.7330  -19.9650 N   0  0  0  0  0
   16.3060    6.6880  -20.6930 N   0  0  0  0  0
   22.1930    6.9630  -15.2530 O   0  0  0  0  0
    8.5366   -9.9033  -25.6793 H   0  0  0  0  0
    8.9101  -11.5027  -25.9605 H   0  0  0  0  0
    7.3481  -11.0668  -25.5773 H   0  0  0  0  0
    7.9937  -10.3996  -23.3580 H   0  0  0  0  0
    7.3270  -12.5139  -23.1194 H   0  0  0  0  0
    9.1056  -12.7740  -22.7750 H   0  0  0  0  0
    9.4543  -13.6079  -24.9664 H   0  0  0  0  0
    7.7639  -13.1875  -25.4501 H   0  0  0  0  0
    7.3551  -14.8119  -23.2901 H   0  0  0  0  0
    8.8091  -15.5375  -24.0014 H   0  0  0  0  0
    7.2204  -14.9143  -26.2094 H   0  0  0  0  0
    6.0605  -15.5338  -24.9773 H   0  0  0  0  0
    6.9331  -17.2791  -26.3511 H   0  0  0  0  0
    8.4945  -16.9002  -25.9093 H   0  0  0  0  0
    7.4219  -17.4730  -24.7699 H   0  0  0  0  0
    9.9443   -9.1736  -25.0263 H   0  0  0  0  0
   12.6233   -9.9400  -23.8585 H   0  0  0  0  0
   11.7386   -8.1772  -26.1412 H   0  0  0  0  0
   13.8569   -7.4079  -25.1531 H   0  0  0  0  0
   14.5186   -9.0572  -25.2668 H   0  0  0  0  0
   14.1435   -8.1442  -26.7489 H   0  0  0  0  0
   13.1220  -10.9245  -26.0814 H   0  0  0  0  0
   11.4391  -10.6253  -26.5807 H   0  0  0  0  0
   12.7844   -9.9868  -27.5571 H   0  0  0  0  0
   13.4792   -8.8227  -22.1876 H   0  0  0  0  0
   12.0681   -6.4922  -21.1229 H   0  0  0  0  0
   13.3399   -7.9561  -19.6900 H   0  0  0  0  0
   14.8395   -7.5096  -20.5402 H   0  0  0  0  0
   13.9443   -6.2829  -19.6102 H   0  0  0  0  0
   14.1302   -3.7629  -23.8680 H   0  0  0  0  0
   12.4594   -2.2205  -23.7163 H   0  0  0  0  0
   13.6643   -1.3301  -22.8286 H   0  0  0  0  0
   11.3427   -1.7925  -21.6502 H   0  0  0  0  0
   12.7591   -1.9537  -20.7191 H   0  0  0  0  0
   11.7597   -4.1850  -20.4907 H   0  0  0  0  0
   11.1749   -4.2023  -22.0781 H   0  0  0  0  0
   18.0027   -2.9854  -21.8921 H   0  0  0  0  0
   18.9733   -2.2169  -23.9471 H   0  0  0  0  0
   18.8962   -0.6697  -23.1725 H   0  0  0  0  0
   17.6463   -1.0048  -25.4858 H   0  0  0  0  0
   16.8885   -0.0655  -24.2627 H   0  0  0  0  0
   15.2046   -1.7318  -24.6659 H   0  0  0  0  0
   16.3453   -2.9621  -24.9933 H   0  0  0  0  0
   18.9398   -1.8036  -20.2724 H   0  0  0  0  0
   16.9647   -0.2990  -18.8179 H   0  0  0  0  0
   18.6921    0.1294  -17.1732 H   0  0  0  0  0
   20.5801    0.4803  -18.6016 H   0  0  0  0  0
   20.5328   -1.2967  -19.0928 H   0  0  0  0  0
   17.3763   -1.9120  -17.1152 H   0  0  0  0  0
   18.5570   -2.7189  -18.1763 H   0  0  0  0  0
   19.0367   -2.2021  -16.5411 H   0  0  0  0  0
   21.1736   -0.1888  -16.3571 H   0  0  0  0  0
   21.1279   -1.9046  -16.8314 H   0  0  0  0  0
   22.3515   -0.8187  -17.5348 H   0  0  0  0  0
   17.7897    3.7725  -20.5136 H   0  0  0  0  0
   16.9601    5.3445  -18.8255 H   0  0  0  0  0
   17.8524    4.6011  -17.5518 H   0  0  0  0  0
   15.2556    3.7150  -18.7892 H   0  0  0  0  0
   15.7094    3.7276  -17.1122 H   0  0  0  0  0
   16.7848    1.6502  -17.2599 H   0  0  0  0  0
   15.8207    1.4415  -18.6766 H   0  0  0  0  0
   19.6061    4.3532  -21.3278 H   0  0  0  0  0
   22.1198    3.6568  -20.1653 H   0  0  0  0  0
   22.9370    5.4839  -21.9221 H   0  0  0  0  0
   21.2156    5.2885  -22.5025 H   0  0  0  0  0
   22.4315    4.2017  -24.8587 H   0  0  0  0  0
   23.4279    0.5324  -22.9234 H   0  0  0  0  0
   22.0375    4.6408  -18.0849 H   0  0  0  0  0
   22.6830    7.5023  -17.9971 H   0  0  0  0  0
   23.4516    4.9841  -17.0257 H   0  0  0  0  0
   20.6471    8.2109  -16.9475 H   0  0  0  0  0
   19.9887    6.5144  -17.0244 H   0  0  0  0  0
   20.6002    7.1573  -19.6595 H   0  0  0  0  0
   19.8864    8.6650  -18.9926 H   0  0  0  0  0
   18.4333    6.4737  -18.0485 H   0  0  0  0  0
   18.6286    6.3529  -19.8651 H   0  0  0  0  0
   17.6532    8.8462  -18.6630 H   0  0  0  0  0
   15.6596    9.5794  -19.4068 H   0  0  0  0  0
   15.4706    6.5974  -21.2712 H   0  0  0  0  0
   17.0066    5.9467  -20.6893 H   0  0  0  0  0
  1  2  1  0  0  0
  2  3  1  0  0  0
  2  5  1  0  0  0
  3  4  2  0  0  0
  3 10  1  0  0  0
  5  6  1  0  0  0
  6  7  1  0  0  0
  7  8  1  0  0  0
  8  9  1  0  0  0
 10 11  1  0  0  0
 11 12  1  0  0  0
 11 14  1  0  0  0
 12 13  2  0  0  0
 12 17  1  0  0  0
 14 15  1  0  0  0
 14 16  1  0  0  0
 17 18  1  0  0  0
 18 19  1  0  0  0
 18 21  1  0  0  0
 19 20  2  0  0  0
 19 22  1  0  0  0
 22 23  1  0  0  0
 22 28  1  0  0  0
 23 24  1  0  0  0
 23 26  1  0  0  0
 24 25  2  0  0  0
 24 29  1  0  0  0
 26 27  1  0  0  0
 27 28  1  0  0  0
 29 30  1  0  0  0
 29 35  1  0  0  0
 30 31  1  0  0  0
 30 33  1  0  0  0
 31 32  2  0  0  0
 31 36  1  0  0  0
 33 34  1  0  0  0
 34 35  1  0  0  0
 36 37  1  0  0  0
 37 38  1  0  0  0
 37 40  1  0  0  0
 38 39  2  0  0  0
 38 44  1  0  0  0
 40 41  1  0  0  0
 40 42  1  0  0  0
 41 43  1  0  0  0
 44 45  1  0  0  0
 44 50  1  0  0  0
 45 46  1  0  0  0
 45 48  1  0  0  0
 46 47  2  0  0  0
 46 51  1  0  0  0
 48 49  1  0  0  0
 49 50  1  0  0  0
 51 52  1  0  0  0
 52 53  1  0  0  0
 52 55  1  0  0  0
 53 54  2  0  0  0
 53 61  1  0  0  0
 55 56  1  0  0  0
 56 57  4  0  0  0
 56 58  4  0  0  0
 57 59  4  0  0  0
 58 60  4  0  0  0
 59 60  4  0  0  0
 61 62  1  0  0  0
 62 63  1  0  0  0
 62 65  1  0  0  0
 63 64  1  0  0  0
 63 72  2  0  0  0
 65 66  1  0  0  0
 66 67  1  0  0  0
 67 68  1  0  0  0
 68 69  1  0  0  0
 69 70  2  0  0  0
 69 71  1  0  0  0
  1 73  1  0  0  0
  1 74  1  0  0  0
  1 75  1  0  0  0
  2 76  1  0  0  0
  5 77  1  0  0  0
  5 78  1  0  0  0
  6 79  1  0  0  0
  6 80  1  0  0  0
  7 81  1  0  0  0
  7 82  1  0  0  0
  8 83  1  0  0  0
  8 84  1  0  0  0
  9 85  1  0  0  0
  9 86  1  0  0  0
  9 87  1  0  0  0
 10 88  1  0  0  0
 11 89  1  0  0  0
 14 90  1  0  0  0
 15 91  1  0  0  0
 15 92  1  0  0  0
 15 93  1  0  0  0
 16 94  1  0  0  0
 16 95  1  0  0  0
 16 96  1  0  0  0
 17 97  1  0  0  0
 18 98  1  0  0  0
 21 99  1  0  0  0
 21100  1  0  0  0
 21101  1  0  0  0
 23102  1  0  0  0
 26103  1  0  0  0
 26104  1  0  0  0
 27105  1  0  0  0
 27106  1  0  0  0
 28107  1  0  0  0
 28108  1  0  0  0
 30109  1  0  0  0
 33110  1  0  0  0
 33111  1  0  0  0
 34112  1  0  0  0
 34113  1  0  0  0
 35114  1  0  0  0
 35115  1  0  0  0
 36116  1  0  0  0
 37117  1  0  0  0
 40118  1  0  0  0
 41119  1  0  0  0
 41120  1  0  0  0
 42121  1  0  0  0
 42122  1  0  0  0
 42123  1  0  0  0
 43124  1  0  0  0
 43125  1  0  0  0
 43126  1  0  0  0
 45127  1  0  0  0
 48128  1  0  0  0
 48129  1  0  0  0
 49130  1  0  0  0
 49131  1  0  0  0
 50132  1  0  0  0
 50133  1  0  0  0
 51134  1  0  0  0
 52135  1  0  0  0
 55136  1  0  0  0
 55137  1  0  0  0
 58138  1  0  0  0
 59139  1  0  0  0
 61140  1  0  0  0
 62141  1  0  0  0
 64142  1  0  0  0
 65143  1  0  0  0
 65144  1  0  0  0
 66145  1  0  0  0
 66146  1  0  0  0
 67147  1  0  0  0
 67148  1  0  0  0
 68149  1  0  0  0
 70150  1  0  0  0
 71151  1  0  0  0
 71152  1  0  0  0
M  END
$$$$
