### 
### Created by X-TOOL on Mon Aug  2 16:12:34 2021
### 

@<TRIPOS>MOLECULE
6a9c_ligand
  153   156     1     0     0
SMALL
GAST_HUCK


@<TRIPOS>ATOM
      1 N           8.3340  -10.8660  -25.4100 N.4       1 LYS         0.2379
      2 CA          8.6420  -11.0520  -23.9430 C.3       1 LYS         0.0650
      3 C          10.1020  -10.6450  -23.6470 C.2       1 LYS         0.2267
      4 O          10.7640  -11.1990  -22.7770 O.2       1 LYS        -0.3907
      5 CB          8.3460  -12.4970  -23.5060 C.3       1 LYS         0.0080
      6 CG          8.4160  -13.5260  -24.6450 C.3       1 LYS        -0.0410
      7 CD          7.9470  -14.9010  -24.2010 C.3       1 LYS        -0.0123
      8 CE          7.0990  -15.5150  -25.3080 C.3       1 LYS        -0.0354
      9 NZ          7.5200  -16.9000  -25.6080 N.4       1 LYS         0.2185
     10 N          10.5730   -9.6450  -24.3760 N.am      1 LYS        -0.2608
     11 CA         11.9550   -9.1920  -24.2850 C.3       1 LYS         0.1334
     12 C          12.0240   -7.9730  -23.3320 C.2       1 LYS         0.2041
     13 O          11.3610   -6.9590  -23.5600 O.2       1 LYS        -0.3944
     14 CB         12.4300   -8.9030  -25.7130 C.3       1 LYS        -0.0063
     15 CG1        13.8370   -8.3380  -25.7210 C.3       1 LYS        -0.0584
     16 CG2        12.4450  -10.2070  -26.5450 C.3       1 LYS        -0.0584
     17 N          12.9040   -7.9950  -22.3440 N.am      1 LYS        -0.2640
     18 CA         13.0480   -6.8180  -21.4720 C.3       1 LYS         0.1284
     19 C          13.6620   -5.6730  -22.2650 C.2       1 LYS         0.2061
     20 O          14.3340   -5.9110  -23.2620 O.2       1 LYS        -0.3942
     21 CB         13.8490   -7.1660  -20.2420 C.3       1 LYS        -0.0244
     22 N          13.2990   -4.3950  -21.9570 N.am      1 LYS        -0.2498
     23 CA         13.9750   -3.4450  -22.8370 C.3       1 LYS         0.1340
     24 C          15.3790   -3.2070  -22.2510 C.2       1 LYS         0.2066
     25 O          15.7140   -3.7590  -21.2400 O.2       1 LYS        -0.3942
     26 CB         13.0860   -2.2540  -22.8250 C.3       1 LYS        -0.0104
     27 CG         12.2670   -2.3680  -21.5990 C.3       1 LYS        -0.0281
     28 CD         12.0290   -3.8580  -21.4950 C.3       1 LYS         0.0369
     29 N          16.2110   -2.4490  -22.9270 N.am      1 LYS        -0.2498
     30 CA         17.4900   -2.1300  -22.3320 C.3       1 LYS         0.1338
     31 C          17.2860   -1.1340  -21.2410 C.2       1 LYS         0.2041
     32 O          16.3530   -0.3620  -21.2660 O.2       1 LYS        -0.3944
     33 CB         18.2780   -1.5040  -23.5040 C.3       1 LYS        -0.0104
     34 CG         17.2540   -1.0710  -24.4710 C.3       1 LYS        -0.0281
     35 CD         16.1790   -2.1010  -24.3460 C.3       1 LYS         0.0369
     36 N          18.1560   -1.1510  -20.2610 N.am      1 LYS        -0.2634
     37 CA         17.9870   -0.2510  -19.1930 C.3       1 LYS         0.1337
     38 C          18.2940    1.1560  -19.7480 C.2       1 LYS         0.2067
     39 O          18.9830    1.3300  -20.7200 O.2       1 LYS        -0.3942
     40 CB         18.8510   -0.6080  -17.9600 C.3       1 LYS        -0.0037
     41 CG1        20.3680   -0.5500  -18.3160 C.3       1 LYS        -0.0491
     42 CG2        18.4250   -1.9560  -17.4090 C.3       1 LYS        -0.0582
     43 CD1        21.3240   -0.8900  -17.1780 C.3       1 LYS        -0.0648
     44 N          17.7920    2.1790  -19.0750 N.am      1 LYS        -0.2498
     45 CA         18.0650    3.5440  -19.4840 C.3       1 LYS         0.1338
     46 C          19.5640    3.8230  -19.3700 C.2       1 LYS         0.2042
     47 O          20.1310    3.6250  -18.2990 O.2       1 LYS        -0.3944
     48 CB         17.2580    4.3710  -18.4360 C.3       1 LYS        -0.0104
     49 CG         16.0880    3.5200  -18.1130 C.3       1 LYS        -0.0281
     50 CD         16.5750    2.0920  -18.2340 C.3       1 LYS         0.0369
     51 N          20.1690    4.2380  -20.4850 N.am      1 LYS        -0.2619
     52 CA         21.6150    4.5390  -20.5590 C.3       1 LYS         0.1421
     53 C          21.9360    5.7630  -19.7870 C.2       1 LYS         0.2054
     54 O          22.1410    6.8870  -20.3840 O.2       1 LYS        -0.3942
     55 CB         22.0620    4.8370  -21.9850 C.3       1 LYS         0.0427
     56 CG         22.4570    3.6360  -22.7520 C.2       1 LYS         0.0561
     57 ND1        22.8040    2.4390  -22.1560 N.pl3     1 LYS        -0.2623
     58 CD2        22.6050    3.4580  -24.0810 C.2       1 LYS        -0.0276
     59 CE1        23.1250    1.5660  -23.0910 C.2       1 LYS         0.0875
     60 NE2        23.0160    2.1610  -24.2670 N.2       1 LYS        -0.3437
     61 N          22.0020    5.5830  -18.4740 N.am      1 LYS        -0.2693
     62 CA         22.0230    6.7290  -17.6040 C.3       1 LYS         0.0945
     63 C          22.5370    6.3230  -16.2500 C.2       1 LYS         0.0601
     64 O          23.2960    5.3550  -16.1540 O.co2     1 LYS        -0.5666
     65 CB         20.6020    7.2760  -17.5060 C.3       1 LYS        -0.0148
     66 CG         19.9690    7.5840  -18.8800 C.3       1 LYS        -0.0162
     67 CD         18.6290    6.9960  -18.9850 C.3       1 LYS         0.0627
     68 NE         17.5700    7.9610  -19.1630 N.pl3     1 LYS        -0.2723
     69 CZ         16.4840    7.7870  -19.9340 C.cat     1 LYS         0.2882
     70 NH1        15.5480    8.7330  -19.9650 N.pl3     1 LYS        -0.2849
     71 NH2        16.3060    6.6880  -20.6930 N.pl3     1 LYS        -0.2849
     72 OXT        22.1930    6.9630  -15.2530 O.co2     1 LYS        -0.5666
     73 H1          7.3793  -11.1349  -25.5896 H         1 LYS         0.2015
     74 H2          8.9538  -11.4408  -25.9590 H         1 LYS         0.2015
     75 H3          8.4633   -9.8982  -25.6604 H         1 LYS         0.2015
     76 H4          7.9828  -10.3854  -23.3676 H         1 LYS         0.1098
     77 H5          7.3341  -12.5269  -23.0757 H         1 LYS         0.0346
     78 H6          9.0797  -12.7823  -22.7377 H         1 LYS         0.0346
     79 H7          9.4571  -13.6011  -24.9920 H         1 LYS         0.0270
     80 H8          7.7775  -13.1834  -25.4726 H         1 LYS         0.0270
     81 H9          7.3462  -14.8079  -23.2843 H         1 LYS         0.0317
     82 H10         8.8185  -15.5427  -24.0046 H         1 LYS         0.0317
     83 H11         7.2024  -14.9051  -26.2175 H         1 LYS         0.0813
     84 H12         6.0462  -15.5226  -24.9893 H         1 LYS         0.0813
     85 H13         6.9406  -17.2757  -26.3423 H         1 LYS         0.1994
     86 H14         7.4234  -17.4673  -24.7804 H         1 LYS         0.1994
     87 H15         8.4830  -16.9014  -25.9059 H         1 LYS         0.1994
     88 H16         9.9566   -9.1829  -25.0135 H         1 LYS         0.1885
     89 H17        12.5797   -9.9933  -23.8637 H         1 LYS         0.0802
     90 H18        11.7437   -8.1786  -26.1758 H         1 LYS         0.0343
     91 H19        14.1475   -8.1420  -26.7579 H         1 LYS         0.0234
     92 H20        14.5259   -9.0629  -25.2629 H         1 LYS         0.0234
     93 H21        13.8584   -7.3992  -25.1482 H         1 LYS         0.0234
     94 H22        11.4357  -10.6442  -26.5596 H         1 LYS         0.0234
     95 H23        13.1479  -10.9223  -26.0931 H         1 LYS         0.0234
     96 H24        12.7619   -9.9818  -27.5740 H         1 LYS         0.0234
     97 H25        13.4679   -8.8065  -22.1907 H         1 LYS         0.1883
     98 H26        12.0462   -6.5047  -21.1429 H         1 LYS         0.0797
     99 H27        13.9459   -6.2755  -19.6035 H         1 LYS         0.0277
    100 H28        14.8489   -7.5129  -20.5416 H         1 LYS         0.0277
    101 H29        13.3362   -7.9632  -19.6839 H         1 LYS         0.0277
    102 H30        14.0675   -3.8358  -23.8611 H         1 LYS         0.0802
    103 H31        12.4412   -2.2496  -23.7161 H         1 LYS         0.0313
    104 H32        13.6840   -1.3311  -22.8005 H         1 LYS         0.0313
    105 H33        11.3183   -1.8212  -21.7036 H         1 LYS         0.0287
    106 H34        12.8125   -1.9913  -20.7212 H         1 LYS         0.0287
    107 H35        11.8205   -4.1588  -20.4577 H         1 LYS         0.0524
    108 H36        11.1996   -4.1773  -22.1431 H         1 LYS         0.0524
    109 H37        17.9940   -3.0263  -21.9412 H         1 LYS         0.0802
    110 H38        18.9481   -2.2481  -23.9592 H         1 LYS         0.0313
    111 H39        18.8681   -0.6434  -23.1559 H         1 LYS         0.0313
    112 H40        17.6627   -1.0547  -25.4921 H         1 LYS         0.0287
    113 H41        16.8705   -0.0727  -24.2135 H         1 LYS         0.0287
    114 H42        15.2003   -1.6854  -24.6280 H         1 LYS         0.0524
    115 H43        16.3990   -2.9783  -24.9721 H         1 LYS         0.0524
    116 H44        18.9245   -1.7908  -20.2722 H         1 LYS         0.1883
    117 H45        16.9344   -0.2801  -18.8750 H         1 LYS         0.0803
    118 H46        18.6645    0.1458  -17.1809 H         1 LYS         0.0345
    119 H47        20.5970    0.4703  -18.6572 H         1 LYS         0.0267
    120 H48        20.5509   -1.2605  -19.1356 H         1 LYS         0.0267
    121 H49        17.3498   -1.9344  -17.1779 H         1 LYS         0.0235
    122 H50        18.9927   -2.1735  -16.4923 H         1 LYS         0.0235
    123 H51        18.6235   -2.7374  -18.1573 H         1 LYS         0.0235
    124 H52        22.3614   -0.8184  -17.5369 H         1 LYS         0.0230
    125 H53        21.1272   -1.9138  -16.8273 H         1 LYS         0.0230
    126 H54        21.1733   -0.1830  -16.3489 H         1 LYS         0.0230
    127 H55        17.7195    3.7425  -20.5093 H         1 LYS         0.0802
    128 H56        16.9341    5.3310  -18.8642 H         1 LYS         0.0313
    129 H57        17.8640    4.5564  -17.5369 H         1 LYS         0.0313
    130 H58        15.2694    3.7076  -18.8234 H         1 LYS         0.0287
    131 H59        15.7385    3.7207  -17.0895 H         1 LYS         0.0287
    132 H60        16.8168    1.6795  -17.2434 H         1 LYS         0.0524
    133 H61        15.8136    1.4623  -18.7175 H         1 LYS         0.0524
    134 H62        19.6172    4.3510  -21.3113 H         1 LYS         0.1885
    135 H63        22.1773    3.6813  -20.1614 H         1 LYS         0.0824
    136 H64        22.9235    5.5197  -21.9425 H         1 LYS         0.0491
    137 H65        21.2311    5.3275  -22.5132 H         1 LYS         0.0491
    138 H66        22.8109    2.2572  -21.1422 H         1 LYS         0.2386
    139 H67        22.4316    4.2010  -24.8580 H         1 LYS         0.0324
    140 H68        23.4276    0.5334  -22.9235 H         1 LYS         0.1149
    141 H69        22.0368    4.6593  -18.0925 H         1 LYS         0.1875
    142 H70        22.6840    7.5014  -18.0240 H         1 LYS         0.0726
    143 H71        20.6253    8.2045  -16.9166 H         1 LYS         0.0307
    144 H72        19.9761    6.5313  -16.9925 H         1 LYS         0.0307
    145 H73        20.6080    7.1667  -19.6722 H         1 LYS         0.0301
    146 H74        19.8942    8.6743  -19.0054 H         1 LYS         0.0301
    147 H75        18.4279    6.4297  -18.0637 H         1 LYS         0.0689
    148 H76        18.6195    6.3112  -19.8458 H         1 LYS         0.0689
    149 H77        17.6540    8.8548  -18.6581 H         1 LYS         0.2642
    150 H78        14.7110    8.6103  -20.5526 H         1 LYS         0.2615
    151 H79        15.6607    9.5877  -19.4014 H         1 LYS         0.2615
    152 H80        17.0135    5.9394  -20.6893 H         1 LYS         0.2615
    153 H81        15.4624    6.5965  -21.2769 H         1 LYS         0.2615
@<TRIPOS>BOND
     1    1    2 1  
     2    2    3 1  
     3    2    5 1  
     4    3    4 2  
     5    3   10 am 
     6    5    6 1  
     7    6    7 1  
     8    7    8 1  
     9    8    9 1  
    10   10   11 1  
    11   11   12 1  
    12   11   14 1  
    13   12   13 2  
    14   12   17 am 
    15   14   15 1  
    16   14   16 1  
    17   17   18 1  
    18   18   19 1  
    19   18   21 1  
    20   19   20 2  
    21   19   22 am 
    22   22   23 1  
    23   22   28 1  
    24   23   24 1  
    25   23   26 1  
    26   24   25 2  
    27   24   29 am 
    28   26   27 1  
    29   27   28 1  
    30   29   30 1  
    31   29   35 1  
    32   30   31 1  
    33   30   33 1  
    34   31   32 2  
    35   31   36 am 
    36   33   34 1  
    37   34   35 1  
    38   36   37 1  
    39   37   38 1  
    40   37   40 1  
    41   38   39 2  
    42   38   44 am 
    43   40   41 1  
    44   40   42 1  
    45   41   43 1  
    46   44   45 1  
    47   44   50 1  
    48   45   46 1  
    49   45   48 1  
    50   46   47 2  
    51   46   51 am 
    52   48   49 1  
    53   49   50 1  
    54   51   52 1  
    55   52   53 1  
    56   52   55 1  
    57   53   54 2  
    58   53   61 am 
    59   55   56 1  
    60   56   57 1  
    61   56   58 2  
    62   57   59 1  
    63   58   60 1  
    64   59   60 2  
    65   61   62 1  
    66   62   63 1  
    67   62   65 1  
    68   63   64 ar 
    69   63   72 ar 
    70   65   66 1  
    71   66   67 1  
    72   67   68 1  
    73   68   69 ar 
    74   69   70 ar 
    75   69   71 ar 
    76    1   73 1  
    77    1   74 1  
    78    1   75 1  
    79    2   76 1  
    80    5   77 1  
    81    5   78 1  
    82    6   79 1  
    83    6   80 1  
    84    7   81 1  
    85    7   82 1  
    86    8   83 1  
    87    8   84 1  
    88    9   85 1  
    89    9   86 1  
    90    9   87 1  
    91   10   88 1  
    92   11   89 1  
    93   14   90 1  
    94   15   91 1  
    95   15   92 1  
    96   15   93 1  
    97   16   94 1  
    98   16   95 1  
    99   16   96 1  
   100   17   97 1  
   101   18   98 1  
   102   21   99 1  
   103   21  100 1  
   104   21  101 1  
   105   23  102 1  
   106   26  103 1  
   107   26  104 1  
   108   27  105 1  
   109   27  106 1  
   110   28  107 1  
   111   28  108 1  
   112   30  109 1  
   113   33  110 1  
   114   33  111 1  
   115   34  112 1  
   116   34  113 1  
   117   35  114 1  
   118   35  115 1  
   119   36  116 1  
   120   37  117 1  
   121   40  118 1  
   122   41  119 1  
   123   41  120 1  
   124   42  121 1  
   125   42  122 1  
   126   42  123 1  
   127   43  124 1  
   128   43  125 1  
   129   43  126 1  
   130   45  127 1  
   131   48  128 1  
   132   48  129 1  
   133   49  130 1  
   134   49  131 1  
   135   50  132 1  
   136   50  133 1  
   137   51  134 1  
   138   52  135 1  
   139   55  136 1  
   140   55  137 1  
   141   57  138 1  
   142   58  139 1  
   143   59  140 1  
   144   61  141 1  
   145   62  142 1  
   146   65  143 1  
   147   65  144 1  
   148   66  145 1  
   149   66  146 1  
   150   67  147 1  
   151   67  148 1  
   152   68  149 1  
   153   70  150 1  
   154   70  151 1  
   155   71  152 1  
   156   71  153 1  
@<TRIPOS>SUBSTRUCTURE
     1 LYS         1

