4sga_ligand
  -I-interpret- 

 66 68  0  0  0  0  0  0  0  0999 V2000
  -22.2210   28.1290   21.0250 C   0  0  0  0  0
  -22.2240   27.5230   22.1010 O   0  0  0  0  0
  -23.2220   29.1970   20.6900 C   0  0  0  0  0
  -21.3130   27.9230   19.9930 N   0  0  0  0  0
  -20.3880   26.7870   20.2670 C   0  0  0  0  0
  -19.4680   27.2130   21.3800 C   0  0  0  0  0
  -19.2570   28.4330   21.6630 O   0  0  0  0  0
  -19.7440   26.5000   18.9320 C   0  0  0  0  0
  -19.5700   27.8800   18.3390 C   0  0  0  0  0
  -20.8530   28.6030   18.7130 C   0  0  0  0  0
  -18.9280   26.2020   22.0360 N   0  0  0  0  0
  -17.9930   26.3860   23.1590 C   0  0  0  0  0
  -16.9970   25.2210   23.1840 C   0  0  0  0  0
  -17.3090   24.1220   22.6980 O   0  0  0  0  0
  -18.7620   26.3680   24.4790 C   0  0  0  0  0
  -15.8730   25.4930   23.8010 N   0  0  0  0  0
  -14.8060   24.4890   23.9400 C   0  0  0  0  0
  -15.2650   23.4290   24.9180 C   0  0  0  0  0
  -15.8060   23.8240   25.9940 O   0  0  0  0  0
  -13.6030   25.2550   24.4800 C   0  0  0  0  0
  -13.9880   26.7250   24.4470 C   0  0  0  0  0
  -15.4900   26.7860   24.4130 C   0  0  0  0  0
  -15.1210   22.1650   24.5800 N   0  0  0  0  0
  -15.5020   21.0920   25.5050 C   0  0  0  0  0
  -14.2710   20.7260   26.3970 C   0  0  0  0  0
  -14.2590   19.5170   26.8480 O   0  0  0  0  0
  -16.1200   19.9100   24.7680 C   0  0  0  0  0
  -17.5120   20.2190   24.2200 C   0  0  0  0  0
  -18.2710   21.2290   24.8010 C   0  0  0  0  0
  -18.0220   19.4410   23.1880 C   0  0  0  0  0
  -19.5630   21.5050   24.3170 C   0  0  0  0  0
  -19.3190   19.7080   22.6900 C   0  0  0  0  0
  -20.0830   20.7480   23.2690 C   0  0  0  0  0
  -13.3260   21.5230   26.7990 O   0  0  0  0  0
  -24.2262   28.7742   20.7198 H   0  0  0  0  0
  -23.1452   30.0059   21.4166 H   0  0  0  0  0
  -23.0186   29.5834   19.6913 H   0  0  0  0  0
  -20.8396   25.8610   20.6231 H   0  0  0  0  0
  -20.3448   25.8417   18.3044 H   0  0  0  0  0
  -18.8037   25.9563   19.0232 H   0  0  0  0  0
  -18.6834   28.3859   18.7211 H   0  0  0  0  0
  -19.4108   27.8502   17.2611 H   0  0  0  0  0
  -20.6940   29.6723   18.8525 H   0  0  0  0  0
  -21.6027   28.5398   17.9243 H   0  0  0  0  0
  -19.1690   25.2523   21.7526 H   0  0  0  0  0
  -17.4750   27.3369   23.0340 H   0  0  0  0  0
  -19.4944   27.1752   24.4824 H   0  0  0  0  0
  -19.2732   25.4114   24.5872 H   0  0  0  0  0
  -18.0651   26.5045   25.3059 H   0  0  0  0  0
  -14.5585   23.9886   23.0038 H   0  0  0  0  0
  -12.7144   25.0675   23.8772 H   0  0  0  0  0
  -13.3556   24.9358   25.4924 H   0  0  0  0  0
  -13.6009   27.2446   25.3235 H   0  0  0  0  0
  -13.5624   27.2154   23.5715 H   0  0  0  0  0
  -15.9256   26.9260   25.4023 H   0  0  0  0  0
  -15.8613   27.6419   23.8495 H   0  0  0  0  0
  -14.7399   21.9287   23.6638 H   0  0  0  0  0
  -16.2914   21.4345   26.1741 H   0  0  0  0  0
  -16.2144   19.0866   25.4760 H   0  0  0  0  0
  -15.4744   19.6675   23.9239 H   0  0  0  0  0
  -17.8651   21.8068   25.6313 H   0  0  0  0  0
  -17.4274   18.6311   22.7653 H   0  0  0  0  0
  -20.1541   22.3068   24.7595 H   0  0  0  0  0
  -19.7254   19.1182   21.8684 H   0  0  0  0  0
  -21.0843   20.9585   22.8933 H   0  0  0  0  0
  -13.4443   22.3864   26.3964 H   0  0  0  0  0
  1  2  2  0  0  0
  1  3  1  0  0  0
  6  5  1  0  0  0
  5  8  1  0  0  0
  5  4  1  0  0  0
  4 10  1  0  0  0
 10  9  1  0  0  0
  8  9  1  0  0  0
  6  7  2  0  0  0
  4  1  1  0  0  0
 12 11  1  0  0  0
 12 15  1  0  0  0
 13 12  1  0  0  0
 13 14  2  0  0  0
 11  6  1  0  0  0
 18 17  1  0  0  0
 17 20  1  0  0  0
 17 16  1  0  0  0
 16 22  1  0  0  0
 22 21  1  0  0  0
 20 21  1  0  0  0
 18 19  2  0  0  0
 16 13  1  0  0  0
 23 24  1  0  0  0
 24 27  1  0  0  0
 24 25  1  0  0  0
 25 26  2  0  0  0
 25 34  1  0  0  0
 27 28  1  0  0  0
 28 29  4  0  0  0
 28 30  4  0  0  0
 30 32  4  0  0  0
 32 33  4  0  0  0
 31 33  4  0  0  0
 29 31  4  0  0  0
 18 23  1  0  0  0
  3 35  1  0  0  0
  3 36  1  0  0  0
  3 37  1  0  0  0
  5 38  1  0  0  0
  8 39  1  0  0  0
  8 40  1  0  0  0
  9 41  1  0  0  0
  9 42  1  0  0  0
 10 43  1  0  0  0
 10 44  1  0  0  0
 11 45  1  0  0  0
 12 46  1  0  0  0
 15 47  1  0  0  0
 15 48  1  0  0  0
 15 49  1  0  0  0
 17 50  1  0  0  0
 20 51  1  0  0  0
 20 52  1  0  0  0
 21 53  1  0  0  0
 21 54  1  0  0  0
 22 55  1  0  0  0
 22 56  1  0  0  0
 23 57  1  0  0  0
 24 58  1  0  0  0
 27 59  1  0  0  0
 27 60  1  0  0  0
 29 61  1  0  0  0
 30 62  1  0  0  0
 31 63  1  0  0  0
 32 64  1  0  0  0
 33 65  1  0  0  0
 34 66  1  0  0  0
M  END
$$$$
