5ei6_ligand
  -I-interpret- 

 47 50  0  0  0  0  0  0  0  0999 V2000
    2.8740   18.5350  -14.0140 C   0  0  0  0  0
    2.2470   19.2810  -13.0640 C   0  0  0  0  0
    1.4410   18.6650  -12.0810 C   0  0  0  0  0
    1.2890   17.2550  -12.0940 C   0  0  0  0  0
    1.9560   16.5070  -13.1130 C   0  0  0  0  0
    0.4730   16.6600  -11.1070 C   0  0  0  0  0
   -0.1500   17.4910  -10.1690 C   0  0  0  0  0
    0.7510   19.3760  -11.0760 C   0  0  0  0  0
   -1.1690   15.6320   -8.8680 C   0  0  0  0  0
   -1.4440   14.6730   -9.8350 C   0  0  0  0  0
    1.7770   15.0290  -13.2010 C   0  0  0  0  0
   -1.5970   12.9920   -8.1360 C   0  0  0  0  0
   -1.6560   13.3570   -9.4710 C   0  0  0  0  0
   -1.9450   10.6620   -8.6030 C   0  0  0  0  0
   -1.8140   11.7250   -7.6630 O   0  0  0  0  0
   -1.3190   13.9350   -7.1610 C   0  0  0  0  0
   -1.1050   15.2500   -7.5280 C   0  0  0  0  0
   -0.8080   16.2620   -6.6590 O   0  0  0  0  0
   -1.1040   16.0640   -5.2800 C   0  0  0  0  0
   -0.9590   16.9690   -9.1820 N   0  0  0  0  0
   -0.0120   18.8260  -10.1590 N   0  0  0  0  0
    2.7340   17.1580  -14.0430 C   0  0  0  0  0
    2.4400   13.9980  -12.5190 C   0  0  0  0  0
    1.9610   12.8100  -12.8370 N   0  0  0  0  0
    0.9910   13.0700  -13.7260 N   0  0  0  0  0
    0.2240   11.9710  -14.2970 C   0  0  0  0  0
    0.8510   14.3770  -13.9730 C   0  0  0  0  0
    3.4947   19.0283  -14.7620 H   0  0  0  0  0
    2.3679   20.3643  -13.0616 H   0  0  0  0  0
    0.3318   15.5796  -11.0765 H   0  0  0  0  0
    0.8591   20.4605  -11.0595 H   0  0  0  0  0
   -1.4927   14.9600  -10.8854 H   0  0  0  0  0
   -1.8693   12.6074  -10.2330 H   0  0  0  0  0
   -2.7902   10.8629   -9.2613 H   0  0  0  0  0
   -1.0323   10.5869   -9.1941 H   0  0  0  0  0
   -2.1123    9.7260   -8.0701 H   0  0  0  0  0
   -1.2693   13.6424   -6.1122 H   0  0  0  0  0
   -2.1734   15.8903   -5.1606 H   0  0  0  0  0
   -0.5509   15.2001   -4.9114 H   0  0  0  0  0
   -0.8134   16.9506   -4.7164 H   0  0  0  0  0
   -1.4652   17.6474   -8.6128 H   0  0  0  0  0
    3.2469   16.5816  -14.8129 H   0  0  0  0  0
    3.2533   14.1587  -11.8113 H   0  0  0  0  0
    0.8972   11.2956  -14.8249 H   0  0  0  0  0
   -0.2829   11.4298  -13.4981 H   0  0  0  0  0
   -0.5142   12.3682  -14.9937 H   0  0  0  0  0
    0.1372   14.8358  -14.6572 H   0  0  0  0  0
  2  1  4  0  0  0
 22  1  4  0  0  0
  3  2  4  0  0  0
  4  3  4  0  0  0
  8  3  4  0  0  0
  4  5  4  0  0  0
  6  4  4  0  0  0
  5 11  1  0  0  0
  5 22  4  0  0  0
  7  6  4  0  0  0
 20  7  1  0  0  0
  7 21  4  0  0  0
 21  8  4  0  0  0
  9 10  4  0  0  0
  9 17  4  0  0  0
  9 20  1  0  0  0
 10 13  4  0  0  0
 11 23  4  0  0  0
 11 27  4  0  0  0
 13 12  4  0  0  0
 12 15  1  0  0  0
 12 16  4  0  0  0
 15 14  1  0  0  0
 16 17  4  0  0  0
 17 18  1  0  0  0
 18 19  1  0  0  0
 23 24  4  0  0  0
 24 25  4  0  0  0
 25 26  1  0  0  0
 25 27  4  0  0  0
  1 28  1  0  0  0
  2 29  1  0  0  0
  6 30  1  0  0  0
  8 31  1  0  0  0
 10 32  1  0  0  0
 13 33  1  0  0  0
 14 34  1  0  0  0
 14 35  1  0  0  0
 14 36  1  0  0  0
 16 37  1  0  0  0
 19 38  1  0  0  0
 19 39  1  0  0  0
 19 40  1  0  0  0
 20 41  1  0  0  0
 22 42  1  0  0  0
 23 43  1  0  0  0
 26 44  1  0  0  0
 26 45  1  0  0  0
 26 46  1  0  0  0
 27 47  1  0  0  0
M  END
$$$$
