### 
### Created by X-TOOL on Mon Sep 10 21:13:07 2018
### 

@<TRIPOS>MOLECULE
3sou_ligand
  138   137     1     0     0
SMALL
GAST_HUCK


@<TRIPOS>ATOM
      1 N          29.6500   12.9720   87.7300 N.4       1 ALA         0.2377
      2 CA         29.4010   12.3020   86.4570 C.3       1 ALA         0.0621
      3 C          29.3280   13.3140   85.3200 C.2       1 ALA         0.2264
      4 O          29.0060   14.4780   85.5380 O.2       1 ALA        -0.3907
      5 CB         28.1070   11.4800   86.5310 C.3       1 ALA        -0.0040
      6 N          29.6410   12.8680   84.1120 N.am      1 ARG        -0.2610
      7 CA         29.5280   13.7300   82.9440 C.3       1 ARG         0.1312
      8 C          28.0790   13.8730   82.5450 C.2       1 ARG         0.2040
      9 O          27.3380   12.8920   82.5850 O.2       1 ARG        -0.3944
     10 CB         30.2710   13.1270   81.7630 C.3       1 ARG        -0.0092
     11 CG         31.7570   13.0420   81.9340 C.3       1 ARG        -0.0156
     12 CD         32.3740   12.6100   80.6160 C.3       1 ARG         0.0627
     13 NE         32.0550   11.2200   80.2980 N.pl3     1 ARG        -0.2723
     14 CZ         31.6320   10.8130   79.1090 C.cat     1 ARG         0.2882
     15 NH1        31.4660   11.6950   78.1350 N.pl3     1 ARG        -0.2849
     16 NH2        31.3650    9.5300   78.9000 N.pl3     1 ARG        -0.2849
     17 N          27.6740   15.0830   82.1650 N.am      1 THR        -0.2613
     18 CA         26.3620   15.2740   81.5550 C.3       1 THR         0.1565
     19 C          26.5790   15.8470   80.1640 C.2       1 THR         0.2065
     20 O          27.6700   16.3370   79.8490 O.2       1 THR        -0.3943
     21 CB         25.4180   16.1710   82.3970 C.3       1 THR         0.0924
     22 OG1        26.0900   17.3850   82.7670 O.3       1 THR        -0.3874
     23 CG2        24.9780   15.4380   83.6640 C.3       1 THR        -0.0346
     24 N          25.5660   15.7620   79.3180 N.am      1 LYS        -0.2637
     25 CA         25.7200   16.2250   77.9500 C.3       1 LYS         0.1310
     26 C          26.0630   17.7160   77.9310 C.2       1 LYS         0.2039
     27 O          26.7650   18.1980   77.0380 O.2       1 LYS        -0.3944
     28 CB         24.4600   15.9340   77.1450 C.3       1 LYS        -0.0122
     29 CG         24.5050   16.4830   75.7400 C.3       1 LYS        -0.0440
     30 CD         23.5530   15.7270   74.8660 C.3       1 LYS        -0.0124
     31 CE         24.0740   14.3340   74.5640 C.3       1 LYS        -0.0354
     32 NZ         23.0940   13.6590   73.6640 N.4       1 LYS         0.2185
     33 N          25.5810   18.4270   78.9430 N.am      1 GLN        -0.2636
     34 CA         25.8530   19.8490   79.1180 C.3       1 GLN         0.1330
     35 C          25.9730   20.1610   80.6060 C.2       1 GLN         0.2041
     36 O          25.3450   19.5020   81.4380 O.2       1 GLN        -0.3944
     37 CB         24.7250   20.6780   78.5010 C.3       1 GLN         0.0045
     38 CG         24.5410   22.0550   79.1190 C.3       1 GLN         0.0412
     39 CD         23.2100   22.6770   78.7320 C.2       1 GLN         0.1737
     40 OE1        22.3200   22.8620   79.5730 O.2       1 GLN        -0.3973
     41 NE2        23.0590   22.9860   77.4480 N.am      1 GLN        -0.3009
     42 N          26.7860   21.1540   80.9580 N.am      1 THR        -0.2613
     43 CA         26.9580   21.4980   82.3610 C.3       1 THR         0.1565
     44 C          26.7060   22.9870   82.6040 C.2       1 THR         0.2065
     45 O          26.8440   23.8060   81.6880 O.2       1 THR        -0.3943
     46 CB         28.3590   21.0800   82.8760 C.3       1 THR         0.0924
     47 OG1        28.2300   20.3770   84.1220 O.3       1 THR        -0.3874
     48 CG2        29.2670   22.2990   83.0500 C.3       1 THR        -0.0346
     49 N          26.3210   23.3260   83.8340 N.am      1 ALA        -0.2639
     50 CA         26.0640   24.7180   84.2000 C.3       1 ALA         0.1282
     51 C          27.3140   25.5550   83.9690 C.2       1 ALA         0.2031
     52 O          27.2680   26.5850   83.2860 O.2       1 ALA        -0.3944
     53 CB         25.6050   24.8220   85.6530 C.3       1 ALA        -0.0244
     54 N          28.4350   25.1080   84.5310 N.am      1 ARG        -0.2695
     55 CA         29.7030   25.7920   84.3030 C.3       1 ARG         0.0945
     56 C          30.0540   25.7800   82.8160 C.2       1 ARG         0.0601
     57 O          30.7540   26.6690   82.3250 O.co2     1 ARG        -0.5666
     58 CB         30.8410   25.1630   85.1220 C.3       1 ARG        -0.0148
     59 CG         32.0970   26.0300   85.1320 C.3       1 ARG        -0.0162
     60 CD         33.3110   25.3530   85.7690 C.3       1 ARG         0.0627
     61 NE         33.3140   25.4460   87.2230 N.pl3     1 ARG        -0.2723
     62 CZ         34.3560   25.8270   87.9560 C.cat     1 ARG         0.2882
     63 NH1        35.5000   26.1790   87.3810 N.pl3     1 ARG        -0.2849
     64 NH2        34.2480   25.8660   89.2760 N.pl3     1 ARG        -0.2849
     65 H          30.5120   13.5134   87.6650 H         1 ALA         0.2015
     66 H          28.8710   13.5951   87.9430 H         1 ALA         0.2015
     67 H          29.7403   12.2740   88.4683 H         1 ALA         0.2015
     68 H          30.2313   11.6250   86.2564 H         1 ALA         0.1095
     69 H          27.2633   12.1478   86.7050 H         1 ALA         0.0310
     70 H          27.9624   10.9470   85.5913 H         1 ALA         0.0310
     71 H          28.1795   10.7634   87.3492 H         1 ALA         0.0310
     72 H          29.9655   11.9076   83.9989 H         1 ARG         0.1884
     73 H          29.9544   14.6991   83.2032 H         1 ARG         0.0800
     74 H          30.0872   13.7771   80.9076 H         1 ARG         0.0313
     75 H          29.9065   12.1063   81.6471 H         1 ARG         0.0313
     76 H          31.9996   12.3178   82.7117 H         1 ARG         0.0301
     77 H          32.1525   14.0145   82.2271 H         1 ARG         0.0301
     78 H          33.4569   12.7032   80.6975 H         1 ARG         0.0689
     79 H          31.9721   13.2435   79.8253 H         1 ARG         0.0689
     80 H          32.1641   10.5219   81.0337 H         1 ARG         0.2642
     81 H          31.6633   12.6818   78.3015 H         1 ARG         0.2615
     82 H          31.1408   11.3875   77.2184 H         1 ARG         0.2615
     83 H          31.4850    8.8545   79.6548 H         1 ARG         0.2615
     84 H          31.0397    9.2193   77.9845 H         1 ARG         0.2615
     85 H          28.2879   15.8860   82.3018 H         1 THR         0.1884
     86 H          25.8558   14.3101   81.5015 H         1 THR         0.0826
     87 H          24.5418   16.4072   81.7932 H         1 THR         0.0639
     88 H          26.3515   17.8591   81.9742 H         1 THR         0.2101
     89 H          24.4500   14.5249   83.3891 H         1 THR         0.0257
     90 H          25.8553   15.1865   84.2599 H         1 THR         0.0257
     91 H          24.3160   16.0817   84.2433 H         1 THR         0.0257
     92 H          24.6759   15.3710   79.6265 H         1 LYS         0.1883
     93 H          26.5441   15.6849   77.4839 H         1 LYS         0.0800
     94 H          23.6253   16.4122   77.6576 H         1 LYS         0.0312
     95 H          24.3605   14.8511   77.0712 H         1 LYS         0.0312
     96 H          25.5156   16.3780   75.3454 H         1 LYS         0.0269
     97 H          24.2199   17.5349   75.7560 H         1 LYS         0.0269
     98 H          23.4392   16.2674   73.9262 H         1 LYS         0.0317
     99 H          22.5995   15.6368   75.3864 H         1 LYS         0.0317
    100 H          24.1889   13.7669   75.4877 H         1 LYS         0.0813
    101 H          25.0492   14.3937   74.0809 H         1 LYS         0.0813
    102 H          23.4248   12.7187   73.4474 H         1 LYS         0.1994
    103 H          22.1885   13.6032   74.1302 H         1 LYS         0.1994
    104 H          23.0011   14.1952   72.8013 H         1 LYS         0.1994
    105 H          24.9926   17.9566   79.6307 H         1 GLN         0.1883
    106 H          26.7878   20.1019   78.6177 H         1 GLN         0.0801
    107 H          23.7985   20.1283   78.6671 H         1 GLN         0.0337
    108 H          24.9797   20.8313   77.4523 H         1 GLN         0.0337
    109 H          25.3391   22.7021   78.7552 H         1 GLN         0.0504
    110 H          24.5659   21.9488   80.2035 H         1 GLN         0.0504
    111 H          22.1827   23.3929   77.1210 H         1 GLN         0.1814
    112 H          23.8194   22.8162   76.7897 H         1 GLN         0.1814
    113 H          27.2905   21.6759   80.2414 H         1 THR         0.1884
    114 H          26.2142   20.9382   82.9280 H         1 THR         0.0826
    115 H          28.8152   20.4222   82.1362 H         1 THR         0.0639
    116 H          29.1006   20.1211   84.4354 H         1 THR         0.2101
    117 H          29.3833   22.8037   82.0909 H         1 THR         0.0257
    118 H          28.8197   22.9838   83.7705 H         1 THR         0.0257
    119 H          30.2427   21.9750   83.4122 H         1 THR         0.0257
    120 H          26.2028   22.5966   84.5372 H         1 ALA         0.1883
    121 H          25.2630   25.1021   83.5684 H         1 ALA         0.0797
    122 H          24.6874   24.2486   85.7847 H         1 ALA         0.0277
    123 H          26.3807   24.4239   86.3071 H         1 ALA         0.0277
    124 H          25.4205   25.8674   85.9005 H         1 ALA         0.0277
    125 H          28.4070   24.2801   85.1261 H         1 ARG         0.1875
    126 H          29.5854   26.8239   84.6337 H         1 ARG         0.0726
    127 O          29.6232   24.8506   82.0823 O.co2     1 ARG        -0.5666
    128 H          31.0952   24.2056   84.6671 H         1 ARG         0.0307
    129 H          30.4970   25.0550   86.1506 H         1 ARG         0.0307
    130 H          31.8735   26.9182   85.7230 H         1 ARG         0.0301
    131 H          32.3521   26.2436   84.0940 H         1 ARG         0.0301
    132 H          34.2046   25.8574   85.4013 H         1 ARG         0.0689
    133 H          33.2806   24.2964   85.5030 H         1 ARG         0.0689
    134 H          32.4544   25.2011   87.7144 H         1 ARG         0.2642
    135 H          35.5874   26.1592   86.3649 H         1 ARG         0.2615
    136 H          36.2914   26.4692   87.9554 H         1 ARG         0.2615
    137 H          33.3696   25.6047   89.7238 H         1 ARG         0.2615
    138 H          35.0433   26.1573   89.8444 H         1 ARG         0.2615
@<TRIPOS>BOND
     1    1    2 1  
     2    2    3 1  
     3    2    5 1  
     4    3    4 2  
     5    3    6 am 
     6    6    7 1  
     7    7    8 1  
     8    7   10 1  
     9    8    9 2  
    10    8   17 am 
    11   10   11 1  
    12   11   12 1  
    13   12   13 1  
    14   13   14 ar 
    15   14   15 ar 
    16   14   16 ar 
    17   17   18 1  
    18   18   19 1  
    19   18   21 1  
    20   19   20 2  
    21   19   24 am 
    22   21   22 1  
    23   21   23 1  
    24   24   25 1  
    25   25   26 1  
    26   25   28 1  
    27   26   27 2  
    28   26   33 am 
    29   28   29 1  
    30   29   30 1  
    31   30   31 1  
    32   31   32 1  
    33   33   34 1  
    34   34   35 1  
    35   34   37 1  
    36   35   36 2  
    37   35   42 am 
    38   37   38 1  
    39   38   39 1  
    40   39   40 2  
    41   39   41 am 
    42   42   43 1  
    43   43   44 1  
    44   43   46 1  
    45   44   45 2  
    46   44   49 am 
    47   46   47 1  
    48   46   48 1  
    49   49   50 1  
    50   50   51 1  
    51   50   53 1  
    52   51   52 2  
    53   51   54 am 
    54   54   55 1  
    55   55   56 1  
    56   55   58 1  
    57   56   57 ar 
    58   58   59 1  
    59   59   60 1  
    60   60   61 1  
    61   61   62 ar 
    62   62   63 ar 
    63   62   64 ar 
    64    1   65 1  
    65    1   66 1  
    66    1   67 1  
    67    2   68 1  
    68    5   69 1  
    69    5   70 1  
    70    5   71 1  
    71    6   72 1  
    72    7   73 1  
    73   10   74 1  
    74   10   75 1  
    75   11   76 1  
    76   11   77 1  
    77   12   78 1  
    78   12   79 1  
    79   13   80 1  
    80   15   81 1  
    81   15   82 1  
    82   16   83 1  
    83   16   84 1  
    84   17   85 1  
    85   18   86 1  
    86   21   87 1  
    87   22   88 1  
    88   23   89 1  
    89   23   90 1  
    90   23   91 1  
    91   24   92 1  
    92   25   93 1  
    93   28   94 1  
    94   28   95 1  
    95   29   96 1  
    96   29   97 1  
    97   30   98 1  
    98   30   99 1  
    99   31  100 1  
   100   31  101 1  
   101   32  102 1  
   102   32  103 1  
   103   32  104 1  
   104   33  105 1  
   105   34  106 1  
   106   37  107 1  
   107   37  108 1  
   108   38  109 1  
   109   38  110 1  
   110   41  111 1  
   111   41  112 1  
   112   42  113 1  
   113   43  114 1  
   114   46  115 1  
   115   47  116 1  
   116   48  117 1  
   117   48  118 1  
   118   48  119 1  
   119   49  120 1  
   120   50  121 1  
   121   53  122 1  
   122   53  123 1  
   123   53  124 1  
   124   54  125 1  
   125   55  126 1  
   126   56  127 ar 
   127   58  128 1  
   128   58  129 1  
   129   59  130 1  
   130   59  131 1  
   131   60  132 1  
   132   60  133 1  
   133   61  134 1  
   134   63  135 1  
   135   63  136 1  
   136   64  137 1  
   137   64  138 1  
@<TRIPOS>SUBSTRUCTURE
     1 ALA         1

