3sou_ligand
  -I-interpret- 

137136  0  0  0  0  0  0  0  0999 V2000
   29.6500   12.9720   87.7300 N   0  3  0  0  0
   29.4010   12.3020   86.4570 C   0  0  0  0  0
   29.3280   13.3140   85.3200 C   0  0  0  0  0
   29.0060   14.4780   85.5380 O   0  0  0  0  0
   28.1070   11.4800   86.5310 C   0  0  0  0  0
   29.6410   12.8680   84.1120 N   0  0  0  0  0
   29.5280   13.7300   82.9440 C   0  0  0  0  0
   28.0790   13.8730   82.5450 C   0  0  0  0  0
   27.3380   12.8920   82.5850 O   0  0  0  0  0
   30.2710   13.1270   81.7630 C   0  0  0  0  0
   31.7570   13.0420   81.9340 C   0  0  0  0  0
   32.3740   12.6100   80.6160 C   0  0  0  0  0
   32.0550   11.2200   80.2980 N   0  0  0  0  0
   31.6320   10.8130   79.1090 C   0  0  0  0  0
   31.4660   11.6950   78.1350 N   0  0  0  0  0
   31.3650    9.5300   78.9000 N   0  0  0  0  0
   27.6740   15.0830   82.1650 N   0  0  0  0  0
   26.3620   15.2740   81.5550 C   0  0  0  0  0
   26.5790   15.8470   80.1640 C   0  0  0  0  0
   27.6700   16.3370   79.8490 O   0  0  0  0  0
   25.4180   16.1710   82.3970 C   0  0  0  0  0
   26.0900   17.3850   82.7670 O   0  0  0  0  0
   24.9780   15.4380   83.6640 C   0  0  0  0  0
   25.5660   15.7620   79.3180 N   0  0  0  0  0
   25.7200   16.2250   77.9500 C   0  0  0  0  0
   26.0630   17.7160   77.9310 C   0  0  0  0  0
   26.7650   18.1980   77.0380 O   0  0  0  0  0
   24.4600   15.9340   77.1450 C   0  0  0  0  0
   24.5050   16.4830   75.7400 C   0  0  0  0  0
   23.5530   15.7270   74.8660 C   0  0  0  0  0
   24.0740   14.3340   74.5640 C   0  0  0  0  0
   23.0940   13.6590   73.6640 N   0  3  0  0  0
   25.5810   18.4270   78.9430 N   0  0  0  0  0
   25.8530   19.8490   79.1180 C   0  0  0  0  0
   25.9730   20.1610   80.6060 C   0  0  0  0  0
   25.3450   19.5020   81.4380 O   0  0  0  0  0
   24.7250   20.6780   78.5010 C   0  0  0  0  0
   24.5410   22.0550   79.1190 C   0  0  0  0  0
   23.2100   22.6770   78.7320 C   0  0  0  0  0
   22.3200   22.8620   79.5730 O   0  0  0  0  0
   23.0590   22.9860   77.4480 N   0  0  0  0  0
   26.7860   21.1540   80.9580 N   0  0  0  0  0
   26.9580   21.4980   82.3610 C   0  0  0  0  0
   26.7060   22.9870   82.6040 C   0  0  0  0  0
   26.8440   23.8060   81.6880 O   0  0  0  0  0
   28.3590   21.0800   82.8760 C   0  0  0  0  0
   28.2300   20.3770   84.1220 O   0  0  0  0  0
   29.2670   22.2990   83.0500 C   0  0  0  0  0
   26.3210   23.3260   83.8340 N   0  0  0  0  0
   26.0640   24.7180   84.2000 C   0  0  0  0  0
   27.3140   25.5550   83.9690 C   0  0  0  0  0
   27.2680   26.5850   83.2860 O   0  0  0  0  0
   25.6050   24.8220   85.6530 C   0  0  0  0  0
   28.4350   25.1080   84.5310 N   0  0  0  0  0
   29.7030   25.7920   84.3030 C   0  0  0  0  0
   30.0540   25.7800   82.8160 C   0  0  0  0  0
   30.7540   26.6690   82.3250 O   0  0  0  0  0
   30.8410   25.1630   85.1220 C   0  0  0  0  0
   32.0970   26.0300   85.1320 C   0  0  0  0  0
   33.3110   25.3530   85.7690 C   0  0  0  0  0
   33.3140   25.4460   87.2230 N   0  0  0  0  0
   34.3560   25.8270   87.9560 C   0  0  0  0  0
   35.5000   26.1790   87.3810 N   0  0  0  0  0
   34.2480   25.8660   89.2760 N   0  0  0  0  0
   29.6232   24.8506   82.0823 O   0  0  0  0  0
   30.5120   13.5134   87.6650 H   0  0  0  0  0
   28.8710   13.5951   87.9430 H   0  0  0  0  0
   29.7403   12.2740   88.4683 H   0  0  0  0  0
   30.2313   11.6250   86.2564 H   0  0  0  0  0
   27.2633   12.1478   86.7050 H   0  0  0  0  0
   27.9624   10.9470   85.5913 H   0  0  0  0  0
   28.1795   10.7634   87.3492 H   0  0  0  0  0
   29.9655   11.9076   83.9989 H   0  0  0  0  0
   29.9544   14.6991   83.2032 H   0  0  0  0  0
   30.0872   13.7771   80.9076 H   0  0  0  0  0
   29.9065   12.1063   81.6471 H   0  0  0  0  0
   31.9996   12.3178   82.7117 H   0  0  0  0  0
   32.1525   14.0145   82.2271 H   0  0  0  0  0
   33.4569   12.7032   80.6975 H   0  0  0  0  0
   31.9721   13.2435   79.8253 H   0  0  0  0  0
   32.1641   10.5219   81.0337 H   0  0  0  0  0
   31.6633   12.6818   78.3015 H   0  0  0  0  0
   31.0309    9.2207   77.9872 H   0  0  0  0  0
   31.4938    8.8532   79.6521 H   0  0  0  0  0
   28.2879   15.8860   82.3018 H   0  0  0  0  0
   25.8558   14.3101   81.5015 H   0  0  0  0  0
   24.5418   16.4072   81.7932 H   0  0  0  0  0
   25.4969   17.9319   83.2873 H   0  0  0  0  0
   24.4500   14.5249   83.3891 H   0  0  0  0  0
   25.8553   15.1865   84.2599 H   0  0  0  0  0
   24.3160   16.0817   84.2433 H   0  0  0  0  0
   24.6759   15.3710   79.6265 H   0  0  0  0  0
   26.5441   15.6849   77.4839 H   0  0  0  0  0
   23.6253   16.4122   77.6576 H   0  0  0  0  0
   24.3605   14.8511   77.0712 H   0  0  0  0  0
   25.5156   16.3780   75.3454 H   0  0  0  0  0
   24.2199   17.5349   75.7560 H   0  0  0  0  0
   23.4392   16.2674   73.9262 H   0  0  0  0  0
   22.5995   15.6368   75.3864 H   0  0  0  0  0
   24.1889   13.7669   75.4877 H   0  0  0  0  0
   25.0492   14.3937   74.0809 H   0  0  0  0  0
   23.4248   12.7187   73.4474 H   0  0  0  0  0
   22.1885   13.6032   74.1302 H   0  0  0  0  0
   23.0011   14.1952   72.8013 H   0  0  0  0  0
   24.9926   17.9566   79.6307 H   0  0  0  0  0
   26.7878   20.1019   78.6177 H   0  0  0  0  0
   23.7985   20.1283   78.6671 H   0  0  0  0  0
   24.9797   20.8313   77.4523 H   0  0  0  0  0
   25.3391   22.7021   78.7552 H   0  0  0  0  0
   24.5659   21.9488   80.2035 H   0  0  0  0  0
   22.1827   23.3929   77.1210 H   0  0  0  0  0
   23.8194   22.8162   76.7897 H   0  0  0  0  0
   27.2905   21.6759   80.2414 H   0  0  0  0  0
   26.2142   20.9382   82.9280 H   0  0  0  0  0
   28.8152   20.4222   82.1362 H   0  0  0  0  0
   29.1006   20.1211   84.4354 H   0  0  0  0  0
   29.3833   22.8037   82.0909 H   0  0  0  0  0
   28.8197   22.9838   83.7705 H   0  0  0  0  0
   30.2427   21.9750   83.4122 H   0  0  0  0  0
   26.2028   22.5966   84.5372 H   0  0  0  0  0
   25.2630   25.1021   83.5684 H   0  0  0  0  0
   24.6874   24.2486   85.7847 H   0  0  0  0  0
   26.3807   24.4239   86.3071 H   0  0  0  0  0
   25.4205   25.8674   85.9005 H   0  0  0  0  0
   28.4070   24.2801   85.1261 H   0  0  0  0  0
   29.5854   26.8239   84.6337 H   0  0  0  0  0
   31.0952   24.2056   84.6671 H   0  0  0  0  0
   30.4970   25.0550   86.1506 H   0  0  0  0  0
   31.8735   26.9182   85.7230 H   0  0  0  0  0
   32.3521   26.2436   84.0940 H   0  0  0  0  0
   34.2046   25.8574   85.4013 H   0  0  0  0  0
   33.2806   24.2964   85.5030 H   0  0  0  0  0
   32.4544   25.2011   87.7144 H   0  0  0  0  0
   36.2887   26.4771   87.9550 H   0  0  0  0  0
   35.5900   26.1513   86.3654 H   0  0  0  0  0
   33.3696   25.6047   89.7238 H   0  0  0  0  0
   29.0990   24.2442   82.6106 H   0  0  0  0  0
  1  2  1  0  0  0
  2  3  1  0  0  0
  2  5  1  0  0  0
  3  4  2  0  0  0
  3  6  1  0  0  0
  6  7  1  0  0  0
  7  8  1  0  0  0
  7 10  1  0  0  0
  8  9  2  0  0  0
  8 17  1  0  0  0
 10 11  1  0  0  0
 11 12  1  0  0  0
 12 13  1  0  0  0
 13 14  1  0  0  0
 14 15  2  0  0  0
 14 16  1  0  0  0
 17 18  1  0  0  0
 18 19  1  0  0  0
 18 21  1  0  0  0
 19 20  2  0  0  0
 19 24  1  0  0  0
 21 22  1  0  0  0
 21 23  1  0  0  0
 24 25  1  0  0  0
 25 26  1  0  0  0
 25 28  1  0  0  0
 26 27  2  0  0  0
 26 33  1  0  0  0
 28 29  1  0  0  0
 29 30  1  0  0  0
 30 31  1  0  0  0
 31 32  1  0  0  0
 33 34  1  0  0  0
 34 35  1  0  0  0
 34 37  1  0  0  0
 35 36  2  0  0  0
 35 42  1  0  0  0
 37 38  1  0  0  0
 38 39  1  0  0  0
 39 40  2  0  0  0
 39 41  1  0  0  0
 42 43  1  0  0  0
 43 44  1  0  0  0
 43 46  1  0  0  0
 44 45  2  0  0  0
 44 49  1  0  0  0
 46 47  1  0  0  0
 46 48  1  0  0  0
 49 50  1  0  0  0
 50 51  1  0  0  0
 50 53  1  0  0  0
 51 52  2  0  0  0
 51 54  1  0  0  0
 54 55  1  0  0  0
 55 56  1  0  0  0
 55 58  1  0  0  0
 56 57  2  0  0  0
 58 59  1  0  0  0
 59 60  1  0  0  0
 60 61  1  0  0  0
 61 62  1  0  0  0
 62 63  1  0  0  0
 62 64  2  0  0  0
 56 65  1  0  0  0
  1 66  1  0  0  0
  1 67  1  0  0  0
  1 68  1  0  0  0
  2 69  1  0  0  0
  5 70  1  0  0  0
  5 71  1  0  0  0
  5 72  1  0  0  0
  6 73  1  0  0  0
  7 74  1  0  0  0
 10 75  1  0  0  0
 10 76  1  0  0  0
 11 77  1  0  0  0
 11 78  1  0  0  0
 12 79  1  0  0  0
 12 80  1  0  0  0
 13 81  1  0  0  0
 15 82  1  0  0  0
 16 83  1  0  0  0
 16 84  1  0  0  0
 17 85  1  0  0  0
 18 86  1  0  0  0
 21 87  1  0  0  0
 22 88  1  0  0  0
 23 89  1  0  0  0
 23 90  1  0  0  0
 23 91  1  0  0  0
 24 92  1  0  0  0
 25 93  1  0  0  0
 28 94  1  0  0  0
 28 95  1  0  0  0
 29 96  1  0  0  0
 29 97  1  0  0  0
 30 98  1  0  0  0
 30 99  1  0  0  0
 31100  1  0  0  0
 31101  1  0  0  0
 32102  1  0  0  0
 32103  1  0  0  0
 32104  1  0  0  0
 33105  1  0  0  0
 34106  1  0  0  0
 37107  1  0  0  0
 37108  1  0  0  0
 38109  1  0  0  0
 38110  1  0  0  0
 41111  1  0  0  0
 41112  1  0  0  0
 42113  1  0  0  0
 43114  1  0  0  0
 46115  1  0  0  0
 47116  1  0  0  0
 48117  1  0  0  0
 48118  1  0  0  0
 48119  1  0  0  0
 49120  1  0  0  0
 50121  1  0  0  0
 53122  1  0  0  0
 53123  1  0  0  0
 53124  1  0  0  0
 54125  1  0  0  0
 55126  1  0  0  0
 58127  1  0  0  0
 58128  1  0  0  0
 59129  1  0  0  0
 59130  1  0  0  0
 60131  1  0  0  0
 60132  1  0  0  0
 61133  1  0  0  0
 63134  1  0  0  0
 63135  1  0  0  0
 64136  1  0  0  0
 65137  1  0  0  0
M  END
$$$$
