5k0x_ligand
  -I-interpret- 

 75 77  0  0  0  0  0  0  0  0999 V2000
    3.2410    1.6260   22.8120 C   0  0  0  0  0
    4.7720    1.8110   22.6740 C   0  0  0  0  0
    5.3320    3.1410   23.2360 C   0  0  0  0  0
    4.3650    4.1860   23.8520 C   0  0  0  0  0
    2.5270    0.8410   21.7110 C   0  0  0  0  0
    3.3890   -0.1660   20.9340 C   0  0  0  0  0
    2.4370    0.0850   18.5250 C   0  0  0  0  0
    0.6300    2.4550   12.7580 C   0  0  0  0  0
    0.9820    1.5440   11.5240 C   0  0  0  0  0
    2.2710    1.0090   11.3340 C   0  0  0  0  0
    5.1150    5.9850   22.2710 C   0  0  0  0  0
    1.5150   -0.0200   16.2860 C   0  0  0  0  0
    1.8870    2.0780   14.9400 C   0  0  0  0  0
    2.1090    1.2920   16.2670 C   0  0  0  0  0
    5.9270    7.0430   20.1630 N   0  3  0  0  0
    4.8610    7.0390   21.1760 C   0  0  0  0  0
    3.4680    6.7750   20.5070 C   0  0  0  0  0
    3.4060    5.7430   19.3270 C   0  0  0  0  0
    3.9630    4.2860   19.5140 C   0  0  0  0  0
    4.5620    3.6250   18.2440 C   0  0  0  0  0
    3.5760    3.1320   17.2290 N   0  0  0  0  0
    3.0680    1.7350   17.1790 C   0  0  0  0  0
    3.3280    0.9320   18.1480 N   0  0  0  0  0
    2.6270   -0.6830   19.7800 N   0  3  0  0  0
    4.0310    5.1980   22.8460 N   0  0  0  0  0
    6.2190    5.7370   22.6490 O   0  0  0  0  0
    2.0160   -0.6460   17.4390 N   0  3  0  0  0
    2.5800    2.9910   14.6310 O   0  0  0  0  0
    0.7950    1.6970   14.0290 N   0  0  0  0  0
    2.5410    0.1950   10.2100 C   0  0  0  0  0
    1.5570   -0.0830    9.2650 C   0  0  0  0  0
    1.8460   -0.8770    8.1690 F   0  0  0  0  0
    0.2920    0.4450    9.4450 C   0  0  0  0  0
    0.0080    1.2520   10.5680 C   0  0  0  0  0
    2.8185    2.6303   22.7796 H   0  0  0  0  0
    3.0947    1.0511   23.7264 H   0  0  0  0  0
    4.9917    1.8065   21.6064 H   0  0  0  0  0
    5.2360    1.0096   23.2489 H   0  0  0  0  0
    5.7638    3.6439   22.3707 H   0  0  0  0  0
    5.9738    2.8400   24.0640 H   0  0  0  0  0
    4.8455    4.6666   24.7042 H   0  0  0  0  0
    3.4535    3.6870   24.1809 H   0  0  0  0  0
    2.1851    1.5768   20.9831 H   0  0  0  0  0
    1.7484    0.2600   22.2053 H   0  0  0  0  0
    3.6592   -0.9936   21.5899 H   0  0  0  0  0
    4.2929    0.3289   20.5789 H   0  0  0  0  0
    1.6217    0.7035   18.9003 H   0  0  0  0  0
   -0.4062    2.7824   12.6726 H   0  0  0  0  0
    1.3016    3.3135   12.7677 H   0  0  0  0  0
    3.0609    1.2227   12.0540 H   0  0  0  0  0
    1.7650   -0.5831   15.3869 H   0  0  0  0  0
    0.4266    0.0361   16.3046 H   0  0  0  0  0
    1.5185    1.6895   17.0925 H   0  0  0  0  0
    5.7224    7.7518   19.4586 H   0  0  0  0  0
    6.8189    7.2543   20.6106 H   0  0  0  0  0
    5.9765    6.1257   19.7197 H   0  0  0  0  0
    4.8596    8.0230   21.6450 H   0  0  0  0  0
    3.1679    7.7294   20.0744 H   0  0  0  0  0
    2.8427    6.3541   21.2943 H   0  0  0  0  0
    4.0425    6.1774   18.5561 H   0  0  0  0  0
    2.3400    5.6025   19.1483 H   0  0  0  0  0
    3.1161    3.6682   19.8128 H   0  0  0  0  0
    4.7756    4.3571   20.2369 H   0  0  0  0  0
    5.1111    2.7480   18.5868 H   0  0  0  0  0
    5.1508    4.3963   17.7476 H   0  0  0  0  0
    3.2333    3.7929   16.5318 H   0  0  0  0  0
    1.6788   -0.7654   20.1468 H   0  0  0  0  0
    3.1794   -1.4858   19.4788 H   0  0  0  0  0
    3.0648    5.3479   22.5556 H   0  0  0  0  0
    1.2204   -1.1761   17.7947 H   0  0  0  0  0
    2.8632   -1.1128   17.1152 H   0  0  0  0  0
    0.1648    0.9300   14.2635 H   0  0  0  0  0
    3.5392   -0.2232   10.0807 H   0  0  0  0  0
   -0.4907    0.2370    8.7155 H   0  0  0  0  0
   -0.9964    1.6569   10.6914 H   0  0  0  0  0
  1  2  1  0  0  0
  5  1  1  0  0  0
  2  3  1  0  0  0
  3  4  1  0  0  0
  4 25  1  0  0  0
  6  5  1  0  0  0
 24  6  1  0  0  0
  7 23  1  0  0  0
  7 24  1  0  0  0
 27  7  1  0  0  0
  8  9  1  0  0  0
 29  8  1  0  0  0
  9 10  4  0  0  0
  9 34  4  0  0  0
 10 30  4  0  0  0
 11 16  1  0  0  0
 25 11  1  0  0  0
 11 26  2  0  0  0
 14 12  1  0  0  0
 12 27  1  0  0  0
 13 14  1  0  0  0
 13 28  2  0  0  0
 13 29  1  0  0  0
 14 22  1  0  0  0
 16 15  1  0  0  0
 16 17  1  0  0  0
 17 18  1  0  0  0
 18 19  1  0  0  0
 19 20  1  0  0  0
 20 21  1  0  0  0
 21 22  1  0  0  0
 22 23  2  0  0  0
 30 31  4  0  0  0
 31 32  1  0  0  0
 31 33  4  0  0  0
 33 34  4  0  0  0
  1 35  1  0  0  0
  1 36  1  0  0  0
  2 37  1  0  0  0
  2 38  1  0  0  0
  3 39  1  0  0  0
  3 40  1  0  0  0
  4 41  1  0  0  0
  4 42  1  0  0  0
  5 43  1  0  0  0
  5 44  1  0  0  0
  6 45  1  0  0  0
  6 46  1  0  0  0
  7 47  1  0  0  0
  8 48  1  0  0  0
  8 49  1  0  0  0
 10 50  1  0  0  0
 12 51  1  0  0  0
 12 52  1  0  0  0
 14 53  1  0  0  0
 15 54  1  0  0  0
 15 55  1  0  0  0
 15 56  1  0  0  0
 16 57  1  0  0  0
 17 58  1  0  0  0
 17 59  1  0  0  0
 18 60  1  0  0  0
 18 61  1  0  0  0
 19 62  1  0  0  0
 19 63  1  0  0  0
 20 64  1  0  0  0
 20 65  1  0  0  0
 21 66  1  0  0  0
 24 67  1  0  0  0
 24 68  1  0  0  0
 25 69  1  0  0  0
 27 70  1  0  0  0
 27 71  1  0  0  0
 29 72  1  0  0  0
 30 73  1  0  0  0
 33 74  1  0  0  0
 34 75  1  0  0  0
M  END
$$$$
