4gee_ligand
  -I-interpret- 

 44 48  0  0  0  0  0  0  0  0999 V2000
  -10.3710   -2.0490  -11.4090 Cl  0  0  0  0  0
  -11.4910   -3.1800  -12.3090 C   0  0  0  0  0
  -12.9090   -3.2900  -11.9550 C   0  0  0  0  0
  -13.6410   -2.5060  -10.8950 C   0  0  0  0  0
  -14.6970   -3.3410  -10.2080 C   0  0  0  0  0
  -13.4020   -4.2310  -12.7880 N   0  0  0  0  0
  -11.1360   -4.1050  -13.3930 C   0  0  0  0  0
   -9.9790   -4.5580  -14.2320 C   0  0  0  0  0
   -8.6640   -4.0660  -14.2150 N   0  0  0  0  0
   -7.6130   -4.7130  -14.9910 C   0  0  0  0  0
   -6.6870   -3.5410  -15.3160 C   0  0  0  0  0
   -7.4250   -2.3720  -15.9580 C   0  0  0  0  0
   -6.4740   -1.5320  -16.6730 N   0  3  0  0  0
   -7.1170   -2.3550  -14.4630 C   0  0  0  0  0
   -8.2950   -2.8000  -13.5970 C   0  0  0  0  0
  -10.2500   -5.5150  -15.1360 N   0  0  0  0  0
  -11.4810   -6.0580  -15.3030 C   0  0  0  0  0
  -12.5540   -5.6850  -14.5780 N   0  0  0  0  0
  -12.4630   -4.7380  -13.6190 C   0  0  0  0  0
  -11.6700   -7.0320  -16.2380 O   0  0  0  0  0
  -10.6500   -7.5430  -17.0000 C   0  0  0  0  0
  -10.4470   -8.9170  -17.0230 C   0  0  0  0  0
   -9.4510   -9.4100  -17.7820 N   0  0  0  0  0
   -8.6790   -8.5910  -18.5130 C   0  0  0  0  0
   -8.8620   -7.2630  -18.5220 N   0  0  0  0  0
   -9.8390   -6.7130  -17.7790 C   0  0  0  0  0
  -14.1320   -1.6586  -11.3735 H   0  0  0  0  0
  -12.9175   -2.1845  -10.1458 H   0  0  0  0  0
  -15.4239   -3.6831  -10.9446 H   0  0  0  0  0
  -14.2259   -4.2019   -9.7336 H   0  0  0  0  0
  -15.2001   -2.7381   -9.4520 H   0  0  0  0  0
   -7.9859   -5.2261  -15.8775 H   0  0  0  0  0
   -7.1146   -5.5194  -14.4530 H   0  0  0  0  0
   -5.7618   -4.0662  -15.5530 H   0  0  0  0  0
   -8.3211   -2.2522  -16.5668 H   0  0  0  0  0
   -6.9686   -0.7500  -17.1023 H   0  0  0  0  0
   -5.7768   -1.1768  -16.0186 H   0  0  0  0  0
   -6.0129   -2.0829  -17.3971 H   0  0  0  0  0
   -6.6497   -1.6230  -13.8043 H   0  0  0  0  0
   -8.0434   -2.8925  -12.5405 H   0  0  0  0  0
   -9.1106   -2.0773  -13.5733 H   0  0  0  0  0
  -11.0817   -9.5826  -16.4380 H   0  0  0  0  0
   -7.8791   -9.0185  -19.1176 H   0  0  0  0  0
   -9.9962   -5.6344  -17.7843 H   0  0  0  0  0
  1  2  1  0  0  0
  2  3  4  0  0  0
  2  7  4  0  0  0
  3  4  1  0  0  0
  3  6  4  0  0  0
  4  5  1  0  0  0
  6 19  4  0  0  0
  7  8  4  0  0  0
  7 19  4  0  0  0
  8  9  1  0  0  0
  8 16  4  0  0  0
  9 10  1  0  0  0
  9 15  1  0  0  0
 10 11  1  0  0  0
 11 12  1  0  0  0
 11 14  1  0  0  0
 12 13  1  0  0  0
 12 14  1  0  0  0
 14 15  1  0  0  0
 16 17  4  0  0  0
 17 18  4  0  0  0
 17 20  1  0  0  0
 18 19  4  0  0  0
 20 21  1  0  0  0
 21 22  4  0  0  0
 21 26  4  0  0  0
 22 23  4  0  0  0
 23 24  4  0  0  0
 24 25  4  0  0  0
 25 26  4  0  0  0
  4 27  1  0  0  0
  4 28  1  0  0  0
  5 29  1  0  0  0
  5 30  1  0  0  0
  5 31  1  0  0  0
 10 32  1  0  0  0
 10 33  1  0  0  0
 11 34  1  0  0  0
 12 35  1  0  0  0
 13 36  1  0  0  0
 13 37  1  0  0  0
 13 38  1  0  0  0
 14 39  1  0  0  0
 15 40  1  0  0  0
 15 41  1  0  0  0
 22 42  1  0  0  0
 24 43  1  0  0  0
 26 44  1  0  0  0
M  END
$$$$
