### 
### Created by X-TOOL on Mon Sep 10 21:13:13 2018
### 

@<TRIPOS>MOLECULE
4gee_ligand
   45    49     1     0     0
SMALL
GAST_HUCK


@<TRIPOS>ATOM
      1 CL1       -10.3710   -2.0490  -11.4090 Cl        1 0WT        -0.1180
      2 C4        -11.4910   -3.1800  -12.3090 C.2       1 0WT         0.0354
      3 C5        -12.9090   -3.2900  -11.9550 C.2       1 0WT         0.0550
      4 C10       -13.6410   -2.5060  -10.8950 C.3       1 0WT         0.0017
      5 C11       -14.6970   -3.3410  -10.2080 C.3       1 0WT        -0.0524
      6 N1        -13.4020   -4.2310  -12.7880 N.pl3     1 0WT        -0.2631
      7 C3        -11.1360   -4.1050  -13.3930 C.ar      1 0WT         0.0378
      8 C6         -9.9790   -4.5580  -14.2320 C.ar      1 0WT         0.1096
      9 N13        -8.6640   -4.0660  -14.2150 N.pl3     1 0WT        -0.2902
     10 C17        -7.6130   -4.7130  -14.9910 C.3       1 0WT         0.0408
     11 C16        -6.6870   -3.5410  -15.3160 C.3       1 0WT         0.0327
     12 C18        -7.4250   -2.3720  -15.9580 C.3       1 0WT        -0.0137
     13 N19        -6.4740   -1.5320  -16.6730 N.4       1 0WT         0.2212
     14 C15        -7.1170   -2.3550  -14.4630 C.3       1 0WT         0.0327
     15 C14        -8.2950   -2.8000  -13.5970 C.3       1 0WT         0.0408
     16 N7        -10.2500   -5.5150  -15.1360 N.ar      1 0WT        -0.2467
     17 C8        -11.4810   -6.0580  -15.3030 C.ar      1 0WT         0.2334
     18 N9        -12.5540   -5.6850  -14.5780 N.ar      1 0WT        -0.2563
     19 C2        -12.4630   -4.7380  -13.6190 C.ar      1 0WT         0.1202
     20 O20       -11.6700   -7.0320  -16.2380 O.3       1 0WT        -0.2148
     21 C21       -10.6500   -7.5430  -17.0000 C.ar      1 0WT         0.1759
     22 C26       -10.4470   -8.9170  -17.0230 C.ar      1 0WT         0.0641
     23 N25        -9.4510   -9.4100  -17.7820 N.ar      1 0WT        -0.2712
     24 C24        -8.6790   -8.5910  -18.5130 C.ar      1 0WT         0.0795
     25 N23        -8.8620   -7.2630  -18.5220 N.ar      1 0WT        -0.2712
     26 C22        -9.8390   -6.7130  -17.7790 C.ar      1 0WT         0.0641
     27 H1        -14.1245   -1.6370  -11.3651 H         1 0WT         0.0461
     28 H2        -12.9160   -2.1603  -10.1435 H         1 0WT         0.0461
     29 H3        -15.2055   -2.7336   -9.4448 H         1 0WT         0.0255
     30 H4        -14.2228   -4.2102   -9.7288 H         1 0WT         0.0255
     31 H5        -15.4313   -3.6869  -10.9504 H         1 0WT         0.0255
     32 H6        -14.3874   -4.5307  -12.7905 H         1 0WT         0.2302
     33 H7         -8.0163   -5.1690  -15.9071 H         1 0WT         0.0532
     34 H8         -7.0933   -5.4798  -14.3978 H         1 0WT         0.0532
     35 H9         -5.6479   -3.8143  -15.5516 H         1 0WT         0.0381
     36 H10        -8.4346   -2.4232  -16.3917 H         1 0WT         0.0857
     37 H11        -6.9617   -0.7588  -17.0977 H         1 0WT         0.1997
     38 H12        -6.0177   -2.0754  -17.3889 H         1 0WT         0.1997
     39 H13        -5.7845   -1.1804  -16.0273 H         1 0WT         0.1997
     40 H14        -6.4379   -1.6310  -13.9891 H         1 0WT         0.0381
     41 H15        -7.9903   -2.9404  -12.5494 H         1 0WT         0.0532
     42 H16        -9.1218   -2.0761  -13.6445 H         1 0WT         0.0532
     43 H17       -11.0782   -9.5789  -16.4412 H         1 0WT         0.0880
     44 H18        -7.8835   -9.0161  -19.1143 H         1 0WT         0.1039
     45 H19        -9.9953   -5.6403  -17.7843 H         1 0WT         0.0880
@<TRIPOS>BOND
     1    1    2 1  
     2    2    3 2  
     3    2    7 1  
     4    3    4 1  
     5    3    6 1  
     6    4    5 1  
     7    6   19 1  
     8    7    8 ar 
     9    7   19 ar 
    10    8    9 1  
    11    8   16 ar 
    12    9   10 1  
    13    9   15 1  
    14   10   11 1  
    15   11   12 1  
    16   11   14 1  
    17   12   13 1  
    18   12   14 1  
    19   14   15 1  
    20   16   17 ar 
    21   17   18 ar 
    22   17   20 1  
    23   18   19 ar 
    24   20   21 1  
    25   21   22 ar 
    26   21   26 ar 
    27   22   23 ar 
    28   23   24 ar 
    29   24   25 ar 
    30   25   26 ar 
    31    4   27 1  
    32    4   28 1  
    33    5   29 1  
    34    5   30 1  
    35    5   31 1  
    36    6   32 1  
    37   10   33 1  
    38   10   34 1  
    39   11   35 1  
    40   12   36 1  
    41   13   37 1  
    42   13   38 1  
    43   13   39 1  
    44   14   40 1  
    45   15   41 1  
    46   15   42 1  
    47   22   43 1  
    48   24   44 1  
    49   26   45 1  
@<TRIPOS>SUBSTRUCTURE
     1 0WT         1

