5a0b_ligand
  -I-interpret- 

 70 73  0  0  0  0  0  0  0  0999 V2000
   -5.6140   -1.8690   26.0520 C   0  0  0  0  0
   -5.7620   -0.8780   27.2200 C   0  0  0  0  0
   -4.7550    0.1920   27.0190 N   0  3  0  0  0
   -4.5930    0.9420   28.3190 C   0  0  0  0  0
   -5.7560    1.9060   28.6600 C   0  0  0  0  0
   -3.2490    1.6820   28.3350 C   0  0  0  0  0
   -5.0690    0.9730   25.7660 C   0  0  0  0  0
   -4.9640    0.0220   24.5110 C   0  0  0  0  0
   -5.8020   -1.1820   24.7310 N   0  0  0  0  0
   -6.7070   -1.6300   23.8310 C   0  0  0  0  0
   -6.8230   -1.0030   22.7670 O   0  0  0  0  0
   -7.6040   -2.9090   24.1090 C   0  0  0  0  0
   -8.5530   -3.0320   22.9600 N   0  0  0  0  0
   -8.3330   -4.0660   22.0320 C   0  0  0  0  0
   -7.4100   -4.8500   22.2690 O   0  0  0  0  0
   -9.6860   -2.1060   22.8440 C   0  0  0  0  0
  -10.6500   -2.6110   23.9860 C   0  0  0  0  0
  -11.2360   -1.6930   24.8700 C   0  0  0  0  0
  -12.0490   -2.1050   25.9540 C   0  0  0  0  0
  -12.2920   -3.4540   26.1480 C   0  0  0  0  0
  -13.1190   -3.8400   27.2500 C   0  0  0  0  0
  -13.7750   -4.1540   28.1240 N   0  0  0  0  0
  -11.7430   -4.4170   25.2660 C   0  0  0  0  0
  -10.9230   -3.9780   24.2080 C   0  0  0  0  0
  -10.3440   -2.1440   21.4930 C   0  0  0  0  0
  -11.3700   -1.1910   21.2420 C   0  0  0  0  0
  -12.2020   -0.4330   21.0310 N   0  0  0  0  0
  -10.1110   -3.2210   20.6310 C   0  0  0  0  0
  -10.9070   -3.3300   19.3430 C   0  0  0  0  0
   -9.0840   -4.1710   20.8870 N   0  0  0  0  0
   -8.9260   -5.2900   20.0280 C   0  0  0  0  0
   -9.7140   -6.4400   20.3200 C   0  0  0  0  0
   -8.0680   -5.3080   18.9280 C   0  0  0  0  0
   -8.0020   -6.4810   18.1400 C   0  0  0  0  0
   -8.7640   -7.6070   18.4600 C   0  0  0  0  0
   -9.6430   -7.5980   19.5270 C   0  0  0  0  0
  -10.4190   -8.9060   19.8710 C   0  0  0  0  0
  -10.7010   -9.6290   18.7590 F   0  0  0  0  0
  -11.4840   -8.6540   20.6460 F   0  0  0  0  0
   -9.6130   -9.6180   20.6420 F   0  0  0  0  0
   -6.3750   -2.6428   26.1534 H   0  0  0  0  0
   -4.6116   -2.2961   26.0827 H   0  0  0  0  0
   -5.6011   -1.3818   28.1731 H   0  0  0  0  0
   -6.7679   -0.4587   27.2420 H   0  0  0  0  0
   -3.8186   -0.1595   26.8189 H   0  0  0  0  0
   -4.6149    0.1856   29.1035 H   0  0  0  0  0
   -5.5980    2.3271   29.6529 H   0  0  0  0  0
   -5.7879    2.7094   27.9241 H   0  0  0  0  0
   -6.6978    1.3576   28.6422 H   0  0  0  0  0
   -3.2687    2.4844   27.5975 H   0  0  0  0  0
   -3.0787    2.1020   29.3263 H   0  0  0  0  0
   -2.4482    0.9835   28.0925 H   0  0  0  0  0
   -4.3573    1.7919   25.6611 H   0  0  0  0  0
   -6.0800    1.3749   25.8329 H   0  0  0  0  0
   -3.9260   -0.2789   24.3692 H   0  0  0  0  0
   -5.3137    0.5508   23.6243 H   0  0  0  0  0
   -8.1461   -2.8043   25.0488 H   0  0  0  0  0
   -6.9863   -3.8027   24.1977 H   0  0  0  0  0
   -9.3898   -1.0620   22.9464 H   0  0  0  0  0
  -11.0600   -0.6281   24.7177 H   0  0  0  0  0
  -12.4797   -1.3662   26.6298 H   0  0  0  0  0
  -11.9512   -5.4781   25.4034 H   0  0  0  0  0
  -10.4849   -4.7184   23.5387 H   0  0  0  0  0
  -11.9692   -3.3972   19.5784 H   0  0  0  0  0
  -10.7247   -2.4481   18.7290 H   0  0  0  0  0
  -10.5967   -4.2228   18.8001 H   0  0  0  0  0
  -10.3869   -6.4215   21.1773 H   0  0  0  0  0
   -7.4614   -4.4367   18.6810 H   0  0  0  0  0
   -7.3463   -6.5065   17.2696 H   0  0  0  0  0
   -8.6637   -8.5096   17.8572 H   0  0  0  0  0
  1  2  1  0  0  0
  1  9  1  0  0  0
  2  3  1  0  0  0
  3  4  1  0  0  0
  3  7  1  0  0  0
  4  5  1  0  0  0
  4  6  1  0  0  0
  7  8  1  0  0  0
  8  9  1  0  0  0
  9 10  1  0  0  0
 10 11  2  0  0  0
 10 12  1  0  0  0
 12 13  1  0  0  0
 13 14  1  0  0  0
 13 16  1  0  0  0
 14 15  2  0  0  0
 14 30  1  0  0  0
 16 17  1  0  0  0
 16 25  1  0  0  0
 17 18  4  0  0  0
 17 24  4  0  0  0
 18 19  4  0  0  0
 19 20  4  0  0  0
 20 21  1  0  0  0
 20 23  4  0  0  0
 21 22  3  0  0  0
 23 24  4  0  0  0
 25 26  1  0  0  0
 25 28  2  0  0  0
 26 27  3  0  0  0
 28 29  1  0  0  0
 28 30  1  0  0  0
 30 31  1  0  0  0
 31 32  4  0  0  0
 31 33  4  0  0  0
 32 36  4  0  0  0
 33 34  4  0  0  0
 34 35  4  0  0  0
 35 36  4  0  0  0
 36 37  1  0  0  0
 37 38  1  0  0  0
 37 39  1  0  0  0
 37 40  1  0  0  0
  1 41  1  0  0  0
  1 42  1  0  0  0
  2 43  1  0  0  0
  2 44  1  0  0  0
  3 45  1  0  0  0
  4 46  1  0  0  0
  5 47  1  0  0  0
  5 48  1  0  0  0
  5 49  1  0  0  0
  6 50  1  0  0  0
  6 51  1  0  0  0
  6 52  1  0  0  0
  7 53  1  0  0  0
  7 54  1  0  0  0
  8 55  1  0  0  0
  8 56  1  0  0  0
 12 57  1  0  0  0
 12 58  1  0  0  0
 16 59  1  0  0  0
 18 60  1  0  0  0
 19 61  1  0  0  0
 23 62  1  0  0  0
 24 63  1  0  0  0
 29 64  1  0  0  0
 29 65  1  0  0  0
 29 66  1  0  0  0
 32 67  1  0  0  0
 33 68  1  0  0  0
 34 69  1  0  0  0
 35 70  1  0  0  0
M  END
$$$$
