3qj0_ligand
  -I-interpret- 

 41 43  0  0  0  0  0  0  0  0999 V2000
  -19.5130   35.1510   -5.3980 C   0  0  0  0  0
  -21.8870   35.4460   -5.7760 N   0  0  0  0  0
  -18.6060   35.9580   -5.4120 O   0  0  0  0  0
  -20.7510   35.8220   -5.0040 C   0  0  0  0  0
  -21.0430   35.4800   -3.5790 C   0  0  0  0  0
  -22.4940   35.3060   -3.6200 C   0  0  0  0  0
  -18.2080   33.2220   -6.0710 O   0  0  0  0  0
  -19.3640   33.7510   -5.7240 N   0  0  0  0  0
  -22.5460   37.6720   -3.2240 C   0  0  0  0  0
  -22.2050   38.7260   -4.0910 C   0  0  0  0  0
  -21.6450   39.9310   -3.5490 C   0  0  0  0  0
  -22.3850   37.8050   -1.8320 C   0  0  0  0  0
  -21.8250   39.0090   -1.2870 C   0  0  0  0  0
  -21.4670   40.0560   -2.1450 C   0  0  0  0  0
  -20.7920   41.5100   -1.4490 Cl  0  0  0  0  0
  -20.9240   35.6640   -8.1520 O   0  0  0  0  0
  -22.2130   35.6380   -7.3520 S   0  0  0  0  0
  -23.1410   37.1680   -7.5310 C   0  0  0  0  0
  -24.4790   37.0980   -7.3440 C   0  0  0  0  0
  -25.2930   38.2490   -7.4350 C   0  0  0  0  0
  -23.1030   34.5220   -7.7130 O   0  0  0  0  0
  -22.5430   38.4250   -7.8140 C   0  0  0  0  0
  -23.3470   39.5920   -7.9060 C   0  0  0  0  0
  -24.7030   39.5000   -7.7190 C   0  0  0  0  0
  -25.7250   40.8680   -7.8160 Cl  0  0  0  0  0
  -23.1440   36.5150   -3.7520 O   0  0  0  0  0
  -22.7370   34.6560   -4.9310 C   0  0  0  0  0
  -20.5870   36.8878   -5.1631 H   0  0  0  0  0
  -20.7116   36.2376   -2.8689 H   0  0  0  0  0
  -20.5056   34.6026   -3.2191 H   0  0  0  0  0
  -22.8300   34.7818   -2.7253 H   0  0  0  0  0
  -22.3647   38.6283   -5.1648 H   0  0  0  0  0
  -21.3574   40.7471   -4.2118 H   0  0  0  0  0
  -22.6854   36.9942   -1.1683 H   0  0  0  0  0
  -21.6793   39.1077   -0.2113 H   0  0  0  0  0
  -24.9377   36.1352   -7.1188 H   0  0  0  0  0
  -26.3701   38.1718   -7.2869 H   0  0  0  0  0
  -21.4651   38.4940   -7.9608 H   0  0  0  0  0
  -22.8887   40.5566   -8.1242 H   0  0  0  0  0
  -22.5146   33.5891   -4.9476 H   0  0  0  0  0
  -23.7834   34.6454   -5.2362 H   0  0  0  0  0
  1  3  2  0  0  0
  4  1  1  0  0  0
  1  8  1  0  0  0
  2  4  1  0  0  0
  2 17  1  0  0  0
 27  2  1  0  0  0
  5  4  1  0  0  0
  6  5  1  0  0  0
 26  6  1  0  0  0
  6 27  1  0  0  0
  8  7  2  0  0  0
  9 10  4  0  0  0
  9 12  4  0  0  0
  9 26  1  0  0  0
 10 11  4  0  0  0
 11 14  4  0  0  0
 12 13  4  0  0  0
 13 14  4  0  0  0
 14 15  1  0  0  0
 17 16  2  0  0  0
 17 18  1  0  0  0
 17 21  2  0  0  0
 18 19  4  0  0  0
 18 22  4  0  0  0
 19 20  4  0  0  0
 20 24  4  0  0  0
 22 23  4  0  0  0
 23 24  4  0  0  0
 24 25  1  0  0  0
  4 28  1  0  0  0
  5 29  1  0  0  0
  5 30  1  0  0  0
  6 31  1  0  0  0
 10 32  1  0  0  0
 11 33  1  0  0  0
 12 34  1  0  0  0
 13 35  1  0  0  0
 19 36  1  0  0  0
 20 37  1  0  0  0
 22 38  1  0  0  0
 23 39  1  0  0  0
 27 40  1  0  0  0
 27 41  1  0  0  0
M  END
$$$$
