### 
### Created by X-TOOL on Mon Sep 10 21:13:17 2018
### 

@<TRIPOS>MOLECULE
4pr5_ligand
  168   172     1     0     0
SMALL
GAST_HUCK


@<TRIPOS>ATOM
      1 N          13.1260  -14.1070  -36.3500 N.4       1 HIS         0.2390
      2 CA         12.1140  -13.4940  -37.2170 C.3       1 HIS         0.0710
      3 C          10.7300  -13.8360  -36.6740 C.2       1 HIS         0.2307
      4 O          10.4850  -14.9810  -36.2820 O.2       1 HIS        -0.3904
      5 CB         12.2680  -14.0560  -38.6370 C.3       1 HIS         0.0347
      6 CG         11.5300  -13.2880  -39.6930 C.2       1 HIS         0.0005
      7 ND1        10.1540  -13.2290  -39.7500 N.2       1 HIS        -0.3251
      8 CD2        11.9810  -12.5940  -40.7670 C.2       1 HIS         0.0293
      9 CE1         9.7880  -12.5170  -40.8020 C.2       1 HIS         0.0907
     10 NE2        10.8780  -12.1190  -41.4350 N.pl3     1 HIS        -0.2752
     11 N           9.8090  -12.8560  -36.6490 N.am      1 PRO        -0.2470
     12 CA          8.5010  -13.1440  -36.0520 C.3       1 PRO         0.1339
     13 C           7.6050  -13.9260  -37.0000 C.2       1 PRO         0.2041
     14 O           7.8650  -14.0010  -38.2060 O.2       1 PRO        -0.3944
     15 CB          7.9050  -11.7430  -35.8390 C.3       1 PRO        -0.0104
     16 CG          8.5090  -10.9290  -36.9300 C.3       1 PRO        -0.0281
     17 CD          9.9410  -11.4310  -37.0050 C.3       1 PRO         0.0371
     18 N           6.5350  -14.4870  -36.4590 N.am      1 VAL        -0.2635
     19 CA          5.5960  -15.2180  -37.2930 C.3       1 VAL         0.1332
     20 C           4.7230  -14.2060  -38.0460 C.2       1 VAL         0.2039
     21 O           4.4280  -13.1250  -37.5350 O.2       1 VAL        -0.3944
     22 CB          4.7520  -16.2200  -36.4690 C.3       1 VAL        -0.0063
     23 CG1         3.8260  -15.4860  -35.4880 C.3       1 VAL        -0.0584
     24 CG2         3.9490  -17.1360  -37.3970 C.3       1 VAL        -0.0584
     25 N           4.3500  -14.5360  -39.2790 N.am      1 GLY        -0.2664
     26 CA          3.5090  -13.6530  -40.0650 C.3       1 GLY         0.1201
     27 C           2.0490  -14.0470  -39.9410 C.2       1 GLY         0.2008
     28 O           1.4470  -14.4940  -40.9170 O.2       1 GLY        -0.3947
     29 N           1.4890  -13.8820  -38.7380 N.am      1 ASP        -0.2624
     30 CA          0.1280  -14.3370  -38.4240 C.3       1 ASP         0.1423
     31 C          -0.8580  -13.1870  -38.3470 C.2       1 ASP         0.2056
     32 O          -2.0070  -13.3660  -37.9280 O.2       1 ASP        -0.3943
     33 CB          0.0820  -15.1320  -37.1000 C.3       1 ASP         0.0406
     34 CG          0.5030  -14.3040  -35.8860 C.2       1 ASP         0.0393
     35 OD1         0.5350  -14.8800  -34.7700 O.co2     1 ASP        -0.5688
     36 OD2         0.8090  -13.0930  -36.0370 O.co2     1 ASP        -0.5688
     37 N          -0.4060  -12.0080  -38.7480 N.am      1 ALA        -0.2639
     38 CA         -1.2160  -10.8170  -38.5760 C.3       1 ALA         0.1282
     39 C          -2.5900  -10.9380  -39.2470 C.2       1 ALA         0.2037
     40 O          -3.5680  -10.3430  -38.7840 O.2       1 ALA        -0.3944
     41 CB         -0.4640   -9.6030  -39.0940 C.3       1 ALA        -0.0244
     42 N          -2.6740  -11.7300  -40.3130 N.am      1 ASP        -0.2622
     43 CA         -3.9230  -11.8520  -41.0670 C.3       1 ASP         0.1423
     44 C          -4.8840  -12.9300  -40.5450 C.2       1 ASP         0.2057
     45 O          -5.9600  -13.1230  -41.1150 O.2       1 ASP        -0.3943
     46 CB         -3.6430  -12.0670  -42.5600 C.3       1 ASP         0.0406
     47 CG         -3.1550  -10.8020  -43.2570 C.2       1 ASP         0.0393
     48 OD1        -3.4450   -9.6870  -42.7640 O.co2     1 ASP        -0.5688
     49 OD2        -2.4860  -10.9230  -44.3050 O.co2     1 ASP        -0.5688
     50 N          -4.5170  -13.6220  -39.4670 N.am      1 TYR        -0.2620
     51 CA         -5.3950  -14.6640  -38.9130 C.3       1 TYR         0.1390
     52 C          -5.4290  -14.7690  -37.3800 C.2       1 TYR         0.2059
     53 O          -6.1960  -15.5620  -36.8290 O.2       1 TYR        -0.3942
     54 CB         -5.0970  -16.0440  -39.5290 C.3       1 TYR         0.0163
     55 CG         -3.6880  -16.5660  -39.3310 C.ar      1 TYR        -0.0493
     56 CD1        -2.7830  -16.5950  -40.3930 C.ar      1 TYR        -0.0685
     57 CD2        -3.2630  -17.0480  -38.0900 C.ar      1 TYR        -0.0685
     58 CE1        -1.4940  -17.0800  -40.2220 C.ar      1 TYR        -0.0398
     59 CE2        -1.9720  -17.5350  -37.9130 C.ar      1 TYR        -0.0398
     60 CZ         -1.0930  -17.5460  -38.9820 C.ar      1 TYR         0.0805
     61 OH          0.1900  -18.0250  -38.8220 O.3       1 TYR        -0.3376
     62 N          -4.6150  -13.9690  -36.6960 N.am      1 PHE        -0.2618
     63 CA         -4.4840  -14.1100  -35.2460 C.3       1 PHE         0.1404
     64 C          -5.3580  -13.1180  -34.4750 C.2       1 PHE         0.2060
     65 O          -4.9580  -12.6470  -33.4090 O.2       1 PHE        -0.3942
     66 CB         -3.0120  -13.9820  -34.8160 C.3       1 PHE         0.0214
     67 CG         -2.6650  -14.7260  -33.5380 C.ar      1 PHE        -0.0386
     68 CD1        -2.3380  -14.0320  -32.3740 C.ar      1 PHE        -0.0601
     69 CD2        -2.6370  -16.1130  -33.5080 C.ar      1 PHE        -0.0601
     70 CE1        -2.0070  -14.7000  -31.2060 C.ar      1 PHE        -0.0686
     71 CE2        -2.3010  -16.8000  -32.3340 C.ar      1 PHE        -0.0686
     72 CZ         -1.9790  -16.0970  -31.1860 C.ar      1 PHE        -0.0687
     73 N          -6.5380  -12.7980  -35.0020 N.am      1 GLU        -0.2635
     74 CA         -7.4530  -11.9010  -34.2900 C.3       1 GLU         0.1324
     75 C          -8.1450  -12.6700  -33.1750 C.2       1 GLU         0.2036
     76 O          -8.7100  -13.7360  -33.4180 O.2       1 GLU        -0.3944
     77 CB         -8.4910  -11.2990  -35.2360 C.3       1 GLU        -0.0008
     78 CG         -9.4450  -10.3380  -34.5420 C.3       1 GLU         0.0044
     79 CD        -10.3550   -9.5650  -35.5020 C.2       1 GLU         0.0350
     80 OE1       -11.5370   -9.3610  -35.1550 O.co2     1 GLU        -0.5690
     81 OE2        -9.8910   -9.1400  -36.5820 O.co2     1 GLU        -0.5690
     82 N          -8.0800  -12.1540  -31.9490 N.am      1 TYR        -0.2679
     83 CA         -8.6720  -12.8510  -30.8050 C.3       1 TYR         0.1025
     84 C         -10.1920  -12.8010  -30.8490 C.2       1 TYR         0.0619
     85 O         -10.8560  -13.5010  -30.0950 O.co2     1 TYR        -0.5665
     86 CB         -8.2010  -12.2520  -29.4780 C.3       1 TYR         0.0108
     87 CG         -6.7250  -12.4230  -29.1720 C.ar      1 TYR        -0.0499
     88 CD1        -5.7520  -11.9100  -30.0220 C.ar      1 TYR        -0.0686
     89 CD2        -6.3090  -13.0690  -28.0140 C.ar      1 TYR        -0.0686
     90 CE1        -4.4080  -12.0450  -29.7390 C.ar      1 TYR        -0.0398
     91 CE2        -4.9490  -13.2100  -27.7170 C.ar      1 TYR        -0.0398
     92 CZ         -4.0130  -12.6910  -28.5870 C.ar      1 TYR         0.0805
     93 OH         -2.6750  -12.8280  -28.3060 O.3       1 TYR        -0.3376
     94 OXT       -10.7810  -12.0630  -31.6390 O.co2     1 TYR        -0.5665
     95 H          14.0456  -13.8874  -36.6996 H         1 HIS         0.2016
     96 H          12.9999  -15.1070  -36.3413 H         1 HIS         0.2016
     97 H          13.0281  -13.7478  -35.4133 H         1 HIS         0.2016
     98 H          12.2470  -12.4022  -37.2339 H         1 HIS         0.1116
     99 H          11.8937  -15.0903  -38.6397 H         1 HIS         0.0453
    100 H          13.3376  -14.0524  -38.8939 H         1 HIS         0.0453
    101 H          13.0221  -12.4416  -41.0476 H         1 HIS         0.0729
    102 H           8.7632  -12.2960  -41.0968 H         1 HIS         0.1199
    103 H          10.8975  -11.5457  -42.2905 H         1 HIS         0.2361
    104 H           8.6094  -13.6893  -35.1028 H         1 PRO         0.0802
    105 H           8.1842  -11.3444  -34.8525 H         1 PRO         0.0313
    106 H           6.8089  -11.7659  -35.9284 H         1 PRO         0.0313
    107 H           8.4816   -9.8579  -36.6811 H         1 PRO         0.0287
    108 H           7.9841  -11.0979  -37.8818 H         1 PRO         0.0287
    109 H          10.3493  -11.3126  -38.0195 H         1 PRO         0.0524
    110 H          10.5842  -10.9015  -36.2867 H         1 PRO         0.0524
    111 H           6.3727  -14.4077  -35.4754 H         1 VAL         0.1883
    112 H           6.1688  -15.7962  -38.0330 H         1 VAL         0.0802
    113 H           5.4410  -16.8459  -35.8829 H         1 VAL         0.0343
    114 H           3.2397  -16.2213  -34.9173 H         1 VAL         0.0234
    115 H           3.1445  -14.8293  -36.0486 H         1 VAL         0.0234
    116 H           4.4304  -14.8819  -34.7954 H         1 VAL         0.0234
    117 H           4.6338  -17.6490  -38.0883 H         1 VAL         0.0234
    118 H           3.2293  -16.5352  -37.9724 H         1 VAL         0.0234
    119 H           3.4071  -17.8819  -36.7970 H         1 VAL         0.0234
    120 H           4.6534  -15.4050  -39.6699 H         1 GLY         0.1881
    121 H           3.8103  -13.7138  -41.1212 H         1 GLY         0.0763
    122 H           3.6355  -12.6208  -39.7064 H         1 GLY         0.0763
    123 H           2.0195  -13.4294  -38.0213 H         1 ASP         0.1884
    124 H          -0.1926  -15.0062  -39.2360 H         1 ASP         0.0819
    125 H           0.7588  -15.9948  -37.1865 H         1 ASP         0.0478
    126 H          -0.9468  -15.4874  -36.9411 H         1 ASP         0.0478
    127 H           0.4975  -11.9388  -39.1711 H         1 ALA         0.1883
    128 H          -1.3848  -10.6792  -37.4978 H         1 ALA         0.0797
    129 H          -1.0833   -8.7037  -38.9607 H         1 ALA         0.0277
    130 H          -0.2399   -9.7388  -40.1623 H         1 ALA         0.0277
    131 H           0.4757   -9.4873  -38.5340 H         1 ALA         0.0277
    132 H          -1.8710  -12.2503  -40.6038 H         1 ASP         0.1884
    133 H          -4.4448  -10.8890  -40.9658 H         1 ASP         0.0819
    134 H          -4.5709  -12.4011  -43.0472 H         1 ASP         0.0478
    135 H          -2.8729  -12.8455  -42.6648 H         1 ASP         0.0478
    136 H          -3.6374  -13.4313  -39.0311 H         1 TYR         0.1885
    137 H          -6.4146  -14.3897  -39.2215 H         1 TYR         0.0821
    138 H          -5.2830  -15.9775  -40.6111 H         1 TYR         0.0453
    139 H          -5.7916  -16.7702  -39.0815 H         1 TYR         0.0453
    140 H          -3.0918  -16.2329  -41.3670 H         1 TYR         0.0530
    141 H          -3.9504  -17.0423  -37.2518 H         1 TYR         0.0530
    142 H          -0.8032  -17.0938  -41.0573 H         1 TYR         0.0525
    143 H          -1.6564  -17.9036  -36.9437 H         1 TYR         0.0525
    144 H           0.6559  -17.9612  -39.6475 H         1 TYR         0.2458
    145 H          -4.0894  -13.2668  -37.1763 H         1 PHE         0.1885
    146 H          -4.8242  -15.1223  -34.9824 H         1 PHE         0.0823
    147 H          -2.7892  -12.9155  -34.6645 H         1 PHE         0.0474
    148 H          -2.3813  -14.3769  -35.6261 H         1 PHE         0.0474
    149 H          -2.3428  -12.9480  -32.3828 H         1 PHE         0.0557
    150 H          -2.8783  -16.6724  -34.4046 H         1 PHE         0.0557
    151 H          -1.7701  -14.1396  -30.3089 H         1 PHE         0.0599
    152 H          -2.2932  -17.8839  -32.3248 H         1 PHE         0.0599
    153 H          -1.7075  -16.6255  -30.2793 H         1 PHE         0.0559
    154 H          -6.8022  -13.1726  -35.8907 H         1 GLU         0.1883
    155 H          -6.8681  -11.0813  -33.8473 H         1 GLU         0.0801
    156 H          -9.0785  -12.1174  -35.6777 H         1 GLU         0.0330
    157 H          -7.9639  -10.7543  -36.0331 H         1 GLU         0.0330
    158 H          -8.8494   -9.6119  -33.9693 H         1 GLU         0.0433
    159 H         -10.0791  -10.9161  -33.8538 H         1 GLU         0.0433
    160 H          -7.6200  -11.2774  -31.8074 H         1 TYR         0.1877
    161 H          -8.3546  -13.9034  -30.8464 H         1 TYR         0.0747
    162 H          -8.7725  -12.7298  -28.6686 H         1 TYR         0.0446
    163 H          -8.4209  -11.1743  -29.4955 H         1 TYR         0.0446
    164 H          -6.0551  -11.3934  -30.9255 H         1 TYR         0.0530
    165 H          -7.0491  -13.4696  -27.3307 H         1 TYR         0.0530
    166 H          -3.6657  -11.6446  -30.4200 H         1 TYR         0.0525
    167 H          -4.6348  -13.7209  -26.8141 H         1 TYR         0.0525
    168 H          -2.4569  -13.7510  -28.2518 H         1 TYR         0.2458
@<TRIPOS>BOND
     1    1    2 1  
     2    2    3 1  
     3    2    5 1  
     4    3    4 2  
     5    3   11 am 
     6    5    6 1  
     7    6    7 1  
     8    6    8 2  
     9    7    9 2  
    10    8   10 1  
    11    9   10 1  
    12   11   12 1  
    13   11   17 1  
    14   12   13 1  
    15   12   15 1  
    16   13   14 2  
    17   13   18 am 
    18   15   16 1  
    19   16   17 1  
    20   18   19 1  
    21   19   20 1  
    22   19   22 1  
    23   20   21 2  
    24   20   25 am 
    25   22   23 1  
    26   22   24 1  
    27   25   26 1  
    28   26   27 1  
    29   27   28 2  
    30   27   29 am 
    31   29   30 1  
    32   30   31 1  
    33   30   33 1  
    34   31   32 2  
    35   31   37 am 
    36   33   34 1  
    37   34   35 ar 
    38   34   36 ar 
    39   37   38 1  
    40   38   39 1  
    41   38   41 1  
    42   39   40 2  
    43   39   42 am 
    44   42   43 1  
    45   43   44 1  
    46   43   46 1  
    47   44   45 2  
    48   44   50 am 
    49   46   47 1  
    50   47   48 ar 
    51   47   49 ar 
    52   50   51 1  
    53   51   52 1  
    54   51   54 1  
    55   52   53 2  
    56   52   62 am 
    57   54   55 1  
    58   55   56 ar 
    59   55   57 ar 
    60   56   58 ar 
    61   57   59 ar 
    62   58   60 ar 
    63   59   60 ar 
    64   60   61 1  
    65   62   63 1  
    66   63   64 1  
    67   63   66 1  
    68   64   65 2  
    69   64   73 am 
    70   66   67 1  
    71   67   68 ar 
    72   67   69 ar 
    73   68   70 ar 
    74   69   71 ar 
    75   70   72 ar 
    76   71   72 ar 
    77   73   74 1  
    78   74   75 1  
    79   74   77 1  
    80   75   76 2  
    81   75   82 am 
    82   77   78 1  
    83   78   79 1  
    84   79   80 ar 
    85   79   81 ar 
    86   82   83 1  
    87   83   84 1  
    88   83   86 1  
    89   84   85 ar 
    90   84   94 ar 
    91   86   87 1  
    92   87   88 ar 
    93   87   89 ar 
    94   88   90 ar 
    95   89   91 ar 
    96   90   92 ar 
    97   91   92 ar 
    98   92   93 1  
    99    1   95 1  
   100    1   96 1  
   101    1   97 1  
   102    2   98 1  
   103    5   99 1  
   104    5  100 1  
   105    8  101 1  
   106    9  102 1  
   107   10  103 1  
   108   12  104 1  
   109   15  105 1  
   110   15  106 1  
   111   16  107 1  
   112   16  108 1  
   113   17  109 1  
   114   17  110 1  
   115   18  111 1  
   116   19  112 1  
   117   22  113 1  
   118   23  114 1  
   119   23  115 1  
   120   23  116 1  
   121   24  117 1  
   122   24  118 1  
   123   24  119 1  
   124   25  120 1  
   125   26  121 1  
   126   26  122 1  
   127   29  123 1  
   128   30  124 1  
   129   33  125 1  
   130   33  126 1  
   131   37  127 1  
   132   38  128 1  
   133   41  129 1  
   134   41  130 1  
   135   41  131 1  
   136   42  132 1  
   137   43  133 1  
   138   46  134 1  
   139   46  135 1  
   140   50  136 1  
   141   51  137 1  
   142   54  138 1  
   143   54  139 1  
   144   56  140 1  
   145   57  141 1  
   146   58  142 1  
   147   59  143 1  
   148   61  144 1  
   149   62  145 1  
   150   63  146 1  
   151   66  147 1  
   152   66  148 1  
   153   68  149 1  
   154   69  150 1  
   155   70  151 1  
   156   71  152 1  
   157   72  153 1  
   158   73  154 1  
   159   74  155 1  
   160   77  156 1  
   161   77  157 1  
   162   78  158 1  
   163   78  159 1  
   164   82  160 1  
   165   83  161 1  
   166   86  162 1  
   167   86  163 1  
   168   88  164 1  
   169   89  165 1  
   170   90  166 1  
   171   91  167 1  
   172   93  168 1  
@<TRIPOS>SUBSTRUCTURE
     1 HIS         1

