4pr5_ligand
  -I-interpret- 

171175  0  0  0  0  0  0  0  0999 V2000
   13.1260  -14.1070  -36.3500 N   0  3  0  0  0
   12.1140  -13.4940  -37.2170 C   0  0  0  0  0
   10.7300  -13.8360  -36.6740 C   0  0  0  0  0
   10.4850  -14.9810  -36.2820 O   0  0  0  0  0
   12.2680  -14.0560  -38.6370 C   0  0  0  0  0
   11.5300  -13.2880  -39.6930 C   0  0  0  0  0
   10.1540  -13.2290  -39.7500 N   0  0  0  0  0
   11.9810  -12.5940  -40.7670 C   0  0  0  0  0
    9.7880  -12.5170  -40.8020 C   0  0  0  0  0
   10.8780  -12.1190  -41.4350 N   0  0  0  0  0
    9.8090  -12.8560  -36.6490 N   0  0  0  0  0
    8.5010  -13.1440  -36.0520 C   0  0  0  0  0
    7.6050  -13.9260  -37.0000 C   0  0  0  0  0
    7.8650  -14.0010  -38.2060 O   0  0  0  0  0
    7.9050  -11.7430  -35.8390 C   0  0  0  0  0
    8.5090  -10.9290  -36.9300 C   0  0  0  0  0
    9.9410  -11.4310  -37.0050 C   0  0  0  0  0
    6.5350  -14.4870  -36.4590 N   0  0  0  0  0
    5.5960  -15.2180  -37.2930 C   0  0  0  0  0
    4.7230  -14.2060  -38.0460 C   0  0  0  0  0
    4.4280  -13.1250  -37.5350 O   0  0  0  0  0
    4.7520  -16.2200  -36.4690 C   0  0  0  0  0
    3.8260  -15.4860  -35.4880 C   0  0  0  0  0
    3.9490  -17.1360  -37.3970 C   0  0  0  0  0
    4.3500  -14.5360  -39.2790 N   0  0  0  0  0
    3.5090  -13.6530  -40.0650 C   0  0  0  0  0
    2.0490  -14.0470  -39.9410 C   0  0  0  0  0
    1.4470  -14.4940  -40.9170 O   0  0  0  0  0
    1.4890  -13.8820  -38.7380 N   0  0  0  0  0
    0.1280  -14.3370  -38.4240 C   0  0  0  0  0
   -0.8580  -13.1870  -38.3470 C   0  0  0  0  0
   -2.0070  -13.3660  -37.9280 O   0  0  0  0  0
    0.0820  -15.1320  -37.1000 C   0  0  0  0  0
    0.5030  -14.3040  -35.8860 C   0  0  0  0  0
    0.5350  -14.8800  -34.7700 O   0  0  0  0  0
    0.8090  -13.0930  -36.0370 O   0  0  0  0  0
   -0.4060  -12.0080  -38.7480 N   0  0  0  0  0
   -1.2160  -10.8170  -38.5760 C   0  0  0  0  0
   -2.5900  -10.9380  -39.2470 C   0  0  0  0  0
   -3.5680  -10.3430  -38.7840 O   0  0  0  0  0
   -0.4640   -9.6030  -39.0940 C   0  0  0  0  0
   -2.6740  -11.7300  -40.3130 N   0  0  0  0  0
   -3.9230  -11.8520  -41.0670 C   0  0  0  0  0
   -4.8840  -12.9300  -40.5450 C   0  0  0  0  0
   -5.9600  -13.1230  -41.1150 O   0  0  0  0  0
   -3.6430  -12.0670  -42.5600 C   0  0  0  0  0
   -3.1550  -10.8020  -43.2570 C   0  0  0  0  0
   -3.4450   -9.6870  -42.7640 O   0  0  0  0  0
   -2.4860  -10.9230  -44.3050 O   0  0  0  0  0
   -4.5170  -13.6220  -39.4670 N   0  0  0  0  0
   -5.3950  -14.6640  -38.9130 C   0  0  0  0  0
   -5.4290  -14.7690  -37.3800 C   0  0  0  0  0
   -6.1960  -15.5620  -36.8290 O   0  0  0  0  0
   -5.0970  -16.0440  -39.5290 C   0  0  0  0  0
   -3.6880  -16.5660  -39.3310 C   0  0  0  0  0
   -2.7830  -16.5950  -40.3930 C   0  0  0  0  0
   -3.2630  -17.0480  -38.0900 C   0  0  0  0  0
   -1.4940  -17.0800  -40.2220 C   0  0  0  0  0
   -1.9720  -17.5350  -37.9130 C   0  0  0  0  0
   -1.0930  -17.5460  -38.9820 C   0  0  0  0  0
    0.1900  -18.0250  -38.8220 O   0  0  0  0  0
   -4.6150  -13.9690  -36.6960 N   0  0  0  0  0
   -4.4840  -14.1100  -35.2460 C   0  0  0  0  0
   -5.3580  -13.1180  -34.4750 C   0  0  0  0  0
   -4.9580  -12.6470  -33.4090 O   0  0  0  0  0
   -3.0120  -13.9820  -34.8160 C   0  0  0  0  0
   -2.6650  -14.7260  -33.5380 C   0  0  0  0  0
   -2.3380  -14.0320  -32.3740 C   0  0  0  0  0
   -2.6370  -16.1130  -33.5080 C   0  0  0  0  0
   -2.0070  -14.7000  -31.2060 C   0  0  0  0  0
   -2.3010  -16.8000  -32.3340 C   0  0  0  0  0
   -1.9790  -16.0970  -31.1860 C   0  0  0  0  0
   -6.5380  -12.7980  -35.0020 N   0  0  0  0  0
   -7.4530  -11.9010  -34.2900 C   0  0  0  0  0
   -8.1450  -12.6700  -33.1750 C   0  0  0  0  0
   -8.7100  -13.7360  -33.4180 O   0  0  0  0  0
   -8.4910  -11.2990  -35.2360 C   0  0  0  0  0
   -9.4450  -10.3380  -34.5420 C   0  0  0  0  0
  -10.3550   -9.5650  -35.5020 C   0  0  0  0  0
  -11.5370   -9.3610  -35.1550 O   0  0  0  0  0
   -9.8910   -9.1400  -36.5820 O   0  0  0  0  0
   -8.0800  -12.1540  -31.9490 N   0  0  0  0  0
   -8.6720  -12.8510  -30.8050 C   0  0  0  0  0
  -10.1920  -12.8010  -30.8490 C   0  0  0  0  0
  -10.8560  -13.5010  -30.0950 O   0  0  0  0  0
   -8.2010  -12.2520  -29.4780 C   0  0  0  0  0
   -6.7250  -12.4230  -29.1720 C   0  0  0  0  0
   -5.7520  -11.9100  -30.0220 C   0  0  0  0  0
   -6.3090  -13.0690  -28.0140 C   0  0  0  0  0
   -4.4080  -12.0450  -29.7390 C   0  0  0  0  0
   -4.9490  -13.2100  -27.7170 C   0  0  0  0  0
   -4.0130  -12.6910  -28.5870 C   0  0  0  0  0
   -2.6750  -12.8280  -28.3060 O   0  0  0  0  0
  -10.7810  -12.0630  -31.6390 O   0  0  0  0  0
   13.0299  -13.7382  -35.4039 H   0  0  0  0  0
   12.9935  -15.1183  -36.3371 H   0  0  0  0  0
   14.0559  -13.8893  -36.7083 H   0  0  0  0  0
   12.2396  -12.4115  -37.2405 H   0  0  0  0  0
   11.8540  -15.0643  -38.6278 H   0  0  0  0  0
   13.3277  -14.0049  -38.8872 H   0  0  0  0  0
   13.0231  -12.4415  -41.0479 H   0  0  0  0  0
    8.7623  -12.2958  -41.0971 H   0  0  0  0  0
    8.5870  -13.7460  -35.1474 H   0  0  0  0  0
    8.1296  -11.3429  -34.8503 H   0  0  0  0  0
    6.8157  -11.7456  -35.8781 H   0  0  0  0  0
    8.4539   -9.8591  -36.7292 H   0  0  0  0  0
    7.9788  -11.0430  -37.8755 H   0  0  0  0  0
   10.3920  -11.2795  -37.9857 H   0  0  0  0  0
   10.6149  -10.8894  -36.3413 H   0  0  0  0  0
    6.3695  -14.4061  -35.4558 H   0  0  0  0  0
    6.1452  -15.8224  -38.0149 H   0  0  0  0  0
    5.4336  -16.8374  -35.8839 H   0  0  0  0  0
    4.4261  -14.8877  -34.8024 H   0  0  0  0  0
    3.1513  -14.8356  -36.0447 H   0  0  0  0  0
    3.2457  -16.2155  -34.9231 H   0  0  0  0  0
    3.2818  -16.5327  -38.0126 H   0  0  0  0  0
    4.6333  -17.6919  -38.0379 H   0  0  0  0  0
    3.3623  -17.8331  -36.7987 H   0  0  0  0  0
    4.6595  -15.4223  -39.6777 H   0  0  0  0  0
    3.8048  -13.7257  -41.1116 H   0  0  0  0  0
    3.6302  -12.6338  -39.6980 H   0  0  0  0  0
    2.0301  -13.4203  -38.0069 H   0  0  0  0  0
   -0.1638  -14.9918  -39.2451 H   0  0  0  0  0
    0.7796  -15.9647  -37.1901 H   0  0  0  0  0
   -0.9483  -15.4506  -36.9415 H   0  0  0  0  0
    0.7172  -12.8539  -36.9622 H   0  0  0  0  0
    0.5155  -11.9374  -39.1795 H   0  0  0  0  0
   -1.4035  -10.6971  -37.5090 H   0  0  0  0  0
    0.4669   -9.4895  -38.5384 H   0  0  0  0  0
   -0.2425   -9.7388  -40.1526 H   0  0  0  0  0
   -1.0786   -8.7126  -38.9614 H   0  0  0  0  0
   -1.8550  -12.2607  -40.6096 H   0  0  0  0  0
   -4.4362  -10.9018  -40.9190 H   0  0  0  0  0
   -4.5760  -12.3711  -43.0345 H   0  0  0  0  0
   -2.8600  -12.8201  -42.6480 H   0  0  0  0  0
   -3.9605   -9.8162  -41.9645 H   0  0  0  0  0
   -3.6199  -13.4275  -39.0224 H   0  0  0  0  0
   -6.3927  -14.3318  -39.1998 H   0  0  0  0  0
   -5.2367  -15.9370  -40.6047 H   0  0  0  0  0
   -5.7598  -16.7521  -39.0316 H   0  0  0  0  0
   -3.0935  -16.2309  -41.3724 H   0  0  0  0  0
   -3.9542  -17.0423  -37.2472 H   0  0  0  0  0
   -0.7994  -17.0939  -41.0619 H   0  0  0  0  0
   -1.6546  -17.9057  -36.9383 H   0  0  0  0  0
    0.3135  -18.3086  -37.9132 H   0  0  0  0  0
   -4.0789  -13.2528  -37.1859 H   0  0  0  0  0
   -4.8411  -15.1088  -34.9949 H   0  0  0  0  0
   -2.8232  -12.9244  -34.6319 H   0  0  0  0  0
   -2.4071  -14.4151  -35.6127 H   0  0  0  0  0
   -2.3428  -12.9420  -32.3829 H   0  0  0  0  0
   -2.8796  -16.6755  -34.4096 H   0  0  0  0  0
   -1.7688  -14.1365  -30.3039 H   0  0  0  0  0
   -2.2932  -17.8899  -32.3247 H   0  0  0  0  0
   -1.7060  -16.6284  -30.2743 H   0  0  0  0  0
   -6.8075  -13.1801  -35.9085 H   0  0  0  0  0
   -6.8739  -11.0796  -33.8680 H   0  0  0  0  0
   -9.0838  -12.1186  -35.6420 H   0  0  0  0  0
   -7.9552  -10.7383  -36.0020 H   0  0  0  0  0
   -8.8375   -9.6054  -34.0107 H   0  0  0  0  0
  -10.0885  -10.9322  -33.8932 H   0  0  0  0  0
   -8.9707   -9.4023  -36.6589 H   0  0  0  0  0
   -7.6108  -11.2599  -31.8045 H   0  0  0  0  0
   -8.3415  -13.8876  -30.8708 H   0  0  0  0  0
   -8.7439  -12.7754  -28.6910 H   0  0  0  0  0
   -8.3831  -11.1791  -29.5396 H   0  0  0  0  0
   -6.0568  -11.3905  -30.9305 H   0  0  0  0  0
   -7.0532  -13.4718  -27.3270 H   0  0  0  0  0
   -3.6616  -11.6424  -30.4238 H   0  0  0  0  0
   -4.6330  -13.7238  -26.8091 H   0  0  0  0  0
   -2.5701  -13.2970  -27.4750 H   0  0  0  0  0
  -10.1384  -11.5781  -32.1620 H   0  0  0  0  0
  1  2  1  0  0  0
  2  3  1  0  0  0
  2  5  1  0  0  0
  3  4  2  0  0  0
  3 11  1  0  0  0
  5  6  1  0  0  0
  6  7  4  0  0  0
  6  8  4  0  0  0
  7  9  4  0  0  0
  8 10  4  0  0  0
  9 10  4  0  0  0
 11 12  1  0  0  0
 11 17  1  0  0  0
 12 13  1  0  0  0
 12 15  1  0  0  0
 13 14  2  0  0  0
 13 18  1  0  0  0
 15 16  1  0  0  0
 16 17  1  0  0  0
 18 19  1  0  0  0
 19 20  1  0  0  0
 19 22  1  0  0  0
 20 21  2  0  0  0
 20 25  1  0  0  0
 22 23  1  0  0  0
 22 24  1  0  0  0
 25 26  1  0  0  0
 26 27  1  0  0  0
 27 28  2  0  0  0
 27 29  1  0  0  0
 29 30  1  0  0  0
 30 31  1  0  0  0
 30 33  1  0  0  0
 31 32  2  0  0  0
 31 37  1  0  0  0
 33 34  1  0  0  0
 34 35  2  0  0  0
 34 36  1  0  0  0
 37 38  1  0  0  0
 38 39  1  0  0  0
 38 41  1  0  0  0
 39 40  2  0  0  0
 39 42  1  0  0  0
 42 43  1  0  0  0
 43 44  1  0  0  0
 43 46  1  0  0  0
 44 45  2  0  0  0
 44 50  1  0  0  0
 46 47  1  0  0  0
 47 48  1  0  0  0
 47 49  2  0  0  0
 50 51  1  0  0  0
 51 52  1  0  0  0
 51 54  1  0  0  0
 52 53  2  0  0  0
 52 62  1  0  0  0
 54 55  1  0  0  0
 55 56  4  0  0  0
 55 57  4  0  0  0
 56 58  4  0  0  0
 57 59  4  0  0  0
 58 60  4  0  0  0
 59 60  4  0  0  0
 60 61  1  0  0  0
 62 63  1  0  0  0
 63 64  1  0  0  0
 63 66  1  0  0  0
 64 65  2  0  0  0
 64 73  1  0  0  0
 66 67  1  0  0  0
 67 68  4  0  0  0
 67 69  4  0  0  0
 68 70  4  0  0  0
 69 71  4  0  0  0
 70 72  4  0  0  0
 71 72  4  0  0  0
 73 74  1  0  0  0
 74 75  1  0  0  0
 74 77  1  0  0  0
 75 76  2  0  0  0
 75 82  1  0  0  0
 77 78  1  0  0  0
 78 79  1  0  0  0
 79 80  2  0  0  0
 79 81  1  0  0  0
 82 83  1  0  0  0
 83 84  1  0  0  0
 83 86  1  0  0  0
 84 85  2  0  0  0
 84 94  1  0  0  0
 86 87  1  0  0  0
 87 88  4  0  0  0
 87 89  4  0  0  0
 88 90  4  0  0  0
 89 91  4  0  0  0
 90 92  4  0  0  0
 91 92  4  0  0  0
 92 93  1  0  0  0
  1 95  1  0  0  0
  1 96  1  0  0  0
  1 97  1  0  0  0
  2 98  1  0  0  0
  5 99  1  0  0  0
  5100  1  0  0  0
  8101  1  0  0  0
  9102  1  0  0  0
 12103  1  0  0  0
 15104  1  0  0  0
 15105  1  0  0  0
 16106  1  0  0  0
 16107  1  0  0  0
 17108  1  0  0  0
 17109  1  0  0  0
 18110  1  0  0  0
 19111  1  0  0  0
 22112  1  0  0  0
 23113  1  0  0  0
 23114  1  0  0  0
 23115  1  0  0  0
 24116  1  0  0  0
 24117  1  0  0  0
 24118  1  0  0  0
 25119  1  0  0  0
 26120  1  0  0  0
 26121  1  0  0  0
 29122  1  0  0  0
 30123  1  0  0  0
 33124  1  0  0  0
 33125  1  0  0  0
 36126  1  0  0  0
 37127  1  0  0  0
 38128  1  0  0  0
 41129  1  0  0  0
 41130  1  0  0  0
 41131  1  0  0  0
 42132  1  0  0  0
 43133  1  0  0  0
 46134  1  0  0  0
 46135  1  0  0  0
 48136  1  0  0  0
 50137  1  0  0  0
 51138  1  0  0  0
 54139  1  0  0  0
 54140  1  0  0  0
 56141  1  0  0  0
 57142  1  0  0  0
 58143  1  0  0  0
 59144  1  0  0  0
 61145  1  0  0  0
 62146  1  0  0  0
 63147  1  0  0  0
 66148  1  0  0  0
 66149  1  0  0  0
 68150  1  0  0  0
 69151  1  0  0  0
 70152  1  0  0  0
 71153  1  0  0  0
 72154  1  0  0  0
 73155  1  0  0  0
 74156  1  0  0  0
 77157  1  0  0  0
 77158  1  0  0  0
 78159  1  0  0  0
 78160  1  0  0  0
 81161  1  0  0  0
 82162  1  0  0  0
 83163  1  0  0  0
 86164  1  0  0  0
 86165  1  0  0  0
 88166  1  0  0  0
 89167  1  0  0  0
 90168  1  0  0  0
 91169  1  0  0  0
 93170  1  0  0  0
 94171  1  0  0  0
M  END
$$$$
