1dar_ligand
  -I-interpret- 

 43 45  0  0  0  0  0  0  0  0999 V2000
   35.7410   31.4950  -20.3320 P   0  0  0  0  0
   35.3560   30.9410  -19.0810 O   0  0  0  0  0
   34.9090   32.8600  -20.2240 O   0  0  0  0  0
   37.2680   32.1210  -20.2260 O   0  0  0  0  0
   35.7000   30.2100  -21.1350 O   0  0  0  0  0
   34.8250   29.0000  -20.7480 P   0  0  0  0  0
   35.1090   27.8550  -21.6280 O   0  0  0  0  0
   33.3410   29.4680  -21.1300 O   0  0  0  0  0
   35.0240   28.4330  -19.3460 O   0  0  0  0  0
   36.2230   27.7480  -19.0200 C   0  0  0  0  0
   36.0010   26.3540  -18.3910 C   0  0  0  0  0
   34.8460   26.4250  -17.4920 O   0  0  0  0  0
   35.5630   25.2440  -19.3540 C   0  0  0  0  0
   36.1290   24.0060  -18.9520 O   0  0  0  0  0
   34.0860   25.0510  -19.2280 C   0  0  0  0  0
   33.9030   23.6980  -19.7550 O   0  0  0  0  0
   33.8870   25.3170  -17.6850 C   0  0  0  0  0
   32.4850   25.7790  -17.3580 N   0  0  0  0  0
   31.7450   26.8440  -17.8090 C   0  0  0  0  0
   30.5160   26.8870  -17.4130 N   0  0  0  0  0
   30.4760   25.7440  -16.6330 C   0  0  0  0  0
   29.4180   25.2200  -15.8950 C   0  0  0  0  0
   28.2430   25.5910  -15.8340 O   0  0  0  0  0
   29.8050   24.1250  -15.2310 N   0  0  0  0  0
   31.0300   23.5810  -15.2490 C   0  0  0  0  0
   31.2110   22.5370  -14.4460 N   0  0  0  0  0
   32.0300   24.0360  -15.9430 N   0  0  0  0  0
   31.6650   25.1070  -16.5990 C   0  0  0  0  0
   35.0535   33.3849  -21.0147 H   0  0  0  0  0
   37.5198   32.4928  -21.0745 H   0  0  0  0  0
   33.0935   30.2192  -20.5858 H   0  0  0  0  0
   36.7511   28.3540  -18.2838 H   0  0  0  0  0
   36.7726   27.5990  -19.9494 H   0  0  0  0  0
   36.9702   26.1179  -17.9518 H   0  0  0  0  0
   35.8703   25.5248  -20.3614 H   0  0  0  0  0
   35.8508   23.3162  -19.5589 H   0  0  0  0  0
   33.3589   25.6695  -19.7541 H   0  0  0  0  0
   32.9722   23.4657  -19.7208 H   0  0  0  0  0
   34.0382   24.4374  -17.0593 H   0  0  0  0  0
   32.1689   27.6071  -18.4617 H   0  0  0  0  0
   29.1016   23.6602  -14.6569 H   0  0  0  0  0
   32.1297   22.0991  -14.3780 H   0  0  0  0  0
   30.4311   22.1739  -13.8979 H   0  0  0  0  0
  1  2  2  0  0  0
  1  3  1  0  0  0
  1  4  1  0  0  0
  1  5  1  0  0  0
  5  6  1  0  0  0
  6  7  2  0  0  0
  6  8  1  0  0  0
  6  9  1  0  0  0
  9 10  1  0  0  0
 10 11  1  0  0  0
 11 12  1  0  0  0
 11 13  1  0  0  0
 12 17  1  0  0  0
 13 14  1  0  0  0
 13 15  1  0  0  0
 15 16  1  0  0  0
 15 17  1  0  0  0
 17 18  1  0  0  0
 18 19  4  0  0  0
 18 28  4  0  0  0
 19 20  4  0  0  0
 20 21  4  0  0  0
 21 22  1  0  0  0
 21 28  4  0  0  0
 22 23  2  0  0  0
 22 24  1  0  0  0
 24 25  1  0  0  0
 25 26  1  0  0  0
 25 27  2  0  0  0
 27 28  1  0  0  0
  3 29  1  0  0  0
  4 30  1  0  0  0
  8 31  1  0  0  0
 10 32  1  0  0  0
 10 33  1  0  0  0
 11 34  1  0  0  0
 13 35  1  0  0  0
 14 36  1  0  0  0
 15 37  1  0  0  0
 16 38  1  0  0  0
 17 39  1  0  0  0
 19 40  1  0  0  0
 24 41  1  0  0  0
 26 42  1  0  0  0
 26 43  1  0  0  0
M  END
$$$$
