3pjc_ligand
  -I-interpret- 

 48 52  0  0  0  0  0  0  0  0999 V2000
    6.9060   -4.9890    8.4100 C   0  0  0  0  0
    7.8390   -4.3930    9.2970 C   0  0  0  0  0
    6.3930   -4.9250   11.1290 C   0  0  0  0  0
    5.7720   -5.6080    8.9690 C   0  0  0  0  0
    6.2410   -4.9710   12.4880 N   0  0  0  0  0
    7.1870   -4.2920   13.3850 C   0  0  0  0  0
    6.1520   -7.1230   13.5760 C   0  0  0  0  0
   10.3840   -3.9280    9.3560 C   0  0  0  0  0
    6.3820   -4.2730    6.1850 F   0  0  0  0  0
    7.0970   -5.1730    6.9060 C   0  0  0  0  0
    8.4040   -5.1100    6.5590 F   0  0  0  0  0
    6.7030   -6.4360    6.6030 F   0  0  0  0  0
    7.5200   -4.3750   10.6040 N   0  0  0  0  0
    5.5640   -5.6010   10.2960 N   0  0  0  0  0
    8.1780   -5.4090   13.8430 C   0  0  0  0  0
    7.4190   -6.6550   14.2810 C   0  0  0  0  0
    5.2930   -5.8960   13.1330 C   0  0  0  0  0
    7.8330   -7.2830   15.2290 O   0  0  0  0  0
    9.1260   -3.6660    8.9310 C   0  0  0  0  0
   11.2240   -2.8940    8.7150 C   0  0  0  0  0
   10.4940   -2.1540    7.8620 N   0  0  0  0  0
    9.2240   -2.5860    7.9510 C   0  0  0  0  0
    8.2700   -2.1470    7.3370 O   0  0  0  0  0
   12.4200   -2.7620    8.9020 O   0  0  0  0  0
   10.8720   -4.8370   10.4280 C   0  0  0  0  0
   11.9670   -4.6160   11.1910 C   0  0  0  0  0
   12.1360   -5.5780   12.0590 N   0  0  0  0  0
   11.2000   -6.5310   11.9160 C   0  0  0  0  0
   10.3360   -6.1800   10.8690 C   0  0  0  0  0
    9.2930   -7.0330   10.4880 C   0  0  0  0  0
    9.1190   -8.2100   11.2460 C   0  0  0  0  0
    9.9780   -8.5420   12.3290 C   0  0  0  0  0
   11.0580   -7.7080   12.6720 C   0  0  0  0  0
    5.0520   -6.1003    8.3153 H   0  0  0  0  0
    6.6806   -3.8279   14.2314 H   0  0  0  0  0
    7.7033   -3.4730   12.8842 H   0  0  0  0  0
    5.5686   -7.7363   14.2628 H   0  0  0  0  0
    6.4284   -7.7008   12.6940 H   0  0  0  0  0
    8.7626   -5.0381   14.6849 H   0  0  0  0  0
    8.8281   -5.6678   13.0073 H   0  0  0  0  0
    4.4936   -6.1902   12.4529 H   0  0  0  0  0
    4.7915   -5.4299   13.9812 H   0  0  0  0  0
   10.8389   -1.4058    7.2606 H   0  0  0  0  0
   12.6218   -3.7499   11.0945 H   0  0  0  0  0
    8.6447   -6.7982    9.6438 H   0  0  0  0  0
    8.3013   -8.8852   10.9937 H   0  0  0  0  0
    9.7979   -9.4528   12.9000 H   0  0  0  0  0
   11.7462   -7.9602   13.4788 H   0  0  0  0  0
  2  1  4  0  0  0
  4  1  4  0  0  0
  1 10  1  0  0  0
 13  2  4  0  0  0
  2 19  1  0  0  0
  5  3  1  0  0  0
  3 13  4  0  0  0
  3 14  4  0  0  0
 14  4  4  0  0  0
  5  6  1  0  0  0
 17  5  1  0  0  0
  6 15  1  0  0  0
  7 16  1  0  0  0
  7 17  1  0  0  0
 19  8  2  0  0  0
  8 20  1  0  0  0
  8 25  1  0  0  0
 10  9  1  0  0  0
 10 11  1  0  0  0
 10 12  1  0  0  0
 15 16  1  0  0  0
 16 18  2  0  0  0
 19 22  1  0  0  0
 20 21  1  0  0  0
 20 24  2  0  0  0
 21 22  1  0  0  0
 22 23  2  0  0  0
 25 26  4  0  0  0
 25 29  4  0  0  0
 26 27  4  0  0  0
 27 28  4  0  0  0
 28 29  4  0  0  0
 28 33  4  0  0  0
 29 30  4  0  0  0
 30 31  4  0  0  0
 31 32  4  0  0  0
 32 33  4  0  0  0
  4 34  1  0  0  0
  6 35  1  0  0  0
  6 36  1  0  0  0
  7 37  1  0  0  0
  7 38  1  0  0  0
 15 39  1  0  0  0
 15 40  1  0  0  0
 17 41  1  0  0  0
 17 42  1  0  0  0
 21 43  1  0  0  0
 26 44  1  0  0  0
 30 45  1  0  0  0
 31 46  1  0  0  0
 32 47  1  0  0  0
 33 48  1  0  0  0
M  END
$$$$
