4msa_ligand
  -I-interpret- 

 16 17  0  0  0  0  0  0  0  0999 V2000
    4.3230  -28.0040  -29.5820 O   0  0  0  0  0
    4.4260  -28.7140  -30.5750 N   0  0  0  0  0
    4.7490  -29.8880  -30.4320 O   0  0  0  0  0
    4.1990  -28.1950  -31.8000 C   0  0  0  0  0
    3.5090  -26.9820  -31.9110 C   0  0  0  0  0
    3.2530  -26.3850  -33.1400 C   0  0  0  0  0
    3.7240  -27.0680  -34.2600 C   0  0  0  0  0
    3.6270  -26.7620  -35.5670 N   0  0  0  0  0
    4.2320  -27.7480  -36.2680 C   0  0  0  0  0
    4.7160  -28.6800  -35.4210 N   0  0  0  0  0
    4.4080  -28.2860  -34.1640 C   0  0  0  0  0
    4.6710  -28.8830  -32.9280 C   0  0  0  0  0
    3.1608  -26.4891  -31.0033 H   0  0  0  0  0
    2.7164  -25.4399  -33.2228 H   0  0  0  0  0
    4.3159  -27.7842  -37.3542 H   0  0  0  0  0
    5.2105  -29.8265  -32.8453 H   0  0  0  0  0
  1  2  2  0  0  0
  2  3  2  0  0  0
  2  4  1  0  0  0
  4  5  4  0  0  0
  4 12  4  0  0  0
  5  6  4  0  0  0
  6  7  4  0  0  0
  7  8  4  0  0  0
  7 11  4  0  0  0
  8  9  4  0  0  0
  9 10  4  0  0  0
 10 11  4  0  0  0
 11 12  4  0  0  0
  5 13  1  0  0  0
  6 14  1  0  0  0
  9 15  1  0  0  0
 12 16  1  0  0  0
M  END
$$$$
