5nvx_ligand
  -I-interpret- 

 69 72  0  0  0  0  0  0  0  0999 V2000
   10.2010   56.7800   96.8960 C   0  0  0  0  0
    9.7200   57.5010   95.6460 C   0  0  0  0  0
   10.1120   56.0430   95.5630 C   0  0  0  0  0
    9.1570   55.1980   95.4460 F   0  0  0  0  0
   11.4290   55.6500   94.8770 C   0  0  0  0  0
   12.4260   56.3500   95.0050 O   0  0  0  0  0
   11.3780   54.4730   94.2460 N   0  0  0  0  0
   12.4960   53.8460   93.5140 C   0  0  0  0  0
   12.7200   52.3930   94.0120 C   0  0  0  0  0
   13.1750   52.4790   95.4710 C   0  0  0  0  0
   13.8070   51.7170   93.1780 C   0  0  0  0  0
   11.4280   51.5250   93.9440 C   0  0  0  0  0
   12.1460   53.9270   92.0040 C   0  0  0  0  0
   10.9930   53.7360   91.6450 O   0  0  0  0  0
   13.1200   54.2780   91.1270 N   0  0  0  0  0
   14.5630   54.6050   91.3470 C   0  0  0  0  0
   14.9560   55.4380   90.1230 C   0  0  0  0  0
   14.5500   56.8090   90.2800 O   0  0  0  0  0
   14.1580   54.8120   89.0040 C   0  0  0  0  0
   12.8150   54.4200   89.6400 C   0  0  0  0  0
   12.3910   53.2210   89.0350 C   0  0  0  0  0
   12.8460   52.1490   89.4130 O   0  0  0  0  0
   11.5400   53.3430   87.9880 N   0  0  0  0  0
   11.0680   52.1970   87.1810 C   0  0  0  0  0
   11.8860   51.9730   86.0200 C   0  0  0  0  0
   11.8070   50.7560   85.3530 C   0  0  0  0  0
   12.5770   50.5030   84.2130 C   0  0  0  0  0
   12.7640   52.9360   85.5020 C   0  0  0  0  0
   13.5380   52.6840   84.3550 C   0  0  0  0  0
   13.4510   51.4650   83.6890 C   0  0  0  0  0
   14.2000   51.2400   82.5860 C   0  0  0  0  0
   15.8260   51.7050   82.3860 S   0  0  0  0  0
   15.9760   51.0920   80.8460 C   0  0  0  0  0
   14.8050   50.5490   80.4960 N   0  0  0  0  0
   13.8390   50.6280   81.4340 C   0  0  0  0  0
   12.4650   50.0160   81.1340 C   0  0  0  0  0
    9.8960   56.6416   97.9333 H   0  0  0  0  0
   10.9143   56.9283   97.7068 H   0  0  0  0  0
    9.9225   58.4301   95.1133 H   0  0  0  0  0
    8.8903   58.1396   95.3428 H   0  0  0  0  0
   10.4933   53.9660   94.2724 H   0  0  0  0  0
   13.4396   54.3626   93.6897 H   0  0  0  0  0
   14.1008   53.0514   95.5284 H   0  0  0  0  0
   12.4038   52.9728   96.0622 H   0  0  0  0  0
   13.3432   51.4739   95.8576 H   0  0  0  0  0
   13.5000   51.6952   92.1323 H   0  0  0  0  0
   14.7373   52.2770   93.2733 H   0  0  0  0  0
   13.9565   50.6982   93.5354 H   0  0  0  0  0
   10.6558   51.9758   94.5674 H   0  0  0  0  0
   11.0800   51.4739   92.9123 H   0  0  0  0  0
   11.6475   50.5202   94.3049 H   0  0  0  0  0
   15.1754   53.7087   91.4460 H   0  0  0  0  0
   14.7225   55.1468   92.2793 H   0  0  0  0  0
   16.0328   55.4432   89.9542 H   0  0  0  0  0
   14.8071   57.3088   89.5017 H   0  0  0  0  0
   14.6695   53.9486   88.5785 H   0  0  0  0  0
   14.0231   55.5016   88.1707 H   0  0  0  0  0
   12.0081   55.1398   89.5023 H   0  0  0  0  0
   11.2069   54.2754   87.7431 H   0  0  0  0  0
   10.0549   52.4156   86.8436 H   0  0  0  0  0
   11.1131   51.3036   87.8038 H   0  0  0  0  0
   11.1327   49.9847   85.7252 H   0  0  0  0  0
   12.4953   49.5342   83.7203 H   0  0  0  0  0
   12.8485   53.9020   85.9997 H   0  0  0  0  0
   14.2147   53.4533   83.9829 H   0  0  0  0  0
   16.8739   51.1270   80.2290 H   0  0  0  0  0
   12.2529   49.2297   81.8585 H   0  0  0  0  0
   11.7010   50.7904   81.2023 H   0  0  0  0  0
   12.4681   49.5945   80.1288 H   0  0  0  0  0
  1  2  1  0  0  0
  1  3  1  0  0  0
  2  3  1  0  0  0
  3  4  1  0  0  0
  3  5  1  0  0  0
  5  6  2  0  0  0
  5  7  1  0  0  0
  7  8  1  0  0  0
  8  9  1  0  0  0
  8 13  1  0  0  0
  9 10  1  0  0  0
  9 11  1  0  0  0
  9 12  1  0  0  0
 13 14  2  0  0  0
 13 15  1  0  0  0
 15 16  1  0  0  0
 15 20  1  0  0  0
 16 17  1  0  0  0
 17 18  1  0  0  0
 17 19  1  0  0  0
 19 20  1  0  0  0
 20 21  1  0  0  0
 21 22  2  0  0  0
 21 23  1  0  0  0
 23 24  1  0  0  0
 24 25  1  0  0  0
 25 26  4  0  0  0
 25 28  4  0  0  0
 26 27  4  0  0  0
 27 30  4  0  0  0
 28 29  4  0  0  0
 29 30  4  0  0  0
 30 31  1  0  0  0
 31 32  4  0  0  0
 31 35  4  0  0  0
 32 33  4  0  0  0
 33 34  4  0  0  0
 34 35  4  0  0  0
 35 36  1  0  0  0
  1 37  1  0  0  0
  1 38  1  0  0  0
  2 39  1  0  0  0
  2 40  1  0  0  0
  7 41  1  0  0  0
  8 42  1  0  0  0
 10 43  1  0  0  0
 10 44  1  0  0  0
 10 45  1  0  0  0
 11 46  1  0  0  0
 11 47  1  0  0  0
 11 48  1  0  0  0
 12 49  1  0  0  0
 12 50  1  0  0  0
 12 51  1  0  0  0
 16 52  1  0  0  0
 16 53  1  0  0  0
 17 54  1  0  0  0
 18 55  1  0  0  0
 19 56  1  0  0  0
 19 57  1  0  0  0
 20 58  1  0  0  0
 23 59  1  0  0  0
 24 60  1  0  0  0
 24 61  1  0  0  0
 26 62  1  0  0  0
 27 63  1  0  0  0
 28 64  1  0  0  0
 29 65  1  0  0  0
 33 66  1  0  0  0
 36 67  1  0  0  0
 36 68  1  0  0  0
 36 69  1  0  0  0
M  END
$$$$
