3g6z_ligand
  -I-interpret- 

 84 89  0  0  0  0  0  0  0  0999 V2000
   -4.6560  -16.7670   -9.8910 O   0  0  0  0  0
   -5.5920  -16.5480  -10.6630 C   0  0  0  0  0
   -6.2480  -15.3740  -10.5730 N   0  0  0  0  0
   -5.9410  -14.4040   -9.5210 C   0  0  0  0  0
   -4.7480  -13.4890   -9.6020 C   0  0  0  0  0
   -3.8650  -13.4990  -10.6790 C   0  0  0  0  0
   -2.7960  -12.5950  -10.6750 C   0  0  0  0  0
   -2.6240  -11.7060   -9.6130 C   0  0  0  0  0
   -3.5250  -11.6840   -8.5470 C   0  0  0  0  0
   -3.3500  -10.7130   -7.3940 C   0  0  0  0  0
   -4.5810  -12.5780   -8.5480 C   0  0  0  0  0
   -5.5460  -12.5660   -7.3910 C   0  0  0  0  0
   -7.4260  -14.9300  -11.3520 C   0  0  0  0  0
   -7.1820  -15.0560  -12.8490 C   0  0  0  0  0
   -6.9970  -13.7070  -12.1650 C   0  0  0  0  0
   -5.9460  -17.5960  -11.6450 C   0  0  0  0  0
   -4.9410  -18.0100  -12.6900 C   0  0  0  0  0
   -5.6170  -18.6720  -13.8000 N   0  3  0  0  0
   -3.9340  -18.9970  -12.1030 C   0  0  0  0  0
   -4.5860  -20.2900  -11.8880 N   0  3  0  0  0
   -5.5460  -20.8770  -12.8170 C   0  0  0  0  0
   -6.4260  -19.8200  -13.4710 C   0  0  0  0  0
   -7.5300  -19.3980  -12.5040 C   0  0  0  0  0
   -7.1420  -18.2440  -11.5760 C   0  0  0  0  0
   -8.1940  -17.8670  -10.5630 C   0  0  0  0  0
   -9.4900  -17.6670  -11.0130 C   0  0  0  0  0
  -10.4970  -17.3120  -10.1300 C   0  0  0  0  0
   -7.8940  -17.6970   -9.1990 C   0  0  0  0  0
   -8.9080  -17.3370   -8.3070 C   0  0  0  0  0
  -10.2060  -17.1460   -8.7780 C   0  0  0  0  0
  -11.1970  -16.7980   -7.9080 O   0  0  0  0  0
  -12.4270  -16.2250   -8.3530 C   0  0  0  0  0
  -12.6610  -14.9330   -7.5880 C   0  0  0  0  0
  -12.4710  -13.8180   -8.4510 O   0  0  0  0  0
  -12.0100  -12.6340   -7.9500 C   0  0  0  0  0
  -10.5680  -12.2990   -7.9700 C   0  0  0  0  0
   -9.3570  -13.4410   -8.6520 Cl  0  0  0  0  0
  -10.1670  -11.0750   -7.4380 C   0  0  0  0  0
  -11.0840  -10.1680   -6.9030 C   0  0  0  0  0
  -10.6180   -8.8480   -6.3400 C   0  0  0  0  0
  -12.4380  -10.4440   -6.8730 C   0  0  0  0  0
  -12.9410  -11.6330   -7.3690 C   0  0  0  0  0
  -14.7140  -11.9170   -7.3080 Cl  0  0  0  0  0
   -5.7271  -15.0272   -8.6527 H   0  0  0  0  0
   -6.7899  -13.7208   -9.5472 H   0  0  0  0  0
   -4.0031  -14.1950  -11.5064 H   0  0  0  0  0
   -2.0927  -12.5854  -11.5077 H   0  0  0  0  0
   -1.7762  -11.0209   -9.6160 H   0  0  0  0  0
   -2.3898  -10.8939   -6.9108 H   0  0  0  0  0
   -3.3806   -9.6915   -7.7731 H   0  0  0  0  0
   -4.1543  -10.8586   -6.6728 H   0  0  0  0  0
   -6.5503  -12.3567   -7.7593 H   0  0  0  0  0
   -5.5334  -13.5385   -6.8990 H   0  0  0  0  0
   -5.2500  -11.7941   -6.6806 H   0  0  0  0  0
   -8.2492  -15.2074  -10.6937 H   0  0  0  0  0
   -7.6862  -15.4630  -13.7255 H   0  0  0  0  0
   -6.6354  -15.7042  -13.5339 H   0  0  0  0  0
   -6.2567  -12.9085  -12.1149 H   0  0  0  0  0
   -7.2993  -12.6692  -12.3050 H   0  0  0  0  0
   -4.4287  -17.1116  -13.0343 H   0  0  0  0  0
   -4.8791  -19.0144  -14.4154 H   0  0  0  0  0
   -6.2556  -17.9808  -14.1935 H   0  0  0  0  0
   -3.5628  -18.6148  -11.1521 H   0  0  0  0  0
   -3.1011  -19.1209  -12.7951 H   0  0  0  0  0
   -5.1493  -20.1243  -11.0540 H   0  0  0  0  0
   -3.8059  -20.9462  -11.9229 H   0  0  0  0  0
   -6.1885  -21.5577  -12.2585 H   0  0  0  0  0
   -4.9907  -21.3913  -13.6014 H   0  0  0  0  0
   -6.8764  -20.2297  -14.3751 H   0  0  0  0  0
   -7.7515  -20.2585  -11.8727 H   0  0  0  0  0
   -8.3728  -19.0580  -13.1059 H   0  0  0  0  0
   -9.7189  -17.7902  -12.0715 H   0  0  0  0  0
  -11.5142  -17.1630  -10.4924 H   0  0  0  0  0
   -6.8757  -17.8453   -8.8396 H   0  0  0  0  0
   -8.6849  -17.2062   -7.2481 H   0  0  0  0  0
  -13.2479  -16.9188   -8.1719 H   0  0  0  0  0
  -12.3771  -16.0206   -9.4225 H   0  0  0  0  0
  -11.9539  -14.8719   -6.7608 H   0  0  0  0  0
  -13.6816  -14.9216   -7.2053 H   0  0  0  0  0
   -9.1076  -10.8184   -7.4396 H   0  0  0  0  0
   -9.9244   -9.0292   -5.5189 H   0  0  0  0  0
  -10.1164   -8.2778   -7.1219 H   0  0  0  0  0
  -11.4777   -8.2868   -5.9740 H   0  0  0  0  0
  -13.1233   -9.7096   -6.4498 H   0  0  0  0  0
  1  2  2  0  0  0
  2  3  1  0  0  0
  2 16  1  0  0  0
  3  4  1  0  0  0
  3 13  1  0  0  0
  4  5  1  0  0  0
  5  6  4  0  0  0
  5 11  4  0  0  0
  6  7  4  0  0  0
  7  8  4  0  0  0
  8  9  4  0  0  0
  9 10  1  0  0  0
  9 11  4  0  0  0
 11 12  1  0  0  0
 13 14  1  0  0  0
 13 15  1  0  0  0
 14 15  1  0  0  0
 16 17  1  0  0  0
 16 24  2  0  0  0
 17 18  1  0  0  0
 17 19  1  0  0  0
 18 22  1  0  0  0
 19 20  1  0  0  0
 20 21  1  0  0  0
 21 22  1  0  0  0
 22 23  1  0  0  0
 23 24  1  0  0  0
 24 25  1  0  0  0
 25 26  4  0  0  0
 25 28  4  0  0  0
 26 27  4  0  0  0
 27 30  4  0  0  0
 28 29  4  0  0  0
 29 30  4  0  0  0
 30 31  1  0  0  0
 31 32  1  0  0  0
 32 33  1  0  0  0
 33 34  1  0  0  0
 34 35  1  0  0  0
 35 36  4  0  0  0
 35 42  4  0  0  0
 36 37  1  0  0  0
 36 38  4  0  0  0
 38 39  4  0  0  0
 39 40  1  0  0  0
 39 41  4  0  0  0
 41 42  4  0  0  0
 42 43  1  0  0  0
  4 44  1  0  0  0
  4 45  1  0  0  0
  6 46  1  0  0  0
  7 47  1  0  0  0
  8 48  1  0  0  0
 10 49  1  0  0  0
 10 50  1  0  0  0
 10 51  1  0  0  0
 12 52  1  0  0  0
 12 53  1  0  0  0
 12 54  1  0  0  0
 13 55  1  0  0  0
 14 56  1  0  0  0
 14 57  1  0  0  0
 15 58  1  0  0  0
 15 59  1  0  0  0
 17 60  1  0  0  0
 18 61  1  0  0  0
 18 62  1  0  0  0
 19 63  1  0  0  0
 19 64  1  0  0  0
 20 65  1  0  0  0
 20 66  1  0  0  0
 21 67  1  0  0  0
 21 68  1  0  0  0
 22 69  1  0  0  0
 23 70  1  0  0  0
 23 71  1  0  0  0
 26 72  1  0  0  0
 27 73  1  0  0  0
 28 74  1  0  0  0
 29 75  1  0  0  0
 32 76  1  0  0  0
 32 77  1  0  0  0
 33 78  1  0  0  0
 33 79  1  0  0  0
 38 80  1  0  0  0
 40 81  1  0  0  0
 40 82  1  0  0  0
 40 83  1  0  0  0
 41 84  1  0  0  0
M  END
$$$$
