2ptz_ligand
  -I-interpret- 

 15 14  0  0  0  0  0  0  0  0999 V2000
   11.6580   28.1130   36.3180 C   0  0  0  0  0
   13.1260   28.4200   36.3860 C   0  0  0  0  0
   13.5540   29.2950   35.5110 N   0  0  0  0  0
   14.8410   29.7050   35.3980 O   0  0  0  0  0
   13.8880   27.8380   37.1630 O   0  0  0  0  0
   10.4960   30.3590   37.1800 O   0  0  0  0  0
   11.8290   29.0880   38.7760 O   0  0  0  0  0
    9.6010   28.1910   37.9080 O   0  0  0  0  0
   10.8460   29.0270   37.6860 P   0  0  0  0  0
   11.4857   27.0414   36.4180 H   0  0  0  0  0
   11.2469   28.4187   35.3559 H   0  0  0  0  0
   12.8706   29.6965   34.8690 H   0  0  0  0  0
   14.9098   30.3477   34.6882 H   0  0  0  0  0
   12.0284   28.1981   39.0757 H   0  0  0  0  0
    9.8528   27.3255   38.2384 H   0  0  0  0  0
  1  2  1  0  0  0
  1  9  1  0  0  0
  2  3  1  0  0  0
  2  5  2  0  0  0
  3  4  1  0  0  0
  9  6  2  0  0  0
  9  7  1  0  0  0
  9  8  1  0  0  0
  1 10  1  0  0  0
  1 11  1  0  0  0
  3 12  1  0  0  0
  4 13  1  0  0  0
  7 14  1  0  0  0
  8 15  1  0  0  0
M  END
$$$$
