3at4_ligand
  -I-interpret- 

 48 51  0  0  0  0  0  0  0  0999 V2000
  -25.1630   -9.1420  -29.5900 N   0  0  0  0  0
  -25.3790  -10.4650  -29.7320 C   0  0  0  0  0
  -25.6700  -11.2840  -28.6050 C   0  0  0  0  0
  -25.7230  -10.7100  -27.3800 N   0  0  0  0  0
  -25.4890   -9.4050  -27.2670 C   0  0  0  0  0
  -25.2030   -8.5860  -28.3890 C   0  0  0  0  0
  -25.9000  -12.6170  -28.7640 N   0  0  0  0  0
  -25.5210   -8.8510  -26.0470 N   0  0  0  0  0
  -26.0000  -13.6020  -27.8370 C   0  0  0  0  0
  -26.2570  -14.8190  -28.4690 C   0  0  0  0  0
  -26.3040  -14.4370  -29.8220 C   0  0  0  0  0
  -26.0490  -13.1210  -29.8910 N   0  0  0  0  0
  -25.8140   -9.4160  -24.7480 C   0  0  0  0  0
  -25.8410   -8.5280  -23.7030 C   0  0  0  0  0
  -25.4930   -7.2670  -24.2330 C   0  0  0  0  0
  -25.3040   -7.4750  -25.6030 C   0  0  0  0  0
  -26.4110  -16.0510  -27.8340 C   0  0  0  0  0
  -26.2910  -16.0500  -26.4310 C   0  0  0  0  0
  -26.0320  -14.8380  -25.7380 C   0  0  0  0  0
  -25.8850  -13.5920  -26.4340 C   0  0  0  0  0
  -25.9190  -14.8940  -24.3800 N   0  0  0  0  0
  -26.0530  -13.7080  -23.5480 C   0  0  0  0  0
  -24.7970  -13.4200  -22.7100 C   0  0  0  0  0
  -27.3490  -13.7310  -22.7350 C   0  0  0  0  0
  -26.2210   -8.9040  -22.2910 C   0  0  0  0  0
  -25.4200   -8.1890  -21.2120 C   0  0  0  0  0
  -24.7790   -7.1440  -21.4800 O   0  0  0  0  0
  -25.4780   -8.7170  -20.1000 O   0  0  0  0  0
  -25.3301  -10.9139  -30.7241 H   0  0  0  0  0
  -25.0195   -7.5187  -28.2649 H   0  0  0  0  0
  -26.5112  -15.0944  -30.6664 H   0  0  0  0  0
  -26.0016  -10.4806  -24.6084 H   0  0  0  0  0
  -25.3926   -6.3280  -23.6887 H   0  0  0  0  0
  -25.0177   -6.6748  -26.2855 H   0  0  0  0  0
  -26.6132  -16.9646  -28.3930 H   0  0  0  0  0
  -26.3972  -16.9818  -25.8756 H   0  0  0  0  0
  -25.6902  -12.6660  -25.8930 H   0  0  0  0  0
  -25.7353  -15.7932  -23.9349 H   0  0  0  0  0
  -26.1357  -12.8531  -24.2191 H   0  0  0  0  0
  -24.5983  -14.2666  -22.0528 H   0  0  0  0  0
  -23.9463  -13.2662  -23.3738 H   0  0  0  0  0
  -24.9589  -12.5237  -22.1112 H   0  0  0  0  0
  -28.2012  -13.7732  -23.4133 H   0  0  0  0  0
  -27.3546  -14.6077  -22.0874 H   0  0  0  0  0
  -27.4112  -12.8283  -22.1272 H   0  0  0  0  0
  -26.0252   -9.9706  -22.1805 H   0  0  0  0  0
  -27.2647   -8.6209  -22.1547 H   0  0  0  0  0
  -24.8879   -6.9328  -22.4101 H   0  0  0  0  0
  1  2  4  0  0  0
  1  6  4  0  0  0
  2  3  4  0  0  0
  3  4  4  0  0  0
  3  7  1  0  0  0
  4  5  4  0  0  0
  5  6  4  0  0  0
  5  8  1  0  0  0
  7  9  4  0  0  0
  7 12  4  0  0  0
  8 13  4  0  0  0
  8 16  4  0  0  0
  9 10  4  0  0  0
  9 20  4  0  0  0
 10 11  4  0  0  0
 10 17  4  0  0  0
 11 12  4  0  0  0
 13 14  4  0  0  0
 14 15  4  0  0  0
 14 25  1  0  0  0
 15 16  4  0  0  0
 17 18  4  0  0  0
 18 19  4  0  0  0
 19 20  4  0  0  0
 19 21  1  0  0  0
 21 22  1  0  0  0
 22 23  1  0  0  0
 22 24  1  0  0  0
 25 26  1  0  0  0
 26 27  1  0  0  0
 26 28  2  0  0  0
  2 29  1  0  0  0
  6 30  1  0  0  0
 11 31  1  0  0  0
 13 32  1  0  0  0
 15 33  1  0  0  0
 16 34  1  0  0  0
 17 35  1  0  0  0
 18 36  1  0  0  0
 20 37  1  0  0  0
 21 38  1  0  0  0
 22 39  1  0  0  0
 23 40  1  0  0  0
 23 41  1  0  0  0
 23 42  1  0  0  0
 24 43  1  0  0  0
 24 44  1  0  0  0
 24 45  1  0  0  0
 25 46  1  0  0  0
 25 47  1  0  0  0
 27 48  1  0  0  0
M  END
$$$$
