### 
### Created by X-TOOL on Mon Sep 10 21:12:48 2018
### 

@<TRIPOS>MOLECULE
1joj_ligand
  127   132     1     0     0
SMALL
GAST_HUCK


@<TRIPOS>ATOM
      1 C          59.2490   23.7220  128.7070 C.2       1 ACE         0.1751
      2 O          59.6690   24.9070  128.6090 O.2       1 ACE        -0.3972
      3 CH3        57.7790   23.3540  128.4460 C.3       1 ACE         0.0258
      4 N          60.1920   22.7810  129.0030 N.am      1 MET        -0.2658
      5 CA         61.6030   23.2150  129.0950 C.3       1 MET         0.1316
      6 C          62.0570   23.2980  127.6400 C.2       1 MET         0.2040
      7 O          62.3250   22.2850  126.9970 O.2       1 MET        -0.3944
      8 CB         62.4940   22.3360  129.9770 C.3       1 MET        -0.0034
      9 CG         63.5870   23.1010  130.6890 C.3       1 MET        -0.0024
     10 SD         64.3390   22.1250  132.0040 S.3       1 MET        -0.1639
     11 CE         64.0930   23.2140  133.3990 C.3       1 MET        -0.0181
     12 N          62.0800   24.5740  127.2160 N.am      1 TYR        -0.2621
     13 CA         62.3940   25.0880  125.8690 C.3       1 TYR         0.1390
     14 C          63.4150   26.1670  125.9790 C.2       1 TYR         0.2058
     15 O          63.0210   27.3190  126.1850 O.2       1 TYR        -0.3942
     16 CB         61.2780   25.9790  125.3780 C.3       1 TYR         0.0163
     17 CG         60.5090   25.7080  124.1570 C.ar      1 TYR        -0.0493
     18 CD1        60.7670   24.7010  123.2570 C.ar      1 TYR        -0.0685
     19 CD2        59.4420   26.5710  123.9520 C.ar      1 TYR        -0.0685
     20 CE1        59.9330   24.5600  122.1370 C.ar      1 TYR        -0.0398
     21 CE2        58.6140   26.4370  122.8640 C.ar      1 TYR        -0.0398
     22 CZ         58.8450   25.4190  121.9410 C.ar      1 TYR         0.0805
     23 OH         58.0200   25.2500  120.8620 O.3       1 TYR        -0.3376
     24 N          64.6900   25.9370  125.8750 N.am      1 TRP        -0.2625
     25 CA         65.5030   27.1440  126.0270 C.3       1 TRP         0.1352
     26 C          66.8450   27.2110  125.3520 C.2       1 TRP         0.2053
     27 O          67.3240   28.3170  125.0640 O.2       1 TRP        -0.3942
     28 CB         65.6290   27.4540  127.5310 C.3       1 TRP         0.0042
     29 CG         66.2920   26.3440  128.3240 C.2       1 TRP        -0.0418
     30 CD1        66.0090   24.9950  128.2390 C.2       1 TRP         0.0167
     31 CD2        67.2850   26.4780  129.3490 C.ar      1 TRP        -0.0214
     32 NE1        66.7500   24.2950  129.1450 N.pl3     1 TRP        -0.2890
     33 CE2        67.5450   25.1710  129.8420 C.ar      1 TRP         0.0603
     34 CE3        67.9830   27.5640  129.9120 C.ar      1 TRP        -0.0747
     35 CZ2        68.4780   24.9250  130.8750 C.ar      1 TRP        -0.0443
     36 CZ3        68.9050   27.3130  130.9310 C.ar      1 TRP        -0.0792
     37 CH2        69.1370   26.0150  131.3960 C.ar      1 TRP        -0.0768
     38 N          67.4450   26.0680  125.0100 N.am      1 TYR        -0.2620
     39 CA         68.7650   26.2420  124.4480 C.3       1 TYR         0.1392
     40 C          69.5510   25.6080  123.3180 C.2       1 TYR         0.2082
     41 O          69.6750   24.3840  123.2030 O.2       1 TYR        -0.3940
     42 CB         69.7330   26.2950  125.6330 C.3       1 TYR         0.0164
     43 CG         70.0610   27.7250  125.9520 C.ar      1 TYR        -0.0493
     44 CD1        70.6980   28.5280  125.0090 C.ar      1 TYR        -0.0685
     45 CD2        69.6420   28.3130  127.1400 C.ar      1 TYR        -0.0685
     46 CE1        70.9010   29.8780  125.2320 C.ar      1 TYR        -0.0398
     47 CE2        69.8410   29.6730  127.3790 C.ar      1 TYR        -0.0398
     48 CZ         70.4660   30.4470  126.4180 C.ar      1 TYR         0.0805
     49 OH         70.6430   31.7920  126.6250 O.3       1 TYR        -0.3376
     50 N          70.1150   26.4860  122.4680 N.am      1 PRO        -0.2497
     51 CA         70.9470   26.2780  121.2800 C.3       1 PRO         0.1338
     52 C          72.3810   26.5680  121.8080 C.2       1 PRO         0.2042
     53 O          73.0620   25.6600  122.2890 O.2       1 PRO        -0.3944
     54 CB         70.4710   27.3440  120.2900 C.3       1 PRO        -0.0104
     55 CG         69.0940   27.7570  120.8080 C.3       1 PRO        -0.0281
     56 CD         69.3630   27.7580  122.2890 C.3       1 PRO         0.0369
     57 N          72.8060   27.8360  121.7210 N.am      1 TYR        -0.2621
     58 CA         74.1180   28.3010  122.2130 C.3       1 TYR         0.1387
     59 C          74.6120   29.6160  121.6110 C.2       1 TYR         0.2010
     60 O          75.7960   29.8850  121.3980 O.2       1 TYR        -0.3946
     61 CB         75.2040   27.2270  122.0490 C.3       1 TYR         0.0163
     62 CG         75.4740   26.7180  120.6410 C.ar      1 TYR        -0.0493
     63 CD1        74.4380   26.3060  119.8040 C.ar      1 TYR        -0.0685
     64 CD2        76.7840   26.5080  120.2070 C.ar      1 TYR        -0.0685
     65 CE1        74.6940   25.6830  118.5830 C.ar      1 TYR        -0.0398
     66 CE2        77.0560   25.8860  118.9830 C.ar      1 TYR        -0.0398
     67 CZ         76.0040   25.4640  118.1800 C.ar      1 TYR         0.0805
     68 OH         76.2600   24.7550  117.0180 O.3       1 TYR        -0.3376
     69 N          73.6130   30.4550  121.3760 N.am      1 NH2        -0.2988
     70 H1         57.6410   22.2721  128.5889 H         1 ACE         0.0467
     71 H2         57.5109   23.6247  127.4141 H         1 ACE         0.0467
     72 H3         57.1336   23.9018  129.1483 H         1 ACE         0.0467
     73 H4         59.9365   21.8259  129.1533 H         1 MET         0.1882
     74 H5         61.6297   24.2247  129.5307 H         1 MET         0.0800
     75 H6         62.9631   21.5696  129.3425 H         1 MET         0.0320
     76 H7         61.8615   21.8488  130.7336 H         1 MET         0.0320
     77 H8         63.1563   24.0143  131.1253 H         1 MET         0.0378
     78 H9         64.3637   23.3741  129.9596 H         1 MET         0.0378
     79 H10        64.5091   22.7491  134.3049 H         1 MET         0.0340
     80 H11        63.0167   23.3923  133.5397 H         1 MET         0.0340
     81 H12        64.6018   24.1710  133.2113 H         1 MET         0.0340
     82 H13        61.8549   25.2646  127.9033 H         1 TYR         0.1885
     83 H14        62.6619   24.2758  125.1773 H         1 TYR         0.0821
     84 H15        61.7257   26.9740  125.2380 H         1 TYR         0.0453
     85 H16        60.5425   26.0195  126.1950 H         1 TYR         0.0453
     86 H17        61.6016   24.0265  123.4101 H         1 TYR         0.0530
     87 H18        59.2581   27.3669  124.6646 H         1 TYR         0.0530
     88 H19        60.1337   23.7766  121.4151 H         1 TYR         0.0525
     89 H20        57.7843   27.1204  122.7241 H         1 TYR         0.0525
     90 H21        58.3251   24.5147  120.3436 H         1 TYR         0.2458
     91 H22        65.0753   25.0294  125.7084 H         1 TRP         0.1884
     92 H23        64.9142   27.9558  125.5751 H         1 TRP         0.0815
     93 H24        64.6205   27.6183  127.9383 H         1 TRP         0.0397
     94 H25        66.2259   28.3704  127.6488 H         1 TRP         0.0397
     95 H26        65.2948   24.5525  127.5462 H         1 TRP         0.0795
     96 H27        66.7184   23.2749  129.2838 H         1 TRP         0.2216
     97 H28        67.8082   28.5748  129.5615 H         1 TRP         0.0540
     98 H29        68.6661   23.9220  131.2406 H         1 TRP         0.0541
     99 H30        69.4510   28.1404  131.3696 H         1 TRP         0.0510
    100 H31        69.8579   25.8626  132.1911 H         1 TRP         0.0530
    101 H32        67.0189   25.1716  125.1319 H         1 TYR         0.1885
    102 H33        68.6807   27.2729  124.0738 H         1 TYR         0.0821
    103 H34        70.6568   25.7563  125.3754 H         1 TYR         0.0453
    104 H35        69.2652   25.8225  126.5093 H         1 TYR         0.0453
    105 H36        71.0419   28.0858  124.0809 H         1 TYR         0.0530
    106 H37        69.1529   27.7051  127.8926 H         1 TYR         0.0530
    107 H38        71.3968   30.4863  124.4842 H         1 TYR         0.0525
    108 H39        69.5088   30.1191  128.3094 H         1 TYR         0.0525
    109 H40        69.7965   32.2078  126.7391 H         1 TYR         0.2458
    110 H41        70.8626   25.2663  120.8567 H         1 PRO         0.0802
    111 H42        70.3958   26.9266  119.2751 H         1 PRO         0.0313
    112 H43        71.1579   28.2031  120.2832 H         1 PRO         0.0313
    113 H44        68.3186   27.0264  120.5342 H         1 PRO         0.0287
    114 H45        68.8031   28.7538  120.4451 H         1 PRO         0.0287
    115 H46        69.9704   28.6263  122.5842 H         1 PRO         0.0524
    116 H47        68.4261   27.7529  122.8653 H         1 PRO         0.0524
    117 H48        72.1980   28.5075  121.2974 H         1 TYR         0.1885
    118 H49        73.9938   28.4770  123.2917 H         1 TYR         0.0821
    119 H50        74.9093   26.3626  122.6621 H         1 TYR         0.0453
    120 H51        76.1448   27.6466  122.4348 H         1 TYR         0.0453
    121 H52        73.4113   26.4736  120.1089 H         1 TYR         0.0530
    122 H53        77.6082   26.8336  120.8313 H         1 TYR         0.0530
    123 H54        73.8715   25.3704  117.9498 H         1 TYR         0.0525
    124 H55        78.0808   25.7346  118.6638 H         1 TYR         0.0525
    125 H56        75.4387   24.5442  116.5895 H         1 TYR         0.2458
    126 H57        73.7982   31.3550  120.9813 H         1 NH2         0.1815
    127 H58        72.6741   30.1880  121.5934 H         1 NH2         0.1815
@<TRIPOS>BOND
     1    1    2 2  
     2    1    3 1  
     3    1    4 am 
     4    4    5 1  
     5    5    6 1  
     6    5    8 1  
     7    6    7 2  
     8    6   12 am 
     9    8    9 1  
    10    9   10 1  
    11   10   11 1  
    12   12   13 1  
    13   13   14 1  
    14   13   16 1  
    15   14   15 2  
    16   14   24 am 
    17   16   17 1  
    18   17   18 ar 
    19   17   19 ar 
    20   18   20 ar 
    21   19   21 ar 
    22   20   22 ar 
    23   21   22 ar 
    24   22   23 1  
    25   24   25 1  
    26   25   26 1  
    27   25   28 1  
    28   26   27 2  
    29   26   38 am 
    30   28   29 1  
    31   29   30 2  
    32   29   31 1  
    33   30   32 1  
    34   31   33 ar 
    35   31   34 ar 
    36   32   33 1  
    37   33   35 ar 
    38   34   36 ar 
    39   35   37 ar 
    40   36   37 ar 
    41   38   39 1  
    42   39   40 1  
    43   39   42 1  
    44   40   41 2  
    45   40   50 am 
    46   42   43 1  
    47   43   44 ar 
    48   43   45 ar 
    49   44   46 ar 
    50   45   47 ar 
    51   46   48 ar 
    52   47   48 ar 
    53   48   49 1  
    54   50   51 1  
    55   50   56 1  
    56   51   52 1  
    57   51   54 1  
    58   52   53 2  
    59   52   57 am 
    60   54   55 1  
    61   55   56 1  
    62   57   58 1  
    63   58   59 1  
    64   58   61 1  
    65   59   60 2  
    66   59   69 am 
    67   61   62 1  
    68   62   63 ar 
    69   62   64 ar 
    70   63   65 ar 
    71   64   66 ar 
    72   65   67 ar 
    73   66   67 ar 
    74   67   68 1  
    75    3   70 1  
    76    3   71 1  
    77    3   72 1  
    78    4   73 1  
    79    5   74 1  
    80    8   75 1  
    81    8   76 1  
    82    9   77 1  
    83    9   78 1  
    84   11   79 1  
    85   11   80 1  
    86   11   81 1  
    87   12   82 1  
    88   13   83 1  
    89   16   84 1  
    90   16   85 1  
    91   18   86 1  
    92   19   87 1  
    93   20   88 1  
    94   21   89 1  
    95   23   90 1  
    96   24   91 1  
    97   25   92 1  
    98   28   93 1  
    99   28   94 1  
   100   30   95 1  
   101   32   96 1  
   102   34   97 1  
   103   35   98 1  
   104   36   99 1  
   105   37  100 1  
   106   38  101 1  
   107   39  102 1  
   108   42  103 1  
   109   42  104 1  
   110   44  105 1  
   111   45  106 1  
   112   46  107 1  
   113   47  108 1  
   114   49  109 1  
   115   51  110 1  
   116   54  111 1  
   117   54  112 1  
   118   55  113 1  
   119   55  114 1  
   120   56  115 1  
   121   56  116 1  
   122   57  117 1  
   123   58  118 1  
   124   61  119 1  
   125   61  120 1  
   126   63  121 1  
   127   64  122 1  
   128   65  123 1  
   129   66  124 1  
   130   68  125 1  
   131   69  126 1  
   132   69  127 1  
@<TRIPOS>SUBSTRUCTURE
     1 ACE         1

