1joj_ligand
  -I-interpret- 

126131  0  0  0  0  0  0  0  0999 V2000
   59.2490   23.7220  128.7070 C   0  0  0  0  0
   59.6690   24.9070  128.6090 O   0  0  0  0  0
   57.7790   23.3540  128.4460 C   0  0  0  0  0
   60.1920   22.7810  129.0030 N   0  0  0  0  0
   61.6030   23.2150  129.0950 C   0  0  0  0  0
   62.0570   23.2980  127.6400 C   0  0  0  0  0
   62.3250   22.2850  126.9970 O   0  0  0  0  0
   62.4940   22.3360  129.9770 C   0  0  0  0  0
   63.5870   23.1010  130.6890 C   0  0  0  0  0
   64.3390   22.1250  132.0040 S   0  0  0  0  0
   64.0930   23.2140  133.3990 C   0  0  0  0  0
   62.0800   24.5740  127.2160 N   0  0  0  0  0
   62.3940   25.0880  125.8690 C   0  0  0  0  0
   63.4150   26.1670  125.9790 C   0  0  0  0  0
   63.0210   27.3190  126.1850 O   0  0  0  0  0
   61.2780   25.9790  125.3780 C   0  0  0  0  0
   60.5090   25.7080  124.1570 C   0  0  0  0  0
   60.7670   24.7010  123.2570 C   0  0  0  0  0
   59.4420   26.5710  123.9520 C   0  0  0  0  0
   59.9330   24.5600  122.1370 C   0  0  0  0  0
   58.6140   26.4370  122.8640 C   0  0  0  0  0
   58.8450   25.4190  121.9410 C   0  0  0  0  0
   58.0200   25.2500  120.8620 O   0  0  0  0  0
   64.6900   25.9370  125.8750 N   0  0  0  0  0
   65.5030   27.1440  126.0270 C   0  0  0  0  0
   66.8450   27.2110  125.3520 C   0  0  0  0  0
   67.3240   28.3170  125.0640 O   0  0  0  0  0
   65.6290   27.4540  127.5310 C   0  0  0  0  0
   66.2920   26.3440  128.3240 C   0  0  0  0  0
   66.0090   24.9950  128.2390 C   0  0  0  0  0
   67.2850   26.4780  129.3490 C   0  0  0  0  0
   66.7500   24.2950  129.1450 N   0  0  0  0  0
   67.5450   25.1710  129.8420 C   0  0  0  0  0
   67.9830   27.5640  129.9120 C   0  0  0  0  0
   68.4780   24.9250  130.8750 C   0  0  0  0  0
   68.9050   27.3130  130.9310 C   0  0  0  0  0
   69.1370   26.0150  131.3960 C   0  0  0  0  0
   67.4450   26.0680  125.0100 N   0  0  0  0  0
   68.7650   26.2420  124.4480 C   0  0  0  0  0
   69.5510   25.6080  123.3180 C   0  0  0  0  0
   69.6750   24.3840  123.2030 O   0  0  0  0  0
   69.7330   26.2950  125.6330 C   0  0  0  0  0
   70.0610   27.7250  125.9520 C   0  0  0  0  0
   70.6980   28.5280  125.0090 C   0  0  0  0  0
   69.6420   28.3130  127.1400 C   0  0  0  0  0
   70.9010   29.8780  125.2320 C   0  0  0  0  0
   69.8410   29.6730  127.3790 C   0  0  0  0  0
   70.4660   30.4470  126.4180 C   0  0  0  0  0
   70.6430   31.7920  126.6250 O   0  0  0  0  0
   70.1150   26.4860  122.4680 N   0  0  0  0  0
   70.9470   26.2780  121.2800 C   0  0  0  0  0
   72.3810   26.5680  121.8080 C   0  0  0  0  0
   73.0620   25.6600  122.2890 O   0  0  0  0  0
   70.4710   27.3440  120.2900 C   0  0  0  0  0
   69.0940   27.7570  120.8080 C   0  0  0  0  0
   69.3630   27.7580  122.2890 C   0  0  0  0  0
   72.8060   27.8360  121.7210 N   0  0  0  0  0
   74.1180   28.3010  122.2130 C   0  0  0  0  0
   74.6120   29.6160  121.6110 C   0  0  0  0  0
   75.7960   29.8850  121.3980 O   0  0  0  0  0
   75.2040   27.2270  122.0490 C   0  0  0  0  0
   75.4740   26.7180  120.6410 C   0  0  0  0  0
   74.4380   26.3060  119.8040 C   0  0  0  0  0
   76.7840   26.5080  120.2070 C   0  0  0  0  0
   74.6940   25.6830  118.5830 C   0  0  0  0  0
   77.0560   25.8860  118.9830 C   0  0  0  0  0
   76.0040   25.4640  118.1800 C   0  0  0  0  0
   76.2600   24.7550  117.0180 O   0  0  0  0  0
   73.6130   30.4550  121.3760 N   0  0  0  0  0
   57.1406   23.8975  129.1425 H   0  0  0  0  0
   57.5146   23.6228  127.4233 H   0  0  0  0  0
   57.6435   22.2818  128.5879 H   0  0  0  0  0
   59.9314   21.8068  129.1563 H   0  0  0  0  0
   61.6907   24.1709  129.6115 H   0  0  0  0  0
   62.9768   21.6056  129.3277 H   0  0  0  0  0
   61.8577   21.8892  130.7409 H   0  0  0  0  0
   63.1468   23.9936  131.1336 H   0  0  0  0  0
   64.3602   23.3502  129.9622 H   0  0  0  0  0
   64.5975   24.1619  133.2117 H   0  0  0  0  0
   63.0262   23.3899  133.5373 H   0  0  0  0  0
   64.5057   22.7523  134.2960 H   0  0  0  0  0
   61.8504   25.2784  127.9170 H   0  0  0  0  0
   62.6358   24.2111  125.2685 H   0  0  0  0  0
   61.7924   26.9108  125.1430 H   0  0  0  0  0
   60.5290   25.8915  126.1650 H   0  0  0  0  0
   61.6062   24.0227  123.4110 H   0  0  0  0  0
   59.2571   27.3713  124.6686 H   0  0  0  0  0
   60.1348   23.7723  121.4111 H   0  0  0  0  0
   57.7797   27.1242  122.7233 H   0  0  0  0  0
   57.3313   25.9185  120.8794 H   0  0  0  0  0
   65.0830   25.0112  125.7051 H   0  0  0  0  0
   64.9536   27.9040  125.4714 H   0  0  0  0  0
   64.6206   27.5808  127.9250 H   0  0  0  0  0
   66.2500   28.3442  127.6311 H   0  0  0  0  0
   65.2941   24.5521  127.5455 H   0  0  0  0  0
   67.8072   28.5804  129.5596 H   0  0  0  0  0
   68.6671   23.9165  131.2427 H   0  0  0  0  0
   69.4540   28.1450  131.3720 H   0  0  0  0  0
   69.8619   25.8618  132.1955 H   0  0  0  0  0
   67.0104   25.1537  125.1344 H   0  0  0  0  0
   68.3931   27.0313  123.7947 H   0  0  0  0  0
   70.6486   25.7619  125.3768 H   0  0  0  0  0
   69.2684   25.8276  126.5013 H   0  0  0  0  0
   71.0438   28.0834  124.0758 H   0  0  0  0  0
   69.1502   27.7018  127.8967 H   0  0  0  0  0
   71.3996   30.4897  124.4801 H   0  0  0  0  0
   69.5070   30.1216  128.3146 H   0  0  0  0  0
   70.2919   32.0311  127.4859 H   0  0  0  0  0
   70.9058   25.3004  120.7997 H   0  0  0  0  0
   70.4272   26.9641  119.2693 H   0  0  0  0  0
   71.1581   28.1884  120.2362 H   0  0  0  0  0
   68.2803   27.1013  120.4980 H   0  0  0  0  0
   68.7306   28.7066  120.4151 H   0  0  0  0  0
   69.9133   28.6360  122.6271 H   0  0  0  0  0
   68.4568   27.8122  122.8922 H   0  0  0  0  0
   72.1858   28.5209  121.2889 H   0  0  0  0  0
   73.9386   28.4958  123.2703 H   0  0  0  0  0
   74.8524   26.3630  122.6130 H   0  0  0  0  0
   76.1327   27.6936  122.3775 H   0  0  0  0  0
   73.4057   26.4745  120.1106 H   0  0  0  0  0
   77.6128   26.8354  120.8347 H   0  0  0  0  0
   73.8670   25.3686  117.9463 H   0  0  0  0  0
   78.0865   25.7338  118.6620 H   0  0  0  0  0
   77.2087   24.6937  116.8843 H   0  0  0  0  0
   73.8044   31.3827  120.9976 H   0  0  0  0  0
   72.6529   30.1729  121.5736 H   0  0  0  0  0
  1  2  2  0  0  0
  1  3  1  0  0  0
  1  4  1  0  0  0
  4  5  1  0  0  0
  5  6  1  0  0  0
  5  8  1  0  0  0
  6  7  2  0  0  0
  6 12  1  0  0  0
  8  9  1  0  0  0
  9 10  1  0  0  0
 10 11  1  0  0  0
 12 13  1  0  0  0
 13 14  1  0  0  0
 13 16  1  0  0  0
 14 15  2  0  0  0
 14 24  1  0  0  0
 16 17  1  0  0  0
 17 18  4  0  0  0
 17 19  4  0  0  0
 18 20  4  0  0  0
 19 21  4  0  0  0
 20 22  4  0  0  0
 21 22  4  0  0  0
 22 23  1  0  0  0
 24 25  1  0  0  0
 25 26  1  0  0  0
 25 28  1  0  0  0
 26 27  2  0  0  0
 26 38  1  0  0  0
 28 29  1  0  0  0
 29 30  4  0  0  0
 29 31  4  0  0  0
 30 32  4  0  0  0
 31 33  4  0  0  0
 31 34  4  0  0  0
 32 33  4  0  0  0
 33 35  4  0  0  0
 34 36  4  0  0  0
 35 37  4  0  0  0
 36 37  4  0  0  0
 38 39  1  0  0  0
 39 40  1  0  0  0
 39 42  1  0  0  0
 40 41  2  0  0  0
 40 50  1  0  0  0
 42 43  1  0  0  0
 43 44  4  0  0  0
 43 45  4  0  0  0
 44 46  4  0  0  0
 45 47  4  0  0  0
 46 48  4  0  0  0
 47 48  4  0  0  0
 48 49  1  0  0  0
 50 51  1  0  0  0
 50 56  1  0  0  0
 51 52  1  0  0  0
 51 54  1  0  0  0
 52 53  2  0  0  0
 52 57  1  0  0  0
 54 55  1  0  0  0
 55 56  1  0  0  0
 57 58  1  0  0  0
 58 59  1  0  0  0
 58 61  1  0  0  0
 59 60  2  0  0  0
 59 69  1  0  0  0
 61 62  1  0  0  0
 62 63  4  0  0  0
 62 64  4  0  0  0
 63 65  4  0  0  0
 64 66  4  0  0  0
 65 67  4  0  0  0
 66 67  4  0  0  0
 67 68  1  0  0  0
  3 70  1  0  0  0
  3 71  1  0  0  0
  3 72  1  0  0  0
  4 73  1  0  0  0
  5 74  1  0  0  0
  8 75  1  0  0  0
  8 76  1  0  0  0
  9 77  1  0  0  0
  9 78  1  0  0  0
 11 79  1  0  0  0
 11 80  1  0  0  0
 11 81  1  0  0  0
 12 82  1  0  0  0
 13 83  1  0  0  0
 16 84  1  0  0  0
 16 85  1  0  0  0
 18 86  1  0  0  0
 19 87  1  0  0  0
 20 88  1  0  0  0
 21 89  1  0  0  0
 23 90  1  0  0  0
 24 91  1  0  0  0
 25 92  1  0  0  0
 28 93  1  0  0  0
 28 94  1  0  0  0
 30 95  1  0  0  0
 34 96  1  0  0  0
 35 97  1  0  0  0
 36 98  1  0  0  0
 37 99  1  0  0  0
 38100  1  0  0  0
 39101  1  0  0  0
 42102  1  0  0  0
 42103  1  0  0  0
 44104  1  0  0  0
 45105  1  0  0  0
 46106  1  0  0  0
 47107  1  0  0  0
 49108  1  0  0  0
 51109  1  0  0  0
 54110  1  0  0  0
 54111  1  0  0  0
 55112  1  0  0  0
 55113  1  0  0  0
 56114  1  0  0  0
 56115  1  0  0  0
 57116  1  0  0  0
 58117  1  0  0  0
 61118  1  0  0  0
 61119  1  0  0  0
 63120  1  0  0  0
 64121  1  0  0  0
 65122  1  0  0  0
 66123  1  0  0  0
 68124  1  0  0  0
 69125  1  0  0  0
 69126  1  0  0  0
M  END
$$$$
