6n79_ligand
  -I-interpret- 

 38 41  0  0  0  0  0  0  0  0999 V2000
   22.2370  199.0150   17.7490 C   0  0  0  0  0
   19.0190  192.5560   16.0910 C   0  0  0  0  0
   20.5200  198.8290   14.7260 C   0  0  0  0  0
   22.2000  196.6220   18.7790 C   0  0  0  0  0
   21.2140  191.3260   17.2740 C   0  0  0  0  0
   21.7400  194.2850   19.4050 C   0  0  0  0  0
   22.1590  194.2490   20.7660 C   0  0  0  0  0
   21.2990  192.9730   19.1080 C   0  0  0  0  0
   20.6770  192.4720   17.8640 C   0  0  0  0  0
   20.6450  190.8160   16.1270 C   0  0  0  0  0
   19.5650  191.4200   15.5210 C   0  0  0  0  0
   21.7700  199.6520   16.6840 N   0  0  0  0  0
   21.2190  198.6630   15.9020 N   0  0  0  0  0
   22.0060  197.6320   17.7010 C   0  0  0  0  0
   21.7770  195.3510   18.4750 N   0  0  0  0  0
   21.2810  189.3470   15.4520 Cl  0  0  0  0  0
   19.5630  193.0750   17.2560 C   0  0  0  0  0
   19.0720  194.2100   17.8570 O   0  0  0  0  0
   17.8100  194.1910   18.3170 C   0  0  0  0  0
   17.8010  194.5440   19.5870 F   0  0  0  0  0
   16.9180  194.7240   17.4740 F   0  0  0  0  0
   21.4750  192.2040   20.1890 N   0  0  0  0  0
   21.9840  192.9880   21.1650 N   0  0  0  0  0
   22.6600  196.9430   19.8760 O   0  0  0  0  0
   20.0050  197.7260   14.1400 C   0  0  0  0  0
   21.3820  197.4220   16.4630 C   0  0  0  0  0
   20.9150  196.2850   15.8740 N   0  0  0  0  0
   20.2450  196.4630   14.7410 C   0  0  0  0  0
   22.7463  199.5129   18.5741 H   0  0  0  0  0
   18.1622  193.0425   15.6249 H   0  0  0  0  0
   20.3872  199.8164   14.2838 H   0  0  0  0  0
   22.0802  190.8364   17.7191 H   0  0  0  0  0
   22.5429  195.0794   21.3585 H   0  0  0  0  0
   19.1458  191.0075   14.6033 H   0  0  0  0  0
   21.4707  195.1640   17.5202 H   0  0  0  0  0
   17.4131  193.1759   18.3304 H   0  0  0  0  0
   19.4177  197.8045   13.2251 H   0  0  0  0  0
   19.8528  195.5788   14.2386 H   0  0  0  0  0
 12  1  4  0  0  0
  1 14  4  0  0  0
  2 11  4  0  0  0
 17  2  4  0  0  0
 13  3  4  0  0  0
  3 25  4  0  0  0
 14  4  1  0  0  0
  4 15  1  0  0  0
  4 24  2  0  0  0
  9  5  4  0  0  0
  5 10  4  0  0  0
  6  7  4  0  0  0
  6  8  4  0  0  0
 15  6  1  0  0  0
  7 23  4  0  0  0
  8  9  1  0  0  0
  8 22  4  0  0  0
  9 17  4  0  0  0
 10 11  4  0  0  0
 10 16  1  0  0  0
 12 13  4  0  0  0
 13 26  4  0  0  0
 14 26  4  0  0  0
 17 18  1  0  0  0
 18 19  1  0  0  0
 19 20  1  0  0  0
 19 21  1  0  0  0
 22 23  4  0  0  0
 25 28  4  0  0  0
 26 27  4  0  0  0
 27 28  4  0  0  0
  1 29  1  0  0  0
  2 30  1  0  0  0
  3 31  1  0  0  0
  5 32  1  0  0  0
  7 33  1  0  0  0
 11 34  1  0  0  0
 15 35  1  0  0  0
 19 36  1  0  0  0
 25 37  1  0  0  0
 28 38  1  0  0  0
M  END
$$$$
