4cmo_ligand
  -I-interpret- 

 49 51  0  0  0  0  0  0  0  0999 V2000
   29.9790   44.6360    9.2200 C   0  0  0  0  0
   28.9000   44.3150   10.0640 C   0  0  0  0  0
   27.8540   45.1960   10.1760 N   0  0  0  0  0
   27.8900   46.3720    9.4670 C   0  0  0  0  0
   28.9580   46.7110    8.6230 C   0  0  0  0  0
   30.0090   45.8120    8.5120 N   0  0  0  0  0
   28.8740   43.1140   10.7870 N   0  0  0  0  0
   31.0160   43.7080    9.1370 O   0  0  0  0  0
   32.1420   43.9830    8.2650 C   0  0  0  0  0
   33.1510   44.9930    8.8400 C   0  0  0  0  0
   33.7930   46.0240    8.0340 C   0  0  0  0  0
   34.7260   46.9310    8.6420 C   0  0  0  0  0
   35.0330   46.8350   10.0220 C   0  0  0  0  0
   34.4160   45.8360   10.8040 C   0  0  0  0  0
   33.4910   44.9260   10.2400 C   0  0  0  0  0
   34.7070   45.7470   12.1060 F   0  0  0  0  0
   29.0690   47.9790    7.8380 C   0  0  0  0  0
   27.9850   48.7810    7.3380 C   0  0  0  0  0
   28.1750   49.9580    6.6190 N   0  0  0  0  0
   29.4520   50.3830    6.3700 C   0  0  0  0  0
   30.5840   49.6940    6.8030 C   0  0  0  0  0
   30.3740   48.4960    7.5340 C   0  0  0  0  0
   26.6820   48.3560    7.5900 O   0  0  0  0  0
   25.6180   49.1820    7.0900 C   0  0  0  0  0
   33.5340   46.1950    6.5570 C   0  0  0  0  0
   33.3440   47.5060    6.1210 N   0  0  0  0  0
   33.5180   45.2010    5.8310 O   0  0  0  0  0
   33.0970   47.8410    4.7310 C   0  0  0  0  0
   32.8030   42.6170    8.0150 C   0  0  0  0  0
   27.0570   47.0683    9.5639 H   0  0  0  0  0
   29.6471   42.4535   10.7066 H   0  0  0  0  0
   28.0820   42.9008   11.3933 H   0  0  0  0  0
   31.7932   44.4587    7.3484 H   0  0  0  0  0
   35.2028   47.7011    8.0356 H   0  0  0  0  0
   35.7410   47.5282   10.4762 H   0  0  0  0  0
   33.0302   44.1657   10.8707 H   0  0  0  0  0
   29.5907   51.3051    5.8056 H   0  0  0  0  0
   31.5881   50.0601    6.5890 H   0  0  0  0  0
   31.2454   47.9412    7.8817 H   0  0  0  0  0
   25.6932   50.1758    7.5314 H   0  0  0  0  0
   25.6975   49.2577    6.0055 H   0  0  0  0  0
   24.6590   48.7369    7.3551 H   0  0  0  0  0
   33.3801   48.2599    6.8071 H   0  0  0  0  0
   33.9386   47.5084    4.1234 H   0  0  0  0  0
   32.1863   47.3449    4.3953 H   0  0  0  0  0
   32.9812   48.9205    4.6338 H   0  0  0  0  0
   33.1264   42.1920    8.9652 H   0  0  0  0  0
   32.0840   41.9480    7.5422 H   0  0  0  0  0
   33.6654   42.7464    7.3611 H   0  0  0  0  0
  1  2  4  0  0  0
  1  6  4  0  0  0
  1  8  1  0  0  0
  2  3  4  0  0  0
  2  7  1  0  0  0
  3  4  4  0  0  0
  4  5  4  0  0  0
  5  6  4  0  0  0
  5 17  1  0  0  0
  8  9  1  0  0  0
  9 10  1  0  0  0
  9 29  1  0  0  0
 10 11  4  0  0  0
 10 15  4  0  0  0
 11 12  4  0  0  0
 11 25  1  0  0  0
 12 13  4  0  0  0
 13 14  4  0  0  0
 14 15  4  0  0  0
 14 16  1  0  0  0
 17 18  4  0  0  0
 17 22  4  0  0  0
 18 19  4  0  0  0
 18 23  1  0  0  0
 19 20  4  0  0  0
 20 21  4  0  0  0
 21 22  4  0  0  0
 23 24  1  0  0  0
 25 26  1  0  0  0
 25 27  2  0  0  0
 26 28  1  0  0  0
  4 30  1  0  0  0
  7 31  1  0  0  0
  7 32  1  0  0  0
  9 33  1  0  0  0
 12 34  1  0  0  0
 13 35  1  0  0  0
 15 36  1  0  0  0
 20 37  1  0  0  0
 21 38  1  0  0  0
 22 39  1  0  0  0
 24 40  1  0  0  0
 24 41  1  0  0  0
 24 42  1  0  0  0
 26 43  1  0  0  0
 28 44  1  0  0  0
 28 45  1  0  0  0
 28 46  1  0  0  0
 29 47  1  0  0  0
 29 48  1  0  0  0
 29 49  1  0  0  0
M  END
$$$$
