3t64_ligand
  -I-interpret- 

 53 56  0  0  0  0  0  0  0  0999 V2000
   -5.9640   25.7710   -0.8820 N   0  0  0  0  0
   -5.4540   24.6600   -1.5370 C   0  0  0  0  0
   -6.1020   23.6150   -1.6120 O   0  0  0  0  0
   -4.1800   24.7290   -2.1160 N   0  0  0  0  0
   -3.4520   25.9080   -2.0460 C   0  0  0  0  0
   -2.3450   25.9210   -2.5750 O   0  0  0  0  0
   -3.9510   27.0320   -1.3800 C   0  0  0  0  0
   -5.2280   26.9610   -0.7950 C   0  0  0  0  0
   -7.3370   25.6430   -0.3210 C   0  0  0  0  0
   -8.9150   27.3350   -5.2680 C   0  0  0  0  0
   -9.4370   26.5790   -6.5100 C   0  0  0  0  0
   -9.4420   27.2280   -7.7440 C   0  0  0  0  0
   -7.7150   26.8020    0.5760 C   0  0  0  0  0
   -9.8990   26.5880   -8.8910 C   0  0  0  0  0
  -10.3380   25.2760   -8.8070 C   0  0  0  0  0
  -10.3250   24.6220   -7.5830 C   0  0  0  0  0
   -9.8740   25.2660   -6.4370 C   0  0  0  0  0
   -7.4060   27.1260   -5.2960 C   0  0  0  0  0
   -6.5960   28.1430   -5.8020 C   0  0  0  0  0
   -5.2150   27.9510   -5.8340 C   0  0  0  0  0
   -4.6520   26.7590   -5.3860 C   0  0  0  0  0
   -5.4650   25.7480   -4.9060 C   0  0  0  0  0
   -6.8420   25.9210   -4.8550 C   0  0  0  0  0
   -8.4930   27.7450   -0.3210 C   0  0  0  0  0
   -9.5870   28.2850    0.4360 O   0  0  0  0  0
   -9.0440   26.9030   -1.4640 C   0  0  0  0  0
   -8.1510   25.7350   -1.5210 O   0  0  0  0  0
   -9.1460   27.7540   -2.8030 C   0  0  0  0  0
   -9.5240   26.8980   -3.9780 N   0  3  0  0  0
   -3.7885   23.9140   -2.5881 H   0  0  0  0  0
   -3.3610   27.9463   -1.3155 H   0  0  0  0  0
   -5.6429   27.8258   -0.2772 H   0  0  0  0  0
   -7.4477   24.7408    0.2805 H   0  0  0  0  0
   -9.1946   28.3874   -5.3164 H   0  0  0  0  0
   -9.0816   28.2545   -7.8109 H   0  0  0  0  0
   -6.8384   27.2835    1.0094 H   0  0  0  0  0
   -8.3045   26.4773    1.4334 H   0  0  0  0  0
   -9.9118   27.1128   -9.8463 H   0  0  0  0  0
  -10.6922   24.7597   -9.6992 H   0  0  0  0  0
  -10.6727   23.5909   -7.5197 H   0  0  0  0  0
   -9.8640   24.7394   -5.4827 H   0  0  0  0  0
   -7.0350   29.0718   -6.1661 H   0  0  0  0  0
   -4.5694   28.7428   -6.2139 H   0  0  0  0  0
   -3.5709   26.6225   -5.4135 H   0  0  0  0  0
   -5.0229   24.8114   -4.5663 H   0  0  0  0  0
   -7.4807   25.1241   -4.4741 H   0  0  0  0  0
   -7.8713   28.5581   -0.6959 H   0  0  0  0  0
  -10.0918   28.8856   -0.1172 H   0  0  0  0  0
  -10.0709   26.5688   -1.3160 H   0  0  0  0  0
   -8.1712   28.1992   -3.0020 H   0  0  0  0  0
   -9.9164   28.5134   -2.6694 H   0  0  0  0  0
   -9.1846   25.9552   -3.7872 H   0  0  0  0  0
  -10.5365   26.9607   -4.0848 H   0  0  0  0  0
  1  2  1  0  0  0
  1  8  1  0  0  0
  9  1  1  0  0  0
  2  3  2  0  0  0
  2  4  1  0  0  0
  4  5  1  0  0  0
  5  6  2  0  0  0
  7  5  1  0  0  0
  8  7  2  0  0  0
  9 13  1  0  0  0
 27  9  1  0  0  0
 10 11  1  0  0  0
 10 18  1  0  0  0
 29 10  1  0  0  0
 11 12  4  0  0  0
 11 17  4  0  0  0
 12 14  4  0  0  0
 24 13  1  0  0  0
 14 15  4  0  0  0
 16 15  4  0  0  0
 17 16  4  0  0  0
 18 19  4  0  0  0
 18 23  4  0  0  0
 19 20  4  0  0  0
 20 21  4  0  0  0
 22 21  4  0  0  0
 23 22  4  0  0  0
 24 25  1  0  0  0
 26 24  1  0  0  0
 26 27  1  0  0  0
 28 26  1  0  0  0
 28 29  1  0  0  0
  4 30  1  0  0  0
  7 31  1  0  0  0
  8 32  1  0  0  0
  9 33  1  0  0  0
 10 34  1  0  0  0
 12 35  1  0  0  0
 13 36  1  0  0  0
 13 37  1  0  0  0
 14 38  1  0  0  0
 15 39  1  0  0  0
 16 40  1  0  0  0
 17 41  1  0  0  0
 19 42  1  0  0  0
 20 43  1  0  0  0
 21 44  1  0  0  0
 22 45  1  0  0  0
 23 46  1  0  0  0
 24 47  1  0  0  0
 25 48  1  0  0  0
 26 49  1  0  0  0
 28 50  1  0  0  0
 28 51  1  0  0  0
 29 52  1  0  0  0
 29 53  1  0  0  0
M  END
$$$$
