3rdq_ligand
  -I-interpret- 

 33 33  0  0  0  0  0  0  0  0999 V2000
   15.4890   28.8780   -8.5450 C   0  0  0  0  0
   14.2310   29.1070   -8.2630 O   0  0  0  0  0
   15.9200   28.3420   -9.6280 N   0  0  0  0  0
   17.3930   28.4730   -9.7300 C   0  0  0  0  0
   17.7610   28.9460   -8.3010 C   0  0  0  0  0
   16.4590   29.2480   -7.7170 N   0  0  0  0  0
   18.4750   27.8900   -7.4800 C   0  0  0  0  0
   17.9330   27.1070  -10.1580 C   0  0  0  0  0
   17.5570   26.7890  -11.6120 C   0  0  0  0  0
   18.3290   25.5810  -12.1590 C   0  0  0  0  0
   17.6020   25.0070  -13.3870 C   0  0  0  0  0
   18.4390   23.8930  -14.0620 C   0  0  0  0  0
   19.7530   24.4100  -14.6200 C   0  0  0  0  0
   20.8200   23.7920  -14.3990 O   0  0  0  0  0
   19.7370   25.4410  -15.3610 O   0  0  0  0  0
   15.3293   27.8874  -10.3243 H   0  0  0  0  0
   17.8073   29.1675  -10.4608 H   0  0  0  0  0
   18.4568   29.7848   -8.3218 H   0  0  0  0  0
   16.3145   29.6807   -6.8047 H   0  0  0  0  0
   18.6171   28.2566   -6.4634 H   0  0  0  0  0
   17.8746   26.9805   -7.4590 H   0  0  0  0  0
   19.4448   27.6764   -7.9295 H   0  0  0  0  0
   17.4979   26.3442   -9.5124 H   0  0  0  0  0
   19.0198   27.1224  -10.0762 H   0  0  0  0  0
   17.8056   27.6560  -12.2241 H   0  0  0  0  0
   16.4930   26.5544  -11.6437 H   0  0  0  0  0
   18.3905   24.8142  -11.3868 H   0  0  0  0  0
   19.3311   25.8965  -12.4496 H   0  0  0  0  0
   17.4468   25.8106  -14.1069 H   0  0  0  0  0
   16.6528   24.5809  -13.0621 H   0  0  0  0  0
   17.8568   23.4906  -14.8910 H   0  0  0  0  0
   18.6671   23.1400  -13.3076 H   0  0  0  0  0
   18.8405   25.7799  -15.4165 H   0  0  0  0  0
  1  2  2  0  0  0
  1  3  1  0  0  0
  1  6  1  0  0  0
  3  4  1  0  0  0
  4  5  1  0  0  0
  4  8  1  0  0  0
  5  6  1  0  0  0
  5  7  1  0  0  0
  8  9  1  0  0  0
  9 10  1  0  0  0
 10 11  1  0  0  0
 11 12  1  0  0  0
 12 13  1  0  0  0
 13 14  2  0  0  0
 13 15  1  0  0  0
  3 16  1  0  0  0
  4 17  1  0  0  0
  5 18  1  0  0  0
  6 19  1  0  0  0
  7 20  1  0  0  0
  7 21  1  0  0  0
  7 22  1  0  0  0
  8 23  1  0  0  0
  8 24  1  0  0  0
  9 25  1  0  0  0
  9 26  1  0  0  0
 10 27  1  0  0  0
 10 28  1  0  0  0
 11 29  1  0  0  0
 11 30  1  0  0  0
 12 31  1  0  0  0
 12 32  1  0  0  0
 15 33  1  0  0  0
M  END
$$$$
