6oa1_ligand
  -I-interpret- 

 41 43  0  0  0  0  0  0  0  0999 V2000
   -0.1140  -12.2230   24.3560 C   0  0  0  0  0
   -0.0880  -11.8290   25.8260 C   0  0  0  0  0
   -2.2980  -12.5000   26.2240 C   0  0  0  0  0
   -2.3830   -8.1660   26.0220 C   0  0  0  0  0
   -2.5090   -8.3090   24.5730 C   0  0  0  0  0
   -3.0080   -7.2200   23.7490 C   0  0  0  0  0
   -2.5890   -8.8790   22.5030 C   0  0  0  0  0
   -2.5000  -11.5970   21.6090 C   0  0  0  0  0
   -1.4130  -12.1570   22.4280 C   0  0  0  0  0
   -2.4720  -12.7610   24.7000 C   0  0  0  0  0
   -3.8510   -4.9460   23.4470 C   0  0  0  0  0
   -3.2250   -5.8640   25.7010 C   0  0  0  0  0
   -2.6960   -6.7510   27.9980 C   0  0  0  0  0
   -2.9670   -7.6310   22.4100 N   0  0  0  0  0
   -1.4630  -11.9820   23.8940 N   0  3  0  0  0
   -2.2680   -9.3050   23.7020 N   0  0  0  0  0
   -3.3290   -6.0160   24.2900 N   0  0  0  0  0
   -2.7300   -6.9130   26.5410 N   0  0  0  0  0
   -1.9770   -9.1030   26.8150 O   0  0  0  0  0
   -0.8990  -12.7830   26.5100 O   0  0  0  0  0
   -3.5890   -4.7950   26.2270 O   0  0  0  0  0
   -2.4320   -9.8790   21.0750 S   0  0  0  0  0
    0.1636  -13.2690   24.2259 H   0  0  0  0  0
    0.6066  -11.6408   23.7816 H   0  0  0  0  0
   -0.4683  -10.8174   25.9678 H   0  0  0  0  0
    0.9305  -11.8297   26.2144 H   0  0  0  0  0
   -2.9620  -13.1304   26.8155 H   0  0  0  0  0
   -2.5597  -11.4748   26.4860 H   0  0  0  0  0
   -3.3791  -11.6479   22.2515 H   0  0  0  0  0
   -2.4672  -12.1715   20.6832 H   0  0  0  0  0
   -0.5170  -11.6237   22.1105 H   0  0  0  0  0
   -1.4671  -13.2342   22.2704 H   0  0  0  0  0
   -3.4722  -12.4439   24.4049 H   0  0  0  0  0
   -2.3229  -13.8239   24.5100 H   0  0  0  0  0
   -4.8717   -4.7121   23.7494 H   0  0  0  0  0
   -3.2258   -4.0600   23.5579 H   0  0  0  0  0
   -3.8441   -5.2692   22.4060 H   0  0  0  0  0
   -2.0667   -5.8983   28.2529 H   0  0  0  0  0
   -3.7074   -6.5810   28.3671 H   0  0  0  0  0
   -2.2887   -7.6537   28.4533 H   0  0  0  0  0
   -1.8135  -11.0381   24.0571 H   0  0  0  0  0
  1  2  1  0  0  0
 15  1  1  0  0  0
  2 20  1  0  0  0
  3 10  1  0  0  0
 20  3  1  0  0  0
  5  4  1  0  0  0
  4 18  1  0  0  0
  4 19  2  0  0  0
  5  6  4  0  0  0
 16  5  4  0  0  0
 14  6  4  0  0  0
  6 17  1  0  0  0
  7 14  4  0  0  0
  7 16  4  0  0  0
 22  7  1  0  0  0
  9  8  1  0  0  0
  8 22  1  0  0  0
  9 15  1  0  0  0
 10 15  1  0  0  0
 17 11  1  0  0  0
 17 12  1  0  0  0
 12 18  1  0  0  0
 12 21  2  0  0  0
 18 13  1  0  0  0
  1 23  1  0  0  0
  1 24  1  0  0  0
  2 25  1  0  0  0
  2 26  1  0  0  0
  3 27  1  0  0  0
  3 28  1  0  0  0
  8 29  1  0  0  0
  8 30  1  0  0  0
  9 31  1  0  0  0
  9 32  1  0  0  0
 10 33  1  0  0  0
 10 34  1  0  0  0
 11 35  1  0  0  0
 11 36  1  0  0  0
 11 37  1  0  0  0
 13 38  1  0  0  0
 13 39  1  0  0  0
 13 40  1  0  0  0
 15 41  1  0  0  0
M  END
$$$$
