5eiw_ligand
  -I-interpret- 

 19 19  0  0  0  0  0  0  0  0999 V2000
   18.9300   50.3330  -10.7960 C   0  0  0  0  0
   20.3570   49.8340  -10.8460 C   0  0  0  0  0
   22.5130   49.7100   -9.6990 C   0  0  0  0  0
   21.1740   50.1930   -9.7600 C   0  0  0  0  0
   23.0100   48.8820  -10.7700 C   0  0  0  0  0
   20.8150   49.0340  -11.8890 C   0  0  0  0  0
   18.3590   50.2070   -9.5870 F   0  0  0  0  0
   18.7930   51.6160  -11.0840 F   0  0  0  0  0
   18.1000   49.7300  -11.5990 F   0  0  0  0  0
   22.1570   48.5550  -11.8590 C   0  0  0  0  0
   23.3770   50.0160   -8.5910 N   0  0  0  0  0
   24.3250   48.4330  -10.7620 N   0  0  0  0  0
   20.7860   50.8363   -8.9702 H   0  0  0  0  0
   20.1557   48.7772  -12.7181 H   0  0  0  0  0
   22.5307   47.9355  -12.6743 H   0  0  0  0  0
   23.0355   50.5926   -7.8221 H   0  0  0  0  0
   24.3314   49.6564   -8.5740 H   0  0  0  0  0
   24.9466   48.6887   -9.9948 H   0  0  0  0  0
   24.6687   47.8477  -11.5234 H   0  0  0  0  0
  1  2  1  0  0  0
  1  7  1  0  0  0
  1  8  1  0  0  0
  1  9  1  0  0  0
  2  4  4  0  0  0
  2  6  4  0  0  0
  4  3  4  0  0  0
  3  5  4  0  0  0
  3 11  1  0  0  0
  5 10  4  0  0  0
  5 12  1  0  0  0
  6 10  4  0  0  0
  4 13  1  0  0  0
  6 14  1  0  0  0
 10 15  1  0  0  0
 11 16  1  0  0  0
 11 17  1  0  0  0
 12 18  1  0  0  0
 12 19  1  0  0  0
M  END
$$$$
