6eku_ligand
  -I-interpret- 

 45 45  0  0  0  0  0  0  0  0999 V2000
  -11.6180   18.3600    9.8580 C   0  0  0  0  0
  -12.0240   19.3060   10.5710 O   0  0  0  0  0
  -10.4360   17.9430    9.8060 O   0  0  0  0  0
  -12.6540   17.7050    8.9130 C   0  0  0  0  0
  -12.3540   16.2060    8.7300 C   0  0  0  0  0
  -13.5420   15.3830    8.2240 C   0  0  0  0  0
  -14.7280   16.2530    7.8400 C   0  0  0  0  0
  -15.8580   15.3340    7.6110 N   0  0  0  0  0
  -16.3820   15.0900    6.3950 C   0  0  0  0  0
  -15.9800   15.6190    5.3670 O   0  0  0  0  0
  -17.5480   14.0900    6.3720 C   0  0  0  0  0
  -15.0680   17.1810    9.0130 C   0  0  0  0  0
  -13.9480   17.9860    9.4530 O   0  0  0  0  0
  -16.2040   18.1570    8.6630 C   0  0  0  0  0
  -15.8060   18.9800    7.5760 O   0  0  0  0  0
  -16.4430   19.0840    9.8590 C   0  0  0  0  0
  -16.8320   18.3130   11.0050 O   0  0  0  0  0
  -17.5000   20.1610    9.5370 C   0  0  0  0  0
  -18.8190   19.5910    9.6110 O   0  0  0  0  0
  -13.1210   14.5610    7.0690 N   0  0  0  0  0
  -13.4720   13.2810    6.8750 C   0  0  0  0  0
  -14.2240   12.6390    7.7720 N   0  0  0  0  0
  -13.0400   12.6320    5.7930 N   0  0  0  0  0
  -10.3829   17.2116    9.1865 H   0  0  0  0  0
  -12.6069   18.1156    7.9044 H   0  0  0  0  0
  -12.0840   15.8110    9.7094 H   0  0  0  0  0
  -11.5659   16.1256    7.9813 H   0  0  0  0  0
  -13.8678   14.7393    9.0411 H   0  0  0  0  0
  -14.5153   16.8572    6.9581 H   0  0  0  0  0
  -16.2643   14.8579    8.4164 H   0  0  0  0  0
  -18.4375   14.5801    5.9761 H   0  0  0  0  0
  -17.2859   13.2428    5.7383 H   0  0  0  0  0
  -17.7450   13.7402    7.3854 H   0  0  0  0  0
  -15.3658   16.5016    9.8117 H   0  0  0  0  0
  -17.0983   17.5870    8.4112 H   0  0  0  0  0
  -16.5166   19.5881    7.3596 H   0  0  0  0  0
  -15.5102   19.6021   10.0814 H   0  0  0  0  0
  -16.9798   18.9007   11.7495 H   0  0  0  0  0
  -17.3293   20.5423    8.5302 H   0  0  0  0  0
  -17.4181   20.9724   10.2603 H   0  0  0  0  0
  -19.4702   20.2669    9.4095 H   0  0  0  0  0
  -12.5208   14.9986    6.3699 H   0  0  0  0  0
  -14.4646   11.6584    7.6275 H   0  0  0  0  0
  -14.5579   13.1291    8.6019 H   0  0  0  0  0
  -12.4446   13.1090    5.1160 H   0  0  0  0  0
  1  2  2  0  0  0
  1  3  1  0  0  0
  1  4  1  0  0  0
  4  5  1  0  0  0
  4 13  1  0  0  0
  5  6  1  0  0  0
  6  7  1  0  0  0
  6 20  1  0  0  0
  7  8  1  0  0  0
  7 12  1  0  0  0
  8  9  1  0  0  0
  9 10  2  0  0  0
  9 11  1  0  0  0
 12 13  1  0  0  0
 12 14  1  0  0  0
 14 15  1  0  0  0
 14 16  1  0  0  0
 16 17  1  0  0  0
 16 18  1  0  0  0
 18 19  1  0  0  0
 20 21  1  0  0  0
 21 22  1  0  0  0
 21 23  2  0  0  0
  3 24  1  0  0  0
  4 25  1  0  0  0
  5 26  1  0  0  0
  5 27  1  0  0  0
  6 28  1  0  0  0
  7 29  1  0  0  0
  8 30  1  0  0  0
 11 31  1  0  0  0
 11 32  1  0  0  0
 11 33  1  0  0  0
 12 34  1  0  0  0
 14 35  1  0  0  0
 15 36  1  0  0  0
 16 37  1  0  0  0
 17 38  1  0  0  0
 18 39  1  0  0  0
 18 40  1  0  0  0
 19 41  1  0  0  0
 20 42  1  0  0  0
 22 43  1  0  0  0
 22 44  1  0  0  0
 23 45  1  0  0  0
M  END
$$$$
