5z7j_ligand
  -I-interpret- 

 47 48  0  0  0  0  0  0  0  0999 V2000
   -8.2570    4.1020    5.9780 C   0  0  0  0  0
   -7.9200    2.6250    6.1300 C   0  0  0  0  0
   -9.0980    1.7640    6.5670 C   0  0  0  0  0
   -8.9900    0.2850    6.2490 C   0  0  0  0  0
   -7.5680   -0.2120    6.1590 C   0  0  0  0  0
   -9.6340    0.1210    4.9350 O   0  0  0  0  0
   -9.8630   -1.1300    4.5140 C   0  0  0  0  0
  -10.1080   -2.0310    5.2710 O   0  0  0  0  0
   -9.7570   -1.3140    3.0490 C   0  0  0  0  0
   -9.4190   -2.6100    2.5940 C   0  0  0  0  0
   -9.2160   -3.6170    3.4710 O   0  0  0  0  0
   -9.2900   -2.8820    1.2460 C   0  0  0  0  0
   -9.4990   -1.8740    0.3180 C   0  0  0  0  0
   -9.3720   -2.1340   -1.0120 O   0  0  0  0  0
   -9.8330   -0.5910    0.7290 C   0  0  0  0  0
   -9.9700   -0.2900    2.0830 C   0  0  0  0  0
  -10.3220    1.0890    2.4460 C   0  0  0  0  0
  -10.7480    2.0250    1.6200 C   0  0  0  0  0
  -11.2590    3.3710    2.0190 C   0  0  0  0  0
  -10.1840    4.2870    2.5840 C   0  0  0  0  0
   -9.9030    4.0330    4.0560 C   0  0  0  0  0
   -8.5720    4.5520    4.5590 C   0  0  0  0  0
   -8.5590    5.9870    4.4850 O   0  0  0  0  0
   -7.3747    4.6584    6.2942 H   0  0  0  0  0
   -9.1549    4.2806    6.5695 H   0  0  0  0  0
   -7.1560    2.5451    6.9033 H   0  0  0  0  0
   -7.5997    2.2637    5.1528 H   0  0  0  0  0
   -9.9671    2.1329    6.0223 H   0  0  0  0  0
   -9.1495    1.8419    7.6530 H   0  0  0  0  0
   -9.4570   -0.2904    7.0483 H   0  0  0  0  0
   -7.5696   -1.2648    5.8766 H   0  0  0  0  0
   -7.0293    0.3661    5.4082 H   0  0  0  0  0
   -7.0816   -0.0950    7.1274 H   0  0  0  0  0
   -8.9972   -4.4189    2.9907 H   0  0  0  0  0
   -9.0248   -3.8855    0.9133 H   0  0  0  0  0
   -9.5490   -1.3336   -1.5117 H   0  0  0  0  0
   -9.9899    0.1897   -0.0153 H   0  0  0  0  0
  -10.2219    1.3646    3.4958 H   0  0  0  0  0
  -10.7253    1.7968    0.5544 H   0  0  0  0  0
  -12.0035    3.2196    2.8006 H   0  0  0  0  0
  -11.6576    3.8480    1.1237 H   0  0  0  0  0
  -10.5362    5.3138    2.4850 H   0  0  0  0  0
   -9.2630    4.0988    2.0323 H   0  0  0  0  0
   -9.8868    2.9512    4.1888 H   0  0  0  0  0
  -10.6755    4.5591    4.6168 H   0  0  0  0  0
   -7.7977    4.1311    3.9176 H   0  0  0  0  0
   -7.7151    6.3151    4.8040 H   0  0  0  0  0
  1  2  1  0  0  0
  1 22  1  0  0  0
  2  3  1  0  0  0
  3  4  1  0  0  0
  4  5  1  0  0  0
  4  6  1  0  0  0
  6  7  1  0  0  0
  7  8  2  0  0  0
  7  9  1  0  0  0
  9 10  4  0  0  0
  9 16  4  0  0  0
 10 11  1  0  0  0
 10 12  4  0  0  0
 12 13  4  0  0  0
 13 14  1  0  0  0
 13 15  4  0  0  0
 15 16  4  0  0  0
 16 17  1  0  0  0
 17 18  2  0  0  0
 18 19  1  0  0  0
 19 20  1  0  0  0
 20 21  1  0  0  0
 21 22  1  0  0  0
 22 23  1  0  0  0
  1 24  1  0  0  0
  1 25  1  0  0  0
  2 26  1  0  0  0
  2 27  1  0  0  0
  3 28  1  0  0  0
  3 29  1  0  0  0
  4 30  1  0  0  0
  5 31  1  0  0  0
  5 32  1  0  0  0
  5 33  1  0  0  0
 11 34  1  0  0  0
 12 35  1  0  0  0
 14 36  1  0  0  0
 15 37  1  0  0  0
 17 38  1  0  0  0
 18 39  1  0  0  0
 19 40  1  0  0  0
 19 41  1  0  0  0
 20 42  1  0  0  0
 20 43  1  0  0  0
 21 44  1  0  0  0
 21 45  1  0  0  0
 22 46  1  0  0  0
 23 47  1  0  0  0
M  END
$$$$
