2n9e_ligand
  -I-interpret- 

203203  0  0  0  0  0  0  0  0999 V2000
   12.3330   15.3810  -44.9910 C   0  0  0  0  0
   12.1340   14.7450  -43.9900 O   0  0  0  0  0
   13.2380   16.5730  -44.9950 C   0  0  0  0  0
   11.8910   15.0220  -46.2230 N   0  0  0  0  0
   11.0980   13.8290  -46.4980 C   0  0  0  0  0
   11.8540   12.5530  -45.9570 C   0  0  0  0  0
   11.3060   11.6160  -45.3460 O   0  0  0  0  0
   10.6200   13.7220  -47.9560 C   0  0  0  0  0
   10.0980   12.3350  -48.3010 C   0  0  0  0  0
    8.8600   11.8890  -47.5290 C   0  0  0  0  0
    7.9700   12.6880  -47.1320 O   0  0  0  0  0
    8.7460   10.6630  -47.4670 O   0  0  0  0  0
   13.1590   12.4460  -46.1430 N   0  0  0  0  0
   14.0760   11.3670  -45.7960 C   0  0  0  0  0
   14.8300   11.5850  -44.3840 C   0  0  0  0  0
   15.9640   11.1310  -44.1700 O   0  0  0  0  0
   14.9970   10.9910  -46.9700 C   0  0  0  0  0
   15.7470    9.6580  -46.7400 C   0  0  0  0  0
   15.0260    8.6300  -46.5640 O   0  0  0  0  0
   16.9830    9.5640  -46.7680 O   0  0  0  0  0
   14.2350   12.3570  -43.4390 N   0  0  0  0  0
   14.7810   12.6710  -42.1020 C   0  0  0  0  0
   14.4900   11.4620  -41.1540 C   0  0  0  0  0
   13.8520   11.5710  -40.0590 O   0  0  0  0  0
   14.1940   13.9250  -41.5400 C   0  0  0  0  0
   15.0050   10.2800  -41.4850 N   0  0  0  0  0
   14.4720    9.0210  -40.9200 C   0  0  0  0  0
   15.3970    7.9130  -41.2670 C   0  0  0  0  0
   15.7550    7.8460  -42.4530 O   0  0  0  0  0
   13.0510    8.8530  -41.5420 C   0  0  0  0  0
   12.1010    8.1300  -40.5960 C   0  0  0  0  0
   12.3130    6.7720  -40.2230 C   0  0  0  0  0
   11.0660    8.8840  -40.0260 C   0  0  0  0  0
   11.4740    6.1430  -39.2540 C   0  0  0  0  0
   10.1820    8.2850  -39.0770 C   0  0  0  0  0
   10.4290    6.9120  -38.7190 C   0  0  0  0  0
   15.8760    7.2370  -40.2780 N   0  0  0  0  0
   16.8180    6.1720  -40.4170 C   0  0  0  0  0
   16.5060    5.0650  -39.3550 C   0  0  0  0  0
   16.3110    5.4760  -38.1900 O   0  0  0  0  0
   18.2740    6.6120  -40.3080 C   0  0  0  0  0
   18.7350    7.8330  -41.1870 C   0  0  0  0  0
   19.1910    5.4280  -40.6590 C   0  0  0  0  0
   20.1620    8.2550  -40.8930 C   0  0  0  0  0
   16.5480    3.8240  -39.6810 N   0  0  0  0  0
   16.1480    2.7620  -38.7510 C   0  0  0  0  0
   17.2850    1.8220  -38.4650 C   0  0  0  0  0
   18.0180    1.3480  -39.3490 O   0  0  0  0  0
   14.9590    1.9720  -39.3450 C   0  0  0  0  0
   14.0030    1.4890  -38.1950 C   0  0  0  0  0
   14.0840    2.8430  -40.1500 C   0  0  0  0  0
   17.6790    1.6520  -37.1820 N   0  0  0  0  0
   18.9640    1.1060  -36.7360 C   0  0  0  0  0
   18.8870    0.0760  -35.6110 C   0  0  0  0  0
   18.1860    0.3720  -34.6350 O   0  0  0  0  0
   19.8830    2.2770  -36.3490 C   0  0  0  0  0
   20.1140    3.2190  -37.6290 C   0  0  0  0  0
   21.2180    1.6630  -35.9190 C   0  0  0  0  0
   21.2950    4.2610  -37.4400 C   0  0  0  0  0
   19.5520   -1.1430  -35.7270 N   0  0  0  0  0
   19.7090   -2.1040  -34.5950 C   0  0  0  0  0
   18.5370   -3.1180  -34.6350 C   0  0  0  0  0
   18.7260   -4.1700  -35.5750 O   0  0  0  0  0
   21.1340   -2.6940  -34.6230 C   0  0  0  0  0
   21.8780   -2.3100  -35.5250 O   0  0  0  0  0
   17.9430   -5.5080  -35.4280 P   0  0  0  0  0
   18.3770   -6.3310  -36.5380 O   0  0  0  0  0
   18.2590   -6.0530  -34.1110 O   0  0  0  0  0
   16.5960   -5.0120  -35.6540 O   0  0  0  0  0
   21.4680   -3.4550  -33.6190 N   0  0  0  0  0
   22.9190   -3.8670  -33.4110 C   0  0  0  0  0
   23.1290   -5.2780  -32.8770 C   0  0  0  0  0
   23.8660   -5.4890  -31.9260 O   0  0  0  0  0
   23.5890   -2.7490  -32.5910 C   0  0  0  0  0
   25.0830   -2.7540  -32.7360 C   0  0  0  0  0
   25.5800   -2.9050  -33.8380 O   0  0  0  0  0
   25.7530   -2.4010  -31.7440 O   0  0  0  0  0
   22.5740   -6.2610  -33.5840 N   0  0  0  0  0
   22.9550   -7.6890  -33.4580 C   0  0  0  0  0
   22.2740   -8.4770  -32.3450 C   0  0  0  0  0
   20.9180   -8.7040  -32.7410 O   0  0  0  0  0
   22.7370   -8.3090  -34.7940 C   0  0  0  0  0
   21.6240   -8.2200  -35.3470 O   0  0  0  0  0
   19.7500   -9.0970  -31.7580 P   0  0  0  0  0
   18.6430   -9.2960  -32.6500 O   0  0  0  0  0
   20.1390  -10.3360  -31.0620 O   0  0  0  0  0
   19.6580   -7.9370  -30.8760 O   0  0  0  0  0
   23.7950   -8.9760  -35.3360 N   0  0  0  0  0
   23.9330   -9.5680  -36.6240 C   0  0  0  0  0
   24.6330  -10.9700  -36.6840 C   0  0  0  0  0
   25.5370  -11.2800  -35.9500 O   0  0  0  0  0
   24.8040   -8.6370  -37.5340 C   0  0  0  0  0
   24.7540   -9.2520  -38.9920 C   0  0  0  0  0
   23.6480   -9.3990  -39.5760 O   0  0  0  0  0
   25.8010   -9.7410  -39.4750 O   0  0  0  0  0
   24.1720  -11.8310  -37.6230 N   0  0  0  0  0
   24.8290  -13.1330  -37.7320 C   0  0  0  0  0
   24.3190  -13.9930  -38.8540 C   0  0  0  0  0
   23.2350  -13.8500  -39.3420 O   0  0  0  0  0
   25.3000  -14.7850  -39.4440 N   0  0  0  0  0
   25.0370  -15.6170  -40.6310 C   0  0  0  0  0
   24.0770  -16.8290  -40.3360 C   0  0  0  0  0
   23.4100  -17.2510  -41.2700 O   0  0  0  0  0
   26.4130  -16.0980  -41.2190 C   0  0  0  0  0
   26.3010  -16.8980  -42.5120 C   0  0  0  0  0
   26.0770  -16.2350  -43.8660 C   0  0  0  0  0
   25.5360  -15.1110  -43.9440 O   0  0  0  0  0
   26.4840  -16.8310  -44.9020 O   0  0  0  0  0
   23.9610  -17.3040  -39.1400 N   0  0  0  0  0
   12.8567   17.3194  -44.2981 H   0  0  0  0  0
   14.2394   16.2683  -44.6911 H   0  0  0  0  0
   13.2746   16.9964  -45.9987 H   0  0  0  0  0
   12.1292   15.6268  -47.0090 H   0  0  0  0  0
   10.1598   13.9080  -45.9487 H   0  0  0  0  0
   11.4713   13.9305  -48.6040 H   0  0  0  0  0
    9.8039   14.4312  -48.0941 H   0  0  0  0  0
   10.8919   11.6324  -48.0475 H   0  0  0  0  0
    9.8147   12.3626  -49.3532 H   0  0  0  0  0
    8.2654   13.5904  -47.2736 H   0  0  0  0  0
   13.5933   13.2463  -46.6027 H   0  0  0  0  0
   13.4642   10.4826  -45.6180 H   0  0  0  0  0
   15.7422   11.7795  -47.0756 H   0  0  0  0  0
   14.3757   10.8756  -47.8581 H   0  0  0  0  0
   14.1004    8.8848  -46.5702 H   0  0  0  0  0
   13.3267   12.7575  -43.6735 H   0  0  0  0  0
   15.8547   12.8368  -42.1900 H   0  0  0  0  0
   14.4177   14.7592  -42.2050 H   0  0  0  0  0
   13.1138   13.8103  -41.4496 H   0  0  0  0  0
   14.6238   14.1170  -40.5569 H   0  0  0  0  0
   15.7839   10.2415  -42.1424 H   0  0  0  0  0
   14.3941    9.0242  -39.8328 H   0  0  0  0  0
   13.1435    8.2613  -42.4528 H   0  0  0  0  0
   12.6456    9.8447  -41.7427 H   0  0  0  0  0
   13.1242    6.2070  -40.6821 H   0  0  0  0  0
   10.9354    9.9290  -40.3072 H   0  0  0  0  0
   11.6379    5.1111  -38.9435 H   0  0  0  0  0
    9.3541    8.8444  -38.6415 H   0  0  0  0  0
    9.7666    6.4435  -37.9911 H   0  0  0  0  0
   15.5624    7.4781  -39.3378 H   0  0  0  0  0
   16.7033    5.7818  -41.4283 H   0  0  0  0  0
   18.3530    6.9517  -39.2753 H   0  0  0  0  0
   18.0818    8.6758  -40.9607 H   0  0  0  0  0
   18.6821    7.5328  -42.2335 H   0  0  0  0  0
   19.0044    4.6077  -39.9660 H   0  0  0  0  0
   18.9840    5.0992  -41.6774 H   0  0  0  0  0
   20.2322    5.7411  -40.5815 H   0  0  0  0  0
   20.2454    8.5445  -39.8455 H   0  0  0  0  0
   20.8350    7.4219  -41.0957 H   0  0  0  0  0
   20.4274    9.1008  -41.5273 H   0  0  0  0  0
   16.8692    3.5686  -40.6148 H   0  0  0  0  0
   15.8527    3.2302  -37.8120 H   0  0  0  0  0
   15.4004    1.1621  -39.9258 H   0  0  0  0  0
   14.5557    0.8445  -37.5115 H   0  0  0  0  0
   13.6228    2.3547  -37.6527 H   0  0  0  0  0
   13.1698    0.9340  -38.6260 H   0  0  0  0  0
   13.6902    3.6414  -39.5210 H   0  0  0  0  0
   14.6580    3.2744  -40.9701 H   0  0  0  0  0
   13.2589    2.2551  -40.5521 H   0  0  0  0  0
   17.0189    1.9303  -36.4559 H   0  0  0  0  0
   19.3689    0.5417  -37.5761 H   0  0  0  0  0
   19.4475    2.8765  -35.5496 H   0  0  0  0  0
   19.1974    3.7869  -37.7885 H   0  0  0  0  0
   20.3759    2.5745  -38.4681 H   0  0  0  0  0
   21.0546    0.9998  -35.0696 H   0  0  0  0  0
   21.6396    1.0956  -36.7488 H   0  0  0  0  0
   21.9069    2.4580  -35.6336 H   0  0  0  0  0
   21.0739    4.9089  -36.5918 H   0  0  0  0  0
   22.2256    3.7241  -37.2559 H   0  0  0  0  0
   21.3942    4.8635  -38.3429 H   0  0  0  0  0
   19.9521   -1.3916  -36.6317 H   0  0  0  0  0
   19.6327   -1.6256  -33.6186 H   0  0  0  0  0
   17.6418   -2.5715  -34.9316 H   0  0  0  0  0
   18.4635   -3.5719  -33.6467 H   0  0  0  0  0
   17.9407   -5.4528  -33.4328 H   0  0  0  0  0
   16.3267   -4.4698  -34.9090 H   0  0  0  0  0
   20.7520   -3.7770  -32.9677 H   0  0  0  0  0
   23.4117   -3.9581  -34.3790 H   0  0  0  0  0
   23.3506   -2.9111  -31.5398 H   0  0  0  0  0
   23.2168   -1.7919  -32.9564 H   0  0  0  0  0
   25.1791   -2.3402  -30.9769 H   0  0  0  0  0
   21.8430   -6.0171  -34.2523 H   0  0  0  0  0
   23.9994   -7.7250  -33.1483 H   0  0  0  0  0
   22.3079   -7.9191  -31.4092 H   0  0  0  0  0
   22.7861   -9.4255  -32.1832 H   0  0  0  0  0
   20.8799  -10.1551  -30.4790 H   0  0  0  0  0
   20.4419   -7.8935  -30.3235 H   0  0  0  0  0
   24.6095   -9.0643  -34.7284 H   0  0  0  0  0
   22.9010   -9.7002  -36.9489 H   0  0  0  0  0
   25.8297   -8.5854  -37.1687 H   0  0  0  0  0
   24.4189   -7.6173  -37.5287 H   0  0  0  0  0
   22.9593   -8.9627  -39.0692 H   0  0  0  0  0
   23.3938  -11.5799  -38.2327 H   0  0  0  0  0
   24.6332  -13.6691  -36.8034 H   0  0  0  0  0
   25.8843  -12.9436  -37.9281 H   0  0  0  0  0
   26.2362  -14.7895  -39.0392 H   0  0  0  0  0
   24.5094  -15.0096  -41.3664 H   0  0  0  0  0
   26.8665  -16.7537  -40.4757 H   0  0  0  0  0
   26.9938  -15.2039  -41.4456 H   0  0  0  0  0
   25.3962  -17.4882  -42.3666 H   0  0  0  0  0
   27.2859  -17.3539  -42.6135 H   0  0  0  0  0
   26.8690  -17.6747  -44.6540 H   0  0  0  0  0
   23.2968  -18.0549  -38.9517 H   0  0  0  0  0
   24.5336  -16.9281  -38.3842 H   0  0  0  0  0
  1  2  2  0  0  0
  1  3  1  0  0  0
  1  4  1  0  0  0
  4  5  1  0  0  0
  5  6  1  0  0  0
  5  8  1  0  0  0
  6  7  2  0  0  0
  6 13  1  0  0  0
  8  9  1  0  0  0
  9 10  1  0  0  0
 10 11  1  0  0  0
 10 12  2  0  0  0
 13 14  1  0  0  0
 14 15  1  0  0  0
 14 17  1  0  0  0
 15 16  2  0  0  0
 15 21  1  0  0  0
 17 18  1  0  0  0
 18 19  1  0  0  0
 18 20  2  0  0  0
 21 22  1  0  0  0
 22 23  1  0  0  0
 22 25  1  0  0  0
 23 24  2  0  0  0
 23 26  1  0  0  0
 26 27  1  0  0  0
 27 28  1  0  0  0
 27 30  1  0  0  0
 28 29  2  0  0  0
 28 37  1  0  0  0
 30 31  1  0  0  0
 31 32  4  0  0  0
 31 33  4  0  0  0
 32 34  4  0  0  0
 33 35  4  0  0  0
 34 36  4  0  0  0
 35 36  4  0  0  0
 37 38  1  0  0  0
 38 39  1  0  0  0
 38 41  1  0  0  0
 39 40  2  0  0  0
 39 45  1  0  0  0
 41 42  1  0  0  0
 41 43  1  0  0  0
 42 44  1  0  0  0
 45 46  1  0  0  0
 46 47  1  0  0  0
 46 49  1  0  0  0
 47 48  2  0  0  0
 47 52  1  0  0  0
 49 50  1  0  0  0
 49 51  1  0  0  0
 52 53  1  0  0  0
 53 54  1  0  0  0
 53 56  1  0  0  0
 54 55  2  0  0  0
 54 60  1  0  0  0
 56 57  1  0  0  0
 56 58  1  0  0  0
 57 59  1  0  0  0
 60 61  1  0  0  0
 61 62  1  0  0  0
 61 64  1  0  0  0
 62 63  1  0  0  0
 63 66  1  0  0  0
 64 65  2  0  0  0
 64 70  1  0  0  0
 66 67  2  0  0  0
 66 68  1  0  0  0
 66 69  1  0  0  0
 70 71  1  0  0  0
 71 72  1  0  0  0
 71 74  1  0  0  0
 72 73  2  0  0  0
 72 78  1  0  0  0
 74 75  1  0  0  0
 75 76  2  0  0  0
 75 77  1  0  0  0
 78 79  1  0  0  0
 79 80  1  0  0  0
 79 82  1  0  0  0
 80 81  1  0  0  0
 81 84  1  0  0  0
 82 83  2  0  0  0
 82 88  1  0  0  0
 84 85  2  0  0  0
 84 86  1  0  0  0
 84 87  1  0  0  0
 88 89  1  0  0  0
 89 90  1  0  0  0
 89 92  1  0  0  0
 90 91  2  0  0  0
 90 96  1  0  0  0
 92 93  1  0  0  0
 93 94  1  0  0  0
 93 95  2  0  0  0
 96 97  1  0  0  0
 97 98  1  0  0  0
 98 99  2  0  0  0
 98100  1  0  0  0
100101  1  0  0  0
101102  1  0  0  0
101104  1  0  0  0
102103  2  0  0  0
102109  1  0  0  0
104105  1  0  0  0
105106  1  0  0  0
106107  2  0  0  0
106108  1  0  0  0
  3110  1  0  0  0
  3111  1  0  0  0
  3112  1  0  0  0
  4113  1  0  0  0
  5114  1  0  0  0
  8115  1  0  0  0
  8116  1  0  0  0
  9117  1  0  0  0
  9118  1  0  0  0
 11119  1  0  0  0
 13120  1  0  0  0
 14121  1  0  0  0
 17122  1  0  0  0
 17123  1  0  0  0
 19124  1  0  0  0
 21125  1  0  0  0
 22126  1  0  0  0
 25127  1  0  0  0
 25128  1  0  0  0
 25129  1  0  0  0
 26130  1  0  0  0
 27131  1  0  0  0
 30132  1  0  0  0
 30133  1  0  0  0
 32134  1  0  0  0
 33135  1  0  0  0
 34136  1  0  0  0
 35137  1  0  0  0
 36138  1  0  0  0
 37139  1  0  0  0
 38140  1  0  0  0
 41141  1  0  0  0
 42142  1  0  0  0
 42143  1  0  0  0
 43144  1  0  0  0
 43145  1  0  0  0
 43146  1  0  0  0
 44147  1  0  0  0
 44148  1  0  0  0
 44149  1  0  0  0
 45150  1  0  0  0
 46151  1  0  0  0
 49152  1  0  0  0
 50153  1  0  0  0
 50154  1  0  0  0
 50155  1  0  0  0
 51156  1  0  0  0
 51157  1  0  0  0
 51158  1  0  0  0
 52159  1  0  0  0
 53160  1  0  0  0
 56161  1  0  0  0
 57162  1  0  0  0
 57163  1  0  0  0
 58164  1  0  0  0
 58165  1  0  0  0
 58166  1  0  0  0
 59167  1  0  0  0
 59168  1  0  0  0
 59169  1  0  0  0
 60170  1  0  0  0
 61171  1  0  0  0
 62172  1  0  0  0
 62173  1  0  0  0
 68174  1  0  0  0
 69175  1  0  0  0
 70176  1  0  0  0
 71177  1  0  0  0
 74178  1  0  0  0
 74179  1  0  0  0
 77180  1  0  0  0
 78181  1  0  0  0
 79182  1  0  0  0
 80183  1  0  0  0
 80184  1  0  0  0
 86185  1  0  0  0
 87186  1  0  0  0
 88187  1  0  0  0
 89188  1  0  0  0
 92189  1  0  0  0
 92190  1  0  0  0
 94191  1  0  0  0
 96192  1  0  0  0
 97193  1  0  0  0
 97194  1  0  0  0
100195  1  0  0  0
101196  1  0  0  0
104197  1  0  0  0
104198  1  0  0  0
105199  1  0  0  0
105200  1  0  0  0
108201  1  0  0  0
109202  1  0  0  0
109203  1  0  0  0
M  END
$$$$
