### 
### Created by X-TOOL on Mon Sep 10 21:13:30 2018
### 

@<TRIPOS>MOLECULE
2n9e_ligand
  194   194     1     0     0
SMALL
GAST_HUCK


@<TRIPOS>ATOM
      1 C          12.3330   15.3810  -44.9910 C.2       1 ACE         0.1751
      2 O          12.1340   14.7450  -43.9900 O.2       1 ACE        -0.3972
      3 CH3        13.2380   16.5730  -44.9950 C.3       1 ACE         0.0258
      4 N          11.8910   15.0220  -46.2230 N.am      1 GLU        -0.2657
      5 CA         11.0980   13.8290  -46.4980 C.3       1 GLU         0.1324
      6 C          11.8540   12.5530  -45.9570 C.2       1 GLU         0.2041
      7 O          11.3060   11.6160  -45.3460 O.2       1 GLU        -0.3944
      8 CB         10.6200   13.7220  -47.9560 C.3       1 GLU        -0.0008
      9 CG         10.0980   12.3350  -48.3010 C.3       1 GLU         0.0044
     10 CD          8.8600   11.8890  -47.5290 C.2       1 GLU         0.0350
     11 OE1         7.9700   12.6880  -47.1320 O.co2     1 GLU        -0.5690
     12 OE2         8.7460   10.6630  -47.4670 O.co2     1 GLU        -0.5690
     13 N          13.1590   12.4460  -46.1430 N.am      1 ASP        -0.2622
     14 CA         14.0760   11.3670  -45.7960 C.3       1 ASP         0.1423
     15 C          14.8300   11.5850  -44.3840 C.2       1 ASP         0.2056
     16 O          15.9640   11.1310  -44.1700 O.2       1 ASP        -0.3943
     17 CB         14.9970   10.9910  -46.9700 C.3       1 ASP         0.0406
     18 CG         15.7470    9.6580  -46.7400 C.2       1 ASP         0.0393
     19 OD1        15.0260    8.6300  -46.5640 O.co2     1 ASP        -0.5688
     20 OD2        16.9830    9.5640  -46.7680 O.co2     1 ASP        -0.5688
     21 N          14.2350   12.3570  -43.4390 N.am      1 ALA        -0.2639
     22 CA         14.7810   12.6710  -42.1020 C.3       1 ALA         0.1282
     23 C          14.4900   11.4620  -41.1540 C.2       1 ALA         0.2037
     24 O          13.8520   11.5710  -40.0590 O.2       1 ALA        -0.3944
     25 CB         14.1940   13.9250  -41.5400 C.3       1 ALA        -0.0244
     26 N          15.0050   10.2800  -41.4850 N.am      1 PHE        -0.2619
     27 CA         14.4720    9.0210  -40.9200 C.3       1 PHE         0.1404
     28 C          15.3970    7.9130  -41.2670 C.2       1 PHE         0.2060
     29 O          15.7550    7.8460  -42.4530 O.2       1 PHE        -0.3942
     30 CB         13.0510    8.8530  -41.5420 C.3       1 PHE         0.0214
     31 CG         12.1010    8.1300  -40.5960 C.ar      1 PHE        -0.0386
     32 CD1        12.3130    6.7720  -40.2230 C.ar      1 PHE        -0.0601
     33 CD2        11.0660    8.8840  -40.0260 C.ar      1 PHE        -0.0601
     34 CE1        11.4740    6.1430  -39.2540 C.ar      1 PHE        -0.0686
     35 CE2        10.1820    8.2850  -39.0770 C.ar      1 PHE        -0.0686
     36 CZ         10.4290    6.9120  -38.7190 C.ar      1 PHE        -0.0687
     37 N          15.8760    7.2370  -40.2780 N.am      1 ILE        -0.2633
     38 CA         16.8180    6.1720  -40.4170 C.3       1 ILE         0.1335
     39 C          16.5060    5.0650  -39.3550 C.2       1 ILE         0.2042
     40 O          16.3110    5.4760  -38.1900 O.2       1 ILE        -0.3944
     41 CB         18.2740    6.6120  -40.3080 C.3       1 ILE        -0.0037
     42 CG1        18.7350    7.8330  -41.1870 C.3       1 ILE        -0.0491
     43 CG2        19.1910    5.4280  -40.6590 C.3       1 ILE        -0.0582
     44 CD1        20.1620    8.2550  -40.8930 C.3       1 ILE        -0.0648
     45 N          16.5480    3.8240  -39.6810 N.am      1 VAL        -0.2635
     46 CA         16.1480    2.7620  -38.7510 C.3       1 VAL         0.1332
     47 C          17.2850    1.8220  -38.4650 C.2       1 VAL         0.2042
     48 O          18.0180    1.3480  -39.3490 O.2       1 VAL        -0.3944
     49 CB         14.9590    1.9720  -39.3450 C.3       1 VAL        -0.0063
     50 CG1        14.0030    1.4890  -38.1950 C.3       1 VAL        -0.0584
     51 CG2        14.0840    2.8430  -40.1500 C.3       1 VAL        -0.0584
     52 N          17.6790    1.6520  -37.1820 N.am      1 ILE        -0.2635
     53 CA         18.9640    1.1060  -36.7360 C.3       1 ILE         0.1335
     54 C          18.8870    0.0760  -35.6110 C.2       1 ILE         0.2042
     55 O          18.1860    0.3720  -34.6350 O.2       1 ILE        -0.3944
     56 CB         19.8830    2.2770  -36.3490 C.3       1 ILE        -0.0037
     57 CG1        20.1140    3.2190  -37.6290 C.3       1 ILE        -0.0491
     58 CG2        21.2180    1.6630  -35.9190 C.3       1 ILE        -0.0582
     59 CD1        21.2950    4.2610  -37.4400 C.3       1 ILE        -0.0648
     60 N          19.5520   -1.1430  -35.7270 N.am      1 SEP        -0.2613
     61 CA         19.7090   -2.1040  -34.5950 C.3       1 SEP         0.1586
     62 CB         18.5370   -3.1180  -34.6350 C.3       1 SEP         0.1184
     63 OG         18.7260   -4.1700  -35.5750 O.3       1 SEP        -0.2714
     64 C          21.1340   -2.6940  -34.6230 C.2       1 SEP         0.2066
     65 O          21.8780   -2.3100  -35.5250 O.2       1 SEP        -0.3943
     66 P          17.9430   -5.5080  -35.4280 P.3       1 SEP         0.2010
     67 O1P        18.3770   -6.3310  -36.5380 O.co2     1 SEP        -0.5537
     68 O2P        18.2590   -6.0530  -34.1110 O.co2     1 SEP        -0.5537
     69 O3P        16.5960   -5.0120  -35.6540 O.co2     1 SEP        -0.5537
     70 N          21.4680   -3.4550  -33.6190 N.am      1 ASP        -0.2621
     71 CA         22.9190   -3.8670  -33.4110 C.3       1 ASP         0.1423
     72 C          23.1290   -5.2780  -32.8770 C.2       1 ASP         0.2057
     73 O          23.8660   -5.4890  -31.9260 O.2       1 ASP        -0.3943
     74 CB         23.5890   -2.7490  -32.5910 C.3       1 ASP         0.0406
     75 CG         25.0830   -2.7540  -32.7360 C.2       1 ASP         0.0393
     76 OD1        25.5800   -2.9050  -33.8380 O.co2     1 ASP        -0.5688
     77 OD2        25.7530   -2.4010  -31.7440 O.co2     1 ASP        -0.5688
     78 N          22.5740   -6.2610  -33.5840 N.am      1 SEP        -0.2612
     79 CA         22.9550   -7.6890  -33.4580 C.3       1 SEP         0.1586
     80 CB         22.2740   -8.4770  -32.3450 C.3       1 SEP         0.1184
     81 OG         20.9180   -8.7040  -32.7410 O.3       1 SEP        -0.2714
     82 C          22.7370   -8.3090  -34.7940 C.2       1 SEP         0.2066
     83 O          21.6240   -8.2200  -35.3470 O.2       1 SEP        -0.3943
     84 P          19.7500   -9.0970  -31.7580 P.3       1 SEP         0.2010
     85 O1P        18.6430   -9.2960  -32.6500 O.co2     1 SEP        -0.5537
     86 O2P        20.1390  -10.3360  -31.0620 O.co2     1 SEP        -0.5537
     87 O3P        19.6580   -7.9370  -30.8760 O.co2     1 SEP        -0.5537
     88 N          23.7950   -8.9760  -35.3360 N.am      1 ASP        -0.2621
     89 CA         23.9330   -9.5680  -36.6240 C.3       1 ASP         0.1423
     90 C          24.6330  -10.9700  -36.6840 C.2       1 ASP         0.2054
     91 O          25.5370  -11.2800  -35.9500 O.2       1 ASP        -0.3943
     92 CB         24.8040   -8.6370  -37.5340 C.3       1 ASP         0.0406
     93 CG         24.7540   -9.2520  -38.9920 C.2       1 ASP         0.0393
     94 OD1        23.6480   -9.3990  -39.5760 O.co2     1 ASP        -0.5688
     95 OD2        25.8010   -9.7410  -39.4750 O.co2     1 ASP        -0.5688
     96 N          24.1720  -11.8310  -37.6230 N.am      1 GLY        -0.2663
     97 CA         24.8290  -13.1330  -37.7320 C.3       1 GLY         0.1201
     98 C          24.3190  -13.9930  -38.8540 C.2       1 GLY         0.2007
     99 O          23.2350  -13.8500  -39.3420 O.2       1 GLY        -0.3947
    100 N          25.3000  -14.7850  -39.4440 N.am      1 GLU        -0.2639
    101 CA         25.0370  -15.6170  -40.6310 C.3       1 GLU         0.1321
    102 C          24.0770  -16.8290  -40.3360 C.2       1 GLU         0.1993
    103 O          23.4100  -17.2510  -41.2700 O.2       1 GLU        -0.3947
    104 CB         26.4130  -16.0980  -41.2190 C.3       1 GLU        -0.0008
    105 CG         26.3010  -16.8980  -42.5120 C.3       1 GLU         0.0044
    106 CD         26.0770  -16.2350  -43.8660 C.2       1 GLU         0.0350
    107 OE1        25.5360  -15.1110  -43.9440 O.co2     1 GLU        -0.5690
    108 OE2        26.4840  -16.8310  -44.9020 O.co2     1 GLU        -0.5690
    109 N          23.9610  -17.3040  -39.1400 N.am      1 NH2        -0.2990
    110 H1         13.2758   17.0012  -46.0075 H         1 ACE         0.0467
    111 H2         14.2491   16.2668  -44.6885 H         1 ACE         0.0467
    112 H3         12.8543   17.3271  -44.2921 H         1 ACE         0.0467
    113 H4         12.1246   15.6149  -46.9936 H         1 GLU         0.1883
    114 H5         10.1816   13.9207  -45.8966 H         1 GLU         0.0801
    115 H6         11.4640   13.9562  -48.6214 H         1 GLU         0.0330
    116 H7          9.8129   14.4520  -48.1165 H         1 GLU         0.0330
    117 H8         10.9014   11.6109  -48.1008 H         1 GLU         0.0433
    118 H9          9.8518   12.3224  -49.3730 H         1 GLU         0.0433
    119 H10        13.5848   13.2306  -46.5937 H         1 ASP         0.1884
    120 H11        13.4386   10.4843  -45.6393 H         1 ASP         0.0819
    121 H12        15.7382   11.7923  -47.1059 H         1 ASP         0.0478
    122 H13        14.3863   10.8981  -47.8801 H         1 ASP         0.0478
    123 H14        13.3445   12.7497  -43.6689 H         1 ALA         0.1883
    124 H15        15.8693   12.8063  -42.1877 H         1 ALA         0.0797
    125 H16        14.6270   14.1199  -40.5478 H         1 ALA         0.0277
    126 H17        13.1038   13.8105  -41.4483 H         1 ALA         0.0277
    127 H18        14.4191   14.7677  -42.2102 H         1 ALA         0.0277
    128 H19        15.7687   10.2423  -42.1295 H         1 PHE         0.1885
    129 H20        14.3911    9.0918  -39.8253 H         1 PHE         0.0823
    130 H21        13.1361    8.2731  -42.4729 H         1 PHE         0.0474
    131 H22        12.6406    9.8486  -41.7664 H         1 PHE         0.0474
    132 H23        13.1198    6.2101  -40.6795 H         1 PHE         0.0557
    133 H24        10.9361    9.9232  -40.3057 H         1 PHE         0.0557
    134 H25        11.6370    5.1168  -38.9452 H         1 PHE         0.0599
    135 H26         9.3586    8.8414  -38.6439 H         1 PHE         0.0599
    136 H27         9.7703    6.4461  -37.9951 H         1 PHE         0.0559
    137 H28        15.5686    7.4734  -39.3562 H         1 ILE         0.1883
    138 H29        16.6813    5.7377  -41.4183 H         1 ILE         0.0803
    139 H30        18.4417    6.8895  -39.2569 H         1 ILE         0.0345
    140 H31        18.0673    8.6839  -40.9867 H         1 ILE         0.0267
    141 H32        18.6620    7.5514  -42.2478 H         1 ILE         0.0267
    142 H33        18.9006    4.5501  -40.0632 H         1 ILE         0.0235
    143 H34        20.2347    5.6937  -40.4355 H         1 ILE         0.0235
    144 H35        19.0934    5.1933  -41.7292 H         1 ILE         0.0235
    145 H36        20.4311    9.1086  -41.5326 H         1 ILE         0.0230
    146 H37        20.8423    7.4151  -41.0972 H         1 ILE         0.0230
    147 H38        20.2475    8.5475  -39.8361 H         1 ILE         0.0230
    148 H39        16.8629    3.5736  -40.5965 H         1 VAL         0.1883
    149 H40        15.8313    3.2261  -37.8053 H         1 VAL         0.0802
    150 H41        15.3342    1.1258  -39.9393 H         1 VAL         0.0343
    151 H42        13.1616    0.9287  -38.6287 H         1 VAL         0.0234
    152 H43        13.6186    2.3618  -37.6469 H         1 VAL         0.0234
    153 H44        14.5596    0.8384  -37.5045 H         1 VAL         0.0234
    154 H45        14.6521    3.2481  -41.0004 H         1 VAL         0.0234
    155 H46        13.7171    3.6714  -39.5262 H         1 VAL         0.0234
    156 H47        13.2299    2.2596  -40.5242 H         1 VAL         0.0234
    157 H48        17.0319    1.9249  -36.4701 H         1 ILE         0.1883
    158 H49        19.4134    0.5937  -37.5995 H         1 ILE         0.0803
    159 H50        19.4424    2.8597  -35.5266 H         1 ILE         0.0345
    160 H51        19.1857    3.7759  -37.8241 H         1 ILE         0.0267
    161 H52        20.3474    2.5808  -38.4940 H         1 ILE         0.0267
    162 H53        21.0594    1.0179  -35.0423 H         1 ILE         0.0235
    163 H54        21.9244    2.4656  -35.6606 H         1 ILE         0.0235
    164 H55        21.6293    1.0643  -36.7451 H         1 ILE         0.0235
    165 H56        21.3961    4.8697  -38.3506 H         1 ILE         0.0230
    166 H57        22.2348    3.7204  -37.2542 H         1 ILE         0.0230
    167 H58        21.0731    4.9155  -36.5843 H         1 ILE         0.0230
    168 H59        19.9443   -1.3868  -36.6140 H         1 SEP         0.1884
    169 H60        19.6154   -1.5457  -33.6519 H         1 SEP         0.0827
    170 H61        17.6171   -2.5761  -34.8998 H         1 SEP         0.0662
    171 H62        18.4263   -3.5614  -33.6344 H         1 SEP         0.0662
    172 H63        20.7661   -3.7707  -32.9805 H         1 ASP         0.1884
    173 H64        23.3947   -3.8617  -34.4028 H         1 ASP         0.0819
    174 H65        23.3361   -2.8885  -31.5296 H         1 ASP         0.0478
    175 H66        23.2034   -1.7780  -32.9353 H         1 ASP         0.0478
    176 H67        21.8573   -6.0219  -34.2392 H         1 SEP         0.1884
    177 H68        24.0326   -7.7195  -33.2395 H         1 SEP         0.0827
    178 H69        22.2994   -7.9010  -31.4082 H         1 SEP         0.0662
    179 H70        22.7876   -9.4386  -32.1982 H         1 SEP         0.0662
    180 H71        24.5935   -9.0626  -34.7403 H         1 ASP         0.1884
    181 H72        22.9242   -9.6677  -37.0511 H         1 ASP         0.0819
    182 H73        25.8411   -8.6117  -37.1684 H         1 ASP         0.0478
    183 H74        24.3917   -7.6172  -37.5382 H         1 ASP         0.0478
    184 H75        23.4090  -11.5848  -38.2207 H         1 GLY         0.1881
    185 H76        24.6778  -13.6750  -36.7869 H         1 GLY         0.0763
    186 H77        25.9044  -12.9637  -37.8896 H         1 GLY         0.0763
    187 H78        26.2179  -14.7894  -39.0472 H         1 GLU         0.1883
    188 H79        24.5438  -14.9850  -41.3842 H         1 GLU         0.0801
    189 H80        26.9071  -16.7293  -40.4658 H         1 GLU         0.0330
    190 H81        27.0318  -15.2103  -41.4164 H         1 GLU         0.0330
    191 H82        25.4611  -17.5938  -42.3695 H         1 GLU         0.0433
    192 H83        27.2378  -17.4675  -42.6015 H         1 GLU         0.0433
    193 H84        23.3478  -18.0743  -38.9653 H         1 NH2         0.1815
    194 H85        24.4845  -16.9013  -38.3891 H         1 NH2         0.1815
@<TRIPOS>BOND
     1    1    2 2  
     2    1    3 1  
     3    1    4 am 
     4    4    5 1  
     5    5    6 1  
     6    5    8 1  
     7    6    7 2  
     8    6   13 am 
     9    8    9 1  
    10    9   10 1  
    11   10   11 ar 
    12   10   12 ar 
    13   13   14 1  
    14   14   15 1  
    15   14   17 1  
    16   15   16 2  
    17   15   21 am 
    18   17   18 1  
    19   18   19 ar 
    20   18   20 ar 
    21   21   22 1  
    22   22   23 1  
    23   22   25 1  
    24   23   24 2  
    25   23   26 am 
    26   26   27 1  
    27   27   28 1  
    28   27   30 1  
    29   28   29 2  
    30   28   37 am 
    31   30   31 1  
    32   31   32 ar 
    33   31   33 ar 
    34   32   34 ar 
    35   33   35 ar 
    36   34   36 ar 
    37   35   36 ar 
    38   37   38 1  
    39   38   39 1  
    40   38   41 1  
    41   39   40 2  
    42   39   45 am 
    43   41   42 1  
    44   41   43 1  
    45   42   44 1  
    46   45   46 1  
    47   46   47 1  
    48   46   49 1  
    49   47   48 2  
    50   47   52 am 
    51   49   50 1  
    52   49   51 1  
    53   52   53 1  
    54   53   54 1  
    55   53   56 1  
    56   54   55 2  
    57   54   60 am 
    58   56   57 1  
    59   56   58 1  
    60   57   59 1  
    61   60   61 1  
    62   61   62 1  
    63   61   64 1  
    64   62   63 1  
    65   63   66 1  
    66   64   65 2  
    67   64   70 am 
    68   66   67 ar 
    69   66   68 ar 
    70   66   69 ar 
    71   70   71 1  
    72   71   72 1  
    73   71   74 1  
    74   72   73 2  
    75   72   78 am 
    76   74   75 1  
    77   75   76 ar 
    78   75   77 ar 
    79   78   79 1  
    80   79   80 1  
    81   79   82 1  
    82   80   81 1  
    83   81   84 1  
    84   82   83 2  
    85   82   88 am 
    86   84   85 ar 
    87   84   86 ar 
    88   84   87 ar 
    89   88   89 1  
    90   89   90 1  
    91   89   92 1  
    92   90   91 2  
    93   90   96 am 
    94   92   93 1  
    95   93   94 ar 
    96   93   95 ar 
    97   96   97 1  
    98   97   98 1  
    99   98   99 2  
   100   98  100 am 
   101  100  101 1  
   102  101  102 1  
   103  101  104 1  
   104  102  103 2  
   105  102  109 am 
   106  104  105 1  
   107  105  106 1  
   108  106  107 ar 
   109  106  108 ar 
   110    3  110 1  
   111    3  111 1  
   112    3  112 1  
   113    4  113 1  
   114    5  114 1  
   115    8  115 1  
   116    8  116 1  
   117    9  117 1  
   118    9  118 1  
   119   13  119 1  
   120   14  120 1  
   121   17  121 1  
   122   17  122 1  
   123   21  123 1  
   124   22  124 1  
   125   25  125 1  
   126   25  126 1  
   127   25  127 1  
   128   26  128 1  
   129   27  129 1  
   130   30  130 1  
   131   30  131 1  
   132   32  132 1  
   133   33  133 1  
   134   34  134 1  
   135   35  135 1  
   136   36  136 1  
   137   37  137 1  
   138   38  138 1  
   139   41  139 1  
   140   42  140 1  
   141   42  141 1  
   142   43  142 1  
   143   43  143 1  
   144   43  144 1  
   145   44  145 1  
   146   44  146 1  
   147   44  147 1  
   148   45  148 1  
   149   46  149 1  
   150   49  150 1  
   151   50  151 1  
   152   50  152 1  
   153   50  153 1  
   154   51  154 1  
   155   51  155 1  
   156   51  156 1  
   157   52  157 1  
   158   53  158 1  
   159   56  159 1  
   160   57  160 1  
   161   57  161 1  
   162   58  162 1  
   163   58  163 1  
   164   58  164 1  
   165   59  165 1  
   166   59  166 1  
   167   59  167 1  
   168   60  168 1  
   169   61  169 1  
   170   62  170 1  
   171   62  171 1  
   172   70  172 1  
   173   71  173 1  
   174   74  174 1  
   175   74  175 1  
   176   78  176 1  
   177   79  177 1  
   178   80  178 1  
   179   80  179 1  
   180   88  180 1  
   181   89  181 1  
   182   92  182 1  
   183   92  183 1  
   184   96  184 1  
   185   97  185 1  
   186   97  186 1  
   187  100  187 1  
   188  101  188 1  
   189  104  189 1  
   190  104  190 1  
   191  105  191 1  
   192  105  192 1  
   193  109  193 1  
   194  109  194 1  
@<TRIPOS>SUBSTRUCTURE
     1 ACE         1

