4hhy_ligand
  -I-interpret- 

 73 79  0  0  0  0  0  0  0  0999 V2000
  -35.3240  -53.6710   -7.5800 O   0  0  0  0  0
  -36.1040  -53.6110   -6.3990 C   0  0  0  0  0
  -36.4110  -52.2410   -5.9880 N   0  0  0  0  0
  -37.1200  -52.1450   -4.7150 C   0  0  0  0  0
  -38.4410  -53.0180   -4.6640 C   0  0  0  0  0
  -38.2330  -54.3530   -5.4430 C   0  0  0  0  0
  -37.3460  -54.4170   -6.4990 C   0  0  0  0  0
  -36.8920  -55.7890   -6.7480 C   0  0  0  0  0
  -37.9270  -56.8170   -6.7660 C   0  0  0  0  0
  -39.0850  -56.6280   -5.9760 C   0  0  0  0  0
  -39.3240  -55.2670   -5.5050 C   0  0  0  0  0
  -40.4200  -55.2510   -4.4620 C   0  0  0  0  0
  -40.5170  -53.9700   -3.6990 C   0  0  0  0  0
  -39.2270  -53.2910   -3.4140 N   0  0  0  0  0
  -38.9320  -53.0140   -2.0530 C   0  0  0  0  0
  -39.7770  -53.3630   -1.2610 O   0  0  0  0  0
  -37.7420  -52.3350   -1.3850 C   0  0  0  0  0
  -36.5930  -53.2230   -1.1110 C   0  0  0  0  0
  -35.5340  -52.5220   -0.3320 C   0  0  0  0  0
  -38.2470  -51.7830   -0.0950 C   0  0  0  0  0
  -37.2470  -50.7850    0.2830 C   0  0  0  0  0
  -35.9630  -51.4140    0.5660 N   0  0  0  0  0
  -35.1570  -51.0000    1.5950 C   0  0  0  0  0
  -34.1480  -51.5730    1.7050 O   0  0  0  0  0
  -35.4870  -49.9090    2.5090 C   0  0  0  0  0
  -34.5950  -48.8550    2.6270 C   0  0  0  0  0
  -36.6520  -49.8450    3.2550 C   0  0  0  0  0
  -37.5520  -50.7700    3.2050 F   0  0  0  0  0
  -36.8940  -48.7420    4.0870 C   0  0  0  0  0
  -35.9920  -47.7130    4.1990 C   0  0  0  0  0
  -34.8290  -47.7670    3.4670 C   0  0  0  0  0
  -33.8390  -46.6950    3.5330 C   0  0  0  0  0
  -33.2340  -46.6040    4.8880 C   0  0  0  0  0
  -33.4220  -47.5960    5.7340 N   0  0  0  0  0
  -32.9320  -47.6030    6.9790 N   0  0  0  0  0
  -32.2040  -46.5540    7.4340 C   0  0  0  0  0
  -31.7020  -46.5690    8.7220 O   0  0  0  0  0
  -31.9230  -45.3870    6.5980 C   0  0  0  0  0
  -32.4400  -45.4010    5.2980 C   0  0  0  0  0
  -32.1940  -44.2710    4.4390 C   0  0  0  0  0
  -31.4340  -43.1790    4.9010 C   0  0  0  0  0
  -30.9070  -43.1780    6.2270 C   0  0  0  0  0
  -31.1450  -44.2590    7.0710 C   0  0  0  0  0
  -36.1525  -51.4245   -6.5420 H   0  0  0  0  0
  -37.4089  -51.1031   -4.5773 H   0  0  0  0  0
  -36.4514  -52.5146   -3.9376 H   0  0  0  0  0
  -39.1090  -52.2853   -5.1167 H   0  0  0  0  0
  -35.8408  -56.0272   -6.9104 H   0  0  0  0  0
  -37.8103  -57.7128   -7.3760 H   0  0  0  0  0
  -39.7588  -57.4497   -5.7333 H   0  0  0  0  0
  -40.1927  -56.0382   -3.7432 H   0  0  0  0  0
  -41.3661  -55.3867   -4.9861 H   0  0  0  0  0
  -40.9551  -54.2188   -2.7324 H   0  0  0  0  0
  -41.0963  -53.2850   -4.3181 H   0  0  0  0  0
  -37.3595  -51.5784   -2.0700 H   0  0  0  0  0
  -36.1678  -53.5408   -2.0630 H   0  0  0  0  0
  -36.9455  -54.0731   -0.5268 H   0  0  0  0  0
  -34.8791  -52.0632   -1.0728 H   0  0  0  0  0
  -35.1001  -53.2788    0.3215 H   0  0  0  0  0
  -38.3656  -52.5553    0.6650 H   0  0  0  0  0
  -39.2429  -51.3510   -0.1938 H   0  0  0  0  0
  -37.5892  -50.2692    1.1802 H   0  0  0  0  0
  -37.1197  -50.0866   -0.5441 H   0  0  0  0  0
  -33.6761  -48.8774    2.0412 H   0  0  0  0  0
  -37.8211  -48.7008    4.6588 H   0  0  0  0  0
  -36.1942  -46.8677    4.8568 H   0  0  0  0  0
  -34.3341  -45.7501    3.3090 H   0  0  0  0  0
  -33.0487  -46.9067    2.8128 H   0  0  0  0  0
  -33.1071  -48.4017    7.5888 H   0  0  0  0  0
  -32.5980  -44.2611    3.4267 H   0  0  0  0  0
  -31.2475  -42.3306    4.2425 H   0  0  0  0  0
  -30.3182  -42.3309    6.5789 H   0  0  0  0  0
  -30.7471  -44.2573    8.0858 H   0  0  0  0  0
  1  2  2  0  0  0
  2  3  1  0  0  0
  2  7  1  0  0  0
  3  4  1  0  0  0
  4  5  1  0  0  0
  5  6  1  0  0  0
  5 14  1  0  0  0
  6  7  4  0  0  0
  6 11  4  0  0  0
  7  8  4  0  0  0
  8  9  4  0  0  0
  9 10  4  0  0  0
 10 11  4  0  0  0
 11 12  1  0  0  0
 12 13  1  0  0  0
 13 14  1  0  0  0
 14 15  1  0  0  0
 15 16  2  0  0  0
 15 17  1  0  0  0
 17 18  1  0  0  0
 17 20  1  0  0  0
 18 19  1  0  0  0
 19 22  1  0  0  0
 20 21  1  0  0  0
 21 22  1  0  0  0
 22 23  1  0  0  0
 23 24  2  0  0  0
 23 25  1  0  0  0
 25 26  4  0  0  0
 25 27  4  0  0  0
 26 31  4  0  0  0
 27 28  1  0  0  0
 27 29  4  0  0  0
 29 30  4  0  0  0
 30 31  4  0  0  0
 31 32  1  0  0  0
 32 33  1  0  0  0
 33 34  2  0  0  0
 33 39  1  0  0  0
 34 35  1  0  0  0
 35 36  1  0  0  0
 36 37  2  0  0  0
 36 38  1  0  0  0
 38 39  4  0  0  0
 38 43  4  0  0  0
 39 40  4  0  0  0
 40 41  4  0  0  0
 41 42  4  0  0  0
 42 43  4  0  0  0
  3 44  1  0  0  0
  4 45  1  0  0  0
  4 46  1  0  0  0
  5 47  1  0  0  0
  8 48  1  0  0  0
  9 49  1  0  0  0
 10 50  1  0  0  0
 12 51  1  0  0  0
 12 52  1  0  0  0
 13 53  1  0  0  0
 13 54  1  0  0  0
 17 55  1  0  0  0
 18 56  1  0  0  0
 18 57  1  0  0  0
 19 58  1  0  0  0
 19 59  1  0  0  0
 20 60  1  0  0  0
 20 61  1  0  0  0
 21 62  1  0  0  0
 21 63  1  0  0  0
 26 64  1  0  0  0
 29 65  1  0  0  0
 30 66  1  0  0  0
 32 67  1  0  0  0
 32 68  1  0  0  0
 35 69  1  0  0  0
 40 70  1  0  0  0
 41 71  1  0  0  0
 42 72  1  0  0  0
 43 73  1  0  0  0
M  END
$$$$
