4jln_ligand
  -I-interpret- 

 54 56  0  0  0  0  0  0  0  0999 V2000
  -36.8990    8.1830    0.2640 F   0  0  0  0  0
  -36.3200    7.5720   -0.9430 C   0  0  0  0  0
  -35.4290    8.5850   -1.6630 C   0  0  0  0  0
  -36.3010    9.6010   -2.1510 O   0  0  0  0  0
  -35.8010   10.6330   -2.8840 C   0  0  0  0  0
  -34.4360   10.9360   -3.0490 C   0  0  0  0  0
  -36.7860   11.4090   -3.4790 C   0  0  0  0  0
  -38.0750   11.0070   -3.2350 O   0  0  0  0  0
  -39.0660   11.2220   -4.2630 C   0  0  0  0  0
  -36.4370   12.5190   -4.2460 C   0  0  0  0  0
  -35.0830   12.8180   -4.4150 C   0  0  0  0  0
  -34.0740   12.0340   -3.8350 C   0  0  0  0  0
  -32.7890   12.3860   -4.0070 C   0  0  0  0  0
  -31.7940   12.0650   -3.1870 N   0  0  0  0  0
  -32.1670   13.3220   -5.2090 S   0  0  0  0  0
  -30.6660   13.3100   -4.6920 C   0  0  0  0  0
  -29.4860   14.0130   -5.3720 C   0  0  0  0  0
  -29.7520   15.5220   -5.4510 C   0  0  0  0  0
  -28.9060   16.2520   -4.4020 C   0  0  0  0  0
  -30.6200   12.5880   -3.5710 C   0  0  0  0  0
  -29.3470   12.3250   -2.7830 C   0  0  0  0  0
  -28.6010   10.7820   -3.3820 S   0  0  0  0  0
  -26.9200   11.1960   -3.6660 C   0  0  0  0  0
  -26.5340   12.4780   -3.7210 N   0  0  0  0  0
  -26.0240   10.2070   -3.8390 N   0  0  0  0  0
  -24.7120   10.4580   -4.0590 C   0  0  0  0  0
  -23.8390    9.4470   -4.2120 N   0  0  0  0  0
  -24.2790   11.7850   -4.1070 C   0  0  0  0  0
  -25.2360   12.7880   -3.9270 C   0  0  0  0  0
  -24.8800   14.0650   -3.9780 N   0  0  0  0  0
  -37.1243    7.2624   -1.6104 H   0  0  0  0  0
  -35.7219    6.7069   -0.6565 H   0  0  0  0  0
  -34.8766    8.1155   -2.4769 H   0  0  0  0  0
  -34.6793    8.9995   -0.9890 H   0  0  0  0  0
  -33.6721   10.3230   -2.5706 H   0  0  0  0  0
  -39.1402   12.2882   -4.4770 H   0  0  0  0  0
  -38.7718   10.6883   -5.1667 H   0  0  0  0  0
  -40.0314   10.8512   -3.9185 H   0  0  0  0  0
  -37.2052   13.1414   -4.7049 H   0  0  0  0  0
  -34.8024   13.6843   -5.0140 H   0  0  0  0  0
  -29.3636   13.6163   -6.3799 H   0  0  0  0  0
  -28.5802   13.8376   -4.7916 H   0  0  0  0  0
  -30.8080   15.7130   -5.2598 H   0  0  0  0  0
  -29.4867   15.8839   -6.4443 H   0  0  0  0  0
  -29.1696   15.8898   -3.4083 H   0  0  0  0  0
  -27.8498   16.0605   -4.5915 H   0  0  0  0  0
  -29.0990   17.3231   -4.4627 H   0  0  0  0  0
  -29.5797   12.2365   -1.7218 H   0  0  0  0  0
  -28.6493   13.1513   -2.9195 H   0  0  0  0  0
  -24.1634    8.4812   -4.1627 H   0  0  0  0  0
  -22.8523    9.6458   -4.3774 H   0  0  0  0  0
  -23.2309   12.0301   -4.2789 H   0  0  0  0  0
  -25.5826   14.7953   -3.8623 H   0  0  0  0  0
  -23.9037   14.3165   -4.1329 H   0  0  0  0  0
  1  2  1  0  0  0
  2  3  1  0  0  0
  3  4  1  0  0  0
  4  5  1  0  0  0
  5  6  4  0  0  0
  5  7  4  0  0  0
  6 12  4  0  0  0
  7  8  1  0  0  0
  7 10  4  0  0  0
  8  9  1  0  0  0
 10 11  4  0  0  0
 11 12  4  0  0  0
 12 13  1  0  0  0
 13 14  4  0  0  0
 13 15  4  0  0  0
 14 20  4  0  0  0
 15 16  4  0  0  0
 16 17  1  0  0  0
 16 20  4  0  0  0
 17 18  1  0  0  0
 18 19  1  0  0  0
 20 21  1  0  0  0
 21 22  1  0  0  0
 22 23  1  0  0  0
 23 24  4  0  0  0
 23 25  4  0  0  0
 24 29  4  0  0  0
 25 26  4  0  0  0
 26 27  1  0  0  0
 26 28  4  0  0  0
 28 29  4  0  0  0
 29 30  1  0  0  0
  2 31  1  0  0  0
  2 32  1  0  0  0
  3 33  1  0  0  0
  3 34  1  0  0  0
  6 35  1  0  0  0
  9 36  1  0  0  0
  9 37  1  0  0  0
  9 38  1  0  0  0
 10 39  1  0  0  0
 11 40  1  0  0  0
 17 41  1  0  0  0
 17 42  1  0  0  0
 18 43  1  0  0  0
 18 44  1  0  0  0
 19 45  1  0  0  0
 19 46  1  0  0  0
 19 47  1  0  0  0
 21 48  1  0  0  0
 21 49  1  0  0  0
 27 50  1  0  0  0
 27 51  1  0  0  0
 28 52  1  0  0  0
 30 53  1  0  0  0
 30 54  1  0  0  0
M  END
$$$$
