5kqd_ligand
  -I-interpret- 

119121  0  0  0  0  0  0  0  0999 V2000
   -0.1250   82.5870  108.0690 C   0  0  0  0  0
    1.3510   82.3160  110.0810 C   0  0  0  0  0
   -3.6870   78.3950  102.7790 C   0  0  0  0  0
   -2.3630   80.1960  103.8340 C   0  0  0  0  0
   -1.9670   80.8160  105.1560 C   0  0  0  0  0
   -1.9040   82.9740  106.2860 C   0  0  0  0  0
   -5.1840   78.3090  102.5200 C   0  0  0  0  0
   19.7020   92.3560  107.7850 N   0  0  0  0  0
   20.6360   92.3370  108.7400 C   0  0  0  0  0
   20.5340   91.5500  109.8170 N   0  0  0  0  0
   19.4790   90.7350  110.0260 C   0  0  0  0  0
   18.4180   90.6950  109.0310 C   0  0  0  0  0
   18.5960   91.5840  107.8600 C   0  0  0  0  0
   17.6720   91.6310  106.8760 N   0  0  0  0  0
   17.5090   89.8040  109.4750 N   0  0  0  0  0
   17.9490   89.3090  110.6560 C   0  0  0  0  0
   19.1150   89.8780  110.9740 N   0  0  0  0  0
   19.8890   89.5760  112.1760 C   0  0  0  0  0
   19.1480   90.0570  113.4100 C   0  0  0  0  0
   19.5900   91.3410  113.8380 O   0  0  0  0  0
   19.5450   89.0490  114.4500 C   0  0  0  0  0
   20.7710   89.4660  115.0690 O   0  0  0  0  0
   20.9200   90.3010  116.4520 P   0  0  0  0  0
   22.3930   90.6060  116.6300 O   0  0  0  0  0
   20.4130   89.3280  117.4810 O   0  0  0  0  0
   20.0480   91.5090  116.2040 O   0  0  0  0  0
   19.7340   87.7920  113.6100 C   0  0  0  0  0
   20.0560   88.1730  112.2840 O   0  0  0  0  0
   18.4190   87.0530  113.4850 C   0  0  0  0  0
   17.5400   87.5960  114.4610 O   0  0  0  0  0
   15.9650   87.3500  114.3810 P   0  0  0  0  0
   15.3800   87.6560  115.7280 O   0  0  0  0  0
   15.4780   88.0930  113.1730 O   0  0  0  0  0
   15.9030   85.7490  114.1660 O   0  0  0  0  0
   14.8300   84.7810  114.8870 P   0  0  0  0  0
   15.4130   84.0700  116.0870 O   0  0  0  0  0
   13.5130   85.4860  114.9950 O   0  0  0  0  0
   14.6110   83.6750  113.7600 O   0  0  0  0  0
   12.6270   82.8200  112.8180 C   0  0  0  0  0
   13.5910   83.9740  112.8300 C   0  0  0  0  0
   13.4060   81.5440  112.5510 C   0  0  0  0  0
   11.6240   83.0800  111.7120 C   0  0  0  0  0
   11.9320   82.8250  114.1660 C   0  0  0  0  0
   11.7680   84.1840  114.5530 O   0  0  0  0  0
   10.6130   82.1090  114.1390 C   0  0  0  0  0
   10.5680   80.9050  113.9580 O   0  0  0  0  0
    9.5070   82.8050  114.3520 N   0  0  0  0  0
    8.2450   82.1110  114.2760 C   0  0  0  0  0
    7.8940   81.8260  112.8330 C   0  0  0  0  0
    6.5760   81.1250  112.8620 C   0  0  0  0  0
    6.4600   80.0710  113.4580 O   0  0  0  0  0
    5.6010   81.7460  112.2140 N   0  0  0  0  0
    4.2050   81.3980  112.3520 C   0  0  0  0  0
    3.3370   82.4250  111.6610 C   0  0  0  0  0
    1.6760   81.8990  111.6530 S   0  0  0  0  0
    2.2260   82.8240  109.4090 O   0  0  0  0  0
   -0.0120   82.0580  109.4980 C   0  0  0  0  0
   -1.5170   82.2390  107.5590 C   0  0  0  0  0
   -2.7870   82.0560  105.4570 C   0  0  0  0  0
   -3.4220   79.1430  104.0690 C   0  0  0  0  0
   -5.4350   77.4820  101.2820 C   0  0  0  0  0
    0.6370   82.1346  107.4343 H   0  0  0  0  0
    0.0288   83.6659  108.0493 H   0  0  0  0  0
   -3.2120   78.9263  101.9543 H   0  0  0  0  0
   -3.2804   77.3870  102.8609 H   0  0  0  0  0
   -1.4894   79.7362  103.3719 H   0  0  0  0  0
   -2.7584   80.9683  103.1742 H   0  0  0  0  0
   -0.9165   81.1017  105.1022 H   0  0  0  0  0
   -2.1429   80.0859  105.9460 H   0  0  0  0  0
   -1.0106   83.2435  105.7227 H   0  0  0  0  0
   -2.4416   83.8900  106.5310 H   0  0  0  0  0
   -5.5853   79.3119  102.3740 H   0  0  0  0  0
   -5.6738   77.8416  103.3742 H   0  0  0  0  0
   21.5082   92.9828  108.6385 H   0  0  0  0  0
   17.8094   92.2493  106.0765 H   0  0  0  0  0
   16.8368   91.0482  106.9324 H   0  0  0  0  0
   17.4309   88.5606  111.2556 H   0  0  0  0  0
   20.8547   90.0765  112.1044 H   0  0  0  0  0
   18.0767   90.1440  113.2286 H   0  0  0  0  0
   19.0963   91.6045  114.6180 H   0  0  0  0  0
   18.8313   88.9123  115.2624 H   0  0  0  0  0
   22.6736   91.2284  115.9551 H   0  0  0  0  0
   20.4555   92.0646  115.5355 H   0  0  0  0  0
   20.5050   87.1820  114.0806 H   0  0  0  0  0
   18.5612   85.9846  113.6472 H   0  0  0  0  0
   18.0039   87.1728  112.4843 H   0  0  0  0  0
   15.7958   87.0990  116.3902 H   0  0  0  0  0
   16.2540   83.6748  115.8460 H   0  0  0  0  0
   14.0158   84.1225  111.8372 H   0  0  0  0  0
   13.0778   84.8928  113.1137 H   0  0  0  0  0
   13.9071   81.6209  111.5861 H   0  0  0  0  0
   14.1479   81.4016  113.3368 H   0  0  0  0  0
   12.7202   80.6969  112.5392 H   0  0  0  0  0
   11.0996   84.0145  111.9112 H   0  0  0  0  0
   12.1470   83.1515  110.7584 H   0  0  0  0  0
   10.9066   82.2603  111.6738 H   0  0  0  0  0
   12.5423   82.2839  114.8891 H   0  0  0  0  0
   11.3291   84.2219  115.4060 H   0  0  0  0  0
    9.5463   83.8021  114.5635 H   0  0  0  0  0
    7.4671   82.7345  114.7167 H   0  0  0  0  0
    8.3222   81.1685  114.8180 H   0  0  0  0  0
    8.6574   81.2127  112.3543 H   0  0  0  0  0
    7.8398   82.7456  112.2504 H   0  0  0  0  0
    5.8487   82.5097  111.5848 H   0  0  0  0  0
    3.9484   81.3700  113.4110 H   0  0  0  0  0
    4.0346   80.4231  111.8953 H   0  0  0  0  0
    3.6780   82.5475  110.6330 H   0  0  0  0  0
    3.4093   83.3720  112.1958 H   0  0  0  0  0
   -0.1794   80.9811  109.4797 H   0  0  0  0  0
   -0.7513   82.5707  110.1134 H   0  0  0  0  0
   -2.2288   82.5294  108.3317 H   0  0  0  0  0
   -1.5241   81.1725  107.3341 H   0  0  0  0  0
   -3.6961   81.7977  106.0000 H   0  0  0  0  0
   -3.1005   82.5470  104.5357 H   0  0  0  0  0
   -3.0755   78.4433  104.8296 H   0  0  0  0  0
   -4.3413   79.6218  104.4063 H   0  0  0  0  0
   -4.9446   77.9500  100.4284 H   0  0  0  0  0
   -5.0332   76.4794  101.4287 H   0  0  0  0  0
   -6.5077   77.4216  101.0983 H   0  0  0  0  0
 57  1  1  0  0  0
  1 58  1  0  0  0
 55  2  1  0  0  0
  2 56  2  0  0  0
  2 57  1  0  0  0
  3  7  1  0  0  0
 60  3  1  0  0  0
  5  4  1  0  0  0
  4 60  1  0  0  0
 59  5  1  0  0  0
 58  6  1  0  0  0
  6 59  1  0  0  0
  7 61  1  0  0  0
  9  8  4  0  0  0
 13  8  4  0  0  0
 10  9  4  0  0  0
 11 10  4  0  0  0
 11 12  4  0  0  0
 17 11  4  0  0  0
 12 13  4  0  0  0
 15 12  4  0  0  0
 13 14  1  0  0  0
 16 15  4  0  0  0
 17 16  4  0  0  0
 18 17  1  0  0  0
 18 19  1  0  0  0
 28 18  1  0  0  0
 19 20  1  0  0  0
 21 19  1  0  0  0
 21 22  1  0  0  0
 27 21  1  0  0  0
 22 23  1  0  0  0
 23 24  1  0  0  0
 23 25  2  0  0  0
 23 26  1  0  0  0
 27 28  1  0  0  0
 29 27  1  0  0  0
 30 29  1  0  0  0
 31 30  1  0  0  0
 31 32  1  0  0  0
 31 33  2  0  0  0
 34 31  1  0  0  0
 35 34  1  0  0  0
 35 36  1  0  0  0
 35 37  2  0  0  0
 38 35  1  0  0  0
 40 38  1  0  0  0
 39 40  1  0  0  0
 39 41  1  0  0  0
 39 42  1  0  0  0
 43 39  1  0  0  0
 43 44  1  0  0  0
 45 43  1  0  0  0
 45 46  2  0  0  0
 47 45  1  0  0  0
 48 47  1  0  0  0
 49 48  1  0  0  0
 50 49  1  0  0  0
 50 51  2  0  0  0
 52 50  1  0  0  0
 53 52  1  0  0  0
 54 53  1  0  0  0
 54 55  1  0  0  0
  1 62  1  0  0  0
  1 63  1  0  0  0
  3 64  1  0  0  0
  3 65  1  0  0  0
  4 66  1  0  0  0
  4 67  1  0  0  0
  5 68  1  0  0  0
  5 69  1  0  0  0
  6 70  1  0  0  0
  6 71  1  0  0  0
  7 72  1  0  0  0
  7 73  1  0  0  0
  9 74  1  0  0  0
 14 75  1  0  0  0
 14 76  1  0  0  0
 16 77  1  0  0  0
 18 78  1  0  0  0
 19 79  1  0  0  0
 20 80  1  0  0  0
 21 81  1  0  0  0
 24 82  1  0  0  0
 26 83  1  0  0  0
 27 84  1  0  0  0
 29 85  1  0  0  0
 29 86  1  0  0  0
 32 87  1  0  0  0
 36 88  1  0  0  0
 40 89  1  0  0  0
 40 90  1  0  0  0
 41 91  1  0  0  0
 41 92  1  0  0  0
 41 93  1  0  0  0
 42 94  1  0  0  0
 42 95  1  0  0  0
 42 96  1  0  0  0
 43 97  1  0  0  0
 44 98  1  0  0  0
 47 99  1  0  0  0
 48100  1  0  0  0
 48101  1  0  0  0
 49102  1  0  0  0
 49103  1  0  0  0
 52104  1  0  0  0
 53105  1  0  0  0
 53106  1  0  0  0
 54107  1  0  0  0
 54108  1  0  0  0
 57109  1  0  0  0
 57110  1  0  0  0
 58111  1  0  0  0
 58112  1  0  0  0
 59113  1  0  0  0
 59114  1  0  0  0
 60115  1  0  0  0
 60116  1  0  0  0
 61117  1  0  0  0
 61118  1  0  0  0
 61119  1  0  0  0
M  END
$$$$
