### 
### Created by X-TOOL on Mon Sep 10 21:13:28 2018
### 

@<TRIPOS>MOLECULE
5kqd_ligand
  115   117     1     0     0
SMALL
GAST_HUCK


@<TRIPOS>ATOM
      1 C3         -0.1250   82.5870  108.0690 C.3       1 PKZ        -0.0363
      2 C1          1.3510   82.3160  110.0810 C.2       1 PKZ         0.1642
      3 C10        -3.6870   78.3950  102.7790 C.3       1 PKZ        -0.0533
      4 C8         -2.3630   80.1960  103.8340 C.3       1 PKZ        -0.0531
      5 C7         -1.9670   80.8160  105.1560 C.3       1 PKZ        -0.0531
      6 C5         -1.9040   82.9740  106.2860 C.3       1 PKZ        -0.0529
      7 C11        -5.1840   78.3090  102.5200 C.3       1 PKZ        -0.0559
      8 N1A        19.7020   92.3560  107.7850 N.ar      1 PKZ        -0.2698
      9 C2A        20.6360   92.3370  108.7400 C.ar      1 PKZ         0.0533
     10 N3A        20.5340   91.5500  109.8170 N.ar      1 PKZ        -0.2714
     11 C4A        19.4790   90.7350  110.0260 C.ar      1 PKZ         0.1613
     12 C5A        18.4180   90.6950  109.0310 C.ar      1 PKZ         0.1045
     13 C6A        18.5960   91.5840  107.8600 C.ar      1 PKZ         0.1298
     14 N6A        17.6720   91.6310  106.8760 N.pl3     1 PKZ        -0.3152
     15 N7A        17.5090   89.8040  109.4750 N.2       1 PKZ        -0.2958
     16 C8A        17.9490   89.3090  110.6560 C.2       1 PKZ         0.1123
     17 N9A        19.1150   89.8780  110.9740 N.pl3     1 PKZ        -0.1919
     18 C1B        19.8890   89.5760  112.1760 C.3       1 PKZ         0.2013
     19 C2B        19.1480   90.0570  113.4100 C.3       1 PKZ         0.1432
     20 O2B        19.5900   91.3410  113.8380 O.3       1 PKZ        -0.3832
     21 C3B        19.5450   89.0490  114.4500 C.3       1 PKZ         0.1487
     22 O3B        20.7710   89.4660  115.0690 O.3       1 PKZ        -0.2674
     23 P3B        20.9200   90.3010  116.4520 P.3       1 PKZ         0.2013
     24 O7A        22.3930   90.6060  116.6300 O.co2     1 PKZ        -0.5537
     25 O8A        20.4130   89.3280  117.4810 O.co2     1 PKZ        -0.5537
     26 O9A        20.0480   91.5090  116.2040 O.co2     1 PKZ        -0.5537
     27 C4B        19.7340   87.7920  113.6100 C.3       1 PKZ         0.1235
     28 O4B        20.0560   88.1730  112.2840 O.3       1 PKZ        -0.3360
     29 C5B        18.4190   87.0530  113.4850 C.3       1 PKZ         0.1131
     30 O5B        17.5400   87.5960  114.4610 O.3       1 PKZ        -0.2476
     31 P1A        15.9650   87.3500  114.3810 P.3       1 PKZ         0.2972
     32 O1A        15.3800   87.6560  115.7280 O.co2     1 PKZ        -0.6127
     33 O2A        15.4780   88.0930  113.1730 O.co2     1 PKZ        -0.6127
     34 O3A        15.9030   85.7490  114.1660 O.3       1 PKZ        -0.1319
     35 P2A        14.8300   84.7810  114.8870 P.3       1 PKZ         0.2971
     36 O4A        15.4130   84.0700  116.0870 O.co2     1 PKZ        -0.6127
     37 O5A        13.5130   85.4860  114.9950 O.co2     1 PKZ        -0.6127
     38 O6A        14.6110   83.6750  113.7600 O.3       1 PKZ        -0.2496
     39 CBP        12.6270   82.8200  112.8180 C.3       1 PKZ         0.0367
     40 CCP        13.5910   83.9740  112.8300 C.3       1 PKZ         0.0936
     41 CDP        13.4060   81.5440  112.5510 C.3       1 PKZ        -0.0528
     42 CEP        11.6240   83.0800  111.7120 C.3       1 PKZ        -0.0528
     43 CAP        11.9320   82.8250  114.1660 C.3       1 PKZ         0.1510
     44 OAP        11.7680   84.1840  114.5530 O.3       1 PKZ        -0.3708
     45 C9P        10.6130   82.1090  114.1390 C.2       1 PKZ         0.2057
     46 O9P        10.5680   80.9050  113.9580 O.2       1 PKZ        -0.3942
     47 N8P         9.5070   82.8050  114.3520 N.am      1 PKZ        -0.2826
     48 C7P         8.2450   82.1110  114.2760 C.3       1 PKZ         0.0477
     49 C6P         7.8940   81.8260  112.8330 C.3       1 PKZ         0.0574
     50 C5P         6.5760   81.1250  112.8620 C.2       1 PKZ         0.1779
     51 O5P         6.4600   80.0710  113.4580 O.2       1 PKZ        -0.3970
     52 N4P         5.6010   81.7460  112.2140 N.am      1 PKZ        -0.2860
     53 C3P         4.2050   81.3980  112.3520 C.3       1 PKZ         0.0422
     54 C2P         3.3370   82.4250  111.6610 C.3       1 PKZ         0.0336
     55 S1P         1.6760   81.8990  111.6530 S.3       1 PKZ        -0.0482
     56 O1          2.2260   82.8240  109.4090 O.2       1 PKZ        -0.3791
     57 C2         -0.0120   82.0580  109.4980 C.3       1 PKZ         0.0317
     58 C4         -1.5170   82.2390  107.5590 C.3       1 PKZ        -0.0509
     59 C6         -2.7870   82.0560  105.4570 C.3       1 PKZ        -0.0531
     60 C9         -3.4220   79.1430  104.0690 C.3       1 PKZ        -0.0531
     61 C12        -5.4350   77.4820  101.2820 C.3       1 PKZ        -0.0653
     62 H1          0.6370   82.1138  107.4323 H         1 PKZ         0.0290
     63 H2          0.0159   83.6779  108.0604 H         1 PKZ         0.0290
     64 H3         -3.2038   78.9257  101.9454 H         1 PKZ         0.0265
     65 H4         -3.2726   77.3790  102.8563 H         1 PKZ         0.0265
     66 H5         -1.4814   79.7318  103.3678 H         1 PKZ         0.0265
     67 H6         -2.7622   80.9754  103.1683 H         1 PKZ         0.0265
     68 H7         -0.9030   81.0922  105.1167 H         1 PKZ         0.0265
     69 H8         -2.1254   80.0797  105.9577 H         1 PKZ         0.0265
     70 H9         -0.9995   83.2343  105.7167 H         1 PKZ         0.0265
     71 H10        -2.4550   83.8919  106.5389 H         1 PKZ         0.0265
     72 H11        -5.5892   79.3210  102.3730 H         1 PKZ         0.0263
     73 H12        -5.6786   77.8376  103.3820 H         1 PKZ         0.0263
     74 H13        21.5034   92.9792  108.6391 H         1 PKZ         0.0996
     75 H14        16.8286   91.0425  106.9330 H         1 PKZ         0.1820
     76 H15        17.8107   92.2554  106.0686 H         1 PKZ         0.1820
     77 H16        17.4314   88.5613  111.2551 H         1 PKZ         0.1349
     78 H17        20.8709   90.0681  112.1153 H         1 PKZ         0.0996
     79 H18        18.0611   90.0685  113.2414 H         1 PKZ         0.0680
     80 H19        20.5162   91.3028  114.0460 H         1 PKZ         0.2101
     81 H20        18.7642   88.9117  115.2126 H         1 PKZ         0.0704
     82 H21        20.5135   87.1505  114.0469 H         1 PKZ         0.0654
     83 H22        18.5706   85.9792  113.6695 H         1 PKZ         0.0648
     84 H23        17.9998   87.1965  112.4782 H         1 PKZ         0.0648
     85 H24        14.0255   84.1089  111.8285 H         1 PKZ         0.0628
     86 H25        13.0689   84.8945  113.1303 H         1 PKZ         0.0628
     87 H26        12.7149   80.6883  112.5388 H         1 PKZ         0.0238
     88 H27        14.1551   81.3991  113.3434 H         1 PKZ         0.0238
     89 H28        13.9122   81.6203  111.5774 H         1 PKZ         0.0238
     90 H29        11.0731   84.0075  111.9272 H         1 PKZ         0.0238
     91 H30        10.9173   82.2392  111.6528 H         1 PKZ         0.0238
     92 H31        12.1536   83.1821  110.7533 H         1 PKZ         0.0238
     93 H32        12.5783   82.3188  114.8982 H         1 PKZ         0.0844
     94 H33        12.6201   84.5994  114.6153 H         1 PKZ         0.2133
     95 H34         9.5455   83.7825  114.5593 H         1 PKZ         0.1853
     96 H35         7.4588   82.7357  114.7249 H         1 PKZ         0.0545
     97 H36         8.3182   81.1616  114.8268 H         1 PKZ         0.0545
     98 H37         8.6590   81.1831  112.3731 H         1 PKZ         0.0522
     99 H38         7.8151   82.7652  112.2659 H         1 PKZ         0.0522
    100 H39         5.8439   82.4947  111.5972 H         1 PKZ         0.1851
    101 H40         3.9439   81.3619  113.4199 H         1 PKZ         0.0529
    102 H41         4.0305   80.4113  111.8983 H         1 PKZ         0.0529
    103 H42         3.6822   82.5548  110.6247 H         1 PKZ         0.0424
    104 H43         3.4123   83.3835  112.1954 H         1 PKZ         0.0424
    105 H44        -0.1979   80.9738  109.4925 H         1 PKZ         0.0503
    106 H45        -0.7673   82.5564  110.1234 H         1 PKZ         0.0503
    107 H46        -2.2469   82.4928  108.3418 H         1 PKZ         0.0267
    108 H47        -1.5535   81.1577  107.3602 H         1 PKZ         0.0267
    109 H48        -3.6897   81.7849  106.0241 H         1 PKZ         0.0265
    110 H49        -3.0781   82.5544  104.5206 H         1 PKZ         0.0265
    111 H50        -3.0727   78.4370  104.8368 H         1 PKZ         0.0265
    112 H51        -4.3497   79.6260  104.4098 H         1 PKZ         0.0265
    113 H52        -6.5173   77.4203  101.0955 H         1 PKZ         0.0230
    114 H53        -5.0300   76.4699  101.4288 H         1 PKZ         0.0230
    115 H54        -4.9407   77.9533  100.4197 H         1 PKZ         0.0230
@<TRIPOS>BOND
     1   57    1 1  
     2    1   58 1  
     3   55    2 1  
     4    2   56 2  
     5    2   57 1  
     6    3    7 1  
     7   60    3 1  
     8    5    4 1  
     9    4   60 1  
    10   59    5 1  
    11   58    6 1  
    12    6   59 1  
    13    7   61 1  
    14    9    8 ar 
    15   13    8 ar 
    16   10    9 ar 
    17   11   10 ar 
    18   11   12 ar 
    19   17   11 1  
    20   12   13 ar 
    21   15   12 1  
    22   13   14 1  
    23   16   15 2  
    24   17   16 1  
    25   18   17 1  
    26   18   19 1  
    27   28   18 1  
    28   19   20 1  
    29   21   19 1  
    30   21   22 1  
    31   27   21 1  
    32   22   23 1  
    33   23   24 ar 
    34   23   25 ar 
    35   23   26 ar 
    36   27   28 1  
    37   29   27 1  
    38   30   29 1  
    39   31   30 1  
    40   31   32 ar 
    41   31   33 ar 
    42   34   31 1  
    43   35   34 1  
    44   35   36 ar 
    45   35   37 ar 
    46   38   35 1  
    47   40   38 1  
    48   39   40 1  
    49   39   41 1  
    50   39   42 1  
    51   43   39 1  
    52   43   44 1  
    53   45   43 1  
    54   45   46 2  
    55   47   45 am 
    56   48   47 1  
    57   49   48 1  
    58   50   49 1  
    59   50   51 2  
    60   52   50 am 
    61   53   52 1  
    62   54   53 1  
    63   54   55 1  
    64    1   62 1  
    65    1   63 1  
    66    3   64 1  
    67    3   65 1  
    68    4   66 1  
    69    4   67 1  
    70    5   68 1  
    71    5   69 1  
    72    6   70 1  
    73    6   71 1  
    74    7   72 1  
    75    7   73 1  
    76    9   74 1  
    77   14   75 1  
    78   14   76 1  
    79   16   77 1  
    80   18   78 1  
    81   19   79 1  
    82   20   80 1  
    83   21   81 1  
    84   27   82 1  
    85   29   83 1  
    86   29   84 1  
    87   40   85 1  
    88   40   86 1  
    89   41   87 1  
    90   41   88 1  
    91   41   89 1  
    92   42   90 1  
    93   42   91 1  
    94   42   92 1  
    95   43   93 1  
    96   44   94 1  
    97   47   95 1  
    98   48   96 1  
    99   48   97 1  
   100   49   98 1  
   101   49   99 1  
   102   52  100 1  
   103   53  101 1  
   104   53  102 1  
   105   54  103 1  
   106   54  104 1  
   107   57  105 1  
   108   57  106 1  
   109   58  107 1  
   110   58  108 1  
   111   59  109 1  
   112   59  110 1  
   113   60  111 1  
   114   60  112 1  
   115   61  113 1  
   116   61  114 1  
   117   61  115 1  
@<TRIPOS>SUBSTRUCTURE
     1 PKZ         1

