### 
### Created by X-TOOL on Mon Aug  2 16:12:33 2021
### 

@<TRIPOS>MOLECULE
6a5e_ligand
  255   257     1     0     0
SMALL
GAST_HUCK


@<TRIPOS>ATOM
      1 N         -42.5280   -3.2900   23.7910 N.4       1 ARG         0.2379
      2 CA        -42.9210   -2.2950   24.7870 C.3       1 ARG         0.0651
      3 C         -41.9540   -2.2110   25.9780 C.2       1 ARG         0.2268
      4 O         -41.2480   -3.1620   26.2770 O.2       1 ARG        -0.3907
      5 CB        -44.3510   -2.5090   25.2560 C.3       1 ARG         0.0110
      6 CG        -44.8860   -3.9020   25.0230 C.3       1 ARG        -0.0125
      7 CD        -46.3970   -3.9010   25.0330 C.3       1 ARG         0.0629
      8 NE        -46.9380   -4.0960   26.3670 N.pl3     1 ARG        -0.2723
      9 CZ        -46.4890   -4.9950   27.2300 C.cat     1 ARG         0.2882
     10 NH1       -45.4920   -5.7850   26.9040 N.pl3     1 ARG        -0.2849
     11 NH2       -47.0400   -5.1030   28.4180 N.pl3     1 ARG        -0.2849
     12 N         -41.9360   -1.0590   26.6420 N.am      1 ARG        -0.2594
     13 CA        -41.0290   -0.7720   27.7410 C.3       1 ARG         0.1391
     14 C         -41.7690   -0.0710   28.8660 C.2       1 ARG         0.2057
     15 O         -42.7600    0.6250   28.6350 O.2       1 ARG        -0.3942
     16 CB        -39.8790    0.1340   27.3010 C.3       1 ARG         0.0164
     17 CG        -39.0390   -0.4220   26.1840 C.ar      1 ARG        -0.0493
     18 CD1       -37.9330   -1.2080   26.4610 C.ar      1 ARG        -0.0685
     19 CD2       -39.3370   -0.1530   24.8550 C.ar      1 ARG        -0.0685
     20 CE1       -37.1540   -1.7270   25.4550 C.ar      1 ARG        -0.0398
     21 CE2       -38.5560   -0.6670   23.8360 C.ar      1 ARG        -0.0398
     22 CZ        -37.4650   -1.4550   24.1480 C.ar      1 ARG         0.0805
     23 OH        -36.6750   -1.9780   23.1550 O.3       1 ARG        -0.3376
     24 N         -41.2670   -0.2420   30.0870 N.am      1 ARG        -0.2633
     25 CA        -41.6050    0.6840   31.1620 C.3       1 ARG         0.1335
     26 C         -40.7080    1.8990   31.0030 C.2       1 ARG         0.2042
     27 O         -39.4810    1.7940   31.0920 O.2       1 ARG        -0.3944
     28 CB        -41.4350    0.0480   32.5450 C.3       1 ARG        -0.0037
     29 CG1       -42.4140   -1.1060   32.7450 C.3       1 ARG        -0.0491
     30 CG2       -41.6700    1.0950   33.6040 C.3       1 ARG        -0.0582
     31 CD1       -42.6180   -1.4920   34.2130 C.3       1 ARG        -0.0648
     32 N         -41.3120    3.0460   30.7300 N.am      1 ARG        -0.2616
     33 CA        -40.5430    4.2440   30.4570 C.3       1 ARG         0.1539
     34 C         -39.9720    4.8250   31.7420 C.2       1 ARG         0.2063
     35 O         -40.5610    4.7030   32.8220 O.2       1 ARG        -0.3943
     36 CB        -41.4180    5.2880   29.7670 C.3       1 ARG         0.0843
     37 OG        -42.5650    5.5660   30.5530 O.3       1 ARG        -0.3903
     38 N         -38.8220    5.4900   31.6070 N.am      1 ARG        -0.2621
     39 CA        -38.2230    6.1850   32.7390 C.3       1 ARG         0.1390
     40 C         -39.1080    7.3030   33.2730 C.2       1 ARG         0.2055
     41 O         -38.9840    7.6540   34.4460 O.2       1 ARG        -0.3942
     42 CB        -36.8550    6.7390   32.3520 C.3       1 ARG         0.0163
     43 CG        -35.8490    5.6520   32.0590 C.ar      1 ARG        -0.0493
     44 CD1       -35.6890    4.5790   32.9270 C.ar      1 ARG        -0.0685
     45 CD2       -35.0710    5.6880   30.9130 C.ar      1 ARG        -0.0685
     46 CE1       -34.7840    3.5810   32.6600 C.ar      1 ARG        -0.0398
     47 CE2       -34.1640    4.6950   30.6390 C.ar      1 ARG        -0.0398
     48 CZ        -34.0230    3.6420   31.5150 C.ar      1 ARG         0.0805
     49 OH        -33.1140    2.6470   31.2420 O.3       1 ARG        -0.3376
     50 N         -40.0010    7.8640   32.4560 N.am      1 ARG        -0.2663
     51 CA        -40.9610    8.8170   32.9890 C.3       1 ARG         0.1201
     52 C         -41.8360    8.2070   34.0660 C.2       1 ARG         0.2007
     53 O         -42.1050    8.8340   35.0950 O.2       1 ARG        -0.3947
     54 N         -42.2930    6.9730   33.8430 N.am      1 ARG        -0.2642
     55 CA        -43.0500    6.2730   34.8720 C.3       1 ARG         0.1282
     56 C         -42.1820    6.0020   36.0930 C.2       1 ARG         0.2036
     57 O         -42.6210    6.1990   37.2340 O.2       1 ARG        -0.3944
     58 CB        -43.6180    4.9700   34.3090 C.3       1 ARG        -0.0244
     59 N         -40.9390    5.5670   35.8700 N.am      1 ARG        -0.2637
     60 CA        -40.0280    5.3070   36.9800 C.3       1 ARG         0.1312
     61 C         -39.8020    6.5570   37.8210 C.2       1 ARG         0.2039
     62 O         -39.7050    6.4670   39.0490 O.2       1 ARG        -0.3944
     63 CB        -38.7010    4.7710   36.4390 C.3       1 ARG        -0.0101
     64 CG        -38.6220    3.2600   36.2430 C.3       1 ARG        -0.0425
     65 CD1       -37.2050    2.8240   35.9110 C.3       1 ARG        -0.0625
     66 CD2       -39.1280    2.5620   37.5000 C.3       1 ARG        -0.0625
     67 N         -39.7500    7.7300   37.1830 N.am      1 ARG        -0.2637
     68 CA        -39.5580    8.9990   37.8660 C.3       1 ARG         0.1311
     69 C         -40.7250    9.3730   38.7620 C.2       1 ARG         0.2039
     70 O         -40.6290   10.3740   39.4790 O.2       1 ARG        -0.3944
     71 CB        -39.3050   10.1090   36.8420 C.3       1 ARG        -0.0092
     72 CG        -37.9580    9.9870   36.1460 C.3       1 ARG        -0.0156
     73 CD        -37.5930   11.2170   35.3310 C.3       1 ARG         0.0627
     74 NE        -37.1030   10.8450   34.0050 N.pl3     1 ARG        -0.2723
     75 CZ        -37.8240   10.9570   32.8960 C.cat     1 ARG         0.2882
     76 NH1       -39.0540   11.4430   32.9640 N.pl3     1 ARG        -0.2849
     77 NH2       -37.3170   10.5980   31.7220 N.pl3     1 ARG        -0.2849
     78 N         -41.7600    8.5680   38.7440 N.am      1 ARG        -0.2637
     79 CA        -42.8280    8.7720   39.6910 C.3       1 ARG         0.1311
     80 C         -42.4760    8.1710   41.0530 C.2       1 ARG         0.2040
     81 O         -43.2050    8.3270   41.9900 O.2       1 ARG        -0.3944
     82 CB        -44.1310    8.2240   39.1700 C.3       1 ARG        -0.0092
     83 CG        -44.7860    9.1230   38.1370 C.3       1 ARG        -0.0156
     84 CD        -45.0710   10.5110   38.6710 C.3       1 ARG         0.0627
     85 NE        -45.6640   11.3560   37.6490 N.pl3     1 ARG        -0.2723
     86 CZ        -45.0460   12.3510   37.0290 C.cat     1 ARG         0.2882
     87 NH1       -43.8020   12.6580   37.3340 N.pl3     1 ARG        -0.2849
     88 NH2       -45.6850   13.0450   36.1070 N.pl3     1 ARG        -0.2849
     89 N         -41.3500    7.4710   41.1240 N.am      1 ARG        -0.2616
     90 CA        -40.7770    6.8770   42.3020 C.3       1 ARG         0.1476
     91 C         -39.6130    7.7260   42.8340 C.2       1 ARG         0.2063
     92 O         -38.8910    7.3140   43.6880 O.2       1 ARG        -0.3942
     93 CB        -40.2940    5.4910   41.9240 C.3       1 ARG         0.0773
     94 CG        -39.8460    4.6720   43.0960 C.2       1 ARG         0.1780
     95 OD1       -38.9140    3.9400   42.9780 O.2       1 ARG        -0.3970
     96 ND2       -40.5170    4.7770   44.2010 N.am      1 ARG        -0.3007
     97 N         -39.4560    8.9090   42.2860 N.am      1 ARG        -0.2612
     98 CA        -38.4070    9.8350   42.6710 C.3       1 ARG         0.1565
     99 C         -38.5150   10.1570   44.1560 C.2       1 ARG         0.2065
    100 O         -39.6200   10.2310   44.6780 O.2       1 ARG        -0.3943
    101 CB        -38.4950   11.0900   41.7770 C.3       1 ARG         0.0924
    102 OG1       -38.1520   10.7300   40.4420 O.3       1 ARG        -0.3874
    103 CG2       -37.5810   12.1850   42.2240 C.3       1 ARG        -0.0346
    104 N         -37.3750   10.2840   44.8330 N.am      1 ARG        -0.2634
    105 CA        -37.3430   10.5990   46.2510 C.3       1 ARG         0.1337
    106 C         -37.7500   12.0370   46.5840 C.2       1 ARG         0.2067
    107 O         -37.2770   12.9820   45.9900 O.2       1 ARG        -0.3942
    108 CB        -35.9550   10.3510   46.8130 C.3       1 ARG        -0.0037
    109 CG1       -35.4720    8.9830   46.4120 C.3       1 ARG        -0.0491
    110 CG2       -35.9530   10.4620   48.3100 C.3       1 ARG        -0.0582
    111 CD1       -34.1360    8.6190   47.0010 C.3       1 ARG        -0.0648
    112 N         -38.6080   12.1760   47.5750 N.am      1 ARG        -0.2498
    113 CA        -39.1450   13.4600   48.0230 C.3       1 ARG         0.1337
    114 C         -38.4320   14.1150   49.2040 C.2       1 ARG         0.2036
    115 O         -37.4470   13.5920   49.6940 O.2       1 ARG        -0.3944
    116 CB        -40.5460   13.0870   48.4560 C.3       1 ARG        -0.0104
    117 CG        -40.4400   11.6760   48.8550 C.3       1 ARG        -0.0281
    118 CD        -39.5160   11.0700   47.8730 C.3       1 ARG         0.0369
    119 N         -38.8800   15.2940   49.6100 N.am      1 ARG        -0.2687
    120 CA        -38.3070   15.8960   50.7950 C.3       1 ARG         0.1030
    121 C         -39.2140   15.7100   52.0030 C.2       1 ARG         0.0609
    122 O         -38.9970   14.8400   52.8360 O.co2     1 ARG        -0.5666
    123 CB        -37.9950   17.3620   50.6350 C.3       1 ARG         0.0256
    124 SG        -37.1630   17.8720   52.1560 S.3       1 ARG        -0.1742
    125 OXT       -40.1920   16.4240   52.1830 O.co2     1 ARG        -0.5666
    126 H1        -43.1994   -3.2961   23.0392 H         1 ARG         0.2015
    127 H2        -42.4965   -4.2013   24.2207 H         1 ARG         0.2015
    128 H3        -41.6172   -3.0588   23.4262 H         1 ARG         0.2015
    129 H4        -42.8893   -1.3171   24.2844 H         1 ARG         0.1098
    130 H5        -44.9980   -1.7987   24.7203 H         1 ARG         0.0347
    131 H6        -44.3931   -2.3012   26.3354 H         1 ARG         0.0347
    132 H7        -44.5199   -4.5675   25.8187 H         1 ARG         0.0302
    133 H8        -44.5314   -4.2668   24.0477 H         1 ARG         0.0302
    134 H9        -46.7559   -4.7128   24.3833 H         1 ARG         0.0689
    135 H10       -46.7530   -2.9356   24.6442 H         1 ARG         0.0689
    136 H11       -47.7219   -3.4960   26.6610 H         1 ARG         0.2642
    137 H12       -45.1460   -6.4826   27.5782 H         1 ARG         0.2615
    138 H13       -45.0559   -5.7070   25.9741 H         1 ARG         0.2615
    139 H14       -47.8224   -4.4868   28.6808 H         1 ARG         0.2615
    140 H15       -46.6895   -5.8039   29.0865 H         1 ARG         0.2615
    141 H16       -42.5846   -0.3484   26.3692 H         1 ARG         0.1886
    142 H17       -40.6165   -1.7217   28.1124 H         1 ARG         0.0821
    143 H18       -39.2258    0.3061   28.1691 H         1 ARG         0.0453
    144 H19       -40.3046    1.0916   26.9668 H         1 ARG         0.0453
    145 H20       -37.6764   -1.4182   27.4930 H         1 ARG         0.0530
    146 H21       -40.1923    0.4675   24.6131 H         1 ARG         0.0530
    147 H22       -36.2982   -2.3481   25.6937 H         1 ARG         0.0525
    148 H23       -38.7978   -0.4534   22.8011 H         1 ARG         0.0525
    149 H24       -35.9761   -2.4902   23.5446 H         1 ARG         0.2458
    150 H25       -40.6538   -1.0108   30.2685 H         1 ARG         0.1883
    151 H26       -42.6551    0.9927   31.0523 H         1 ARG         0.0803
    152 H27       -40.4085   -0.3366   32.6368 H         1 ARG         0.0345
    153 H28       -42.0307   -1.9843   32.2049 H         1 ARG         0.0267
    154 H29       -43.3872   -0.8128   32.3245 H         1 ARG         0.0267
    155 H30       -40.9647    1.9267   33.4601 H         1 ARG         0.0235
    156 H31       -41.5159    0.6515   34.5987 H         1 ARG         0.0235
    157 H32       -42.7008    1.4708   33.5258 H         1 ARG         0.0235
    158 H33       -43.3325   -2.3259   34.2769 H         1 ARG         0.0230
    159 H34       -43.0123   -0.6280   34.7680 H         1 ARG         0.0230
    160 H35       -41.6558   -1.7995   34.6484 H         1 ARG         0.0230
    161 H36       -42.3110    3.0858   30.7120 H         1 ARG         0.1884
    162 H37       -39.7102    3.9810   29.7882 H         1 ARG         0.0823
    163 H38       -41.7347    4.9048   28.7858 H         1 ARG         0.0606
    164 H39       -40.8392    6.2133   29.6299 H         1 ARG         0.0606
    165 H40       -43.0675    4.7684   30.6711 H         1 ARG         0.2097
    166 H41       -38.3658    5.5113   30.7174 H         1 ARG         0.1885
    167 H42       -38.0824    5.4522   33.5472 H         1 ARG         0.0821
    168 H43       -36.4768    7.3544   33.1816 H         1 ARG         0.0453
    169 H44       -36.9694    7.3641   31.4542 H         1 ARG         0.0453
    170 H45       -36.2879    4.5287   33.8292 H         1 ARG         0.0530
    171 H46       -35.1806    6.5149   30.2207 H         1 ARG         0.0530
    172 H47       -34.6698    2.7503   33.3470 H         1 ARG         0.0525
    173 H48       -33.5623    4.7394   29.7384 H         1 ARG         0.0525
    174 H49       -33.3362    2.2347   30.4155 H         1 ARG         0.2458
    175 H50       -40.0101    7.6307   31.4836 H         1 ARG         0.1881
    176 H51       -41.6032    9.1695   32.1684 H         1 ARG         0.0763
    177 H52       -40.4134    9.6691   33.4180 H         1 ARG         0.0763
    178 H53       -42.1150    6.5271   32.9658 H         1 ARG         0.1883
    179 H54       -43.8896    6.9128   35.1814 H         1 ARG         0.0797
    180 H55       -44.1874    4.4493   35.0930 H         1 ARG         0.0277
    181 H56       -42.7930    4.3278   33.9672 H         1 ARG         0.0277
    182 H57       -44.2824    5.1954   33.4618 H         1 ARG         0.0277
    183 H58       -40.6289    5.4177   34.9311 H         1 ARG         0.1883
    184 H59       -40.4782    4.5378   37.6246 H         1 ARG         0.0800
    185 H60       -37.9080    5.0611   37.1439 H         1 ARG         0.0315
    186 H61       -38.5176    5.2471   35.4645 H         1 ARG         0.0315
    187 H62       -39.2734    2.9817   35.4014 H         1 ARG         0.0298
    188 H63       -37.1794    1.7327   35.7757 H         1 ARG         0.0232
    189 H64       -36.5319    3.1073   36.7336 H         1 ARG         0.0232
    190 H65       -36.8777    3.3163   34.9833 H         1 ARG         0.0232
    191 H66       -40.1537    2.8952   37.7168 H         1 ARG         0.0232
    192 H67       -38.4739    2.8137   38.3478 H         1 ARG         0.0232
    193 H68       -39.1218    1.4733   37.3426 H         1 ARG         0.0232
    194 H69       -39.8479    7.7352   36.1878 H         1 ARG         0.1883
    195 H70       -38.6652    8.9054   38.5017 H         1 ARG         0.0800
    196 H71       -39.3440   11.0784   37.3604 H         1 ARG         0.0313
    197 H72       -40.0971   10.0687   36.0798 H         1 ARG         0.0313
    198 H73       -37.9896    9.1179   35.4725 H         1 ARG         0.0301
    199 H74       -37.1823    9.8308   36.9101 H         1 ARG         0.0301
    200 H75       -36.8080   11.7778   35.8594 H         1 ARG         0.0689
    201 H76       -38.4848   11.8512   35.2192 H         1 ARG         0.0689
    202 H77       -36.1448   10.4753   33.9268 H         1 ARG         0.2642
    203 H78       -39.6201   11.5332   32.1083 H         1 ARG         0.2615
    204 H79       -39.4445   11.7308   33.8726 H         1 ARG         0.2615
    205 H80       -36.3604   10.2199   31.6681 H         1 ARG         0.2615
    206 H81       -37.8804   10.6977   30.8655 H         1 ARG         0.2615
    207 H82       -41.8080    7.8210   38.0809 H         1 ARG         0.1883
    208 H83       -42.9527    9.8565   39.8264 H         1 ARG         0.0800
    209 H84       -44.8227    8.1021   40.0165 H         1 ARG         0.0313
    210 H85       -43.9390    7.2438   38.7092 H         1 ARG         0.0313
    211 H86       -45.7352    8.6648   37.8221 H         1 ARG         0.0301
    212 H87       -44.1153    9.2100   37.2695 H         1 ARG         0.0301
    213 H88       -44.1284   10.9656   39.0097 H         1 ARG         0.0689
    214 H89       -45.7663   10.4330   39.5198 H         1 ARG         0.0689
    215 H90       -46.6416   11.1670   37.3855 H         1 ARG         0.2642
    216 H91       -43.3287   13.4327   36.8476 H         1 ARG         0.2615
    217 H92       -43.3025   12.1233   38.0590 H         1 ARG         0.2615
    218 H93       -46.6579   12.8078   35.8659 H         1 ARG         0.2615
    219 H94       -45.2111   13.8241   35.6282 H         1 ARG         0.2615
    220 H95       -40.8476    7.3434   40.2688 H         1 ARG         0.1885
    221 H96       -41.5464    6.7981   43.0842 H         1 ARG         0.0826
    222 H97       -39.4480    5.5950   41.2287 H         1 ARG         0.0551
    223 H98       -41.1171    4.9603   41.4232 H         1 ARG         0.0551
    224 H99       -40.2458    4.2449   45.0031 H         1 ARG         0.1814
    225 H100      -41.3055    5.3900   44.2508 H         1 ARG         0.1814
    226 H101      -40.0923    9.1862   41.5661 H         1 ARG         0.1884
    227 H102      -37.4316    9.3572   42.4972 H         1 ARG         0.0826
    228 H103      -39.5290   11.4644   41.8003 H         1 ARG         0.0639
    229 H104      -38.7571   10.0683   40.1282 H         1 ARG         0.2101
    230 H105      -37.6876   13.0490   41.5515 H         1 ARG         0.0257
    231 H106      -36.5410   11.8275   42.1995 H         1 ARG         0.0257
    232 H107      -37.8418   12.4845   43.2498 H         1 ARG         0.0257
    233 H108      -36.5098   10.1580   44.3477 H         1 ARG         0.1883
    234 H109      -38.0508    9.9242   46.7546 H         1 ARG         0.0803
    235 H110      -35.2694   11.1064   46.4016 H         1 ARG         0.0345
    236 H111      -35.3889    8.9511   45.3156 H         1 ARG         0.0267
    237 H112      -36.2127    8.2412   46.7453 H         1 ARG         0.0267
    238 H113      -36.3059   11.4615   48.6040 H         1 ARG         0.0235
    239 H114      -34.9314   10.3081   48.6878 H         1 ARG         0.0235
    240 H115      -36.6203    9.6979   48.7353 H         1 ARG         0.0235
    241 H116      -33.8497    7.6113   46.6655 H         1 ARG         0.0230
    242 H117      -34.2027    8.6348   48.0989 H         1 ARG         0.0230
    243 H118      -33.3789    9.3447   46.6691 H         1 ARG         0.0230
    244 H119      -39.1596   14.1709   47.1837 H         1 ARG         0.0802
    245 H120      -41.2552   13.2041   47.6234 H         1 ARG         0.0313
    246 H121      -40.8701   13.7083   49.3039 H         1 ARG         0.0313
    247 H122      -41.4244   11.1871   48.8126 H         1 ARG         0.0287
    248 H123      -40.0321   11.5915   49.8731 H         1 ARG         0.0287
    249 H124      -38.9752   10.2171   48.3088 H         1 ARG         0.0524
    250 H125      -40.0530   10.7415   46.9710 H         1 ARG         0.0524
    251 H126      -39.6047   15.7619   49.1042 H         1 ARG         0.1876
    252 H127      -37.3595   15.3751   50.9974 H         1 ARG         0.0734
    253 H128      -38.9231   17.9362   50.4976 H         1 ARG         0.0415
    254 H129      -37.3352   17.5188   49.7690 H         1 ARG         0.0415
    255 H130      -36.9317   18.8515   52.0989 H         1 ARG         0.1018
@<TRIPOS>BOND
     1    1    2 1  
     2    2    3 1  
     3    2    5 1  
     4    3    4 2  
     5    3   12 am 
     6    5    6 1  
     7    6    7 1  
     8    7    8 1  
     9    8    9 ar 
    10    9   10 ar 
    11    9   11 ar 
    12   12   13 1  
    13   13   14 1  
    14   13   16 1  
    15   14   15 2  
    16   14   24 am 
    17   16   17 1  
    18   17   18 ar 
    19   17   19 ar 
    20   18   20 ar 
    21   19   21 ar 
    22   20   22 ar 
    23   21   22 ar 
    24   22   23 1  
    25   24   25 1  
    26   25   26 1  
    27   25   28 1  
    28   26   27 2  
    29   26   32 am 
    30   28   29 1  
    31   28   30 1  
    32   29   31 1  
    33   32   33 1  
    34   33   34 1  
    35   33   36 1  
    36   34   35 2  
    37   34   38 am 
    38   36   37 1  
    39   38   39 1  
    40   39   40 1  
    41   39   42 1  
    42   40   41 2  
    43   40   50 am 
    44   42   43 1  
    45   43   44 ar 
    46   43   45 ar 
    47   44   46 ar 
    48   45   47 ar 
    49   46   48 ar 
    50   47   48 ar 
    51   48   49 1  
    52   50   51 1  
    53   51   52 1  
    54   52   53 2  
    55   52   54 am 
    56   54   55 1  
    57   55   56 1  
    58   55   58 1  
    59   56   57 2  
    60   56   59 am 
    61   59   60 1  
    62   60   61 1  
    63   60   63 1  
    64   61   62 2  
    65   61   67 am 
    66   63   64 1  
    67   64   65 1  
    68   64   66 1  
    69   67   68 1  
    70   68   69 1  
    71   68   71 1  
    72   69   70 2  
    73   69   78 am 
    74   71   72 1  
    75   72   73 1  
    76   73   74 1  
    77   74   75 ar 
    78   75   76 ar 
    79   75   77 ar 
    80   78   79 1  
    81   79   80 1  
    82   79   82 1  
    83   80   81 2  
    84   80   89 am 
    85   82   83 1  
    86   83   84 1  
    87   84   85 1  
    88   85   86 ar 
    89   86   87 ar 
    90   86   88 ar 
    91   89   90 1  
    92   90   91 1  
    93   90   93 1  
    94   91   92 2  
    95   91   97 am 
    96   93   94 1  
    97   94   95 2  
    98   94   96 am 
    99   97   98 1  
   100   98   99 1  
   101   98  101 1  
   102   99  100 2  
   103   99  104 am 
   104  101  102 1  
   105  101  103 1  
   106  104  105 1  
   107  105  106 1  
   108  105  108 1  
   109  106  107 2  
   110  106  112 am 
   111  108  109 1  
   112  108  110 1  
   113  109  111 1  
   114  112  113 1  
   115  112  118 1  
   116  113  114 1  
   117  113  116 1  
   118  114  115 2  
   119  114  119 am 
   120  116  117 1  
   121  117  118 1  
   122  119  120 1  
   123  120  121 1  
   124  120  123 1  
   125  121  122 ar 
   126  121  125 ar 
   127  123  124 1  
   128    1  126 1  
   129    1  127 1  
   130    1  128 1  
   131    2  129 1  
   132    5  130 1  
   133    5  131 1  
   134    6  132 1  
   135    6  133 1  
   136    7  134 1  
   137    7  135 1  
   138    8  136 1  
   139   10  137 1  
   140   10  138 1  
   141   11  139 1  
   142   11  140 1  
   143   12  141 1  
   144   13  142 1  
   145   16  143 1  
   146   16  144 1  
   147   18  145 1  
   148   19  146 1  
   149   20  147 1  
   150   21  148 1  
   151   23  149 1  
   152   24  150 1  
   153   25  151 1  
   154   28  152 1  
   155   29  153 1  
   156   29  154 1  
   157   30  155 1  
   158   30  156 1  
   159   30  157 1  
   160   31  158 1  
   161   31  159 1  
   162   31  160 1  
   163   32  161 1  
   164   33  162 1  
   165   36  163 1  
   166   36  164 1  
   167   37  165 1  
   168   38  166 1  
   169   39  167 1  
   170   42  168 1  
   171   42  169 1  
   172   44  170 1  
   173   45  171 1  
   174   46  172 1  
   175   47  173 1  
   176   49  174 1  
   177   50  175 1  
   178   51  176 1  
   179   51  177 1  
   180   54  178 1  
   181   55  179 1  
   182   58  180 1  
   183   58  181 1  
   184   58  182 1  
   185   59  183 1  
   186   60  184 1  
   187   63  185 1  
   188   63  186 1  
   189   64  187 1  
   190   65  188 1  
   191   65  189 1  
   192   65  190 1  
   193   66  191 1  
   194   66  192 1  
   195   66  193 1  
   196   67  194 1  
   197   68  195 1  
   198   71  196 1  
   199   71  197 1  
   200   72  198 1  
   201   72  199 1  
   202   73  200 1  
   203   73  201 1  
   204   74  202 1  
   205   76  203 1  
   206   76  204 1  
   207   77  205 1  
   208   77  206 1  
   209   78  207 1  
   210   79  208 1  
   211   82  209 1  
   212   82  210 1  
   213   83  211 1  
   214   83  212 1  
   215   84  213 1  
   216   84  214 1  
   217   85  215 1  
   218   87  216 1  
   219   87  217 1  
   220   88  218 1  
   221   88  219 1  
   222   89  220 1  
   223   90  221 1  
   224   93  222 1  
   225   93  223 1  
   226   96  224 1  
   227   96  225 1  
   228   97  226 1  
   229   98  227 1  
   230  101  228 1  
   231  102  229 1  
   232  103  230 1  
   233  103  231 1  
   234  103  232 1  
   235  104  233 1  
   236  105  234 1  
   237  108  235 1  
   238  109  236 1  
   239  109  237 1  
   240  110  238 1  
   241  110  239 1  
   242  110  240 1  
   243  111  241 1  
   244  111  242 1  
   245  111  243 1  
   246  113  244 1  
   247  116  245 1  
   248  116  246 1  
   249  117  247 1  
   250  117  248 1  
   251  118  249 1  
   252  118  250 1  
   253  119  251 1  
   254  120  252 1  
   255  123  253 1  
   256  123  254 1  
   257  124  255 1  
@<TRIPOS>SUBSTRUCTURE
     1 ARG         1

