6a5e_ligand
  -I-interpret- 

253255  0  0  0  0  0  0  0  0999 V2000
  -42.5280   -3.2900   23.7910 N   0  3  0  0  0
  -42.9210   -2.2950   24.7870 C   0  0  0  0  0
  -41.9540   -2.2110   25.9780 C   0  0  0  0  0
  -41.2480   -3.1620   26.2770 O   0  0  0  0  0
  -44.3510   -2.5090   25.2560 C   0  0  0  0  0
  -44.8860   -3.9020   25.0230 C   0  0  0  0  0
  -46.3970   -3.9010   25.0330 C   0  0  0  0  0
  -46.9380   -4.0960   26.3670 N   0  0  0  0  0
  -46.4890   -4.9950   27.2300 C   0  0  0  0  0
  -45.4920   -5.7850   26.9040 N   0  0  0  0  0
  -47.0400   -5.1030   28.4180 N   0  0  0  0  0
  -41.9360   -1.0590   26.6420 N   0  0  0  0  0
  -41.0290   -0.7720   27.7410 C   0  0  0  0  0
  -41.7690   -0.0710   28.8660 C   0  0  0  0  0
  -42.7600    0.6250   28.6350 O   0  0  0  0  0
  -39.8790    0.1340   27.3010 C   0  0  0  0  0
  -39.0390   -0.4220   26.1840 C   0  0  0  0  0
  -37.9330   -1.2080   26.4610 C   0  0  0  0  0
  -39.3370   -0.1530   24.8550 C   0  0  0  0  0
  -37.1540   -1.7270   25.4550 C   0  0  0  0  0
  -38.5560   -0.6670   23.8360 C   0  0  0  0  0
  -37.4650   -1.4550   24.1480 C   0  0  0  0  0
  -36.6750   -1.9780   23.1550 O   0  0  0  0  0
  -41.2670   -0.2420   30.0870 N   0  0  0  0  0
  -41.6050    0.6840   31.1620 C   0  0  0  0  0
  -40.7080    1.8990   31.0030 C   0  0  0  0  0
  -39.4810    1.7940   31.0920 O   0  0  0  0  0
  -41.4350    0.0480   32.5450 C   0  0  0  0  0
  -42.4140   -1.1060   32.7450 C   0  0  0  0  0
  -41.6700    1.0950   33.6040 C   0  0  0  0  0
  -42.6180   -1.4920   34.2130 C   0  0  0  0  0
  -41.3120    3.0460   30.7300 N   0  0  0  0  0
  -40.5430    4.2440   30.4570 C   0  0  0  0  0
  -39.9720    4.8250   31.7420 C   0  0  0  0  0
  -40.5610    4.7030   32.8220 O   0  0  0  0  0
  -41.4180    5.2880   29.7670 C   0  0  0  0  0
  -42.5650    5.5660   30.5530 O   0  0  0  0  0
  -38.8220    5.4900   31.6070 N   0  0  0  0  0
  -38.2230    6.1850   32.7390 C   0  0  0  0  0
  -39.1080    7.3030   33.2730 C   0  0  0  0  0
  -38.9840    7.6540   34.4460 O   0  0  0  0  0
  -36.8550    6.7390   32.3520 C   0  0  0  0  0
  -35.8490    5.6520   32.0590 C   0  0  0  0  0
  -35.6890    4.5790   32.9270 C   0  0  0  0  0
  -35.0710    5.6880   30.9130 C   0  0  0  0  0
  -34.7840    3.5810   32.6600 C   0  0  0  0  0
  -34.1640    4.6950   30.6390 C   0  0  0  0  0
  -34.0230    3.6420   31.5150 C   0  0  0  0  0
  -33.1140    2.6470   31.2420 O   0  0  0  0  0
  -40.0010    7.8640   32.4560 N   0  0  0  0  0
  -40.9610    8.8170   32.9890 C   0  0  0  0  0
  -41.8360    8.2070   34.0660 C   0  0  0  0  0
  -42.1050    8.8340   35.0950 O   0  0  0  0  0
  -42.2930    6.9730   33.8430 N   0  0  0  0  0
  -43.0500    6.2730   34.8720 C   0  0  0  0  0
  -42.1820    6.0020   36.0930 C   0  0  0  0  0
  -42.6210    6.1990   37.2340 O   0  0  0  0  0
  -43.6180    4.9700   34.3090 C   0  0  0  0  0
  -40.9390    5.5670   35.8700 N   0  0  0  0  0
  -40.0280    5.3070   36.9800 C   0  0  0  0  0
  -39.8020    6.5570   37.8210 C   0  0  0  0  0
  -39.7050    6.4670   39.0490 O   0  0  0  0  0
  -38.7010    4.7710   36.4390 C   0  0  0  0  0
  -38.6220    3.2600   36.2430 C   0  0  0  0  0
  -37.2050    2.8240   35.9110 C   0  0  0  0  0
  -39.1280    2.5620   37.5000 C   0  0  0  0  0
  -39.7500    7.7300   37.1830 N   0  0  0  0  0
  -39.5580    8.9990   37.8660 C   0  0  0  0  0
  -40.7250    9.3730   38.7620 C   0  0  0  0  0
  -40.6290   10.3740   39.4790 O   0  0  0  0  0
  -39.3050   10.1090   36.8420 C   0  0  0  0  0
  -37.9580    9.9870   36.1460 C   0  0  0  0  0
  -37.5930   11.2170   35.3310 C   0  0  0  0  0
  -37.1030   10.8450   34.0050 N   0  0  0  0  0
  -37.8240   10.9570   32.8960 C   0  0  0  0  0
  -39.0540   11.4430   32.9640 N   0  0  0  0  0
  -37.3170   10.5980   31.7220 N   0  0  0  0  0
  -41.7600    8.5680   38.7440 N   0  0  0  0  0
  -42.8280    8.7720   39.6910 C   0  0  0  0  0
  -42.4760    8.1710   41.0530 C   0  0  0  0  0
  -43.2050    8.3270   41.9900 O   0  0  0  0  0
  -44.1310    8.2240   39.1700 C   0  0  0  0  0
  -44.7860    9.1230   38.1370 C   0  0  0  0  0
  -45.0710   10.5110   38.6710 C   0  0  0  0  0
  -45.6640   11.3560   37.6490 N   0  0  0  0  0
  -45.0460   12.3510   37.0290 C   0  0  0  0  0
  -43.8020   12.6580   37.3340 N   0  0  0  0  0
  -45.6850   13.0450   36.1070 N   0  0  0  0  0
  -41.3500    7.4710   41.1240 N   0  0  0  0  0
  -40.7770    6.8770   42.3020 C   0  0  0  0  0
  -39.6130    7.7260   42.8340 C   0  0  0  0  0
  -38.8910    7.3140   43.6880 O   0  0  0  0  0
  -40.2940    5.4910   41.9240 C   0  0  0  0  0
  -39.8460    4.6720   43.0960 C   0  0  0  0  0
  -38.9140    3.9400   42.9780 O   0  0  0  0  0
  -40.5170    4.7770   44.2010 N   0  0  0  0  0
  -39.4560    8.9090   42.2860 N   0  0  0  0  0
  -38.4070    9.8350   42.6710 C   0  0  0  0  0
  -38.5150   10.1570   44.1560 C   0  0  0  0  0
  -39.6200   10.2310   44.6780 O   0  0  0  0  0
  -38.4950   11.0900   41.7770 C   0  0  0  0  0
  -38.1520   10.7300   40.4420 O   0  0  0  0  0
  -37.5810   12.1850   42.2240 C   0  0  0  0  0
  -37.3750   10.2840   44.8330 N   0  0  0  0  0
  -37.3430   10.5990   46.2510 C   0  0  0  0  0
  -37.7500   12.0370   46.5840 C   0  0  0  0  0
  -37.2770   12.9820   45.9900 O   0  0  0  0  0
  -35.9550   10.3510   46.8130 C   0  0  0  0  0
  -35.4720    8.9830   46.4120 C   0  0  0  0  0
  -35.9530   10.4620   48.3100 C   0  0  0  0  0
  -34.1360    8.6190   47.0010 C   0  0  0  0  0
  -38.6080   12.1760   47.5750 N   0  0  0  0  0
  -39.1450   13.4600   48.0230 C   0  0  0  0  0
  -38.4320   14.1150   49.2040 C   0  0  0  0  0
  -37.4470   13.5920   49.6940 O   0  0  0  0  0
  -40.5460   13.0870   48.4560 C   0  0  0  0  0
  -40.4400   11.6760   48.8550 C   0  0  0  0  0
  -39.5160   11.0700   47.8730 C   0  0  0  0  0
  -38.8800   15.2940   49.6100 N   0  0  0  0  0
  -38.3070   15.8960   50.7950 C   0  0  0  0  0
  -39.2140   15.7100   52.0030 C   0  0  0  0  0
  -38.9970   14.8400   52.8360 O   0  0  0  0  0
  -37.9950   17.3620   50.6350 C   0  0  0  0  0
  -37.1630   17.8720   52.1560 S   0  0  0  0  0
  -40.1920   16.4240   52.1830 O   0  0  0  0  0
  -41.5660   -3.1163   23.4999 H   0  0  0  0  0
  -42.5983   -4.2227   24.1978 H   0  0  0  0  0
  -43.1465   -3.2228   22.9827 H   0  0  0  0  0
  -42.8676   -1.3309   24.2812 H   0  0  0  0  0
  -44.9794   -1.8266   24.6838 H   0  0  0  0  0
  -44.3619   -2.3395   26.3327 H   0  0  0  0  0
  -44.5283   -4.5551   25.8190 H   0  0  0  0  0
  -44.5398   -4.2550   24.0516 H   0  0  0  0  0
  -46.7405   -4.7228   24.4047 H   0  0  0  0  0
  -46.7376   -2.9322   24.6676 H   0  0  0  0  0
  -47.7143   -3.5019   26.6581 H   0  0  0  0  0
  -45.0602   -5.7078   25.9832 H   0  0  0  0  0
  -46.6929   -5.7971   29.0800 H   0  0  0  0  0
  -47.8148   -4.4928   28.6782 H   0  0  0  0  0
  -42.5975   -0.3342   26.3638 H   0  0  0  0  0
  -40.6284   -1.7278   28.0788 H   0  0  0  0  0
  -39.2228    0.2576   28.1625 H   0  0  0  0  0
  -40.3240    1.0594   26.9352 H   0  0  0  0  0
  -37.6750   -1.4194   27.4987 H   0  0  0  0  0
  -40.1970    0.4709   24.6118 H   0  0  0  0  0
  -36.2935   -2.3515   25.6950 H   0  0  0  0  0
  -38.7992   -0.4522   22.7954 H   0  0  0  0  0
  -37.0142   -1.7036   22.2999 H   0  0  0  0  0
  -40.6415   -1.0262   30.2721 H   0  0  0  0  0
  -42.6558    0.9655   31.0931 H   0  0  0  0  0
  -40.4219   -0.3466   32.6225 H   0  0  0  0  0
  -42.0019   -1.9757   32.2333 H   0  0  0  0  0
  -43.3800   -0.7856   32.3547 H   0  0  0  0  0
  -40.9486    1.9028   33.4809 H   0  0  0  0  0
  -42.6808    1.4905   33.5041 H   0  0  0  0  0
  -41.5499    0.6460   34.5900 H   0  0  0  0  0
  -41.6639   -1.7964   34.6433 H   0  0  0  0  0
  -43.0086   -0.6351   34.7618 H   0  0  0  0  0
  -43.3261   -2.3183   34.2751 H   0  0  0  0  0
  -42.3310    3.0866   30.7117 H   0  0  0  0  0
  -39.7177    3.9731   29.7985 H   0  0  0  0  0
  -41.7354    4.9021   28.7983 H   0  0  0  0  0
  -40.8435    6.2054   29.6390 H   0  0  0  0  0
  -43.1051    6.2229   30.1077 H   0  0  0  0  0
  -38.3567    5.5118   30.6996 H   0  0  0  0  0
  -38.1102    5.4542   33.5398 H   0  0  0  0  0
  -36.4807    7.3244   33.1919 H   0  0  0  0  0
  -36.9783    7.3342   31.4472 H   0  0  0  0  0
  -36.2912    4.5285   33.8341 H   0  0  0  0  0
  -35.1812    6.5195   30.2169 H   0  0  0  0  0
  -34.6692    2.7457   33.3508 H   0  0  0  0  0
  -33.5590    4.7397   29.7334 H   0  0  0  0  0
  -32.6699    2.8395   30.4130 H   0  0  0  0  0
  -40.0102    7.6260   31.4642 H   0  0  0  0  0
  -41.6055    9.1419   32.1722 H   0  0  0  0  0
  -40.4070    9.6452   33.4309 H   0  0  0  0  0
  -42.1114    6.5182   32.9483 H   0  0  0  0  0
  -43.8788    6.9073   35.1866 H   0  0  0  0  0
  -44.2760    5.1947   33.4696 H   0  0  0  0  0
  -42.7995    4.3346   33.9707 H   0  0  0  0  0
  -44.1820    4.4550   35.0867 H   0  0  0  0  0
  -40.6227    5.4147   34.9123 H   0  0  0  0  0
  -40.4803    4.5577   37.6297 H   0  0  0  0  0
  -37.9430    5.0242   37.1802 H   0  0  0  0  0
  -38.5701    5.2155   35.4524 H   0  0  0  0  0
  -39.2523    2.9782   35.3995 H   0  0  0  0  0
  -36.8819    3.3125   34.9917 H   0  0  0  0  0
  -36.5391    3.1053   36.7268 H   0  0  0  0  0
  -37.1809    1.7425   35.7771 H   0  0  0  0  0
  -38.5102    2.8532   38.3495 H   0  0  0  0  0
  -40.1621    2.8531   37.6844 H   0  0  0  0  0
  -39.0723    1.4822   37.3619 H   0  0  0  0  0
  -39.8498    7.7353   36.1679 H   0  0  0  0  0
  -38.6891    8.8827   38.5137 H   0  0  0  0  0
  -39.3160   11.0593   37.3757 H   0  0  0  0  0
  -40.0791   10.0362   36.0781 H   0  0  0  0  0
  -38.0151    9.1412   35.4608 H   0  0  0  0  0
  -37.1974    9.8633   36.9169 H   0  0  0  0  0
  -36.8055   11.7600   35.8536 H   0  0  0  0  0
  -38.4841   11.8334   35.2127 H   0  0  0  0  0
  -36.1541   10.4789   33.9275 H   0  0  0  0  0
  -39.4407   11.7280   33.8638 H   0  0  0  0  0
  -37.8749   10.6967   30.8739 H   0  0  0  0  0
  -36.3697   10.2236   31.6686 H   0  0  0  0  0
  -41.8090    7.8061   38.0677 H   0  0  0  0  0
  -42.9546    9.8463   39.8253 H   0  0  0  0  0
  -44.8148    8.1377   40.0145 H   0  0  0  0  0
  -43.9197    7.2683   38.6903 H   0  0  0  0  0
  -45.7363    8.6710   37.8529 H   0  0  0  0  0
  -44.1009    9.2214   37.2950 H   0  0  0  0  0
  -44.1309   10.9602   38.9912 H   0  0  0  0  0
  -45.7713   10.4269   39.5020 H   0  0  0  0  0
  -46.6321   11.1688   37.3881 H   0  0  0  0  0
  -43.3074   12.1285   38.0519 H   0  0  0  0  0
  -45.2157   13.8166   35.6328 H   0  0  0  0  0
  -46.6484   12.8101   35.8682 H   0  0  0  0  0
  -40.8376    7.3408   40.2517 H   0  0  0  0  0
  -41.5223    6.8206   43.0954 H   0  0  0  0  0
  -39.4359    5.6128   41.2630 H   0  0  0  0  0
  -41.1307    4.9683   41.4605 H   0  0  0  0  0
  -40.2526    4.2195   45.0132 H   0  0  0  0  0
  -41.3091    5.4171   44.2578 H   0  0  0  0  0
  -40.1050    9.1917   41.5517 H   0  0  0  0  0
  -37.4241    9.3885   42.5205 H   0  0  0  0  0
  -39.5165   11.4644   41.8431 H   0  0  0  0  0
  -38.2044   11.5059   39.8791 H   0  0  0  0  0
  -37.8404   12.4808   43.2405 H   0  0  0  0  0
  -36.5509   11.8295   42.1993 H   0  0  0  0  0
  -37.6875   13.0405   41.5570 H   0  0  0  0  0
  -36.4925   10.1555   44.3380 H   0  0  0  0  0
  -38.0813    9.9404   46.7084 H   0  0  0  0  0
  -35.2862   11.1093   46.4058 H   0  0  0  0  0
  -35.3627    8.9800   45.3275 H   0  0  0  0  0
  -36.1993    8.2590   46.7795 H   0  0  0  0  0
  -36.2743   11.4626   48.5993 H   0  0  0  0  0
  -36.6373    9.7241   48.7287 H   0  0  0  0  0
  -34.9460   10.2797   48.6852 H   0  0  0  0  0
  -33.3868    9.3389   46.6714 H   0  0  0  0  0
  -34.2034    8.6351   48.0888 H   0  0  0  0  0
  -33.8534    7.6203   46.6679 H   0  0  0  0  0
  -39.0478   14.1967   47.2256 H   0  0  0  0  0
  -41.2745   13.2341   47.6587 H   0  0  0  0  0
  -40.9053   13.7173   49.2694 H   0  0  0  0  0
  -41.4115   11.1817   48.8546 H   0  0  0  0  0
  -40.0712   11.5710   49.8753 H   0  0  0  0  0
  -39.0044   10.1863   48.2544 H   0  0  0  0  0
  -40.0234   10.6821   46.9897 H   0  0  0  0  0
  -39.6192   15.7713   49.0941 H   0  0  0  0  0
  -37.3634   15.3737   50.9527 H   0  0  0  0  0
  -38.9041   17.9409   50.4722 H   0  0  0  0  0
  -37.3621   17.5356   49.7647 H   0  0  0  0  0
  -36.8578   19.1643   52.0806 H   0  0  0  0  0
  -40.2563   17.0626   51.4691 H   0  0  0  0  0
  1  2  1  0  0  0
  2  3  1  0  0  0
  2  5  1  0  0  0
  3  4  2  0  0  0
  3 12  1  0  0  0
  5  6  1  0  0  0
  6  7  1  0  0  0
  7  8  1  0  0  0
  8  9  1  0  0  0
  9 10  2  0  0  0
  9 11  1  0  0  0
 12 13  1  0  0  0
 13 14  1  0  0  0
 13 16  1  0  0  0
 14 15  2  0  0  0
 14 24  1  0  0  0
 16 17  1  0  0  0
 17 18  4  0  0  0
 17 19  4  0  0  0
 18 20  4  0  0  0
 19 21  4  0  0  0
 20 22  4  0  0  0
 21 22  4  0  0  0
 22 23  1  0  0  0
 24 25  1  0  0  0
 25 26  1  0  0  0
 25 28  1  0  0  0
 26 27  2  0  0  0
 26 32  1  0  0  0
 28 29  1  0  0  0
 28 30  1  0  0  0
 29 31  1  0  0  0
 32 33  1  0  0  0
 33 34  1  0  0  0
 33 36  1  0  0  0
 34 35  2  0  0  0
 34 38  1  0  0  0
 36 37  1  0  0  0
 38 39  1  0  0  0
 39 40  1  0  0  0
 39 42  1  0  0  0
 40 41  2  0  0  0
 40 50  1  0  0  0
 42 43  1  0  0  0
 43 44  4  0  0  0
 43 45  4  0  0  0
 44 46  4  0  0  0
 45 47  4  0  0  0
 46 48  4  0  0  0
 47 48  4  0  0  0
 48 49  1  0  0  0
 50 51  1  0  0  0
 51 52  1  0  0  0
 52 53  2  0  0  0
 52 54  1  0  0  0
 54 55  1  0  0  0
 55 56  1  0  0  0
 55 58  1  0  0  0
 56 57  2  0  0  0
 56 59  1  0  0  0
 59 60  1  0  0  0
 60 61  1  0  0  0
 60 63  1  0  0  0
 61 62  2  0  0  0
 61 67  1  0  0  0
 63 64  1  0  0  0
 64 65  1  0  0  0
 64 66  1  0  0  0
 67 68  1  0  0  0
 68 69  1  0  0  0
 68 71  1  0  0  0
 69 70  2  0  0  0
 69 78  1  0  0  0
 71 72  1  0  0  0
 72 73  1  0  0  0
 73 74  1  0  0  0
 74 75  1  0  0  0
 75 76  2  0  0  0
 75 77  1  0  0  0
 78 79  1  0  0  0
 79 80  1  0  0  0
 79 82  1  0  0  0
 80 81  2  0  0  0
 80 89  1  0  0  0
 82 83  1  0  0  0
 83 84  1  0  0  0
 84 85  1  0  0  0
 85 86  1  0  0  0
 86 87  2  0  0  0
 86 88  1  0  0  0
 89 90  1  0  0  0
 90 91  1  0  0  0
 90 93  1  0  0  0
 91 92  2  0  0  0
 91 97  1  0  0  0
 93 94  1  0  0  0
 94 95  2  0  0  0
 94 96  1  0  0  0
 97 98  1  0  0  0
 98 99  1  0  0  0
 98101  1  0  0  0
 99100  2  0  0  0
 99104  1  0  0  0
101102  1  0  0  0
101103  1  0  0  0
104105  1  0  0  0
105106  1  0  0  0
105108  1  0  0  0
106107  2  0  0  0
106112  1  0  0  0
108109  1  0  0  0
108110  1  0  0  0
109111  1  0  0  0
112113  1  0  0  0
112118  1  0  0  0
113114  1  0  0  0
113116  1  0  0  0
114115  2  0  0  0
114119  1  0  0  0
116117  1  0  0  0
117118  1  0  0  0
119120  1  0  0  0
120121  1  0  0  0
120123  1  0  0  0
121122  2  0  0  0
121125  1  0  0  0
123124  1  0  0  0
  1126  1  0  0  0
  1127  1  0  0  0
  1128  1  0  0  0
  2129  1  0  0  0
  5130  1  0  0  0
  5131  1  0  0  0
  6132  1  0  0  0
  6133  1  0  0  0
  7134  1  0  0  0
  7135  1  0  0  0
  8136  1  0  0  0
 10137  1  0  0  0
 11138  1  0  0  0
 11139  1  0  0  0
 12140  1  0  0  0
 13141  1  0  0  0
 16142  1  0  0  0
 16143  1  0  0  0
 18144  1  0  0  0
 19145  1  0  0  0
 20146  1  0  0  0
 21147  1  0  0  0
 23148  1  0  0  0
 24149  1  0  0  0
 25150  1  0  0  0
 28151  1  0  0  0
 29152  1  0  0  0
 29153  1  0  0  0
 30154  1  0  0  0
 30155  1  0  0  0
 30156  1  0  0  0
 31157  1  0  0  0
 31158  1  0  0  0
 31159  1  0  0  0
 32160  1  0  0  0
 33161  1  0  0  0
 36162  1  0  0  0
 36163  1  0  0  0
 37164  1  0  0  0
 38165  1  0  0  0
 39166  1  0  0  0
 42167  1  0  0  0
 42168  1  0  0  0
 44169  1  0  0  0
 45170  1  0  0  0
 46171  1  0  0  0
 47172  1  0  0  0
 49173  1  0  0  0
 50174  1  0  0  0
 51175  1  0  0  0
 51176  1  0  0  0
 54177  1  0  0  0
 55178  1  0  0  0
 58179  1  0  0  0
 58180  1  0  0  0
 58181  1  0  0  0
 59182  1  0  0  0
 60183  1  0  0  0
 63184  1  0  0  0
 63185  1  0  0  0
 64186  1  0  0  0
 65187  1  0  0  0
 65188  1  0  0  0
 65189  1  0  0  0
 66190  1  0  0  0
 66191  1  0  0  0
 66192  1  0  0  0
 67193  1  0  0  0
 68194  1  0  0  0
 71195  1  0  0  0
 71196  1  0  0  0
 72197  1  0  0  0
 72198  1  0  0  0
 73199  1  0  0  0
 73200  1  0  0  0
 74201  1  0  0  0
 76202  1  0  0  0
 77203  1  0  0  0
 77204  1  0  0  0
 78205  1  0  0  0
 79206  1  0  0  0
 82207  1  0  0  0
 82208  1  0  0  0
 83209  1  0  0  0
 83210  1  0  0  0
 84211  1  0  0  0
 84212  1  0  0  0
 85213  1  0  0  0
 87214  1  0  0  0
 88215  1  0  0  0
 88216  1  0  0  0
 89217  1  0  0  0
 90218  1  0  0  0
 93219  1  0  0  0
 93220  1  0  0  0
 96221  1  0  0  0
 96222  1  0  0  0
 97223  1  0  0  0
 98224  1  0  0  0
101225  1  0  0  0
102226  1  0  0  0
103227  1  0  0  0
103228  1  0  0  0
103229  1  0  0  0
104230  1  0  0  0
105231  1  0  0  0
108232  1  0  0  0
109233  1  0  0  0
109234  1  0  0  0
110235  1  0  0  0
110236  1  0  0  0
110237  1  0  0  0
111238  1  0  0  0
111239  1  0  0  0
111240  1  0  0  0
113241  1  0  0  0
116242  1  0  0  0
116243  1  0  0  0
117244  1  0  0  0
117245  1  0  0  0
118246  1  0  0  0
118247  1  0  0  0
119248  1  0  0  0
120249  1  0  0  0
123250  1  0  0  0
123251  1  0  0  0
124252  1  0  0  0
125253  1  0  0  0
M  END
$$$$
