3fk1_ligand
  -I-interpret- 

 19 18  0  0  0  0  0  0  0  0999 V2000
   60.1760    7.9310   28.2330 C   0  0  0  0  0
   60.4590    7.9900   30.6950 C   0  0  0  0  0
   60.9730    8.8470   31.7490 C   0  0  0  0  0
   60.6310   10.2720   27.1240 O   0  0  0  0  0
   59.5320    8.3940   25.8470 O   0  0  0  0  0
   62.0050    8.2870   26.4600 O   0  0  0  0  0
   61.5270    9.9790   31.4260 O   0  0  0  0  0
   60.6030    8.7900   26.8280 P   0  0  0  0  0
   60.8270    8.4300   32.8680 O   0  0  0  0  0
   60.7100    8.5820   29.3970 N   0  3  0  0  0
   60.5838    6.9221   28.1710 H   0  0  0  0  0
   59.0894    7.8956   28.3120 H   0  0  0  0  0
   59.3840    7.8683   30.8283 H   0  0  0  0  0
   60.9593    7.0230   30.7474 H   0  0  0  0  0
   61.3321   10.4584   27.7528 H   0  0  0  0  0
   62.6325    8.5758   27.1266 H   0  0  0  0  0
   61.5207   10.0761   30.4709 H   0  0  0  0  0
   60.2531    9.4935   29.4264 H   0  0  0  0  0
   61.7228    8.5496   29.2801 H   0  0  0  0  0
  1  8  1  0  0  0
 10  1  1  0  0  0
  2  3  1  0  0  0
  2 10  1  0  0  0
  3  7  1  0  0  0
  3  9  2  0  0  0
  8  4  1  0  0  0
  8  5  2  0  0  0
  8  6  1  0  0  0
  1 11  1  0  0  0
  1 12  1  0  0  0
  2 13  1  0  0  0
  2 14  1  0  0  0
  4 15  1  0  0  0
  6 16  1  0  0  0
  7 17  1  0  0  0
 10 18  1  0  0  0
 10 19  1  0  0  0
M  END
$$$$
