1cs4_ligand
  -I-interpret- 

 36 38  0  0  0  0  0  0  0  0999 V2000
   55.0230  -10.3820   55.2600 P   0  0  0  0  0
   56.1060   -9.9600   56.1760 O   0  0  0  0  0
   53.9310   -9.4260   54.9360 O   0  0  0  0  0
   54.4020  -11.6150   55.8160 O   0  0  0  0  0
   59.6900  -12.0660   53.7340 O   0  0  0  0  0
   59.1170  -11.2540   52.7170 C   0  0  0  0  0
   57.6490  -11.5790   52.5600 C   0  0  0  0  0
   57.5110  -12.8680   51.9040 O   0  0  0  0  0
   56.8800  -11.6740   53.8850 C   0  0  0  0  0
   55.6680  -10.9000   53.8670 O   0  0  0  0  0
   56.5750  -13.1570   54.0180 C   0  0  0  0  0
   56.5270  -13.6310   52.5750 C   0  0  0  0  0
   56.8470  -15.0550   52.4180 N   0  0  0  0  0
   58.0410  -15.6930   52.6570 C   0  0  0  0  0
   57.9750  -16.9980   52.5360 N   0  0  0  0  0
   56.6560  -17.2320   52.1740 C   0  0  0  0  0
   55.9370  -18.4210   51.9360 C   0  0  0  0  0
   56.4710  -19.6380   52.0430 N   0  0  0  0  0
   54.6330  -18.3100   51.5810 N   0  0  0  0  0
   54.0990  -17.0880   51.4920 C   0  0  0  0  0
   54.6710  -15.8980   51.7090 N   0  0  0  0  0
   55.9610  -16.0440   52.0600 C   0  0  0  0  0
   53.3099   -9.8433   54.3346 H   0  0  0  0  0
   53.6952  -11.9059   55.2351 H   0  0  0  0  0
   60.6214  -11.8522   53.8258 H   0  0  0  0  0
   59.6292  -11.4462   51.7742 H   0  0  0  0  0
   59.2240  -10.2051   52.9934 H   0  0  0  0  0
   57.2285  -10.7561   51.9820 H   0  0  0  0  0
   57.4552  -11.2757   54.7208 H   0  0  0  0  0
   55.6463  -13.3492   54.5553 H   0  0  0  0  0
   57.3193  -13.6883   54.6111 H   0  0  0  0  0
   55.5182  -13.5043   52.1820 H   0  0  0  0  0
   58.9567  -15.1645   52.9221 H   0  0  0  0  0
   57.4498  -19.7438   52.3097 H   0  0  0  0  0
   55.9007  -20.4632   51.8581 H   0  0  0  0  0
   53.0489  -17.0563   51.2015 H   0  0  0  0  0
  1  2  2  0  0  0
  1  3  1  0  0  0
  1  4  1  0  0  0
 10  1  1  0  0  0
  6  5  1  0  0  0
  7  6  1  0  0  0
  7  8  1  0  0  0
  9  7  1  0  0  0
  8 12  1  0  0  0
  9 10  1  0  0  0
  9 11  1  0  0  0
 11 12  1  0  0  0
 12 13  1  0  0  0
 13 14  4  0  0  0
 13 22  4  0  0  0
 14 15  4  0  0  0
 15 16  4  0  0  0
 16 17  4  0  0  0
 16 22  4  0  0  0
 17 18  1  0  0  0
 17 19  4  0  0  0
 19 20  4  0  0  0
 20 21  4  0  0  0
 21 22  4  0  0  0
  3 23  1  0  0  0
  4 24  1  0  0  0
  5 25  1  0  0  0
  6 26  1  0  0  0
  6 27  1  0  0  0
  7 28  1  0  0  0
  9 29  1  0  0  0
 11 30  1  0  0  0
 11 31  1  0  0  0
 12 32  1  0  0  0
 14 33  1  0  0  0
 18 34  1  0  0  0
 18 35  1  0  0  0
 20 36  1  0  0  0
M  END
$$$$
