### 
### Created by X-TOOL on Mon Sep 10 21:12:48 2018
### 

@<TRIPOS>MOLECULE
1cs4_ligand
   34    36     1     0     0
SMALL
GAST_HUCK


@<TRIPOS>ATOM
      1 P          55.0230  -10.3820   55.2600 P.3       1 101         0.2012
      2 O1P        56.1060   -9.9600   56.1760 O.co2     1 101        -0.5537
      3 O2P        53.9310   -9.4260   54.9360 O.co2     1 101        -0.5537
      4 O3P        54.4020  -11.6150   55.8160 O.co2     1 101        -0.5537
      5 O5         59.6900  -12.0660   53.7340 O.3       1 101        -0.3924
      6 C5         59.1170  -11.2540   52.7170 C.3       1 101         0.0733
      7 C4         57.6490  -11.5790   52.5600 C.3       1 101         0.1156
      8 O4         57.5110  -12.8680   51.9040 O.3       1 101        -0.3389
      9 C3         56.8800  -11.6740   53.8850 C.3       1 101         0.1225
     10 O3         55.6680  -10.9000   53.8670 O.3       1 101        -0.2700
     11 C2         56.5750  -13.1570   54.0180 C.3       1 101         0.0362
     12 C1         56.5270  -13.6310   52.5750 C.3       1 101         0.1754
     13 N9         56.8470  -15.0550   52.4180 N.pl3     1 101        -0.1945
     14 C8         58.0410  -15.6930   52.6570 C.2       1 101         0.1122
     15 N7         57.9750  -16.9980   52.5360 N.2       1 101        -0.2958
     16 C5         56.6560  -17.2320   52.1740 C.ar      1 101         0.1045
     17 C6         55.9370  -18.4210   51.9360 C.ar      1 101         0.1298
     18 N6         56.4710  -19.6380   52.0430 N.pl3     1 101        -0.3152
     19 N1         54.6330  -18.3100   51.5810 N.ar      1 101        -0.2698
     20 C2         54.0990  -17.0880   51.4920 C.ar      1 101         0.0533
     21 N3         54.6710  -15.8980   51.7090 N.ar      1 101        -0.2714
     22 C4         55.9610  -16.0440   52.0600 C.ar      1 101         0.1612
     23 H1         59.5959  -12.9813   53.4974 H         1 101         0.2095
     24 H2         59.6354  -11.4426   51.7653 H         1 101         0.0584
     25 H3         59.2280  -10.1946   52.9913 H         1 101         0.0584
     26 H4         57.1880  -10.7959   51.9401 H         1 101         0.0649
     27 H5         57.5103  -11.3315   54.7189 H         1 101         0.0677
     28 H6         55.6088  -13.3179   54.5186 H         1 101         0.0348
     29 H7         57.3684  -13.6745   54.5772 H         1 101         0.0348
     30 H8         55.5297  -13.4382   52.1530 H         1 101         0.0969
     31 H9         58.9558  -15.1649   52.9219 H         1 101         0.1349
     32 H10        55.8951  -20.4713   51.8563 H         1 101         0.1820
     33 H11        57.4594  -19.7448   52.3123 H         1 101         0.1820
     34 H12        53.0547  -17.0565   51.2031 H         1 101         0.0996
@<TRIPOS>BOND
     1    1    2 ar 
     2    1    3 ar 
     3    1    4 ar 
     4   10    1 1  
     5    6    5 1  
     6    7    6 1  
     7    7    8 1  
     8    9    7 1  
     9    8   12 1  
    10    9   10 1  
    11    9   11 1  
    12   11   12 1  
    13   12   13 1  
    14   13   14 1  
    15   13   22 1  
    16   14   15 2  
    17   15   16 1  
    18   16   17 ar 
    19   16   22 ar 
    20   17   18 1  
    21   17   19 ar 
    22   19   20 ar 
    23   20   21 ar 
    24   21   22 ar 
    25    5   23 1  
    26    6   24 1  
    27    6   25 1  
    28    7   26 1  
    29    9   27 1  
    30   11   28 1  
    31   11   29 1  
    32   12   30 1  
    33   14   31 1  
    34   18   32 1  
    35   18   33 1  
    36   20   34 1  
@<TRIPOS>SUBSTRUCTURE
     1 101         1

