3ljg_ligand
  -I-interpret- 

 64 65  0  0  0  0  0  0  0  0999 V2000
    7.9420   25.0430    3.4330 C   0  0  0  0  0
    8.0550   27.4190    4.3650 N   0  0  0  0  0
    6.8450   28.4120    6.5760 O   0  0  0  0  0
    8.7290   26.1390    4.1800 C   0  0  0  0  0
    8.7600   29.1750    7.5970 N   0  0  0  0  0
    9.8180   25.8970    4.6390 O   0  0  0  0  0
    8.7210   28.4730    5.1460 C   0  0  0  0  0
    5.6970   30.3080    9.2920 N   0  0  0  0  0
    8.6280   29.8440    4.4420 C   0  0  0  0  0
    9.4400   30.0590    3.1680 C   0  0  0  0  0
    7.1580   31.4130    7.8790 O   0  0  0  0  0
   10.1570   32.3480    2.4460 O   0  0  0  0  0
    8.3660   31.4060    1.5660 O   0  0  0  0  0
    9.1680   31.3680    2.4320 C   0  0  0  0  0
    8.0290   28.5750    6.5020 C   0  0  0  0  0
    8.0180   29.4300    8.8140 C   0  0  0  0  0
    8.8720   29.7710   10.0400 C   0  0  0  0  0
    8.7420   28.8350   11.2630 C   0  0  0  0  0
    6.9460   30.4780    8.5790 C   0  0  0  0  0
    7.7820   23.7610    4.2610 C   0  0  0  0  0
    6.3370   22.5600    5.9300 C   0  0  0  0  0
    5.0750   22.2530    6.5750 C   0  0  0  0  0
    3.8940   23.0050    6.1670 C   0  0  0  0  0
    6.4190   23.5300    4.9520 C   0  0  0  0  0
    2.5640   22.6820    6.8460 C   0  0  0  0  0
    2.5690   22.2440    8.2720 C   0  0  0  0  0
    1.3780   21.9310    8.9080 C   0  0  0  0  0
    0.1820   22.4620    6.8240 C   0  0  0  0  0
    1.4210   22.7860    6.1600 C   0  0  0  0  0
    0.1700   22.0300    8.1860 C   0  0  0  0  0
    3.9640   24.0160    5.1590 C   0  0  0  0  0
    5.1970   24.3120    4.5290 C   0  0  0  0  0
    7.5190   28.9340   12.1930 C   0  0  0  0  0
    7.4070   28.0670   13.3020 O   0  0  0  0  0
    6.7990   29.8720   12.1250 O   0  0  0  0  0
    8.4956   24.7906    2.5286 H   0  0  0  0  0
    6.9458   25.4314    3.2213 H   0  0  0  0  0
    7.1338   27.5814    3.9582 H   0  0  0  0  0
    9.7499   29.4071    7.5156 H   0  0  0  0  0
    9.7742   28.2132    5.2529 H   0  0  0  0  0
    4.9594   31.0068    9.2024 H   0  0  0  0  0
    5.5549   29.4895    9.8838 H   0  0  0  0  0
    9.0245   30.5624    5.1595 H   0  0  0  0  0
    7.5858   29.9400    4.1375 H   0  0  0  0  0
    9.1663   29.2550    2.4849 H   0  0  0  0  0
   10.4880   30.0817    3.4668 H   0  0  0  0  0
   10.7392   32.2028    3.1954 H   0  0  0  0  0
    7.5492   28.4788    9.0661 H   0  0  0  0  0
    8.5342   30.7512   10.3764 H   0  0  0  0  0
    9.9089   29.6934    9.7130 H   0  0  0  0  0
    9.5860   29.1034   11.8984 H   0  0  0  0  0
    8.6722   27.8364   10.8317 H   0  0  0  0  0
    8.5125   23.8366    5.0665 H   0  0  0  0  0
    7.8992   22.9377    3.5563 H   0  0  0  0  0
    7.2351   22.0159    6.2224 H   0  0  0  0  0
    5.0110   21.4821    7.3429 H   0  0  0  0  0
    3.5113   22.1700    8.8149 H   0  0  0  0  0
    1.3747   21.6131    9.9506 H   0  0  0  0  0
   -0.7581   22.5479    6.2792 H   0  0  0  0  0
    1.4253   23.1094    5.1191 H   0  0  0  0  0
   -0.7742   21.7765    8.6680 H   0  0  0  0  0
    3.0643   24.5614    4.8741 H   0  0  0  0  0
    5.2629   25.0822    3.7605 H   0  0  0  0  0
    8.0500   27.3590   13.2194 H   0  0  0  0  0
  1  4  1  0  0  0
 20  1  1  0  0  0
  4  2  1  0  0  0
  2  7  1  0  0  0
 15  3  2  0  0  0
  4  6  2  0  0  0
 15  5  1  0  0  0
  5 16  1  0  0  0
  7  9  1  0  0  0
  7 15  1  0  0  0
 19  8  1  0  0  0
  9 10  1  0  0  0
 10 14  1  0  0  0
 19 11  2  0  0  0
 14 12  1  0  0  0
 14 13  2  0  0  0
 16 17  1  0  0  0
 16 19  1  0  0  0
 17 18  1  0  0  0
 18 33  1  0  0  0
 24 20  1  0  0  0
 21 22  4  0  0  0
 21 24  4  0  0  0
 22 23  4  0  0  0
 23 25  1  0  0  0
 23 31  4  0  0  0
 24 32  4  0  0  0
 25 26  4  0  0  0
 25 29  4  0  0  0
 26 27  4  0  0  0
 27 30  4  0  0  0
 29 28  4  0  0  0
 28 30  4  0  0  0
 31 32  4  0  0  0
 33 34  1  0  0  0
 33 35  2  0  0  0
  1 36  1  0  0  0
  1 37  1  0  0  0
  2 38  1  0  0  0
  5 39  1  0  0  0
  7 40  1  0  0  0
  8 41  1  0  0  0
  8 42  1  0  0  0
  9 43  1  0  0  0
  9 44  1  0  0  0
 10 45  1  0  0  0
 10 46  1  0  0  0
 12 47  1  0  0  0
 16 48  1  0  0  0
 17 49  1  0  0  0
 17 50  1  0  0  0
 18 51  1  0  0  0
 18 52  1  0  0  0
 20 53  1  0  0  0
 20 54  1  0  0  0
 21 55  1  0  0  0
 22 56  1  0  0  0
 26 57  1  0  0  0
 27 58  1  0  0  0
 28 59  1  0  0  0
 29 60  1  0  0  0
 30 61  1  0  0  0
 31 62  1  0  0  0
 32 63  1  0  0  0
 34 64  1  0  0  0
M  END
$$$$
