2pj9_ligand
  -I-interpret- 

 59 61  0  0  0  0  0  0  0  0999 V2000
   36.0790   -0.3050   11.9830 C   0  0  0  0  0
   35.9360   -0.2240   10.6480 N   0  0  0  0  0
   37.1970   -1.0250    9.9890 S   0  0  0  0  0
   37.9750   -1.5090   11.3210 N   0  0  0  0  0
   37.2710   -1.0600   12.3800 C   0  0  0  0  0
   37.5440   -1.2350   13.7610 C   0  0  0  0  0
   36.6950   -0.6970   14.7510 C   0  0  0  0  0
   35.5490    0.0310   14.3660 C   0  0  0  0  0
   35.2450    0.2260   12.9940 C   0  0  0  0  0
   33.8470    1.1770   12.5480 S   0  0  0  0  0
   33.0380    1.3950   13.7090 O   0  0  0  0  0
   33.0690    0.4400   11.5090 O   0  0  0  0  0
   34.3680    2.6370   11.8830 N   0  0  0  0  0
   34.1670    3.8000   12.6880 C   0  0  0  0  0
   35.4720    4.4780   13.1930 C   0  0  0  0  0
   36.5390    4.5740   12.0940 C   0  0  0  0  0
   36.0480    3.7090   14.3870 C   0  0  0  0  0
   33.0080    4.9770   11.8120 P   0  0  0  0  0
   32.9090    6.2580   12.5460 O   0  0  0  0  0
   31.7780    4.1760   11.6140 O   0  0  0  0  0
   33.7640    5.3250   10.1760 C   0  0  0  0  0
   32.7010    5.8290    9.1440 C   0  0  0  0  0
   31.7270    4.7090    8.7190 C   0  0  0  0  0
   30.5630    5.0550    8.4360 O   0  0  0  0  0
   32.1730    3.5360    8.6650 O   0  0  0  0  0
   33.3820    6.3710    7.8630 C   0  0  0  0  0
   32.9480    7.6060    7.3190 C   0  0  0  0  0
   34.3660    5.6040    7.1700 C   0  0  0  0  0
   34.9000    6.0660    5.9440 C   0  0  0  0  0
   34.4600    7.2960    5.3990 C   0  0  0  0  0
   33.4860    8.0680    6.0840 C   0  0  0  0  0
   33.0240    9.3970    5.4940 C   0  0  0  0  0
   31.9970    9.1470    4.4700 N   0  3  0  0  0
   38.4278   -1.7966   14.0635 H   0  0  0  0  0
   36.9228   -0.8428   15.8069 H   0  0  0  0  0
   34.8916    0.4471   15.1294 H   0  0  0  0  0
   34.8009    2.6866   10.9608 H   0  0  0  0  0
   33.6955    3.4707   13.6140 H   0  0  0  0  0
   35.2039    5.4902   13.4957 H   0  0  0  0  0
   36.7905    3.5725   11.7451 H   0  0  0  0  0
   36.1508    5.1628   11.2629 H   0  0  0  0  0
   37.4308    5.0546   12.4962 H   0  0  0  0  0
   35.3180    3.6972   15.1963 H   0  0  0  0  0
   36.2734    2.6864   14.0844 H   0  0  0  0  0
   36.9609    4.1984   14.7265 H   0  0  0  0  0
   31.9925    3.3777   11.1257 H   0  0  0  0  0
   34.2015    4.4018    9.7960 H   0  0  0  0  0
   34.5159    6.1038   10.3033 H   0  0  0  0  0
   32.1466    6.6212    9.6471 H   0  0  0  0  0
   33.0952    3.5329    8.9315 H   0  0  0  0  0
   32.2027    8.2019    7.8458 H   0  0  0  0  0
   34.7080    4.6570    7.5876 H   0  0  0  0  0
   35.6503    5.4747    5.4191 H   0  0  0  0  0
   34.8694    7.6503    4.4530 H   0  0  0  0  0
   33.8730    9.9085    5.0405 H   0  0  0  0  0
   32.6056   10.0201    6.2844 H   0  0  0  0  0
   31.6883   10.0356    4.0757 H   0  0  0  0  0
   32.3902    8.5641    3.7311 H   0  0  0  0  0
   31.2032    8.6686    4.8960 H   0  0  0  0  0
  1  2  4  0  0  0
  1  5  4  0  0  0
  1  9  4  0  0  0
  2  3  4  0  0  0
  3  4  4  0  0  0
  4  5  4  0  0  0
  5  6  4  0  0  0
  6  7  4  0  0  0
  7  8  4  0  0  0
  8  9  4  0  0  0
  9 10  1  0  0  0
 10 11  2  0  0  0
 10 12  2  0  0  0
 10 13  1  0  0  0
 13 14  1  0  0  0
 14 15  1  0  0  0
 14 18  1  0  0  0
 15 16  1  0  0  0
 15 17  1  0  0  0
 18 19  2  0  0  0
 18 20  1  0  0  0
 18 21  1  0  0  0
 21 22  1  0  0  0
 22 23  1  0  0  0
 22 26  1  0  0  0
 23 24  2  0  0  0
 23 25  1  0  0  0
 26 27  4  0  0  0
 26 28  4  0  0  0
 27 31  4  0  0  0
 28 29  4  0  0  0
 29 30  4  0  0  0
 30 31  4  0  0  0
 31 32  1  0  0  0
 32 33  1  0  0  0
  6 34  1  0  0  0
  7 35  1  0  0  0
  8 36  1  0  0  0
 13 37  1  0  0  0
 14 38  1  0  0  0
 15 39  1  0  0  0
 16 40  1  0  0  0
 16 41  1  0  0  0
 16 42  1  0  0  0
 17 43  1  0  0  0
 17 44  1  0  0  0
 17 45  1  0  0  0
 20 46  1  0  0  0
 21 47  1  0  0  0
 21 48  1  0  0  0
 22 49  1  0  0  0
 25 50  1  0  0  0
 27 51  1  0  0  0
 28 52  1  0  0  0
 29 53  1  0  0  0
 30 54  1  0  0  0
 32 55  1  0  0  0
 32 56  1  0  0  0
 33 57  1  0  0  0
 33 58  1  0  0  0
 33 59  1  0  0  0
M  END
$$$$
