### 
### Created by X-TOOL on Mon Sep 10 21:12:58 2018
### 

@<TRIPOS>MOLECULE
2pj9_ligand
   57    59     1     0     0
SMALL
GAST_HUCK


@<TRIPOS>ATOM
      1 C35        36.0790   -0.3050   11.9830 C.ar      1 281         0.1165
      2 N42        35.9360   -0.2240   10.6480 N.2       1 281        -0.1870
      3 S41        37.1970   -1.0250    9.9890 S.3       1 281         0.1388
      4 N40        37.9750   -1.5090   11.3210 N.2       1 281        -0.1889
      5 C36        37.2710   -1.0600   12.3800 C.ar      1 281         0.0920
      6 C37        37.5440   -1.2350   13.7610 C.ar      1 281        -0.0360
      7 C38        36.6950   -0.6970   14.7510 C.ar      1 281        -0.0580
      8 C39        35.5490    0.0310   14.3660 C.ar      1 281        -0.0331
      9 C34        35.2450    0.2260   12.9940 C.ar      1 281         0.1336
     10 S32        33.8470    1.1770   12.5480 S.o2      1 281         0.0717
     11 O33        33.0380    1.3950   13.7090 O.2       1 281        -0.1502
     12 O32        33.0690    0.4400   11.5090 O.2       1 281        -0.1502
     13 N31        34.3680    2.6370   11.8830 N.am      1 281        -0.2273
     14 C27        34.1670    3.8000   12.6880 C.3       1 281         0.1043
     15 C28        35.4720    4.4780   13.1930 C.3       1 281        -0.0107
     16 C30        36.5390    4.5740   12.0940 C.3       1 281        -0.0594
     17 C29        36.0480    3.7090   14.3870 C.3       1 281        -0.0594
     18 P24        33.0080    4.9770   11.8120 P.3       1 281         0.0106
     19 O25        32.9090    6.2580   12.5460 O.co2     1 281        -0.6177
     20 O26        31.7780    4.1760   11.6140 O.co2     1 281        -0.6177
     21 C15        33.7640    5.3250   10.1760 C.3       1 281         0.0387
     22 C1         32.7010    5.8290    9.1440 C.3       1 281         0.0592
     23 C2         31.7270    4.7090    8.7190 C.2       1 281         0.0508
     24 O14        30.5630    5.0550    8.4360 O.co2     1 281        -0.5660
     25 O13        32.1730    3.5360    8.6650 O.co2     1 281        -0.5660
     26 C3         33.3820    6.3710    7.8630 C.ar      1 281        -0.0322
     27 C8         32.9480    7.6060    7.3190 C.ar      1 281        -0.0522
     28 C4         34.3660    5.6040    7.1700 C.ar      1 281        -0.0653
     29 C5         34.9000    6.0660    5.9440 C.ar      1 281        -0.0748
     30 C6         34.4600    7.2960    5.3990 C.ar      1 281        -0.0621
     31 C7         33.4860    8.0680    6.0840 C.ar      1 281        -0.0052
     32 C9         33.0240    9.3970    5.4940 C.3       1 281        -0.0032
     33 N10        31.9970    9.1470    4.4700 N.4       1 281         0.2307
     34 H1         38.4230   -1.7936   14.0618 H         1 281         0.0637
     35 H2         36.9216   -0.8420   15.8011 H         1 281         0.0619
     36 H3         34.8953    0.4448   15.1252 H         1 281         0.0638
     37 H4         34.7924    2.6856   10.9788 H         1 281         0.1693
     38 H5         33.6426    3.4607   13.5934 H         1 281         0.0720
     39 H6         35.2210    5.4978   13.5200 H         1 281         0.0330
     40 H7         37.4396    5.0589   12.4987 H         1 281         0.0233
     41 H8         36.1485    5.1681   11.2547 H         1 281         0.0233
     42 H9         36.7938    3.5638   11.7410 H         1 281         0.0233
     43 H10        35.2872    3.6370   15.1782 H         1 281         0.0233
     44 H11        36.9303    4.2398   14.7739 H         1 281         0.0233
     45 H12        36.3398    2.6982   14.0659 H         1 281         0.0233
     46 H13        34.2243    4.4026    9.7922 H         1 281         0.0508
     47 H14        34.5374    6.0977   10.2975 H         1 281         0.0508
     48 H15        32.1252    6.6399    9.6140 H         1 281         0.0638
     49 H16        32.2068    8.1986    7.8429 H         1 281         0.0499
     50 H17        34.7061    4.6622    7.5853 H         1 281         0.0502
     51 H18        35.6462    5.4780    5.4220 H         1 281         0.0582
     52 H19        34.8671    7.6484    4.4582 H         1 281         0.0503
     53 H20        33.8808    9.9128    5.0360 H         1 281         0.0978
     54 H21        32.6013   10.0255    6.2917 H         1 281         0.0978
     55 H22        31.6912   10.0246    4.0796 H         1 281         0.2008
     56 H23        31.2119    8.6743    4.8898 H         1 281         0.2008
     57 H24        32.3844    8.5710    3.7391 H         1 281         0.2008
@<TRIPOS>BOND
     1    1    2 2  
     2    1    5 ar 
     3    1    9 ar 
     4    2    3 1  
     5    3    4 1  
     6    4    5 2  
     7    5    6 ar 
     8    6    7 ar 
     9    7    8 ar 
    10    8    9 ar 
    11    9   10 1  
    12   10   11 2  
    13   10   12 2  
    14   10   13 am 
    15   13   14 1  
    16   14   15 1  
    17   14   18 1  
    18   15   16 1  
    19   15   17 1  
    20   18   19 ar 
    21   18   20 ar 
    22   18   21 1  
    23   21   22 1  
    24   22   23 1  
    25   22   26 1  
    26   23   24 ar 
    27   23   25 ar 
    28   26   27 ar 
    29   26   28 ar 
    30   27   31 ar 
    31   28   29 ar 
    32   29   30 ar 
    33   30   31 ar 
    34   31   32 1  
    35   32   33 1  
    36    6   34 1  
    37    7   35 1  
    38    8   36 1  
    39   13   37 1  
    40   14   38 1  
    41   15   39 1  
    42   16   40 1  
    43   16   41 1  
    44   16   42 1  
    45   17   43 1  
    46   17   44 1  
    47   17   45 1  
    48   21   46 1  
    49   21   47 1  
    50   22   48 1  
    51   27   49 1  
    52   28   50 1  
    53   29   51 1  
    54   30   52 1  
    55   32   53 1  
    56   32   54 1  
    57   33   55 1  
    58   33   56 1  
    59   33   57 1  
@<TRIPOS>SUBSTRUCTURE
     1 281         1

