2m0o_ligand
  -I-interpret- 

185187  0  0  0  0  0  0  0  0999 V2000
  -19.4920   -4.1990  -16.4160 N   0  3  0  0  0
  -18.3090   -3.3070  -16.5310 C   0  0  0  0  0
  -18.4310   -2.1110  -15.5930 C   0  0  0  0  0
  -19.5070   -1.5170  -15.4730 O   0  0  0  0  0
  -18.1410   -2.8350  -17.9670 C   0  0  0  0  0
  -17.3200   -1.7710  -14.9340 N   0  0  0  0  0
  -17.2780   -0.6450  -13.9990 C   0  0  0  0  0
  -16.3320    0.4520  -14.5020 C   0  0  0  0  0
  -15.3270    0.1620  -15.1580 O   0  0  0  0  0
  -16.8800   -1.0990  -12.5560 C   0  0  0  0  0
  -16.8120    0.0330  -11.6770 O   0  0  0  0  0
  -15.5450   -1.8520  -12.5180 C   0  0  0  0  0
  -16.6720    1.7050  -14.1830 N   0  0  0  0  0
  -15.8620    2.8420  -14.5990 C   0  0  0  0  0
  -16.2280    4.1110  -13.8550 C   0  0  0  0  0
  -16.9430    4.9630  -14.3910 O   0  0  0  0  0
  -15.7320    4.2280  -12.6200 N   0  0  0  0  0
  -16.0110    5.3990  -11.7980 C   0  0  0  0  0
  -15.1460    5.4690  -10.5500 C   0  0  0  0  0
  -14.8330    6.5630  -10.0710 O   0  0  0  0  0
  -14.7610    4.2970  -10.0260 N   0  0  0  0  0
  -13.9270    4.2110   -8.8210 C   0  0  0  0  0
  -12.4280    4.1090   -9.1900 C   0  0  0  0  0
  -11.9200    4.9670   -9.9180 O   0  0  0  0  0
  -14.3750    3.0380   -7.8860 C   0  0  0  0  0
  -15.6280    3.4280   -7.1150 C   0  0  0  0  0
  -14.6110    1.7330   -8.6540 C   0  0  0  0  0
  -11.7270    3.0690   -8.6940 N   0  0  0  0  0
  -10.2890    2.8680   -8.9760 C   0  0  0  0  0
   -9.6720    1.7930   -8.0580 C   0  0  0  0  0
  -10.6420    0.7350   -7.5600 C   0  0  0  0  0
   -9.9460   -0.2210   -6.6120 C   0  0  0  0  0
  -10.8730   -0.6720   -5.4680 C   0  0  0  0  0
  -10.7200    0.0840   -4.1500 N   0  3  0  0  0
  -10.0270    2.5190  -10.4400 C   0  0  0  0  0
  -10.8130    1.8120  -11.0750 O   0  0  0  0  0
   -9.3390    0.0390   -3.6070 C   0  0  0  0  0
  -11.6320   -0.5670   -3.1790 C   0  0  0  0  0
  -11.0870    1.5150   -4.2830 C   0  0  0  0  0
   -8.9040    3.0340  -10.9520 N   0  0  0  0  0
   -8.4970    2.8240  -12.3440 C   0  0  0  0  0
   -7.0460    2.2750  -12.4240 C   0  0  0  0  0
   -6.1400    2.9680  -12.9050 O   0  0  0  0  0
   -8.6680    4.1400  -13.1580 C   0  0  0  0  0
   -7.9920    5.3920  -12.5630 C   0  0  0  0  0
   -8.8440    6.0620  -11.4780 C   0  0  0  0  0
   -9.3520    7.4240  -11.9250 C   0  0  0  0  0
  -10.0810    8.1290  -10.8320 N   0  3  0  0  0
   -6.8020    1.0120  -11.9450 N   0  0  0  0  0
   -5.4600    0.3720  -11.9610 C   0  0  0  0  0
   -4.9480    0.0570  -13.3780 C   0  0  0  0  0
   -5.2650    0.7790  -14.3280 O   0  0  0  0  0
   -5.6810   -0.9240  -11.1490 C   0  0  0  0  0
   -6.9250   -0.6830  -10.3870 C   0  0  0  0  0
   -7.7880    0.1100  -11.3140 C   0  0  0  0  0
   -4.1510   -1.0260  -13.5040 N   0  0  0  0  0
   -3.5690   -1.4630  -14.7860 C   0  0  0  0  0
   -4.6490   -1.6820  -15.8660 C   0  0  0  0  0
   -4.4760   -1.2800  -17.0210 O   0  0  0  0  0
   -2.7260   -2.7440  -14.5530 C   0  0  0  0  0
   -3.5090   -4.0240  -14.4690 C   0  0  0  0  0
   -3.4410   -5.0210  -15.4180 N   0  0  0  0  0
   -4.3810   -4.4540  -13.5340 C   0  0  0  0  0
   -4.2430   -6.0110  -15.0670 C   0  0  0  0  0
   -4.8250   -5.6910  -13.9260 N   0  0  0  0  0
   -5.7550   -2.3220  -15.4590 N   0  0  0  0  0
   -6.8890   -2.6120  -16.3410 C   0  0  0  0  0
   -8.1740   -2.7430  -15.5270 C   0  0  0  0  0
   -9.2480   -2.3360  -15.9810 O   0  0  0  0  0
   -6.6530   -3.9050  -17.1380 C   0  0  0  0  0
   -6.3080   -3.6680  -18.5990 C   0  0  0  0  0
   -6.3610   -4.9600  -19.4010 C   0  0  0  0  0
   -7.5990   -5.0710  -20.1810 N   0  0  0  0  0
   -7.6670   -5.4970  -21.4510 C   0  0  0  0  0
   -6.5710   -5.8620  -22.1140 N   0  0  0  0  0
   -8.8430   -5.5570  -22.0590 N   0  0  0  0  0
   -8.0480   -3.3160  -14.3190 N   0  0  0  0  0
   -9.1910   -3.5160  -13.4190 C   0  0  0  0  0
   -8.7820   -3.2870  -11.9660 C   0  0  0  0  0
   -9.7990   -4.9280  -13.5760 C   0  0  0  0  0
   -8.7890   -6.0460  -13.7950 C   0  0  0  0  0
   -8.0480   -6.5660  -12.7380 C   0  0  0  0  0
   -8.5840   -6.5800  -15.0620 C   0  0  0  0  0
   -7.1310   -7.5810  -12.9400 C   0  0  0  0  0
   -7.6710   -7.5950  -15.2700 C   0  0  0  0  0
   -6.9480   -8.0920  -14.2080 C   0  0  0  0  0
   -6.0370   -9.1040  -14.4140 O   0  0  0  0  0
  -19.5914   -4.5069  -15.4487 H   0  0  0  0  0
  -20.3291   -3.6899  -16.6997 H   0  0  0  0  0
  -19.3647   -5.0103  -17.0209 H   0  0  0  0  0
  -17.4264   -3.8770  -16.2409 H   0  0  0  0  0
  -19.0079   -2.2412  -18.2567 H   0  0  0  0  0
  -17.2399   -2.2268  -18.0451 H   0  0  0  0  0
  -18.0552   -3.7000  -18.6247 H   0  0  0  0  0
  -16.4709   -2.3150  -15.0875 H   0  0  0  0  0
  -18.2860   -0.2337  -13.9463 H   0  0  0  0  0
  -17.6567   -1.7872  -12.2224 H   0  0  0  0  0
  -16.5671   -0.2612  -10.7966 H   0  0  0  0  0
  -14.7446   -1.1864  -12.8410 H   0  0  0  0  0
  -15.3493   -2.1908  -11.5007 H   0  0  0  0  0
  -15.5954   -2.7123  -13.1854 H   0  0  0  0  0
  -17.5174    1.8685  -13.6362 H   0  0  0  0  0
  -16.0359    3.0106  -15.6617 H   0  0  0  0  0
  -14.8188    2.6117  -14.3825 H   0  0  0  0  0
  -15.1459    3.4824  -12.2445 H   0  0  0  0  0
  -17.0512    5.3396  -11.4779 H   0  0  0  0  0
  -15.7997    6.2839  -12.3983 H   0  0  0  0  0
  -15.0582    3.4338  -10.4809 H   0  0  0  0  0
  -14.0667    5.1335   -8.2575 H   0  0  0  0  0
  -13.5587    2.8561   -7.1869 H   0  0  0  0  0
  -15.4200    4.3090   -6.5078 H   0  0  0  0  0
  -16.4308    3.6509   -7.8178 H   0  0  0  0  0
  -15.9274    2.6025   -6.4692 H   0  0  0  0  0
  -15.3924    1.8871   -9.3982 H   0  0  0  0  0
  -13.6883    1.4334   -9.1509 H   0  0  0  0  0
  -14.9196    0.9536   -7.9573 H   0  0  0  0  0
  -12.2081    2.3935   -8.1002 H   0  0  0  0  0
   -9.8048    3.8221   -8.7675 H   0  0  0  0  0
   -9.2951    2.3122   -7.1768 H   0  0  0  0  0
   -8.9170    1.2732   -8.6477 H   0  0  0  0  0
  -11.0213    0.1731   -8.4135 H   0  0  0  0  0
  -11.4592    1.2254   -7.0310 H   0  0  0  0  0
   -9.0899    0.2934   -6.1755 H   0  0  0  0  0
   -9.6454   -1.1037   -7.1765 H   0  0  0  0  0
  -10.6189   -1.7109   -5.2578 H   0  0  0  0  0
  -11.8924   -0.4919   -5.8092 H   0  0  0  0  0
   -9.0541   -0.9977   -3.4277 H   0  0  0  0  0
   -8.6526    0.4867   -4.3257 H   0  0  0  0  0
   -9.2999    0.5951   -2.6703 H   0  0  0  0  0
  -12.6563   -0.5047   -3.5464 H   0  0  0  0  0
  -11.3495   -1.6133   -3.0623 H   0  0  0  0  0
  -11.5583   -0.0599   -2.2169 H   0  0  0  0  0
  -10.4412    1.9871   -5.0233 H   0  0  0  0  0
  -12.1262    1.5941   -4.6023 H   0  0  0  0  0
  -10.9624    2.0117   -3.3208 H   0  0  0  0  0
   -8.3053    3.5970  -10.3479 H   0  0  0  0  0
   -9.1457    2.0700  -12.7898 H   0  0  0  0  0
   -9.7373    4.3500  -13.1813 H   0  0  0  0  0
   -8.1962    3.9665  -14.1251 H   0  0  0  0  0
   -7.8489    6.1114  -13.3693 H   0  0  0  0  0
   -7.0518    5.0813  -12.1073 H   0  0  0  0  0
   -8.2255    6.1997  -10.5911 H   0  0  0  0  0
   -9.7040    5.4243  -11.2734 H   0  0  0  0  0
  -10.0408    7.2767  -12.7568 H   0  0  0  0  0
   -8.4943    8.0321  -12.2126 H   0  0  0  0  0
  -10.4047    9.0352  -11.1702 H   0  0  0  0  0
  -10.8815    7.5675  -10.5415 H   0  0  0  0  0
   -9.4538    8.2649  -10.0392 H   0  0  0  0  0
   -4.6949    1.0297  -11.5485 H   0  0  0  0  0
   -4.8382   -1.1411  -10.4928 H   0  0  0  0  0
   -5.7627   -1.7988  -11.7941 H   0  0  0  0  0
   -6.7348   -0.1527   -9.4539 H   0  0  0  0  0
   -7.4028   -1.6141  -10.0822 H   0  0  0  0  0
   -8.3351   -0.5038  -12.0296 H   0  0  0  0  0
   -8.5977    0.6370  -10.8092 H   0  0  0  0  0
   -3.9406   -1.5706  -12.6676 H   0  0  0  0  0
   -2.9199   -0.6725  -15.1627 H   0  0  0  0  0
   -2.2292   -2.6191  -13.5908 H   0  0  0  0  0
   -2.0625   -2.8407  -15.4123 H   0  0  0  0  0
   -4.6780   -3.9173  -12.6330 H   0  0  0  0  0
   -4.3977   -6.9347  -15.6247 H   0  0  0  0  0
   -5.8098   -2.6223  -14.4858 H   0  0  0  0  0
   -6.9864   -1.7830  -17.0419 H   0  0  0  0  0
   -7.5797   -4.4782  -17.1109 H   0  0  0  0  0
   -5.8064   -4.4186  -16.6825 H   0  0  0  0  0
   -5.2953   -3.2685  -18.6543 H   0  0  0  0  0
   -7.0352   -2.9720  -19.0170 H   0  0  0  0  0
   -6.3209   -5.7966  -18.7034 H   0  0  0  0  0
   -5.5194   -4.9665  -20.0937 H   0  0  0  0  0
   -8.4713   -4.8048  -19.7241 H   0  0  0  0  0
   -6.6423   -6.1835  -23.0794 H   0  0  0  0  0
   -5.6604   -5.8200  -21.6563 H   0  0  0  0  0
   -9.6892   -5.2802  -21.5613 H   0  0  0  0  0
   -7.1241   -3.6237  -14.0154 H   0  0  0  0  0
   -9.9512   -2.7853  -13.6952 H   0  0  0  0  0
   -7.9940   -3.9902  -11.6965 H   0  0  0  0  0
   -8.4159   -2.2670  -11.8494 H   0  0  0  0  0
   -9.6451   -3.4409  -11.3184 H   0  0  0  0  0
  -10.4327   -4.8998  -14.4624 H   0  0  0  0  0
  -10.3172   -5.1518  -12.6435 H   0  0  0  0  0
   -8.1929   -6.1665  -11.7342 H   0  0  0  0  0
   -9.1537   -6.1908  -15.9058 H   0  0  0  0  0
   -6.5560   -7.9750  -12.1020 H   0  0  0  0  0
   -7.5230   -8.0013  -16.2706 H   0  0  0  0  0
   -6.0311   -9.3434  -15.3437 H   0  0  0  0  0
  1  2  1  0  0  0
  2  3  1  0  0  0
  2  5  1  0  0  0
  3  4  2  0  0  0
  3  6  1  0  0  0
  6  7  1  0  0  0
  7  8  1  0  0  0
  7 10  1  0  0  0
  8  9  2  0  0  0
  8 13  1  0  0  0
 10 11  1  0  0  0
 10 12  1  0  0  0
 13 14  1  0  0  0
 14 15  1  0  0  0
 15 16  2  0  0  0
 15 17  1  0  0  0
 17 18  1  0  0  0
 18 19  1  0  0  0
 19 20  2  0  0  0
 19 21  1  0  0  0
 21 22  1  0  0  0
 22 23  1  0  0  0
 22 25  1  0  0  0
 23 24  2  0  0  0
 23 28  1  0  0  0
 25 26  1  0  0  0
 25 27  1  0  0  0
 28 29  1  0  0  0
 29 30  1  0  0  0
 29 35  1  0  0  0
 30 31  1  0  0  0
 31 32  1  0  0  0
 32 33  1  0  0  0
 33 34  1  0  0  0
 34 37  1  0  0  0
 34 38  1  0  0  0
 34 39  1  0  0  0
 35 36  2  0  0  0
 35 40  1  0  0  0
 40 41  1  0  0  0
 41 42  1  0  0  0
 41 44  1  0  0  0
 42 43  2  0  0  0
 42 49  1  0  0  0
 44 45  1  0  0  0
 45 46  1  0  0  0
 46 47  1  0  0  0
 47 48  1  0  0  0
 49 50  1  0  0  0
 49 55  1  0  0  0
 50 51  1  0  0  0
 50 53  1  0  0  0
 51 52  2  0  0  0
 51 56  1  0  0  0
 53 54  1  0  0  0
 54 55  1  0  0  0
 56 57  1  0  0  0
 57 58  1  0  0  0
 57 60  1  0  0  0
 58 59  2  0  0  0
 58 66  1  0  0  0
 60 61  1  0  0  0
 61 62  4  0  0  0
 61 63  4  0  0  0
 62 64  4  0  0  0
 63 65  4  0  0  0
 64 65  4  0  0  0
 66 67  1  0  0  0
 67 68  1  0  0  0
 67 70  1  0  0  0
 68 69  2  0  0  0
 68 77  1  0  0  0
 70 71  1  0  0  0
 71 72  1  0  0  0
 72 73  1  0  0  0
 73 74  1  0  0  0
 74 75  1  0  0  0
 74 76  2  0  0  0
 77 78  1  0  0  0
 78 79  1  0  0  0
 78 80  1  0  0  0
 80 81  1  0  0  0
 81 82  4  0  0  0
 81 83  4  0  0  0
 82 84  4  0  0  0
 83 85  4  0  0  0
 84 86  4  0  0  0
 85 86  4  0  0  0
 86 87  1  0  0  0
  1 88  1  0  0  0
  1 89  1  0  0  0
  1 90  1  0  0  0
  2 91  1  0  0  0
  5 92  1  0  0  0
  5 93  1  0  0  0
  5 94  1  0  0  0
  6 95  1  0  0  0
  7 96  1  0  0  0
 10 97  1  0  0  0
 11 98  1  0  0  0
 12 99  1  0  0  0
 12100  1  0  0  0
 12101  1  0  0  0
 13102  1  0  0  0
 14103  1  0  0  0
 14104  1  0  0  0
 17105  1  0  0  0
 18106  1  0  0  0
 18107  1  0  0  0
 21108  1  0  0  0
 22109  1  0  0  0
 25110  1  0  0  0
 26111  1  0  0  0
 26112  1  0  0  0
 26113  1  0  0  0
 27114  1  0  0  0
 27115  1  0  0  0
 27116  1  0  0  0
 28117  1  0  0  0
 29118  1  0  0  0
 30119  1  0  0  0
 30120  1  0  0  0
 31121  1  0  0  0
 31122  1  0  0  0
 32123  1  0  0  0
 32124  1  0  0  0
 33125  1  0  0  0
 33126  1  0  0  0
 37127  1  0  0  0
 37128  1  0  0  0
 37129  1  0  0  0
 38130  1  0  0  0
 38131  1  0  0  0
 38132  1  0  0  0
 39133  1  0  0  0
 39134  1  0  0  0
 39135  1  0  0  0
 40136  1  0  0  0
 41137  1  0  0  0
 44138  1  0  0  0
 44139  1  0  0  0
 45140  1  0  0  0
 45141  1  0  0  0
 46142  1  0  0  0
 46143  1  0  0  0
 47144  1  0  0  0
 47145  1  0  0  0
 48146  1  0  0  0
 48147  1  0  0  0
 48148  1  0  0  0
 50149  1  0  0  0
 53150  1  0  0  0
 53151  1  0  0  0
 54152  1  0  0  0
 54153  1  0  0  0
 55154  1  0  0  0
 55155  1  0  0  0
 56156  1  0  0  0
 57157  1  0  0  0
 60158  1  0  0  0
 60159  1  0  0  0
 63160  1  0  0  0
 64161  1  0  0  0
 66162  1  0  0  0
 67163  1  0  0  0
 70164  1  0  0  0
 70165  1  0  0  0
 71166  1  0  0  0
 71167  1  0  0  0
 72168  1  0  0  0
 72169  1  0  0  0
 73170  1  0  0  0
 75171  1  0  0  0
 75172  1  0  0  0
 76173  1  0  0  0
 77174  1  0  0  0
 78175  1  0  0  0
 79176  1  0  0  0
 79177  1  0  0  0
 79178  1  0  0  0
 80179  1  0  0  0
 80180  1  0  0  0
 82181  1  0  0  0
 83182  1  0  0  0
 84183  1  0  0  0
 85184  1  0  0  0
 87185  1  0  0  0
M  END
$$$$
