### 
### Created by X-TOOL on Mon Sep 10 21:13:16 2018
### 

@<TRIPOS>MOLECULE
2m0o_ligand
  187   189     1     0     0
SMALL
GAST_HUCK


@<TRIPOS>ATOM
      1 N         -19.4920   -4.1990  -16.4160 N.4       1 ALA         0.2377
      2 CA        -18.3090   -3.3070  -16.5310 C.3       1 ALA         0.0621
      3 C         -18.4310   -2.1110  -15.5930 C.2       1 ALA         0.2265
      4 O         -19.5070   -1.5170  -15.4730 O.2       1 ALA        -0.3907
      5 CB        -18.1410   -2.8350  -17.9670 C.3       1 ALA        -0.0040
      6 N         -17.3200   -1.7710  -14.9340 N.am      1 THR        -0.2586
      7 CA        -17.2780   -0.6450  -13.9990 C.3       1 THR         0.1566
      8 C         -16.3320    0.4520  -14.5020 C.2       1 THR         0.2063
      9 O         -15.3270    0.1620  -15.1580 O.2       1 THR        -0.3943
     10 CB        -16.8800   -1.0990  -12.5560 C.3       1 THR         0.0924
     11 OG1       -16.8120    0.0330  -11.6770 O.3       1 THR        -0.3874
     12 CG2       -15.5450   -1.8520  -12.5180 C.3       1 THR        -0.0346
     13 N         -16.6720    1.7050  -14.1830 N.am      1 GLY        -0.2663
     14 CA        -15.8620    2.8420  -14.5990 C.3       1 GLY         0.1201
     15 C         -16.2280    4.1110  -13.8550 C.2       1 GLY         0.2005
     16 O         -16.9430    4.9630  -14.3910 O.2       1 GLY        -0.3947
     17 N         -15.7320    4.2280  -12.6200 N.am      1 GLY        -0.2666
     18 CA        -16.0110    5.3990  -11.7980 C.3       1 GLY         0.1201
     19 C         -15.1460    5.4690  -10.5500 C.2       1 GLY         0.2008
     20 O         -14.8330    6.5630  -10.0710 O.2       1 GLY        -0.3947
     21 N         -14.7610    4.2970  -10.0260 N.am      1 VAL        -0.2637
     22 CA        -13.9270    4.2110   -8.8210 C.3       1 VAL         0.1332
     23 C         -12.4280    4.1090   -9.1900 C.2       1 VAL         0.2041
     24 O         -11.9200    4.9670   -9.9180 O.2       1 VAL        -0.3944
     25 CB        -14.3750    3.0380   -7.8860 C.3       1 VAL        -0.0063
     26 CG1       -15.6280    3.4280   -7.1150 C.3       1 VAL        -0.0584
     27 CG2       -14.6110    1.7330   -8.6540 C.3       1 VAL        -0.0584
     28 N         -11.7270    3.0690   -8.6940 N.am      1 M3L        -0.2637
     29 CA        -10.2890    2.8680   -8.9760 C.3       1 M3L         0.1310
     30 CB         -9.6720    1.7930   -8.0580 C.3       1 M3L        -0.0122
     31 CG        -10.6420    0.7350   -7.5600 C.3       1 M3L        -0.0440
     32 CD         -9.9460   -0.2210   -6.6120 C.3       1 M3L        -0.0123
     33 CE        -10.8730   -0.6720   -5.4680 C.3       1 M3L        -0.0309
     34 NZ        -10.7200    0.0840   -4.1500 N.4       1 M3L         0.2369
     35 C         -10.0270    2.5190  -10.4400 C.2       1 M3L         0.2039
     36 O         -10.8130    1.8120  -11.0750 O.2       1 M3L        -0.3944
     37 CM1        -9.3390    0.0390   -3.6070 C.3       1 M3L        -0.0418
     38 CM2       -11.6320   -0.5670   -3.1790 C.3       1 M3L        -0.0418
     39 CM3       -11.0870    1.5150   -4.2830 C.3       1 M3L        -0.0418
     40 N          -8.9040    3.0340  -10.9520 N.am      1 LYS        -0.2637
     41 CA         -8.4970    2.8240  -12.3440 C.3       1 LYS         0.1312
     42 C          -7.0460    2.2750  -12.4240 C.2       1 LYS         0.2064
     43 O          -6.1400    2.9680  -12.9050 O.2       1 LYS        -0.3942
     44 CB         -8.6680    4.1400  -13.1580 C.3       1 LYS        -0.0122
     45 CG         -7.9920    5.3920  -12.5630 C.3       1 LYS        -0.0440
     46 CD         -8.8440    6.0620  -11.4780 C.3       1 LYS        -0.0124
     47 CE         -9.3520    7.4240  -11.9250 C.3       1 LYS        -0.0354
     48 NZ        -10.0810    8.1290  -10.8320 N.4       1 LYS         0.2185
     49 N          -6.8020    1.0120  -11.9450 N.am      1 PRO        -0.2498
     50 CA         -5.4600    0.3720  -11.9610 C.3       1 PRO         0.1338
     51 C          -4.9480    0.0570  -13.3780 C.2       1 PRO         0.2042
     52 O          -5.2650    0.7790  -14.3280 O.2       1 PRO        -0.3944
     53 CB         -5.6810   -0.9240  -11.1490 C.3       1 PRO        -0.0104
     54 CG         -6.9250   -0.6830  -10.3870 C.3       1 PRO        -0.0281
     55 CD         -7.7880    0.1100  -11.3140 C.3       1 PRO         0.0369
     56 N          -4.1510   -1.0260  -13.5040 N.am      1 HIS        -0.2625
     57 CA         -3.5690   -1.4630  -14.7860 C.3       1 HIS         0.1369
     58 C          -4.6490   -1.6820  -15.8660 C.2       1 HIS         0.2054
     59 O          -4.4760   -1.2800  -17.0210 O.2       1 HIS        -0.3942
     60 CB         -2.7260   -2.7440  -14.5530 C.3       1 HIS         0.0145
     61 CG         -3.5090   -4.0240  -14.4690 C.2       1 HIS        -0.0027
     62 ND1        -3.4410   -5.0210  -15.4180 N.2       1 HIS        -0.3252
     63 CD2        -4.3810   -4.4540  -13.5340 C.2       1 HIS         0.0291
     64 CE1        -4.2430   -6.0110  -15.0670 C.2       1 HIS         0.0907
     65 NE2        -4.8250   -5.6910  -13.9260 N.pl3     1 HIS        -0.2752
     66 N          -5.7550   -2.3220  -15.4590 N.am      1 ARG        -0.2636
     67 CA         -6.8890   -2.6120  -16.3410 C.3       1 ARG         0.1310
     68 C          -8.1740   -2.7430  -15.5270 C.2       1 ARG         0.2020
     69 O          -9.2480   -2.3360  -15.9810 O.2       1 ARG        -0.3945
     70 CB         -6.6530   -3.9050  -17.1380 C.3       1 ARG        -0.0092
     71 CG         -6.3080   -3.6680  -18.5990 C.3       1 ARG        -0.0156
     72 CD         -6.3610   -4.9600  -19.4010 C.3       1 ARG         0.0627
     73 NE         -7.5990   -5.0710  -20.1810 N.pl3     1 ARG        -0.2723
     74 CZ         -7.6670   -5.4970  -21.4510 C.cat     1 ARG         0.2882
     75 NH1        -6.5710   -5.8620  -22.1140 N.pl3     1 ARG        -0.2849
     76 NH2        -8.8430   -5.5570  -22.0590 N.pl3     1 ARG        -0.2849
     77 N          -8.0480   -3.3160  -14.3190 N.am      1 TYR        -0.2805
     78 CA         -9.1910   -3.5160  -13.4190 C.3       1 TYR         0.0473
     79 C          -8.7820   -3.2870  -11.9660 C.3       1 TYR        -0.0403
     80 CB         -9.7990   -4.9280  -13.5760 C.3       1 TYR        -0.0014
     81 CG         -8.7890   -6.0460  -13.7950 C.ar      1 TYR        -0.0515
     82 CD1        -8.0480   -6.5660  -12.7380 C.ar      1 TYR        -0.0687
     83 CD2        -8.5840   -6.5800  -15.0620 C.ar      1 TYR        -0.0687
     84 CE1        -7.1310   -7.5810  -12.9400 C.ar      1 TYR        -0.0398
     85 CE2        -7.6710   -7.5950  -15.2700 C.ar      1 TYR        -0.0398
     86 CZ         -6.9480   -8.0920  -14.2080 C.ar      1 TYR         0.0805
     87 OH         -6.0370   -9.1040  -14.4140 O.3       1 TYR        -0.3376
     88 H1        -19.3865   -4.9797  -17.0448 H         1 ALA         0.2015
     89 H2        -20.3252   -3.6848  -16.6557 H         1 ALA         0.2015
     90 H3        -19.5668   -4.5377  -15.4696 H         1 ALA         0.2015
     91 H4        -17.4147   -3.8804  -16.2458 H         1 ALA         0.1095
     92 H5        -17.2625   -2.1766  -18.0361 H         1 ALA         0.0310
     93 H6        -19.0392   -2.2818  -18.2786 H         1 ALA         0.0310
     94 H7        -17.9996   -3.7052  -18.6249 H         1 ALA         0.0310
     95 H8        -16.4876   -2.3043  -15.0845 H         1 THR         0.1885
     96 H9        -18.2906   -0.2185  -13.9468 H         1 THR         0.0826
     97 H10       -17.6637   -1.7783  -12.1893 H         1 THR         0.0639
     98 H11       -16.5696   -0.2581  -10.8058 H         1 THR         0.2101
     99 H12       -15.3185   -2.1448  -11.4821 H         1 THR         0.0257
    100 H13       -14.7450   -1.1995  -12.8978 H         1 THR         0.0257
    101 H14       -15.6136   -2.7520  -13.1467 H         1 THR         0.0257
    102 H15       -17.5008    1.8652  -13.6469 H         1 GLY         0.1881
    103 H16       -16.0114    3.0077  -15.6761 H         1 GLY         0.0763
    104 H17       -14.8037    2.6118  -14.4067 H         1 GLY         0.0763
    105 H18       -15.1574    3.4970  -12.2519 H         1 GLY         0.1881
    106 H19       -17.0669    5.3683  -11.4912 H         1 GLY         0.0763
    107 H20       -15.8303    6.3013  -12.4006 H         1 GLY         0.0763
    108 H21       -15.0524    3.4507  -10.4719 H         1 VAL         0.1883
    109 H22       -14.0644    5.1465   -8.2589 H         1 VAL         0.0802
    110 H23       -13.5670    2.8594   -7.1613 H         1 VAL         0.0343
    111 H24       -15.9312    2.5956   -6.4629 H         1 VAL         0.0234
    112 H25       -16.4391    3.6531   -7.8231 H         1 VAL         0.0234
    113 H26       -15.4193    4.3170   -6.5017 H         1 VAL         0.0234
    114 H27       -13.6990    1.4626   -9.2063 H         1 VAL         0.0234
    115 H28       -15.4416    1.8693   -9.3622 H         1 VAL         0.0234
    116 H29       -14.8617    0.9304   -7.9448 H         1 VAL         0.0234
    117 H30       -12.1987    2.4068   -8.1118 H         1 M3L         0.1883
    118 H31        -9.7795    3.8199   -8.7654 H         1 M3L         0.0800
    119 H32        -9.2416    2.2998   -7.1817 H         1 M3L         0.0312
    120 H33        -8.8724    1.2855   -8.6175 H         1 M3L         0.0312
    121 H34       -11.0344    0.1709   -8.4190 H         1 M3L         0.0269
    122 H35       -11.4734    1.2258   -7.0329 H         1 M3L         0.0269
    123 H36        -9.0679    0.2821   -6.1808 H         1 M3L         0.0317
    124 H37        -9.6205   -1.1073   -7.1763 H         1 M3L         0.0317
    125 H38       -10.6736   -1.7358   -5.2717 H         1 M3L         0.0815
    126 H39       -11.9121   -0.5503   -5.8079 H         1 M3L         0.0815
    127 H40        -9.2983    0.5999   -2.6616 H         1 M3L         0.0778
    128 H41        -8.6452    0.4906   -4.3314 H         1 M3L         0.0778
    129 H42        -9.0502   -1.0068   -3.4255 H         1 M3L         0.0778
    130 H43       -12.6606   -0.5414   -3.5681 H         1 M3L         0.0778
    131 H44       -11.5895   -0.0307   -2.2195 H         1 M3L         0.0778
    132 H45       -11.3227   -1.6119   -3.0291 H         1 M3L         0.0778
    133 H46       -10.4122    2.0012   -5.0029 H         1 M3L         0.0778
    134 H47       -10.9968    2.0092   -3.3044 H         1 M3L         0.0778
    135 H48       -12.1242    1.5959   -4.6404 H         1 M3L         0.0778
    136 H49        -8.3170    3.5859  -10.3597 H         1 LYS         0.1883
    137 H50        -9.1643    2.0677  -12.7830 H         1 LYS         0.0800
    138 H51        -9.7451    4.3466  -13.2426 H         1 LYS         0.0312
    139 H52        -8.2466    3.9736  -14.1604 H         1 LYS         0.0312
    140 H53        -7.8181    6.1167  -13.3720 H         1 LYS         0.0269
    141 H54        -7.0286    5.0964  -12.1220 H         1 LYS         0.0269
    142 H55        -8.2329    6.1889  -10.5722 H         1 LYS         0.0317
    143 H56        -9.7055    5.4166  -11.2517 H         1 LYS         0.0317
    144 H57       -10.0338    7.2876  -12.7774 H         1 LYS         0.0813
    145 H58        -8.4948    8.0393  -12.2358 H         1 LYS         0.0813
    146 H59       -10.4013    9.0248  -11.1651 H         1 LYS         0.1994
    147 H60        -9.4622    8.2639  -10.0479 H         1 LYS         0.1994
    148 H61       -10.8724    7.5750  -10.5441 H         1 LYS         0.1994
    149 H62        -4.7263    1.0211  -11.4607 H         1 PRO         0.0802
    150 H63        -4.8369   -1.1028  -10.4667 H         1 PRO         0.0313
    151 H64        -5.7988   -1.7871  -11.8207 H         1 PRO         0.0313
    152 H65        -6.7143   -0.1132   -9.4700 H         1 PRO         0.0287
    153 H66        -7.4098   -1.6348  -10.1241 H         1 PRO         0.0287
    154 H67        -8.2748   -0.5360  -12.0594 H         1 PRO         0.0524
    155 H68        -8.5538    0.6758  -10.7631 H         1 PRO         0.0524
    156 H69        -3.9447   -1.5599  -12.6840 H         1 HIS         0.1885
    157 H70        -2.8961   -0.6699  -15.1439 H         1 HIS         0.0817
    158 H71        -2.1749   -2.6207  -13.6090 H         1 HIS         0.0420
    159 H72        -2.0123   -2.8367  -15.3849 H         1 HIS         0.0420
    160 H73        -4.6777   -3.9178  -12.6338 H         1 HIS         0.0729
    161 H74        -4.3975   -6.9338  -15.6242 H         1 HIS         0.1199
    162 H75        -5.5017   -6.2748  -13.4140 H         1 HIS         0.2361
    163 H76        -5.8087   -2.6164  -14.5048 H         1 ARG         0.1883
    164 H77        -7.0018   -1.7781  -17.0494 H         1 ARG         0.0800
    165 H78        -7.5682   -4.5134  -17.0917 H         1 ARG         0.0313
    166 H79        -5.8231   -4.4548  -16.6701 H         1 ARG         0.0313
    167 H80        -5.2930   -3.2489  -18.6632 H         1 ARG         0.0301
    168 H81        -7.0275   -2.9532  -19.0248 H         1 ARG         0.0301
    169 H82        -6.3005   -5.8116  -18.7074 H         1 ARG         0.0689
    170 H83        -5.5036   -4.9863  -20.0896 H         1 ARG         0.0689
    171 H84        -8.4798   -4.8022  -19.7197 H         1 ARG         0.2642
    172 H85        -6.6430   -6.1865  -23.0889 H         1 ARG         0.2615
    173 H86        -5.6515   -5.8197  -21.6518 H         1 ARG         0.2615
    174 H87        -9.6975   -5.2773  -21.5564 H         1 ARG         0.2615
    175 H88        -8.9026   -5.8833  -23.0341 H         1 ARG         0.2615
    176 H89        -7.1422   -3.6177  -14.0213 H         1 TYR         0.1856
    177 H90        -9.9637   -2.7785  -13.6817 H         1 TYR         0.0573
    178 H91        -9.6523   -3.4420  -11.3114 H         1 TYR         0.0253
    179 H92        -8.4123   -2.2578  -11.8469 H         1 TYR         0.0253
    180 H93        -7.9868   -3.9962  -11.6928 H         1 TYR         0.0253
    181 H94       -10.4810   -4.9112  -14.4389 H         1 TYR         0.0427
    182 H95       -10.3682   -5.1572  -12.6631 H         1 TYR         0.0427
    183 H96        -8.1921   -6.1687  -11.7398 H         1 TYR         0.0530
    184 H97        -9.1506   -6.1930  -15.9012 H         1 TYR         0.0530
    185 H98        -6.5592   -7.9729  -12.1066 H         1 TYR         0.0525
    186 H99        -7.5239   -7.9990  -16.2651 H         1 TYR         0.0525
    187 H100       -5.6258   -9.3313  -13.5884 H         1 TYR         0.2458
@<TRIPOS>BOND
     1    1    2 1  
     2    2    3 1  
     3    2    5 1  
     4    3    4 2  
     5    3    6 am 
     6    6    7 1  
     7    7    8 1  
     8    7   10 1  
     9    8    9 2  
    10    8   13 am 
    11   10   11 1  
    12   10   12 1  
    13   13   14 1  
    14   14   15 1  
    15   15   16 2  
    16   15   17 am 
    17   17   18 1  
    18   18   19 1  
    19   19   20 2  
    20   19   21 am 
    21   21   22 1  
    22   22   23 1  
    23   22   25 1  
    24   23   24 2  
    25   23   28 am 
    26   25   26 1  
    27   25   27 1  
    28   28   29 1  
    29   29   30 1  
    30   29   35 1  
    31   30   31 1  
    32   31   32 1  
    33   32   33 1  
    34   33   34 1  
    35   34   37 1  
    36   34   38 1  
    37   34   39 1  
    38   35   36 2  
    39   35   40 am 
    40   40   41 1  
    41   41   42 1  
    42   41   44 1  
    43   42   43 2  
    44   42   49 am 
    45   44   45 1  
    46   45   46 1  
    47   46   47 1  
    48   47   48 1  
    49   49   50 1  
    50   49   55 1  
    51   50   51 1  
    52   50   53 1  
    53   51   52 2  
    54   51   56 am 
    55   53   54 1  
    56   54   55 1  
    57   56   57 1  
    58   57   58 1  
    59   57   60 1  
    60   58   59 2  
    61   58   66 am 
    62   60   61 1  
    63   61   62 1  
    64   61   63 2  
    65   62   64 2  
    66   63   65 1  
    67   64   65 1  
    68   66   67 1  
    69   67   68 1  
    70   67   70 1  
    71   68   69 2  
    72   68   77 am 
    73   70   71 1  
    74   71   72 1  
    75   72   73 1  
    76   73   74 ar 
    77   74   75 ar 
    78   74   76 ar 
    79   77   78 1  
    80   78   79 1  
    81   78   80 1  
    82   80   81 1  
    83   81   82 ar 
    84   81   83 ar 
    85   82   84 ar 
    86   83   85 ar 
    87   84   86 ar 
    88   85   86 ar 
    89   86   87 1  
    90    1   88 1  
    91    1   89 1  
    92    1   90 1  
    93    2   91 1  
    94    5   92 1  
    95    5   93 1  
    96    5   94 1  
    97    6   95 1  
    98    7   96 1  
    99   10   97 1  
   100   11   98 1  
   101   12   99 1  
   102   12  100 1  
   103   12  101 1  
   104   13  102 1  
   105   14  103 1  
   106   14  104 1  
   107   17  105 1  
   108   18  106 1  
   109   18  107 1  
   110   21  108 1  
   111   22  109 1  
   112   25  110 1  
   113   26  111 1  
   114   26  112 1  
   115   26  113 1  
   116   27  114 1  
   117   27  115 1  
   118   27  116 1  
   119   28  117 1  
   120   29  118 1  
   121   30  119 1  
   122   30  120 1  
   123   31  121 1  
   124   31  122 1  
   125   32  123 1  
   126   32  124 1  
   127   33  125 1  
   128   33  126 1  
   129   37  127 1  
   130   37  128 1  
   131   37  129 1  
   132   38  130 1  
   133   38  131 1  
   134   38  132 1  
   135   39  133 1  
   136   39  134 1  
   137   39  135 1  
   138   40  136 1  
   139   41  137 1  
   140   44  138 1  
   141   44  139 1  
   142   45  140 1  
   143   45  141 1  
   144   46  142 1  
   145   46  143 1  
   146   47  144 1  
   147   47  145 1  
   148   48  146 1  
   149   48  147 1  
   150   48  148 1  
   151   50  149 1  
   152   53  150 1  
   153   53  151 1  
   154   54  152 1  
   155   54  153 1  
   156   55  154 1  
   157   55  155 1  
   158   56  156 1  
   159   57  157 1  
   160   60  158 1  
   161   60  159 1  
   162   63  160 1  
   163   64  161 1  
   164   65  162 1  
   165   66  163 1  
   166   67  164 1  
   167   70  165 1  
   168   70  166 1  
   169   71  167 1  
   170   71  168 1  
   171   72  169 1  
   172   72  170 1  
   173   73  171 1  
   174   75  172 1  
   175   75  173 1  
   176   76  174 1  
   177   76  175 1  
   178   77  176 1  
   179   78  177 1  
   180   79  178 1  
   181   79  179 1  
   182   79  180 1  
   183   80  181 1  
   184   80  182 1  
   185   82  183 1  
   186   83  184 1  
   187   84  185 1  
   188   85  186 1  
   189   87  187 1  
@<TRIPOS>SUBSTRUCTURE
     1 ALA         1

