4b6r_ligand
  -I-interpret- 

 40 41  0  0  0  0  0  0  0  0999 V2000
   26.1420   50.1600  -20.2620 C   0  0  0  0  0
   25.3160   49.1700  -19.6400 O   0  0  0  0  0
   25.0340   49.2360  -18.3020 C   0  0  0  0  0
   23.7080   49.2950  -17.8410 C   0  0  0  0  0
   23.4680   49.3630  -16.4530 C   0  0  0  0  0
   26.0880   49.2200  -17.3900 C   0  0  0  0  0
   25.8340   49.2860  -16.0150 C   0  0  0  0  0
   24.5310   49.3520  -15.5140 C   0  0  0  0  0
   24.2990   49.4680  -13.9890 C   0  0  0  0  0
   22.9370   47.6050  -13.7110 C   0  0  0  0  0
   23.0160   46.7760  -14.6130 O   0  0  0  0  0
   21.6200   48.1050  -13.1510 C   0  0  0  0  0
   24.2040   48.1720  -13.1770 C   0  0  0  0  0
   20.5140   47.3330  -13.6510 O   0  0  0  0  0
   21.6370   48.1590  -11.6190 C   0  0  0  0  0
   20.4340   48.7910  -11.2420 O   0  0  0  0  0
   22.8490   48.9920  -11.0860 C   0  0  0  0  0
   24.1600   48.3560  -11.6340 C   0  0  0  0  0
   25.3900   49.1260  -11.1960 C   0  0  0  0  0
   25.2810   50.2850  -10.7250 O   0  0  0  0  0
   26.4720   48.5440  -11.3410 O   0  0  0  0  0
   24.2750   47.1250  -10.9260 O   0  0  0  0  0
   25.6823   51.1412  -20.1439 H   0  0  0  0  0
   27.1252   50.1589  -19.7914 H   0  0  0  0  0
   26.2452   49.9310  -21.3227 H   0  0  0  0  0
   22.8768   49.2883  -18.5461 H   0  0  0  0  0
   22.4410   49.4255  -16.0932 H   0  0  0  0  0
   27.1151   49.1558  -17.7493 H   0  0  0  0  0
   26.6724   49.2859  -15.3185 H   0  0  0  0  0
   23.3277   49.9504  -13.8795 H   0  0  0  0  0
   25.1744   49.9892  -13.6015 H   0  0  0  0  0
   21.4833   49.1290  -13.4988 H   0  0  0  0  0
   25.0871   47.5429  -13.2888 H   0  0  0  0  0
   19.6956   47.6714  -13.2805 H   0  0  0  0  0
   21.7318   47.1557  -11.2038 H   0  0  0  0  0
   20.3920   48.8517  -10.2848 H   0  0  0  0  0
   22.8572   48.9837   -9.9961 H   0  0  0  0  0
   22.7674   50.0261  -11.4208 H   0  0  0  0  0
   24.3543   50.5348  -10.7039 H   0  0  0  0  0
   24.2421   47.2959   -9.9819 H   0  0  0  0  0
  2  1  1  0  0  0
  3  2  1  0  0  0
  4  3  4  0  0  0
  6  3  4  0  0  0
  5  4  4  0  0  0
  8  5  4  0  0  0
  7  6  4  0  0  0
  8  7  4  0  0  0
  9  8  1  0  0  0
 13  9  1  0  0  0
 10 11  2  0  0  0
 10 12  1  0  0  0
 10 13  1  0  0  0
 12 14  1  0  0  0
 12 15  1  0  0  0
 13 18  1  0  0  0
 15 16  1  0  0  0
 15 17  1  0  0  0
 17 18  1  0  0  0
 18 19  1  0  0  0
 18 22  1  0  0  0
 19 20  1  0  0  0
 19 21  2  0  0  0
  1 23  1  0  0  0
  1 24  1  0  0  0
  1 25  1  0  0  0
  4 26  1  0  0  0
  5 27  1  0  0  0
  6 28  1  0  0  0
  7 29  1  0  0  0
  9 30  1  0  0  0
  9 31  1  0  0  0
 12 32  1  0  0  0
 13 33  1  0  0  0
 14 34  1  0  0  0
 15 35  1  0  0  0
 16 36  1  0  0  0
 17 37  1  0  0  0
 17 38  1  0  0  0
 20 39  1  0  0  0
 22 40  1  0  0  0
M  END
$$$$
