3k3i_ligand
  -I-interpret- 

 38 41  0  0  0  0  0  0  0  0999 V2000
    2.1460    3.7520  -17.7100 N   0  3  0  0  0
   -0.0120    2.8810  -15.1770 N   0  0  0  0  0
    1.1940    3.3600  -15.5430 C   0  0  0  0  0
    3.9100    2.1980  -18.5350 C   0  0  0  0  0
    4.2510    1.9190  -17.2070 C   0  0  0  0  0
    4.7380    1.7160  -19.5770 C   0  0  0  0  0
    5.3770    1.1660  -16.8800 C   0  0  0  0  0
    6.1810    0.6800  -17.9170 C   0  0  0  0  0
   -1.7960    3.5100  -13.4710 C   0  0  0  0  0
   -2.4340    4.5810  -12.8230 C   0  0  0  0  0
   -3.6500    4.3380  -12.1570 C   0  0  0  0  0
   -5.7690    2.7530  -11.1620 Br  0  0  0  0  0
   -4.1530    3.0400  -12.1540 C   0  0  0  0  0
   -2.3050    2.2070  -13.4210 C   0  0  0  0  0
   -3.4990    1.9650  -12.7420 C   0  0  0  0  0
   -0.4950    3.7000  -14.1860 C   0  0  0  0  0
    1.5330    4.4310  -14.7550 N   0  0  0  0  0
    0.4810    4.6520  -13.9060 C   0  0  0  0  0
    2.0090    2.7610  -16.6070 C   0  0  0  0  0
    2.6820    3.0200  -18.9030 C   0  0  0  0  0
    3.3840    2.4170  -16.0520 C   0  0  0  0  0
    5.8470    0.9450  -19.2370 C   0  0  0  0  0
    2.7776    4.5054  -17.4384 H   0  0  0  0  0
    1.2434    4.1756  -17.9253 H   0  0  0  0  0
    4.5133    1.9425  -20.6193 H   0  0  0  0  0
    5.6261    0.9600  -15.8390 H   0  0  0  0  0
    7.0702    0.0929  -17.6874 H   0  0  0  0  0
   -1.9964    5.5792  -12.8357 H   0  0  0  0  0
   -4.1842    5.1456  -11.6564 H   0  0  0  0  0
   -1.7734    1.3895  -13.9080 H   0  0  0  0  0
   -3.9087    0.9572  -12.6745 H   0  0  0  0  0
    0.4193    5.4327  -13.1478 H   0  0  0  0  0
    1.5371    1.8523  -16.9808 H   0  0  0  0  0
    2.9649    3.7495  -19.6619 H   0  0  0  0  0
    1.9099    2.3465  -19.2751 H   0  0  0  0  0
    3.8360    3.2976  -15.5955 H   0  0  0  0  0
    3.2980    1.6454  -15.2869 H   0  0  0  0  0
    6.4713    0.5375  -20.0322 H   0  0  0  0  0
 19  1  1  0  0  0
  1 20  1  0  0  0
  2  3  4  0  0  0
 16  2  4  0  0  0
  3 17  4  0  0  0
  3 19  1  0  0  0
  4  5  4  0  0  0
  4  6  4  0  0  0
 20  4  1  0  0  0
  5  7  4  0  0  0
  5 21  1  0  0  0
  6 22  4  0  0  0
  7  8  4  0  0  0
 22  8  4  0  0  0
  9 10  4  0  0  0
  9 14  4  0  0  0
  9 16  1  0  0  0
 10 11  4  0  0  0
 11 13  4  0  0  0
 13 12  1  0  0  0
 13 15  4  0  0  0
 14 15  4  0  0  0
 16 18  4  0  0  0
 17 18  4  0  0  0
 19 21  1  0  0  0
  1 23  1  0  0  0
  1 24  1  0  0  0
  6 25  1  0  0  0
  7 26  1  0  0  0
  8 27  1  0  0  0
 10 28  1  0  0  0
 11 29  1  0  0  0
 14 30  1  0  0  0
 15 31  1  0  0  0
 18 32  1  0  0  0
 19 33  1  0  0  0
 20 34  1  0  0  0
 20 35  1  0  0  0
 21 36  1  0  0  0
 21 37  1  0  0  0
 22 38  1  0  0  0
M  END
$$$$
