5l2m_ligand
  -I-interpret- 

 52 55  0  0  0  0  0  0  0  0999 V2000
   33.5360  -16.0740   15.4040 C   0  0  0  0  0
   31.6990  -16.4000   13.8920 C   0  0  0  0  0
   32.4630  -17.3990   13.0640 C   0  0  0  0  0
   30.5520  -17.5980   11.6590 C   0  0  0  0  0
   29.5590  -17.9640   10.6110 C   0  0  0  0  0
   28.3330  -17.1770   10.9180 C   0  0  0  0  0
   29.8050  -16.6230   12.4830 C   0  0  0  0  0
   30.3930  -16.0350   13.5810 C   0  0  0  0  0
   38.6770  -17.4190   13.7850 O   0  0  0  0  0
   38.1760  -16.8240   14.7230 C   0  0  0  0  0
   38.8280  -16.5930   15.8620 N   0  0  0  0  0
   40.1690  -17.0980   16.0880 C   0  0  0  0  0
   40.9830  -15.8510   15.7930 C   0  0  0  0  0
   40.6690  -14.7420   16.8140 C   0  0  0  0  0
   39.1740  -14.4690   16.8980 C   0  0  0  0  0
   38.3480  -15.7540   16.9790 C   0  0  0  0  0
   36.7660  -16.3130   14.5460 C   0  0  0  0  0
   35.8060  -17.3170   15.1820 C   0  0  0  0  0
   34.4030  -17.0460   14.6730 C   0  0  0  0  0
   33.9620  -15.4870   16.4140 O   0  0  0  0  0
   32.2610  -15.8060   14.9790 O   0  0  0  0  0
   33.8620  -17.7350   13.4750 C   0  0  0  0  0
   34.7250  -18.7420   12.7250 C   0  0  0  0  0
   31.8510  -17.9710   11.9530 C   0  0  0  0  0
   29.9200  -18.9630    9.5440 C   0  0  0  0  0
   26.9960  -17.0920   10.2310 C   0  0  0  0  0
   28.5840  -16.3960   12.0290 O   0  0  0  0  0
   29.8527  -15.3074   14.1866 H   0  0  0  0  0
   40.4319  -17.9593   15.4739 H   0  0  0  0  0
   40.3293  -17.5115   17.0837 H   0  0  0  0  0
   40.7301  -15.4930   14.7950 H   0  0  0  0  0
   42.0426  -16.0987   15.8564 H   0  0  0  0  0
   41.1698  -13.8276   16.4959 H   0  0  0  0  0
   41.0165  -15.0668   17.7947 H   0  0  0  0  0
   38.8782  -13.9352   15.9949 H   0  0  0  0  0
   38.9878  -13.8916   17.8036 H   0  0  0  0  0
   38.4733  -16.2531   17.9399 H   0  0  0  0  0
   37.2799  -15.5515   16.9001 H   0  0  0  0  0
   36.5401  -16.2011   13.4855 H   0  0  0  0  0
   36.6591  -15.3397   15.0249 H   0  0  0  0  0
   35.8306  -17.2139   16.2668 H   0  0  0  0  0
   36.1046  -18.3312   14.9167 H   0  0  0  0  0
   35.6263  -18.2475   12.3627 H   0  0  0  0  0
   35.0001  -19.5547   13.3973 H   0  0  0  0  0
   34.1638  -19.1417   11.8804 H   0  0  0  0  0
   32.3806  -18.6931   11.3316 H   0  0  0  0  0
   30.7759  -18.5950    8.9782 H   0  0  0  0  0
   30.1732  -19.9151   10.0103 H   0  0  0  0  0
   29.0713  -19.0995    8.8738 H   0  0  0  0  0
   27.1361  -16.7424    9.2081 H   0  0  0  0  0
   26.5318  -18.0781   10.2189 H   0  0  0  0  0
   26.3555  -16.3941   10.7703 H   0  0  0  0  0
 19  1  1  0  0  0
  1 20  2  0  0  0
  1 21  1  0  0  0
  2  3  4  0  0  0
  2  8  4  0  0  0
 21  2  1  0  0  0
  3 22  1  0  0  0
  3 24  4  0  0  0
  4  5  4  0  0  0
  7  4  4  0  0  0
 24  4  4  0  0  0
  6  5  4  0  0  0
  5 25  1  0  0  0
  6 26  1  0  0  0
 27  6  4  0  0  0
  8  7  4  0  0  0
  7 27  4  0  0  0
 10  9  2  0  0  0
 10 11  1  0  0  0
 17 10  1  0  0  0
 11 12  1  0  0  0
 11 16  1  0  0  0
 12 13  1  0  0  0
 13 14  1  0  0  0
 15 14  1  0  0  0
 16 15  1  0  0  0
 18 17  1  0  0  0
 18 19  1  0  0  0
 19 22  2  0  0  0
 22 23  1  0  0  0
  8 28  1  0  0  0
 12 29  1  0  0  0
 12 30  1  0  0  0
 13 31  1  0  0  0
 13 32  1  0  0  0
 14 33  1  0  0  0
 14 34  1  0  0  0
 15 35  1  0  0  0
 15 36  1  0  0  0
 16 37  1  0  0  0
 16 38  1  0  0  0
 17 39  1  0  0  0
 17 40  1  0  0  0
 18 41  1  0  0  0
 18 42  1  0  0  0
 23 43  1  0  0  0
 23 44  1  0  0  0
 23 45  1  0  0  0
 24 46  1  0  0  0
 25 47  1  0  0  0
 25 48  1  0  0  0
 25 49  1  0  0  0
 26 50  1  0  0  0
 26 51  1  0  0  0
 26 52  1  0  0  0
M  END
$$$$
