3o0g_ligand
  -I-interpret- 

 36 38  0  0  0  0  0  0  0  0999 V2000
   -3.5840   67.0120   61.6530 Cl  0  0  0  0  0
   -7.4780   58.5100   57.2400 N   0  0  0  0  0
   -6.8320   59.0240   63.8580 C   0  0  0  0  0
   -6.9870   59.0860   62.4710 C   0  0  0  0  0
   -6.8760   57.9330   61.7000 C   0  0  0  0  0
   -7.0430   57.9580   60.1840 C   0  0  0  0  0
   -6.6390   59.2000   59.3770 C   0  0  0  0  0
   -6.8670   59.4110   58.0110 C   0  0  0  0  0
   -6.4290   60.6020   57.5390 N   0  0  0  0  0
   -4.2940   64.6470   58.5180 C   0  0  0  0  0
   -3.8620   65.7040   59.3170 C   0  0  0  0  0
   -4.1280   65.6850   60.6830 C   0  0  0  0  0
   -6.5660   57.8000   64.4760 C   0  0  0  0  0
   -6.4640   56.6470   63.6980 C   0  0  0  0  0
   -6.6230   56.7170   62.3190 C   0  0  0  0  0
   -7.5210   56.9810   59.6180 O   0  0  0  0  0
   -5.8600   60.5720   59.9820 S   0  0  0  0  0
   -5.8480   61.3800   58.4740 C   0  0  0  0  0
   -5.3510   62.5970   58.2040 N   0  0  0  0  0
   -4.9830   63.5610   59.0640 C   0  0  0  0  0
   -5.2440   63.5410   60.4430 C   0  0  0  0  0
   -4.8180   64.6030   61.2520 C   0  0  0  0  0
   -5.9380   55.3250   65.6300 O   0  0  0  0  0
   -6.2240   55.4630   64.2350 N   0  0  0  0  0
   -6.2770   54.3090   63.4020 O   0  0  0  0  0
   -7.7984   57.6287   57.6414 H   0  0  0  0  0
   -7.6248   58.7024   56.2491 H   0  0  0  0  0
   -6.9186   59.9302   64.4575 H   0  0  0  0  0
   -7.1958   60.0419   61.9906 H   0  0  0  0  0
   -4.0906   64.6679   57.4473 H   0  0  0  0  0
   -3.3195   66.5398   58.8751 H   0  0  0  0  0
   -6.4392   57.7464   65.5573 H   0  0  0  0  0
   -6.5484   55.8099   61.7192 H   0  0  0  0  0
   -5.2377   62.8194   57.2150 H   0  0  0  0  0
   -5.7780   62.6996   60.8846 H   0  0  0  0  0
   -5.0223   64.5889   62.3226 H   0  0  0  0  0
 12  1  1  0  0  0
  8  2  1  0  0  0
  4  3  4  0  0  0
  3 13  4  0  0  0
  5  4  4  0  0  0
  6  5  1  0  0  0
  5 15  4  0  0  0
  7  6  1  0  0  0
  6 16  2  0  0  0
  7  8  4  0  0  0
 17  7  4  0  0  0
  9  8  4  0  0  0
 18  9  4  0  0  0
 10 11  4  0  0  0
 20 10  4  0  0  0
 11 12  4  0  0  0
 12 22  4  0  0  0
 14 13  4  0  0  0
 15 14  4  0  0  0
 14 24  1  0  0  0
 18 17  4  0  0  0
 19 18  1  0  0  0
 19 20  1  0  0  0
 20 21  4  0  0  0
 21 22  4  0  0  0
 24 23  2  0  0  0
 24 25  2  0  0  0
  2 26  1  0  0  0
  2 27  1  0  0  0
  3 28  1  0  0  0
  4 29  1  0  0  0
 10 30  1  0  0  0
 11 31  1  0  0  0
 13 32  1  0  0  0
 15 33  1  0  0  0
 19 34  1  0  0  0
 21 35  1  0  0  0
 22 36  1  0  0  0
M  END
$$$$
