6ggg_ligand
  -I-interpret- 

 59 62  0  0  0  0  0  0  0  0999 V2000
  -29.2690    0.6380    7.5720 C   0  0  0  0  0
  -30.3690    0.7290    6.5700 C   0  0  0  0  0
  -31.4300   -0.3010    6.9350 C   0  0  0  0  0
  -28.7160    4.5170    4.7300 C   0  0  0  0  0
  -28.4110    5.4040    5.7570 C   0  0  0  0  0
  -28.8900    5.2030    7.0370 C   0  0  0  0  0
  -29.7170    4.1280    7.2790 C   0  0  0  0  0
  -26.9740    6.6130    4.2810 C   0  0  0  0  0
  -27.8980    6.1810    3.1430 C   0  0  0  0  0
  -27.3140    2.4610    2.9500 C   0  0  0  0  0
  -26.6250    2.2470    4.1360 C   0  0  0  0  0
  -26.1530    0.9900    4.4920 C   0  0  0  0  0
  -26.3380   -0.0580    3.6030 C   0  0  0  0  0
  -27.5080    1.4050    2.0700 C   0  0  0  0  0
  -27.1780   -0.8990    1.5010 N   0  0  0  0  0
  -29.1130    7.1080    3.0900 C   0  0  0  0  0
  -29.9720    7.0970    1.8600 C   0  0  0  0  0
  -30.5690    5.9580   -0.2070 C   0  0  0  0  0
  -30.9980    2.1070    6.5510 C   0  0  0  0  0
  -30.0560    3.2420    6.2630 C   0  0  0  0  0
  -29.5590    3.4470    4.9880 C   0  0  0  0  0
  -30.2120    3.9830    8.5270 F   0  0  0  0  0
  -27.5940    6.5280    5.5820 O   0  0  0  0  0
  -28.2130    4.7750    3.4220 N   0  0  0  0  0
  -27.7920    3.8120    2.5010 C   0  0  0  0  0
  -27.7400    4.0420    1.2860 O   0  0  0  0  0
  -27.0120    0.1610    2.4170 C   0  0  0  0  0
  -26.8930   -2.1960    1.8600 C   0  0  0  0  0
  -26.9570   -3.1320    1.0700 O   0  0  0  0  0
  -26.5960   -2.3810    3.3320 C   0  0  0  0  0
  -25.8130   -1.3210    3.9300 O   0  0  0  0  0
  -30.8350    7.9480    1.7150 O   0  0  0  0  0
  -29.7350    6.0820    0.9690 N   0  0  0  0  0
  -28.4951    1.3654    7.3271 H   0  0  0  0  0
  -29.6657    0.8481    8.5653 H   0  0  0  0  0
  -28.8447   -0.3659    7.5537 H   0  0  0  0  0
  -29.9569    0.5391    5.5789 H   0  0  0  0  0
  -31.8354   -0.0697    7.9200 H   0  0  0  0  0
  -32.2305   -0.2738    6.1957 H   0  0  0  0  0
  -30.9807   -1.2940    6.9496 H   0  0  0  0  0
  -28.6179    5.8844    7.8431 H   0  0  0  0  0
  -26.7062    7.6558    4.1107 H   0  0  0  0  0
  -26.1146    5.9425    4.2807 H   0  0  0  0  0
  -27.4522    6.2572    2.1512 H   0  0  0  0  0
  -26.4496    3.0884    4.8063 H   0  0  0  0  0
  -25.6500    0.8315    5.4459 H   0  0  0  0  0
  -28.0380    1.5523    1.1290 H   0  0  0  0  0
  -27.5143   -0.7008    0.5587 H   0  0  0  0  0
  -28.7031    8.1167    3.1411 H   0  0  0  0  0
  -29.7649    6.7681    3.8947 H   0  0  0  0  0
  -31.6054    5.8125    0.0978 H   0  0  0  0  0
  -30.4889    6.8658   -0.8050 H   0  0  0  0  0
  -30.2388    5.1027   -0.7965 H   0  0  0  0  0
  -31.3977    2.2803    7.5501 H   0  0  0  0  0
  -31.7341    2.1020    5.7471 H   0  0  0  0  0
  -29.8314    2.7644    4.1831 H   0  0  0  0  0
  -26.0125   -3.2970    3.4248 H   0  0  0  0  0
  -27.5553   -2.3967    3.8492 H   0  0  0  0  0
  -28.9770    5.4197    1.1338 H   0  0  0  0  0
  2  1  1  0  0  0
  2  3  1  0  0  0
 19  2  1  0  0  0
  4  5  4  0  0  0
  4 21  4  0  0  0
 24  4  1  0  0  0
  5  6  4  0  0  0
  5 23  1  0  0  0
  6  7  4  0  0  0
 20  7  4  0  0  0
  7 22  1  0  0  0
  9  8  1  0  0  0
  8 23  1  0  0  0
  9 16  1  0  0  0
 24  9  1  0  0  0
 10 11  4  0  0  0
 10 14  4  0  0  0
 25 10  1  0  0  0
 11 12  4  0  0  0
 12 13  4  0  0  0
 27 13  4  0  0  0
 13 31  1  0  0  0
 14 27  4  0  0  0
 27 15  1  0  0  0
 15 28  1  0  0  0
 16 17  1  0  0  0
 17 32  2  0  0  0
 17 33  1  0  0  0
 33 18  1  0  0  0
 20 19  1  0  0  0
 21 20  4  0  0  0
 24 25  1  0  0  0
 25 26  2  0  0  0
 28 29  2  0  0  0
 28 30  1  0  0  0
 30 31  1  0  0  0
  1 34  1  0  0  0
  1 35  1  0  0  0
  1 36  1  0  0  0
  2 37  1  0  0  0
  3 38  1  0  0  0
  3 39  1  0  0  0
  3 40  1  0  0  0
  6 41  1  0  0  0
  8 42  1  0  0  0
  8 43  1  0  0  0
  9 44  1  0  0  0
 11 45  1  0  0  0
 12 46  1  0  0  0
 14 47  1  0  0  0
 15 48  1  0  0  0
 16 49  1  0  0  0
 16 50  1  0  0  0
 18 51  1  0  0  0
 18 52  1  0  0  0
 18 53  1  0  0  0
 19 54  1  0  0  0
 19 55  1  0  0  0
 21 56  1  0  0  0
 30 57  1  0  0  0
 30 58  1  0  0  0
 33 59  1  0  0  0
M  END
$$$$
