3ie3_ligand
  -I-interpret- 

 35 36  0  0  0  0  0  0  0  0999 V2000
    1.6910    5.4340   32.3440 O   0  0  0  0  0
    2.0640    4.2940   31.5600 C   0  0  0  0  0
    3.5340    3.9620   31.8000 C   0  0  0  0  0
    4.2550    3.6830   30.4850 C   0  0  0  0  0
    5.6860    3.2160   30.7300 C   0  0  0  0  0
    6.1090    2.1530   29.7210 C   0  0  0  0  0
    7.0730    2.7230   28.6840 C   0  0  0  0  0
    7.0010    1.7510   27.2140 S   0  0  0  0  0
    7.6530    2.6200   25.9120 C   0  0  0  0  0
    6.8460    3.6610   25.2130 C   0  0  0  0  0
    5.5910    4.1260   25.3930 N   0  0  0  0  0
    5.4430    5.1250   24.3820 O   0  0  0  0  0
    6.6040    5.2890   23.5670 N   0  0  0  0  0
    7.4780    4.3920   24.0700 C   0  0  0  0  0
    8.9520    2.3480   25.4850 C   0  0  0  0  0
    9.5360    3.0270   24.4090 C   0  0  0  0  0
    8.8720    4.0290   23.6960 C   0  0  0  0  0
    9.4990    4.6910   22.6320 N   0  0  0  0  0
    8.7810    5.5900   21.8500 O   0  0  0  0  0
   10.8430    4.4710   22.3510 O   0  0  0  0  0
    0.7659    5.6385   32.1894 H   0  0  0  0  0
    1.9121    4.5169   30.5039 H   0  0  0  0  0
    1.4496    3.4410   31.8483 H   0  0  0  0  0
    3.5931    3.0718   32.4262 H   0  0  0  0  0
    4.0097    4.8144   32.2849 H   0  0  0  0  0
    4.2841    4.6033   29.9017 H   0  0  0  0  0
    3.7184    2.8971   29.9535 H   0  0  0  0  0
    5.7415    2.7843   31.7293 H   0  0  0  0  0
    6.3510    4.0735   30.6267 H   0  0  0  0  0
    5.2194    1.7914   29.2052 H   0  0  0  0  0
    6.6124    1.3480   30.2564 H   0  0  0  0  0
    8.0874    2.7033   29.0824 H   0  0  0  0  0
    6.7916    3.7505   28.4535 H   0  0  0  0  0
    9.5302    1.5838   26.0045 H   0  0  0  0  0
   10.5518    2.7630   24.1148 H   0  0  0  0  0
  1  2  1  0  0  0
  2  3  1  0  0  0
  3  4  1  0  0  0
  4  5  1  0  0  0
  5  6  1  0  0  0
  6  7  1  0  0  0
  7  8  1  0  0  0
  8  9  1  0  0  0
  9 10  4  0  0  0
  9 15  4  0  0  0
 10 11  4  0  0  0
 10 14  4  0  0  0
 11 12  4  0  0  0
 12 13  4  0  0  0
 13 14  4  0  0  0
 14 17  4  0  0  0
 15 16  4  0  0  0
 16 17  4  0  0  0
 17 18  1  0  0  0
 18 19  2  0  0  0
 18 20  2  0  0  0
  1 21  1  0  0  0
  2 22  1  0  0  0
  2 23  1  0  0  0
  3 24  1  0  0  0
  3 25  1  0  0  0
  4 26  1  0  0  0
  4 27  1  0  0  0
  5 28  1  0  0  0
  5 29  1  0  0  0
  6 30  1  0  0  0
  6 31  1  0  0  0
  7 32  1  0  0  0
  7 33  1  0  0  0
 15 34  1  0  0  0
 16 35  1  0  0  0
M  END
$$$$
