5c8k_ligand
  -I-interpret- 

 56 60  0  0  0  0  0  0  0  0999 V2000
  -51.5420   -2.3570  -28.0720 C   0  0  0  0  0
  -52.8370   -1.6180  -27.7150 C   0  0  0  0  0
  -56.1550    0.4280  -26.5290 C   0  0  0  0  0
  -52.0000   -1.3110  -25.3070 C   0  0  0  0  0
  -50.6720   -1.9570  -25.7080 C   0  0  0  0  0
  -54.1300   -0.5800  -25.9650 C   0  0  0  0  0
  -56.0640    1.2490  -25.4210 C   0  0  0  0  0
  -54.9450    1.1220  -24.5880 C   0  0  0  0  0
  -50.3980   -1.7740  -27.2150 C   0  0  0  0  0
  -48.6660   -3.5600  -27.3500 C   0  0  0  0  0
  -49.0710   -2.1980  -27.5940 O   0  0  0  0  0
  -53.1330   -1.5190  -26.2510 N   0  0  0  0  0
  -55.1980   -0.4590  -26.7630 N   0  0  0  0  0
  -54.0110    0.2140  -24.8930 N   0  0  0  0  0
  -54.8680    1.9500  -23.4710 N   0  0  0  0  0
  -54.2050    1.6880  -22.2690 C   0  0  0  0  0
  -53.2060    0.7130  -22.1660 C   0  0  0  0  0
  -52.5730    0.5140  -20.9410 C   0  0  0  0  0
  -52.9440    1.3460  -19.8530 C   0  0  0  0  0
  -53.9410    2.3180  -20.0450 C   0  0  0  0  0
  -54.5330    2.4510  -21.2220 N   0  0  0  0  0
  -52.1790    0.9680  -18.7940 N   0  0  0  0  0
  -51.3900   -0.0030  -19.1520 C   0  0  0  0  0
  -51.5880   -0.3310  -20.4670 N   0  0  0  0  0
  -50.8640   -1.3500  -21.2530 C   0  0  0  0  0
  -49.8550   -0.6720  -22.2060 C   0  0  0  0  0
  -48.6170   -0.4410  -21.3110 C   0  0  0  0  0
  -48.5420   -1.7710  -20.5150 C   0  0  0  0  0
  -49.9980   -2.2850  -20.3890 C   0  0  0  0  0
  -51.3183   -2.2283  -29.1310 H   0  0  0  0  0
  -51.6528   -3.4227  -27.8719 H   0  0  0  0  0
  -53.6537   -2.1853  -28.1613 H   0  0  0  0  0
  -52.7254   -0.5974  -28.0810 H   0  0  0  0  0
  -57.0064    0.5091  -27.2047 H   0  0  0  0  0
  -51.8215   -0.2363  -25.2724 H   0  0  0  0  0
  -52.2952   -1.7734  -24.3651 H   0  0  0  0  0
  -50.7231   -3.0237  -25.4898 H   0  0  0  0  0
  -49.8685   -1.4797  -25.1470 H   0  0  0  0  0
  -56.8441    1.9777  -25.2006 H   0  0  0  0  0
  -50.3986   -0.7055  -27.4304 H   0  0  0  0  0
  -48.7210   -3.7682  -26.2815 H   0  0  0  0  0
  -49.3296   -4.2370  -27.8880 H   0  0  0  0  0
  -47.6423   -3.7009  -27.6967 H   0  0  0  0  0
  -55.3488    2.8471  -23.5375 H   0  0  0  0  0
  -52.9265    0.1163  -23.0343 H   0  0  0  0  0
  -54.2292    2.9675  -19.2184 H   0  0  0  0  0
  -50.6693   -0.4893  -18.4945 H   0  0  0  0  0
  -51.6448   -1.9116  -21.7659 H   0  0  0  0  0
  -50.2404    0.2531  -22.6346 H   0  0  0  0  0
  -49.6310   -1.2817  -23.0813 H   0  0  0  0  0
  -48.7030    0.4392  -20.6739 H   0  0  0  0  0
  -47.7103   -0.2241  -21.8758 H   0  0  0  0  0
  -48.0948   -1.6156  -19.5332 H   0  0  0  0  0
  -47.9121   -2.4989  -21.0263 H   0  0  0  0  0
  -50.0793   -3.3179  -20.7275 H   0  0  0  0  0
  -50.3281   -2.2756  -19.3502 H   0  0  0  0  0
  2  1  1  0  0  0
  1  9  1  0  0  0
 12  2  1  0  0  0
  3  7  4  0  0  0
 13  3  4  0  0  0
  4  5  1  0  0  0
 12  4  1  0  0  0
  5  9  1  0  0  0
  6 12  1  0  0  0
  6 13  4  0  0  0
  6 14  4  0  0  0
  7  8  4  0  0  0
  8 14  4  0  0  0
  8 15  1  0  0  0
  9 11  1  0  0  0
 11 10  1  0  0  0
 15 16  1  0  0  0
 16 17  4  0  0  0
 16 21  4  0  0  0
 17 18  4  0  0  0
 18 19  4  0  0  0
 18 24  4  0  0  0
 19 20  4  0  0  0
 19 22  4  0  0  0
 20 21  4  0  0  0
 22 23  4  0  0  0
 23 24  4  0  0  0
 24 25  1  0  0  0
 25 26  1  0  0  0
 25 29  1  0  0  0
 26 27  1  0  0  0
 27 28  1  0  0  0
 28 29  1  0  0  0
  1 30  1  0  0  0
  1 31  1  0  0  0
  2 32  1  0  0  0
  2 33  1  0  0  0
  3 34  1  0  0  0
  4 35  1  0  0  0
  4 36  1  0  0  0
  5 37  1  0  0  0
  5 38  1  0  0  0
  7 39  1  0  0  0
  9 40  1  0  0  0
 10 41  1  0  0  0
 10 42  1  0  0  0
 10 43  1  0  0  0
 15 44  1  0  0  0
 17 45  1  0  0  0
 20 46  1  0  0  0
 23 47  1  0  0  0
 25 48  1  0  0  0
 26 49  1  0  0  0
 26 50  1  0  0  0
 27 51  1  0  0  0
 27 52  1  0  0  0
 28 53  1  0  0  0
 28 54  1  0  0  0
 29 55  1  0  0  0
 29 56  1  0  0  0
M  END
$$$$
