3o0u_ligand
  -I-interpret- 

 45 46  0  0  0  0  0  0  0  0999 V2000
  -17.3600   -0.1580   -5.0420 C   0  0  0  0  0
  -18.5150   -0.8130   -4.6370 C   0  0  0  0  0
  -19.6280   -0.0850   -4.2760 C   0  0  0  0  0
  -19.6180    1.2950   -4.2850 C   0  0  0  0  0
  -18.4780    1.9770   -4.6920 C   0  0  0  0  0
  -17.3440    1.2360   -5.0720 C   0  0  0  0  0
  -16.1990   -1.0290   -5.4520 C   0  0  0  0  0
  -16.6100   -1.7560   -6.4570 F   0  0  0  0  0
  -15.8630   -1.8560   -4.4860 F   0  0  0  0  0
  -15.1310   -0.3620   -5.8260 F   0  0  0  0  0
  -17.4840    4.0660   -5.4340 N   0  0  0  0  0
  -18.4630    3.4690   -4.7230 C   0  0  0  0  0
  -19.3990    4.2750   -4.0600 C   0  0  0  0  0
  -19.3030    5.6590   -4.1290 C   0  0  0  0  0
  -18.3150    6.2010   -4.8350 N   0  0  0  0  0
  -17.4160    5.4220   -5.4720 C   0  0  0  0  0
  -20.2710    6.6070   -3.4460 C   0  0  0  0  0
  -19.5870    7.2530   -2.2320 C   0  0  0  0  0
  -20.4860    8.2900   -1.5720 C   0  0  0  0  0
  -20.8590   -0.7830   -3.8380 C   0  0  0  0  0
  -21.8000   -1.0150   -4.7430 N   0  0  0  0  0
  -20.9530   -1.0960   -2.6600 O   0  0  0  0  0
  -23.0310   -1.6910   -4.3760 C   0  0  0  0  0
  -21.6420   -0.6130   -6.1340 C   0  0  0  0  0
  -16.3230    6.0590   -6.2210 C   0  0  0  0  0
  -16.1570    7.2890   -6.2590 N   0  0  0  0  0
  -18.5415   -1.9022   -4.6046 H   0  0  0  0  0
  -20.5033    1.8492   -3.9732 H   0  0  0  0  0
  -16.4425    1.7576   -5.3936 H   0  0  0  0  0
  -20.2047    3.8142   -3.4885 H   0  0  0  0  0
  -21.1491    6.0525   -3.1151 H   0  0  0  0  0
  -20.5737    7.3841   -4.1478 H   0  0  0  0  0
  -18.6780    7.7496   -2.5713 H   0  0  0  0  0
  -19.3671    6.4726   -1.5035 H   0  0  0  0  0
  -20.7245    9.0730   -2.2918 H   0  0  0  0  0
  -21.4057    7.8108   -1.2364 H   0  0  0  0  0
  -19.9690    8.7258   -0.7171 H   0  0  0  0  0
  -22.7977   -2.6824   -3.9878 H   0  0  0  0  0
  -23.5477   -1.1120   -3.6106 H   0  0  0  0  0
  -23.6687   -1.7844   -5.2550 H   0  0  0  0  0
  -21.5114    0.4679   -6.1859 H   0  0  0  0  0
  -20.7668   -1.1067   -6.5564 H   0  0  0  0  0
  -22.5300   -0.9004   -6.6970 H   0  0  0  0  0
  -15.6269    5.4228   -6.7677 H   0  0  0  0  0
  -16.7950    7.9055   -5.7557 H   0  0  0  0  0
  1  2  4  0  0  0
  1  6  4  0  0  0
  1  7  1  0  0  0
  2  3  4  0  0  0
  3  4  4  0  0  0
  3 20  1  0  0  0
  4  5  4  0  0  0
  5  6  4  0  0  0
  5 12  1  0  0  0
  7  8  1  0  0  0
  7  9  1  0  0  0
  7 10  1  0  0  0
 12 11  4  0  0  0
 11 16  4  0  0  0
 12 13  4  0  0  0
 13 14  4  0  0  0
 14 15  4  0  0  0
 14 17  1  0  0  0
 15 16  4  0  0  0
 16 25  1  0  0  0
 17 18  1  0  0  0
 18 19  1  0  0  0
 20 21  1  0  0  0
 20 22  2  0  0  0
 21 23  1  0  0  0
 21 24  1  0  0  0
 25 26  2  0  0  0
  2 27  1  0  0  0
  4 28  1  0  0  0
  6 29  1  0  0  0
 13 30  1  0  0  0
 17 31  1  0  0  0
 17 32  1  0  0  0
 18 33  1  0  0  0
 18 34  1  0  0  0
 19 35  1  0  0  0
 19 36  1  0  0  0
 19 37  1  0  0  0
 23 38  1  0  0  0
 23 39  1  0  0  0
 23 40  1  0  0  0
 24 41  1  0  0  0
 24 42  1  0  0  0
 24 43  1  0  0  0
 25 44  1  0  0  0
 26 45  1  0  0  0
M  END
$$$$
