### 
### Created by X-TOOL on Mon Sep 10 21:13:05 2018
### 

@<TRIPOS>MOLECULE
3o0u_ligand
   45    46     1     0     0
SMALL
GAST_HUCK


@<TRIPOS>ATOM
      1 C1        -17.3600   -0.1580   -5.0420 C.ar      1 O47         0.0582
      2 C2        -18.5150   -0.8130   -4.6370 C.ar      1 O47        -0.0084
      3 C3        -19.6280   -0.0850   -4.2760 C.ar      1 O47         0.0830
      4 C4        -19.6180    1.2950   -4.2850 C.ar      1 O47        -0.0010
      5 C5        -18.4780    1.9770   -4.6920 C.ar      1 O47         0.0411
      6 C6        -17.3440    1.2360   -5.0720 C.ar      1 O47        -0.0137
      7 C7        -16.1990   -1.0290   -5.4520 C.3       1 O47         0.3792
      8 F8        -16.6100   -1.7560   -6.4570 F         1 O47        -0.2195
      9 F9        -15.8630   -1.8560   -4.4860 F         1 O47        -0.2195
     10 F10       -15.1310   -0.3620   -5.8260 F         1 O47        -0.2195
     11 N11       -17.4840    4.0660   -5.4340 N.ar      1 O47        -0.2530
     12 C12       -18.4630    3.4690   -4.7230 C.ar      1 O47         0.0748
     13 C13       -19.3990    4.2750   -4.0600 C.ar      1 O47         0.0029
     14 C14       -19.3030    5.6590   -4.1290 C.ar      1 O47         0.0497
     15 N15       -18.3150    6.2010   -4.8350 N.ar      1 O47        -0.2519
     16 C16       -17.4160    5.4220   -5.4720 C.ar      1 O47         0.1482
     17 C17       -20.2710    6.6070   -3.4460 C.3       1 O47         0.0031
     18 C18       -19.5870    7.2530   -2.2320 C.3       1 O47        -0.0423
     19 C19       -20.4860    8.2900   -1.5720 C.3       1 O47        -0.0630
     20 C20       -20.8590   -0.7830   -3.8380 C.2       1 O47         0.2148
     21 N21       -21.8000   -1.0150   -4.7430 N.am      1 O47        -0.2779
     22 O22       -20.9530   -1.0960   -2.6600 O.2       1 O47        -0.3836
     23 C23       -23.0310   -1.6910   -4.3760 C.3       1 O47         0.0218
     24 C24       -21.6420   -0.6130   -6.1340 C.3       1 O47         0.0218
     25 C25       -16.3230    6.0590   -6.2210 C.2       1 O47         0.0588
     26 N26       -16.1570    7.2890   -6.2590 N.2       1 O47        -0.3298
     27 H         -18.5415   -1.9022   -4.6046 H         1 O47         0.0933
     28 H         -20.5033    1.8492   -3.9732 H         1 O47         0.0938
     29 H         -16.4425    1.7576   -5.3936 H         1 O47         0.0924
     30 H         -20.2047    3.8142   -3.4885 H         1 O47         0.0756
     31 H         -21.1491    6.0525   -3.1151 H         1 O47         0.0479
     32 H         -20.5737    7.3841   -4.1478 H         1 O47         0.0479
     33 H         -18.6780    7.7496   -2.5713 H         1 O47         0.0290
     34 H         -19.3671    6.4726   -1.5035 H         1 O47         0.0290
     35 H         -20.7245    9.0730   -2.2918 H         1 O47         0.0232
     36 H         -21.4057    7.8108   -1.2364 H         1 O47         0.0232
     37 H         -19.9690    8.7258   -0.7171 H         1 O47         0.0232
     38 H         -22.7977   -2.6824   -3.9878 H         1 O47         0.0486
     39 H         -23.5477   -1.1120   -3.6106 H         1 O47         0.0486
     40 H         -23.6687   -1.7844   -5.2550 H         1 O47         0.0486
     41 H         -21.5114    0.4679   -6.1859 H         1 O47         0.0486
     42 H         -20.7668   -1.1067   -6.5564 H         1 O47         0.0486
     43 H         -22.5300   -0.9004   -6.6970 H         1 O47         0.0486
     44 H         -15.6269    5.4228   -6.7677 H         1 O47         0.1164
     45 H         -16.7950    7.9055   -5.7557 H         1 O47         0.1393
@<TRIPOS>BOND
     1    1    2 ar 
     2    1    6 ar 
     3    1    7 1  
     4    2    3 ar 
     5    3    4 ar 
     6    3   20 1  
     7    4    5 ar 
     8    5    6 ar 
     9    5   12 1  
    10    7    8 1  
    11    7    9 1  
    12    7   10 1  
    13   12   11 ar 
    14   11   16 ar 
    15   12   13 ar 
    16   13   14 ar 
    17   14   15 ar 
    18   14   17 1  
    19   15   16 ar 
    20   16   25 1  
    21   17   18 1  
    22   18   19 1  
    23   20   21 am 
    24   20   22 2  
    25   21   23 1  
    26   21   24 1  
    27   25   26 2  
    28    2   27 1  
    29    4   28 1  
    30    6   29 1  
    31   13   30 1  
    32   17   31 1  
    33   17   32 1  
    34   18   33 1  
    35   18   34 1  
    36   19   35 1  
    37   19   36 1  
    38   19   37 1  
    39   23   38 1  
    40   23   39 1  
    41   23   40 1  
    42   24   41 1  
    43   24   42 1  
    44   24   43 1  
    45   25   44 1  
    46   26   45 1  
@<TRIPOS>SUBSTRUCTURE
     1 O47         1

