5ods_ligand
  -I-interpret- 

308310  0  0  0  0  0  0  0  0999 V2000
  160.2460  -17.4940  167.4400 N   0  3  0  0  0
  160.1110  -17.2270  166.0120 C   0  0  0  0  0
  161.1510  -17.9870  165.2000 C   0  0  0  0  0
  160.8150  -18.7010  164.2550 O   0  0  0  0  0
  160.2340  -15.7290  165.7330 C   0  0  0  0  0
  162.4150  -17.8280  165.5770 N   0  0  0  0  0
  163.5140  -18.4940  164.8830 C   0  0  0  0  0
  163.9340  -19.7920  165.5660 C   0  0  0  0  0
  164.6140  -20.6240  164.9670 O   0  0  0  0  0
  164.7160  -17.5570  164.7790 C   0  0  0  0  0
  163.5200  -19.9630  166.8160 N   0  0  0  0  0
  163.8730  -21.1480  167.5940 C   0  0  0  0  0
  163.2300  -22.4270  167.0560 C   0  0  0  0  0
  163.8970  -23.4530  166.9170 O   0  0  0  0  0
  163.4800  -20.9540  169.0580 C   0  0  0  0  0
  162.0760  -20.8100  169.1920 O   0  0  0  0  0
  161.9350  -22.3630  166.7590 N   0  0  0  0  0
  161.1930  -23.5230  166.2640 C   0  0  0  0  0
  161.7240  -24.0500  164.9300 C   0  0  0  0  0
  161.6420  -25.2460  164.6570 O   0  0  0  0  0
  159.7100  -23.1830  166.1360 C   0  0  0  0  0
  162.2720  -23.1600  164.1080 N   0  0  0  0  0
  162.8080  -23.5500  162.8050 C   0  0  0  0  0
  164.0380  -24.4480  162.9170 C   0  0  0  0  0
  164.1570  -25.4380  162.1950 O   0  0  0  0  0
  163.1440  -22.3080  161.9790 C   0  0  0  0  0
  162.0220  -21.8040  161.0710 C   0  0  0  0  0
  161.0780  -20.8860  161.8260 C   0  0  0  0  0
  162.6110  -21.0970  159.8680 C   0  0  0  0  0
  164.9480  -24.1020  163.8230 N   0  0  0  0  0
  166.1500  -24.9030  164.0450 C   0  0  0  0  0
  165.8210  -26.1730  164.8290 C   0  0  0  0  0
  166.5410  -27.1690  164.7480 O   0  0  0  0  0
  167.2170  -24.0890  164.7800 C   0  0  0  0  0
  167.8120  -22.9600  163.9500 C   0  0  0  0  0
  168.7540  -23.4610  162.8630 C   0  0  0  0  0
  170.0140  -23.9570  163.4100 N   0  0  0  0  0
  170.9820  -24.5060  162.6830 C   0  0  0  0  0
  170.8410  -24.6290  161.3700 N   0  0  0  0  0
  172.0950  -24.9240  163.2690 N   0  0  0  0  0
  164.7320  -26.1280  165.5920 N   0  0  0  0  0
  164.2840  -27.2840  166.3640 C   0  0  0  0  0
  163.8270  -28.4320  165.4670 C   0  0  0  0  0
  164.1590  -29.5930  165.7110 O   0  0  0  0  0
  163.1400  -26.8900  167.3000 C   0  0  0  0  0
  163.5790  -26.2880  168.6240 C   0  0  0  0  0
  162.3740  -25.7630  169.3930 C   0  0  0  0  0
  162.7860  -24.9110  170.5830 C   0  0  0  0  0
  161.6070  -24.2560  171.2200 N   0  3  0  0  0
  163.0680  -28.0960  164.4260 N   0  0  0  0  0
  162.5340  -29.0830  163.4860 C   0  0  0  0  0
  163.6350  -29.7980  162.7130 C   0  0  0  0  0
  163.5040  -30.9650  162.3550 O   0  0  0  0  0
  161.5680  -28.4140  162.5080 C   0  0  0  0  0
  160.2200  -29.1160  162.3890 C   0  0  0  0  0
  159.4040  -29.0260  163.6660 C   0  0  0  0  0
  159.0880  -27.9330  164.1350 O   0  0  0  0  0
  159.0560  -30.1770  164.2330 N   0  0  0  0  0
  164.7170  -29.0790  162.4450 N   0  0  0  0  0
  165.8670  -29.6450  161.7540 C   0  0  0  0  0
  166.8270  -28.5260  161.3340 C   0  0  0  0  0
  168.1490  -28.9990  161.1520 O   0  0  0  0  0
  166.5720  -30.6670  162.6300 C   0  0  0  0  0
  167.1460  -31.6330  162.1350 O   0  0  0  0  0
  169.1450  -27.7860  161.4840 P   0  0  0  0  0
  168.7930  -26.5390  160.5380 O   0  0  0  0  0
  170.6650  -28.2330  161.2340 O   0  0  0  0  0
  168.9540  -27.3570  163.0170 O   0  0  0  0  0
  166.5340  -30.4270  163.9360 N   0  0  0  0  0
  167.1800  -31.2970  164.9120 C   0  0  0  0  0
  166.4450  -32.6170  165.0980 C   0  0  0  0  0
  167.0630  -33.6790  165.1140 O   0  0  0  0  0
  167.3050  -30.5810  166.2590 C   0  0  0  0  0
  168.6390  -29.8840  166.5260 C   0  0  0  0  0
  168.4090  -28.5620  167.2310 C   0  0  0  0  0
  169.5400  -30.7820  167.3560 C   0  0  0  0  0
  165.1260  -32.5460  165.2510 N   0  0  0  0  0
  164.3110  -33.7470  165.4190 C   0  0  0  0  0
  164.4060  -34.6690  164.2050 C   0  0  0  0  0
  164.2980  -35.8870  164.3320 O   0  0  0  0  0
  162.8430  -33.3900  165.6740 C   0  0  0  0  0
  162.6010  -32.5270  166.8930 C   0  0  0  0  0
  163.2140  -32.8140  168.1060 C   0  0  0  0  0
  161.7400  -31.4390  166.8370 C   0  0  0  0  0
  162.9880  -32.0310  169.2240 C   0  0  0  0  0
  161.5070  -30.6530  167.9480 C   0  0  0  0  0
  162.1310  -30.9520  169.1380 C   0  0  0  0  0
  161.8960  -30.1640  170.2430 O   0  0  0  0  0
  164.6070  -34.0780  163.0310 N   0  0  0  0  0
  164.7540  -34.8390  161.7920 C   0  0  0  0  0
  165.9920  -35.7290  161.8040 C   0  0  0  0  0
  165.9720  -36.8400  161.2760 O   0  0  0  0  0
  164.8250  -33.8940  160.5900 C   0  0  0  0  0
  163.5190  -33.3590  160.0010 C   0  0  0  0  0
  163.7960  -32.1130  159.1810 C   0  0  0  0  0
  162.8310  -34.4140  159.1460 C   0  0  0  0  0
  167.0670  -35.2390  162.4130 N   0  0  0  0  0
  168.3410  -35.9540  162.4070 C   0  0  0  0  0
  168.4760  -37.0430  163.4680 C   0  0  0  0  0
  169.0880  -38.0830  163.2170 O   0  0  0  0  0
  169.4990  -34.9650  162.5700 C   0  0  0  0  0
  169.5870  -33.9200  161.4710 C   0  0  0  0  0
  170.6610  -32.8870  161.7830 C   0  0  0  0  0
  170.6210  -31.7170  160.8100 C   0  0  0  0  0
  171.7100  -30.7360  161.0890 N   0  3  0  0  0
  167.9120  -36.8190  164.6510 N   0  0  0  0  0
  168.1440  -37.7500  165.7540 C   0  0  0  0  0
  166.9450  -38.5830  166.2010 C   0  0  0  0  0
  167.0930  -39.7700  166.4800 O   0  0  0  0  0
  168.6860  -36.9840  166.9660 C   0  0  0  0  0
  169.9090  -36.1700  166.6680 C   0  0  0  0  0
  171.1490  -36.7800  166.5620 C   0  0  0  0  0
  169.8250  -34.8000  166.4950 C   0  0  0  0  0
  172.2800  -36.0400  166.2910 C   0  0  0  0  0
  170.9550  -34.0510  166.2230 C   0  0  0  0  0
  172.1840  -34.6730  166.1200 C   0  0  0  0  0
  165.7650  -37.9790  166.2770 N   0  0  0  0  0
  164.6040  -38.7290  166.7390 C   0  0  0  0  0
  164.1730  -39.7660  165.6960 C   0  0  0  0  0
  164.2170  -39.5050  164.4970 O   0  0  0  0  0
  163.4570  -37.7800  167.0850 C   0  0  0  0  0
  162.2090  -38.0550  166.2760 C   0  0  0  0  0
  161.5200  -39.0630  166.5530 O   0  0  0  0  0
  161.9030  -37.2510  165.3700 O   0  0  0  0  0
  163.7520  -40.9520  166.1620 N   0  0  0  0  0
  163.4450  -42.1170  165.3200 C   0  0  0  0  0
  162.3590  -41.9120  164.2670 C   0  0  0  0  0
  162.3750  -42.6270  163.2590 O   0  0  0  0  0
  162.9600  -43.1550  166.3260 C   0  0  0  0  0
  163.6330  -42.8130  167.5910 C   0  0  0  0  0
  163.9500  -41.3390  167.5700 C   0  0  0  0  0
  161.4150  -41.0040  164.5160 N   0  0  0  0  0
  160.3530  -40.7130  163.5470 C   0  0  0  0  0
  159.5550  -41.9360  163.1110 C   0  0  0  0  0
  158.8120  -42.5100  163.9100 O   0  0  0  0  0
  160.9320  -40.0110  162.3080 C   0  0  0  0  0
  161.1890  -38.5020  162.3930 C   0  0  0  0  0
  161.6550  -37.9590  161.0600 C   0  0  0  0  0
  159.8870  -37.8150  162.7790 C   0  0  0  0  0
  159.8280  -42.3910  161.8890 N   0  0  0  0  0
  159.0180  -43.3860  161.1840 C   0  0  0  0  0
  158.5070  -44.5380  162.0450 C   0  0  0  0  0
  157.3660  -44.5110  162.5150 O   0  0  0  0  0
  159.8400  -43.9750  160.0380 C   0  0  0  0  0
  160.3370  -43.0980  158.8890 C   0  0  0  0  0
  161.8040  -42.7140  159.0780 C   0  0  0  0  0
  160.1830  -43.8690  157.5920 C   0  0  0  0  0
  159.2280  -45.5110  162.2820 O   0  0  0  0  0
  160.1614  -18.4967  167.6067 H   0  0  0  0  0
  161.1588  -17.1707  167.7603 H   0  0  0  0  0
  159.5118  -17.0006  167.9478 H   0  0  0  0  0
  159.1223  -17.5710  165.7083 H   0  0  0  0  0
  161.2311  -15.3892  166.0131 H   0  0  0  0  0
  160.0705  -15.5438  164.6714 H   0  0  0  0  0
  159.4878  -15.1896  166.3163 H   0  0  0  0  0
  162.6235  -17.2246  166.3725 H   0  0  0  0  0
  163.1530  -18.7489  163.8866 H   0  0  0  0  0
  165.0905  -17.3362  165.7786 H   0  0  0  0  0
  165.5001  -18.0375  164.1938 H   0  0  0  0  0
  164.4121  -16.6311  164.2907 H   0  0  0  0  0
  162.9375  -19.2447  167.2463 H   0  0  0  0  0
  164.9530  -21.2676  167.5075 H   0  0  0  0  0
  163.9616  -20.0509  169.4328 H   0  0  0  0  0
  163.7975  -21.8295  169.6244 H   0  0  0  0  0
  161.8548  -20.6898  170.1184 H   0  0  0  0  0
  161.4437  -21.4774  166.8801 H   0  0  0  0  0
  161.3317  -24.3183  166.9964 H   0  0  0  0  0
  159.3184  -22.8976  167.1124 H   0  0  0  0  0
  159.5873  -22.3550  165.4378 H   0  0  0  0  0
  159.1693  -24.0545  165.7668 H   0  0  0  0  0
  162.3195  -22.1819  164.3934 H   0  0  0  0  0
  162.0316  -24.1288  162.3047 H   0  0  0  0  0
  163.9737  -22.5817  161.3273 H   0  0  0  0  0
  163.3537  -21.5082  162.6892 H   0  0  0  0  0
  161.4432  -22.6614  160.7277 H   0  0  0  0  0
  160.6344  -21.4296  162.6601 H   0  0  0  0  0
  161.6331  -20.0276  162.2042 H   0  0  0  0  0
  160.2910  -20.5439  161.1539 H   0  0  0  0  0
  163.2107  -20.2508  160.2031 H   0  0  0  0  0
  163.2399  -21.7920  159.3116 H   0  0  0  0  0
  161.8048  -20.7412  159.2265 H   0  0  0  0  0
  164.8035  -23.2573  164.3762 H   0  0  0  0  0
  166.5442  -25.1915  163.0706 H   0  0  0  0  0
  168.0299  -24.7708  165.0299 H   0  0  0  0  0
  166.7382  -23.6357  165.6480 H   0  0  0  0  0
  168.3854  -22.3192  164.6198 H   0  0  0  0  0
  166.9905  -22.4339  163.4638 H   0  0  0  0  0
  168.9781  -22.6271  162.1979 H   0  0  0  0  0
  168.2636  -24.2833  162.3420 H   0  0  0  0  0
  170.1609  -23.8769  164.4162 H   0  0  0  0  0
  171.5881  -25.0445  160.8135 H   0  0  0  0  0
  169.9855  -24.3081  160.9167 H   0  0  0  0  0
  172.2087  -24.8244  164.2777 H   0  0  0  0  0
  164.1951  -25.2621  165.6391 H   0  0  0  0  0
  165.1391  -27.6273  166.9463 H   0  0  0  0  0
  162.5931  -27.8035  167.5335 H   0  0  0  0  0
  162.5567  -26.1276  166.7835 H   0  0  0  0  0
  164.2635  -25.4624  168.4294 H   0  0  0  0  0
  164.0719  -27.0575  169.2181 H   0  0  0  0  0
  161.8079  -26.6171  169.7646 H   0  0  0  0  0
  161.7823  -25.1439  168.7187 H   0  0  0  0  0
  163.4655  -24.1340  170.2328 H   0  0  0  0  0
  163.2634  -25.5559  171.3208 H   0  0  0  0  0
  161.9186  -23.6941  172.0122 H   0  0  0  0  0
  161.1430  -23.6563  170.5378 H   0  0  0  0  0
  160.9561  -24.9713  171.5441 H   0  0  0  0  0
  162.8497  -27.1108  164.2774 H   0  0  0  0  0
  162.0032  -29.8315  164.0743 H   0  0  0  0  0
  162.0346  -28.4414  161.5233 H   0  0  0  0  0
  161.3765  -27.4077  162.8805 H   0  0  0  0  0
  160.4064  -30.1698  162.1822 H   0  0  0  0  0
  159.6557  -28.6287  161.5939 H   0  0  0  0  0
  158.5051  -30.1766  165.0915 H   0  0  0  0  0
  159.3399  -31.0605  163.8096 H   0  0  0  0  0
  164.7443  -28.1004  162.7315 H   0  0  0  0  0
  165.5205  -30.1595  160.8577 H   0  0  0  0  0
  166.8403  -27.7750  162.1239 H   0  0  0  0  0
  166.4785  -28.1172  160.3856 H   0  0  0  0  0
  168.9067  -26.7936  159.6194 H   0  0  0  0  0
  170.7751  -28.4890  160.3153 H   0  0  0  0  0
  166.0339  -29.6027  164.2689 H   0  0  0  0  0
  168.1708  -31.5285  164.5211 H   0  0  0  0  0
  167.2025  -31.3497  167.0250 H   0  0  0  0  0
  166.5453  -29.7994  166.2619 H   0  0  0  0  0
  169.1299  -29.6848  165.5734 H   0  0  0  0  0
  167.7903  -27.9201  166.6039 H   0  0  0  0  0
  167.9037  -28.7409  168.1801 H   0  0  0  0  0
  169.3682  -28.0777  167.4142 H   0  0  0  0  0
  169.0545  -31.0029  168.3066 H   0  0  0  0  0
  169.7228  -31.7107  166.8154 H   0  0  0  0  0
  170.4870  -30.2745  167.5396 H   0  0  0  0  0
  164.6728  -31.6322  165.2511 H   0  0  0  0  0
  164.7060  -34.2742  166.2874 H   0  0  0  0  0
  162.3141  -34.3283  165.8411 H   0  0  0  0  0
  162.5019  -32.8194  164.8102 H   0  0  0  0  0
  163.8843  -33.6705  168.1782 H   0  0  0  0  0
  161.2389  -31.2011  165.8987 H   0  0  0  0  0
  163.4833  -32.2644  170.1665 H   0  0  0  0  0
  160.8320  -29.7996  167.8831 H   0  0  0  0  0
  161.2812  -29.4643  170.0107 H   0  0  0  0  0
  164.6603  -33.0601  162.9939 H   0  0  0  0  0
  163.8768  -35.4808  161.7105 H   0  0  0  0  0
  165.2763  -34.4832  159.7917 H   0  0  0  0  0
  165.3551  -33.0131  160.9521 H   0  0  0  0  0
  162.8491  -33.1051  160.8225 H   0  0  0  0  0
  164.2423  -31.3509  159.8199 H   0  0  0  0  0
  164.4832  -32.3579  158.3711 H   0  0  0  0  0
  162.8609  -31.7381  158.7649 H   0  0  0  0  0
  163.4905  -34.7034  158.3278 H   0  0  0  0  0
  162.6061  -35.2867  159.7592 H   0  0  0  0  0
  161.9055  -34.0046  158.7410 H   0  0  0  0  0
  167.0010  -34.3429  162.8958 H   0  0  0  0  0
  168.3740  -36.4593  161.4417 H   0  0  0  0  0
  170.4222  -35.5435  162.5375 H   0  0  0  0  0
  169.3368  -34.4324  163.5071 H   0  0  0  0  0
  168.6257  -33.4120  161.3945 H   0  0  0  0  0
  169.8426  -34.4178  160.5356 H   0  0  0  0  0
  171.6348  -33.3694  161.6984 H   0  0  0  0  0
  170.4848  -32.5028  162.7877 H   0  0  0  0  0
  169.6627  -31.2094  160.9198 H   0  0  0  0  0
  170.7551  -32.1035  159.7997 H   0  0  0  0  0
  171.6534  -29.9677  160.4205 H   0  0  0  0  0
  171.6042  -30.3726  162.0362 H   0  0  0  0  0
  172.6143  -31.1994  161.0004 H   0  0  0  0  0
  167.3194  -36.0003  164.7885 H   0  0  0  0  0
  168.8607  -38.4675  165.3546 H   0  0  0  0  0
  168.9613  -37.7210  167.7204 H   0  0  0  0  0
  167.9068  -36.2942  167.2902 H   0  0  0  0  0
  171.2309  -37.8588  166.6946 H   0  0  0  0  0
  168.8569  -34.3053  166.5740 H   0  0  0  0  0
  173.2488  -36.5332  166.2118 H   0  0  0  0  0
  170.8761  -32.9720  166.0901 H   0  0  0  0  0
  173.0766  -34.0858  165.9041 H   0  0  0  0  0
  165.6718  -36.9979  166.0141 H   0  0  0  0  0
  164.8802  -39.2683  167.6451 H   0  0  0  0  0
  163.7837  -36.7643  166.8621 H   0  0  0  0  0
  163.2117  -37.9207  168.1377 H   0  0  0  0  0
  161.9317  -39.5417  167.2762 H   0  0  0  0  0
  164.3269  -42.3815  164.7366 H   0  0  0  0  0
  163.2001  -44.1685  166.0046 H   0  0  0  0  0
  161.8752  -43.1366  166.4306 H   0  0  0  0  0
  164.5499  -43.3928  167.6972 H   0  0  0  0  0
  162.9849  -43.0457  168.4360 H   0  0  0  0  0
  163.3143  -40.7699  168.2483 H   0  0  0  0  0
  164.9613  -41.1288  167.9180 H   0  0  0  0  0
  161.4317  -40.4993  165.4022 H   0  0  0  0  0
  159.6564  -40.0560  164.0678 H   0  0  0  0  0
  160.1809  -40.1337  161.5277 H   0  0  0  0  0
  161.9109  -40.4634  162.1494 H   0  0  0  0  0
  161.9654  -38.3131  163.1344 H   0  0  0  0  0
  162.5799  -38.4572  160.7695 H   0  0  0  0  0
  160.8894  -38.1432  160.3064 H   0  0  0  0  0
  161.8303  -36.8867  161.1472 H   0  0  0  0  0
  159.1298  -38.0233  162.0231 H   0  0  0  0  0
  159.5512  -38.1921  163.7450 H   0  0  0  0  0
  160.0507  -36.7394  162.8444 H   0  0  0  0  0
  160.6529  -42.0231  161.4150 H   0  0  0  0  0
  158.1350  -42.8484  160.8386 H   0  0  0  0  0
  156.9298  -43.6990  162.2468 H   0  0  0  0  0
  159.1572  -44.6758  159.5576 H   0  0  0  0  0
  160.7546  -44.3197  160.5204 H   0  0  0  0  0
  159.7483  -42.1809  158.8667 H   0  0  0  0  0
  161.9163  -42.1611  160.0107 H   0  0  0  0  0
  162.4130  -43.6173  159.1140 H   0  0  0  0  0
  162.1255  -42.0906  158.2436 H   0  0  0  0  0
  160.7721  -44.7847  157.6430 H   0  0  0  0  0
  159.1327  -44.1190  157.4419 H   0  0  0  0  0
  160.5339  -43.2554  156.7622 H   0  0  0  0  0
  1  2  1  0  0  0
  2  3  1  0  0  0
  2  5  1  0  0  0
  3  4  2  0  0  0
  3  6  1  0  0  0
  6  7  1  0  0  0
  7  8  1  0  0  0
  7 10  1  0  0  0
  8  9  2  0  0  0
  8 11  1  0  0  0
 11 12  1  0  0  0
 12 13  1  0  0  0
 12 15  1  0  0  0
 13 14  2  0  0  0
 13 17  1  0  0  0
 15 16  1  0  0  0
 17 18  1  0  0  0
 18 19  1  0  0  0
 18 21  1  0  0  0
 19 20  2  0  0  0
 19 22  1  0  0  0
 22 23  1  0  0  0
 23 24  1  0  0  0
 23 26  1  0  0  0
 24 25  2  0  0  0
 24 30  1  0  0  0
 26 27  1  0  0  0
 27 28  1  0  0  0
 27 29  1  0  0  0
 30 31  1  0  0  0
 31 32  1  0  0  0
 31 34  1  0  0  0
 32 33  2  0  0  0
 32 41  1  0  0  0
 34 35  1  0  0  0
 35 36  1  0  0  0
 36 37  1  0  0  0
 37 38  1  0  0  0
 38 39  1  0  0  0
 38 40  2  0  0  0
 41 42  1  0  0  0
 42 43  1  0  0  0
 42 45  1  0  0  0
 43 44  2  0  0  0
 43 50  1  0  0  0
 45 46  1  0  0  0
 46 47  1  0  0  0
 47 48  1  0  0  0
 48 49  1  0  0  0
 50 51  1  0  0  0
 51 52  1  0  0  0
 51 54  1  0  0  0
 52 53  2  0  0  0
 52 59  1  0  0  0
 54 55  1  0  0  0
 55 56  1  0  0  0
 56 57  2  0  0  0
 56 58  1  0  0  0
 59 60  1  0  0  0
 60 61  1  0  0  0
 60 63  1  0  0  0
 61 62  1  0  0  0
 62 65  1  0  0  0
 63 64  2  0  0  0
 63 69  1  0  0  0
 65 66  1  0  0  0
 65 67  1  0  0  0
 65 68  2  0  0  0
 69 70  1  0  0  0
 70 71  1  0  0  0
 70 73  1  0  0  0
 71 72  2  0  0  0
 71 77  1  0  0  0
 73 74  1  0  0  0
 74 75  1  0  0  0
 74 76  1  0  0  0
 77 78  1  0  0  0
 78 79  1  0  0  0
 78 81  1  0  0  0
 79 80  2  0  0  0
 79 89  1  0  0  0
 81 82  1  0  0  0
 82 83  4  0  0  0
 82 84  4  0  0  0
 83 85  4  0  0  0
 84 86  4  0  0  0
 85 87  4  0  0  0
 86 87  4  0  0  0
 87 88  1  0  0  0
 89 90  1  0  0  0
 90 91  1  0  0  0
 90 93  1  0  0  0
 91 92  2  0  0  0
 91 97  1  0  0  0
 93 94  1  0  0  0
 94 95  1  0  0  0
 94 96  1  0  0  0
 97 98  1  0  0  0
 98 99  1  0  0  0
 98101  1  0  0  0
 99100  2  0  0  0
 99106  1  0  0  0
101102  1  0  0  0
102103  1  0  0  0
103104  1  0  0  0
104105  1  0  0  0
106107  1  0  0  0
107108  1  0  0  0
107110  1  0  0  0
108109  2  0  0  0
108117  1  0  0  0
110111  1  0  0  0
111112  4  0  0  0
111113  4  0  0  0
112114  4  0  0  0
113115  4  0  0  0
114116  4  0  0  0
115116  4  0  0  0
117118  1  0  0  0
118119  1  0  0  0
118121  1  0  0  0
119120  2  0  0  0
119125  1  0  0  0
121122  1  0  0  0
122123  1  0  0  0
122124  2  0  0  0
125126  1  0  0  0
125131  1  0  0  0
126127  1  0  0  0
126129  1  0  0  0
127128  2  0  0  0
127132  1  0  0  0
129130  1  0  0  0
130131  1  0  0  0
132133  1  0  0  0
133134  1  0  0  0
133136  1  0  0  0
134135  2  0  0  0
134140  1  0  0  0
136137  1  0  0  0
137138  1  0  0  0
137139  1  0  0  0
140141  1  0  0  0
141142  1  0  0  0
141144  1  0  0  0
142143  1  0  0  0
142148  2  0  0  0
144145  1  0  0  0
145146  1  0  0  0
145147  1  0  0  0
  1149  1  0  0  0
  1150  1  0  0  0
  1151  1  0  0  0
  2152  1  0  0  0
  5153  1  0  0  0
  5154  1  0  0  0
  5155  1  0  0  0
  6156  1  0  0  0
  7157  1  0  0  0
 10158  1  0  0  0
 10159  1  0  0  0
 10160  1  0  0  0
 11161  1  0  0  0
 12162  1  0  0  0
 15163  1  0  0  0
 15164  1  0  0  0
 16165  1  0  0  0
 17166  1  0  0  0
 18167  1  0  0  0
 21168  1  0  0  0
 21169  1  0  0  0
 21170  1  0  0  0
 22171  1  0  0  0
 23172  1  0  0  0
 26173  1  0  0  0
 26174  1  0  0  0
 27175  1  0  0  0
 28176  1  0  0  0
 28177  1  0  0  0
 28178  1  0  0  0
 29179  1  0  0  0
 29180  1  0  0  0
 29181  1  0  0  0
 30182  1  0  0  0
 31183  1  0  0  0
 34184  1  0  0  0
 34185  1  0  0  0
 35186  1  0  0  0
 35187  1  0  0  0
 36188  1  0  0  0
 36189  1  0  0  0
 37190  1  0  0  0
 39191  1  0  0  0
 39192  1  0  0  0
 40193  1  0  0  0
 41194  1  0  0  0
 42195  1  0  0  0
 45196  1  0  0  0
 45197  1  0  0  0
 46198  1  0  0  0
 46199  1  0  0  0
 47200  1  0  0  0
 47201  1  0  0  0
 48202  1  0  0  0
 48203  1  0  0  0
 49204  1  0  0  0
 49205  1  0  0  0
 49206  1  0  0  0
 50207  1  0  0  0
 51208  1  0  0  0
 54209  1  0  0  0
 54210  1  0  0  0
 55211  1  0  0  0
 55212  1  0  0  0
 58213  1  0  0  0
 58214  1  0  0  0
 59215  1  0  0  0
 60216  1  0  0  0
 61217  1  0  0  0
 61218  1  0  0  0
 66219  1  0  0  0
 67220  1  0  0  0
 69221  1  0  0  0
 70222  1  0  0  0
 73223  1  0  0  0
 73224  1  0  0  0
 74225  1  0  0  0
 75226  1  0  0  0
 75227  1  0  0  0
 75228  1  0  0  0
 76229  1  0  0  0
 76230  1  0  0  0
 76231  1  0  0  0
 77232  1  0  0  0
 78233  1  0  0  0
 81234  1  0  0  0
 81235  1  0  0  0
 83236  1  0  0  0
 84237  1  0  0  0
 85238  1  0  0  0
 86239  1  0  0  0
 88240  1  0  0  0
 89241  1  0  0  0
 90242  1  0  0  0
 93243  1  0  0  0
 93244  1  0  0  0
 94245  1  0  0  0
 95246  1  0  0  0
 95247  1  0  0  0
 95248  1  0  0  0
 96249  1  0  0  0
 96250  1  0  0  0
 96251  1  0  0  0
 97252  1  0  0  0
 98253  1  0  0  0
101254  1  0  0  0
101255  1  0  0  0
102256  1  0  0  0
102257  1  0  0  0
103258  1  0  0  0
103259  1  0  0  0
104260  1  0  0  0
104261  1  0  0  0
105262  1  0  0  0
105263  1  0  0  0
105264  1  0  0  0
106265  1  0  0  0
107266  1  0  0  0
110267  1  0  0  0
110268  1  0  0  0
112269  1  0  0  0
113270  1  0  0  0
114271  1  0  0  0
115272  1  0  0  0
116273  1  0  0  0
117274  1  0  0  0
118275  1  0  0  0
121276  1  0  0  0
121277  1  0  0  0
123278  1  0  0  0
126279  1  0  0  0
129280  1  0  0  0
129281  1  0  0  0
130282  1  0  0  0
130283  1  0  0  0
131284  1  0  0  0
131285  1  0  0  0
132286  1  0  0  0
133287  1  0  0  0
136288  1  0  0  0
136289  1  0  0  0
137290  1  0  0  0
138291  1  0  0  0
138292  1  0  0  0
138293  1  0  0  0
139294  1  0  0  0
139295  1  0  0  0
139296  1  0  0  0
140297  1  0  0  0
141298  1  0  0  0
143299  1  0  0  0
144300  1  0  0  0
144301  1  0  0  0
145302  1  0  0  0
146303  1  0  0  0
146304  1  0  0  0
146305  1  0  0  0
147306  1  0  0  0
147307  1  0  0  0
147308  1  0  0  0
M  END
$$$$
