### 
### Created by X-TOOL on Wed Jan  1 15:39:38 2020
### 

@<TRIPOS>MOLECULE
5ods_ligand
  305   307     1     0     0
SMALL
GAST_HUCK


@<TRIPOS>ATOM
      1 N         160.2460  -17.4940  167.4400 N.4       1 LYS         0.2377
      2 CA        160.1110  -17.2270  166.0120 C.3       1 LYS         0.0621
      3 C         161.1510  -17.9870  165.2000 C.2       1 LYS         0.2264
      4 O         160.8150  -18.7010  164.2550 O.2       1 LYS        -0.3907
      5 CB        160.2340  -15.7290  165.7330 C.3       1 LYS        -0.0040
      6 N         162.4150  -17.8280  165.5770 N.am      1 GLU        -0.2613
      7 CA        163.5140  -18.4940  164.8830 C.3       1 GLU         0.1283
      8 C         163.9340  -19.7920  165.5660 C.2       1 GLU         0.2037
      9 O         164.6140  -20.6240  164.9670 O.2       1 GLU        -0.3944
     10 CB        164.7160  -17.5570  164.7790 C.3       1 GLU        -0.0244
     11 N         163.5200  -19.9630  166.8160 N.am      1 SER        -0.2616
     12 CA        163.8730  -21.1480  167.5940 C.3       1 SER         0.1539
     13 C         163.2300  -22.4270  167.0560 C.2       1 SER         0.2062
     14 O         163.8970  -23.4530  166.9170 O.2       1 SER        -0.3943
     15 CB        163.4800  -20.9540  169.0580 C.3       1 SER         0.0843
     16 OG        162.0760  -20.8100  169.1920 O.3       1 SER        -0.3903
     17 N         161.9350  -22.3630  166.7590 N.am      1 ALA        -0.2639
     18 CA        161.1930  -23.5230  166.2640 C.3       1 ALA         0.1282
     19 C         161.7240  -24.0500  164.9300 C.2       1 ALA         0.2036
     20 O         161.6420  -25.2460  164.6570 O.2       1 ALA        -0.3944
     21 CB        159.7100  -23.1830  166.1360 C.3       1 ALA        -0.0244
     22 N         162.2720  -23.1600  164.1080 N.am      1 LEU        -0.2637
     23 CA        162.8080  -23.5500  162.8050 C.3       1 LEU         0.1312
     24 C         164.0380  -24.4480  162.9170 C.2       1 LEU         0.2039
     25 O         164.1570  -25.4380  162.1950 O.2       1 LEU        -0.3944
     26 CB        163.1440  -22.3080  161.9790 C.3       1 LEU        -0.0101
     27 CG        162.0220  -21.8040  161.0710 C.3       1 LEU        -0.0425
     28 CD1       161.0780  -20.8860  161.8260 C.3       1 LEU        -0.0625
     29 CD2       162.6110  -21.0970  159.8680 C.3       1 LEU        -0.0625
     30 N         164.9480  -24.1020  163.8230 N.am      1 ARG        -0.2637
     31 CA        166.1500  -24.9030  164.0450 C.3       1 ARG         0.1311
     32 C         165.8210  -26.1730  164.8290 C.2       1 ARG         0.2039
     33 O         166.5410  -27.1690  164.7480 O.2       1 ARG        -0.3944
     34 CB        167.2170  -24.0890  164.7800 C.3       1 ARG        -0.0092
     35 CG        167.8120  -22.9600  163.9500 C.3       1 ARG        -0.0156
     36 CD        168.7540  -23.4610  162.8630 C.3       1 ARG         0.0627
     37 NE        170.0140  -23.9570  163.4100 N.pl3     1 ARG        -0.2723
     38 CZ        170.9820  -24.5060  162.6830 C.cat     1 ARG         0.2882
     39 NH1       170.8410  -24.6290  161.3700 N.pl3     1 ARG        -0.2849
     40 NH2       172.0950  -24.9240  163.2690 N.pl3     1 ARG        -0.2849
     41 N         164.7320  -26.1280  165.5920 N.am      1 LYS        -0.2637
     42 CA        164.2840  -27.2840  166.3640 C.3       1 LYS         0.1310
     43 C         163.8270  -28.4320  165.4670 C.2       1 LYS         0.2039
     44 O         164.1590  -29.5930  165.7110 O.2       1 LYS        -0.3944
     45 CB        163.1400  -26.8900  167.3000 C.3       1 LYS        -0.0122
     46 CG        163.5790  -26.2880  168.6240 C.3       1 LYS        -0.0440
     47 CD        162.3740  -25.7630  169.3930 C.3       1 LYS        -0.0124
     48 CE        162.7860  -24.9110  170.5830 C.3       1 LYS        -0.0354
     49 NZ        161.6070  -24.2560  171.2200 N.4       1 LYS         0.2185
     50 N         163.0680  -28.0960  164.4260 N.am      1 GLN        -0.2636
     51 CA        162.5340  -29.0830  163.4860 C.3       1 GLN         0.1330
     52 C         163.6350  -29.7980  162.7130 C.2       1 GLN         0.2041
     53 O         163.5040  -30.9650  162.3550 O.2       1 GLN        -0.3944
     54 CB        161.5680  -28.4140  162.5080 C.3       1 GLN         0.0045
     55 CG        160.2200  -29.1160  162.3890 C.3       1 GLN         0.0412
     56 CD        159.4040  -29.0260  163.6660 C.2       1 GLN         0.1737
     57 OE1       159.0880  -27.9330  164.1350 O.2       1 GLN        -0.3973
     58 NE2       159.0560  -30.1770  164.2330 N.am      1 GLN        -0.3009
     59 N         164.7170  -29.0790  162.4450 N.am      1 SEP        -0.2613
     60 CA        165.8670  -29.6450  161.7540 C.3       1 SEP         0.1586
     61 CB        166.8270  -28.5260  161.3340 C.3       1 SEP         0.1184
     62 OG        168.1490  -28.9990  161.1520 O.3       1 SEP        -0.2714
     63 C         166.5720  -30.6670  162.6300 C.2       1 SEP         0.2065
     64 O         167.1460  -31.6330  162.1350 O.2       1 SEP        -0.3943
     65 P         169.1450  -27.7860  161.4840 P.3       1 SEP         0.2010
     66 O1P       168.7930  -26.5390  160.5380 O.co2     1 SEP        -0.5537
     67 O2P       170.6650  -28.2330  161.2340 O.co2     1 SEP        -0.5537
     68 O3P       168.9540  -27.3570  163.0170 O.co2     1 SEP        -0.5537
     69 N         166.5340  -30.4270  163.9360 N.am      1 LEU        -0.2636
     70 CA        167.1800  -31.2970  164.9120 C.3       1 LEU         0.1312
     71 C         166.4450  -32.6170  165.0980 C.2       1 LEU         0.2040
     72 O         167.0630  -33.6790  165.1140 O.2       1 LEU        -0.3944
     73 CB        167.3050  -30.5810  166.2590 C.3       1 LEU        -0.0101
     74 CG        168.6390  -29.8840  166.5260 C.3       1 LEU        -0.0425
     75 CD1       168.4090  -28.5620  167.2310 C.3       1 LEU        -0.0625
     76 CD2       169.5400  -30.7820  167.3560 C.3       1 LEU        -0.0625
     77 N         165.1260  -32.5460  165.2510 N.am      1 TYR        -0.2621
     78 CA        164.3110  -33.7470  165.4190 C.3       1 TYR         0.1390
     79 C         164.4060  -34.6690  164.2050 C.2       1 TYR         0.2057
     80 O         164.2980  -35.8870  164.3320 O.2       1 TYR        -0.3942
     81 CB        162.8430  -33.3900  165.6740 C.3       1 TYR         0.0163
     82 CG        162.6010  -32.5270  166.8930 C.ar      1 TYR        -0.0493
     83 CD1       163.2140  -32.8140  168.1060 C.ar      1 TYR        -0.0685
     84 CD2       161.7400  -31.4390  166.8370 C.ar      1 TYR        -0.0685
     85 CE1       162.9880  -32.0310  169.2240 C.ar      1 TYR        -0.0398
     86 CE2       161.5070  -30.6530  167.9480 C.ar      1 TYR        -0.0398
     87 CZ        162.1310  -30.9520  169.1380 C.ar      1 TYR         0.0805
     88 OH        161.8960  -30.1640  170.2430 O.3       1 TYR        -0.3376
     89 N         164.6070  -34.0780  163.0310 N.am      1 LEU        -0.2636
     90 CA        164.7540  -34.8390  161.7920 C.3       1 LEU         0.1312
     91 C         165.9920  -35.7290  161.8040 C.2       1 LEU         0.2039
     92 O         165.9720  -36.8400  161.2760 O.2       1 LEU        -0.3944
     93 CB        164.8250  -33.8940  160.5900 C.3       1 LEU        -0.0101
     94 CG        163.5190  -33.3590  160.0010 C.3       1 LEU        -0.0425
     95 CD1       163.7960  -32.1130  159.1810 C.3       1 LEU        -0.0625
     96 CD2       162.8310  -34.4140  159.1460 C.3       1 LEU        -0.0625
     97 N         167.0670  -35.2390  162.4130 N.am      1 LYS        -0.2637
     98 CA        168.3410  -35.9540  162.4070 C.3       1 LYS         0.1310
     99 C         168.4760  -37.0430  163.4680 C.2       1 LYS         0.2040
    100 O         169.0880  -38.0830  163.2170 O.2       1 LYS        -0.3944
    101 CB        169.4990  -34.9650  162.5700 C.3       1 LYS        -0.0122
    102 CG        169.5870  -33.9200  161.4710 C.3       1 LYS        -0.0440
    103 CD        170.6610  -32.8870  161.7830 C.3       1 LYS        -0.0124
    104 CE        170.6210  -31.7170  160.8100 C.3       1 LYS        -0.0354
    105 NZ        171.7100  -30.7360  161.0890 N.4       1 LYS         0.2185
    106 N         167.9120  -36.8190  164.6510 N.am      1 PHE        -0.2619
    107 CA        168.1440  -37.7500  165.7540 C.3       1 PHE         0.1404
    108 C         166.9450  -38.5830  166.2010 C.2       1 PHE         0.2060
    109 O         167.0930  -39.7700  166.4800 O.2       1 PHE        -0.3942
    110 CB        168.6860  -36.9840  166.9660 C.3       1 PHE         0.0214
    111 CG        169.9090  -36.1700  166.6680 C.ar      1 PHE        -0.0386
    112 CD1       171.1490  -36.7800  166.5620 C.ar      1 PHE        -0.0601
    113 CD2       169.8250  -34.8000  166.4950 C.ar      1 PHE        -0.0601
    114 CE1       172.2800  -36.0400  166.2910 C.ar      1 PHE        -0.0686
    115 CE2       170.9550  -34.0510  166.2230 C.ar      1 PHE        -0.0686
    116 CZ        172.1840  -34.6730  166.1200 C.ar      1 PHE        -0.0687
    117 N         165.7650  -37.9790  166.2770 N.am      1 ASP        -0.2620
    118 CA        164.6040  -38.7290  166.7390 C.3       1 ASP         0.1425
    119 C         164.1730  -39.7660  165.6960 C.2       1 ASP         0.2081
    120 O         164.2170  -39.5050  164.4970 O.2       1 ASP        -0.3941
    121 CB        163.4570  -37.7800  167.0850 C.3       1 ASP         0.0406
    122 CG        162.2090  -38.0550  166.2760 C.2       1 ASP         0.0393
    123 OD1       161.5200  -39.0630  166.5530 O.co2     1 ASP        -0.5688
    124 OD2       161.9030  -37.2510  165.3700 O.co2     1 ASP        -0.5688
    125 N         163.7520  -40.9520  166.1620 N.am      1 PRO        -0.2497
    126 CA        163.4450  -42.1170  165.3200 C.3       1 PRO         0.1338
    127 C         162.3590  -41.9120  164.2670 C.2       1 PRO         0.2041
    128 O         162.3750  -42.6270  163.2590 O.2       1 PRO        -0.3944
    129 CB        162.9600  -43.1550  166.3260 C.3       1 PRO        -0.0104
    130 CG        163.6330  -42.8130  167.5910 C.3       1 PRO        -0.0281
    131 CD        163.9500  -41.3390  167.5700 C.3       1 PRO         0.0369
    132 N         161.4150  -41.0040  164.5160 N.am      1 LEU        -0.2637
    133 CA        160.3530  -40.7130  163.5470 C.3       1 LEU         0.1312
    134 C         159.5550  -41.9360  163.1110 C.2       1 LEU         0.2033
    135 O         158.8120  -42.5100  163.9100 O.2       1 LEU        -0.3944
    136 CB        160.9320  -40.0110  162.3080 C.3       1 LEU        -0.0101
    137 CG        161.1890  -38.5020  162.3930 C.3       1 LEU        -0.0425
    138 CD1       161.6550  -37.9590  161.0600 C.3       1 LEU        -0.0625
    139 CD2       159.8870  -37.8150  162.7790 C.3       1 LEU        -0.0625
    140 N         159.8280  -42.3910  161.8890 N.am      1 LEU        -0.2695
    141 CA        159.0180  -43.3860  161.1840 C.3       1 LEU         0.0946
    142 C         158.5070  -44.5380  162.0450 C.2       1 LEU         0.0601
    143 O         157.3660  -44.5110  162.5150 O.co2     1 LEU        -0.5666
    144 CB        159.8400  -43.9750  160.0380 C.3       1 LEU        -0.0156
    145 CG        160.3370  -43.0980  158.8890 C.3       1 LEU        -0.0431
    146 CD1       161.8040  -42.7140  159.0780 C.3       1 LEU        -0.0625
    147 CD2       160.1830  -43.8690  157.5920 C.3       1 LEU        -0.0625
    148 OXT       159.2280  -45.5110  162.2820 O.co2     1 LEU        -0.5666
    149 H1        159.5444  -16.9768  167.9463 H         1 LYS         0.2015
    150 H2        161.1620  -17.2096  167.7499 H         1 LYS         0.2015
    151 H3        160.1247  -18.4800  167.6104 H         1 LYS         0.2015
    152 H4        159.1124  -17.5609  165.6938 H         1 LYS         0.1095
    153 H5        160.1298  -15.5474  164.6531 H         1 LYS         0.0310
    154 H6        161.2181  -15.3726  166.0714 H         1 LYS         0.0310
    155 H7        159.4426  -15.1891  166.2736 H         1 LYS         0.0310
    156 H8        162.6194  -17.2364  166.3569 H         1 GLU         0.1884
    157 H9        163.1735  -18.7389  163.8661 H         1 GLU         0.0797
    158 H10       165.5362  -18.0696  164.2550 H         1 GLU         0.0277
    159 H11       165.0473  -17.2721  165.7885 H         1 GLU         0.0277
    160 H12       164.4301  -16.6547  164.2186 H         1 GLU         0.0277
    161 H13       162.9489  -19.2588  167.2379 H         1 SER         0.1884
    162 H14       164.9648  -21.2710  167.5408 H         1 SER         0.0823
    163 H15       163.9730  -20.0505  169.4462 H         1 SER         0.0606
    164 H16       163.8088  -21.8290  169.6378 H         1 SER         0.0606
    165 H17       161.8571  -20.6910  170.1088 H         1 SER         0.2097
    166 H18       161.4533  -21.4947  166.8777 H         1 ALA         0.1883
    167 H19       161.2989  -24.3276  167.0066 H         1 ALA         0.0797
    168 H20       159.1632  -24.0618  165.7635 H         1 ALA         0.0277
    169 H21       159.5848  -22.3475  165.4315 H         1 ALA         0.0277
    170 H22       159.3135  -22.8948  167.1208 H         1 ALA         0.0277
    171 H23       162.3186  -22.2011  164.3878 H         1 LEU         0.1883
    172 H24       162.0261  -24.1152  162.2765 H         1 LEU         0.0800
    173 H25       164.0122  -22.5451  161.3466 H         1 LEU         0.0315
    174 H26       163.4075  -21.4980  162.6750 H         1 LEU         0.0315
    175 H27       161.4466  -22.6720  160.7169 H         1 LEU         0.0298
    176 H28       160.2832  -20.5401  161.1487 H         1 LEU         0.0232
    177 H29       161.6370  -20.0192  162.2082 H         1 LEU         0.0232
    178 H30       160.6295  -21.4334  162.6681 H         1 LEU         0.0232
    179 H31       163.2905  -21.7803  159.3375 H         1 LEU         0.0232
    180 H32       163.1697  -20.2100  160.2012 H         1 LEU         0.0232
    181 H33       161.8007  -20.7874  159.1916 H         1 LEU         0.0232
    182 H34       164.8064  -23.2739  164.3653 H         1 ARG         0.1883
    183 H35       166.5533  -25.1966  163.0646 H         1 ARG         0.0800
    184 H36       168.0304  -24.7690  165.0733 H         1 ARG         0.0313
    185 H37       166.7606  -23.6531  165.6809 H         1 ARG         0.0313
    186 H38       168.3717  -22.2893  164.6185 H         1 ARG         0.0301
    187 H39       166.9913  -22.4028  163.4746 H         1 ARG         0.0301
    188 H40       168.9696  -22.6329  162.1718 H         1 ARG         0.0689
    189 H41       168.2603  -24.2770  162.3149 H         1 ARG         0.0689
    190 H42       170.1624  -23.8761  164.4260 H         1 ARG         0.2642
    191 H43       171.5926  -25.0548  160.8090 H         1 ARG         0.2615
    192 H44       169.9799  -24.2988  160.9113 H         1 ARG         0.2615
    193 H45       172.2070  -24.8296  164.2885 H         1 ARG         0.2615
    194 H46       172.8479  -25.3432  162.7048 H         1 ARG         0.2615
    195 H47       164.2056  -25.2790  165.6382 H         1 LYS         0.1883
    196 H48       165.1300  -27.6367  166.9721 H         1 LYS         0.0800
    197 H49       162.5469  -27.7914  167.5138 H         1 LYS         0.0312
    198 H50       162.5113  -26.1521  166.7803 H         1 LYS         0.0312
    199 H51       164.2759  -25.4589  168.4320 H         1 LYS         0.0269
    200 H52       164.0836  -27.0598  169.2237 H         1 LYS         0.0269
    201 H53       161.7838  -26.6176  169.7553 H         1 LYS         0.0317
    202 H54       161.7584  -25.1531  168.7156 H         1 LYS         0.0317
    203 H55       163.4854  -24.1338  170.2413 H         1 LYS         0.0813
    204 H56       163.2839  -25.5514  171.3260 H         1 LYS         0.0813
    205 H57       161.9137  -23.7004  172.0031 H         1 LYS         0.1994
    206 H58       160.9630  -24.9620  171.5407 H         1 LYS         0.1994
    207 H59       161.1476  -23.6630  170.5467 H         1 LYS         0.1994
    208 H60       162.8540  -27.1301  164.2803 H         1 GLN         0.1883
    209 H61       161.9785  -29.8362  164.0640 H         1 GLN         0.0801
    210 H62       162.0384  -28.3980  161.5138 H         1 GLN         0.0337
    211 H63       161.3919  -27.3825  162.8470 H         1 GLN         0.0337
    212 H64       160.3939  -30.1767  162.1553 H         1 GLN         0.0504
    213 H65       159.6499  -28.6492  161.5723 H         1 GLN         0.0504
    214 H66       158.5180  -30.1766  165.0760 H         1 GLN         0.1814
    215 H67       159.3322  -31.0432  163.8165 H         1 GLN         0.1814
    216 H68       164.7437  -28.1196  162.7259 H         1 SEP         0.1884
    217 H69       165.5114  -30.1560  160.8471 H         1 SEP         0.0827
    218 H70       166.8319  -27.7512  162.1147 H         1 SEP         0.0662
    219 H71       166.4725  -28.0910  160.3879 H         1 SEP         0.0662
    220 H72       166.0437  -29.6189  164.2624 H         1 LEU         0.1883
    221 H73       168.1918  -31.5224  164.5439 H         1 LEU         0.0800
    222 H74       167.1504  -31.3271  167.0524 H         1 LEU         0.0315
    223 H75       166.5118  -29.8207  166.3110 H         1 LEU         0.0315
    224 H76       169.1319  -29.6862  165.5627 H         1 LEU         0.0298
    225 H77       169.3763  -28.0722  167.4165 H         1 LEU         0.0232
    226 H78       167.8991  -28.7412  168.1891 H         1 LEU         0.0232
    227 H79       167.7847  -27.9132  166.5991 H         1 LEU         0.0232
    228 H80       169.6946  -31.7347  166.8283 H         1 LEU         0.0232
    229 H81       169.0679  -30.9751  168.3306 H         1 LEU         0.0232
    230 H82       170.5100  -30.2866  167.5101 H         1 LEU         0.0232
    231 H83       164.6817  -31.6501  165.2511 H         1 TYR         0.1885
    232 H84       164.6910  -34.2925  166.2954 H         1 TYR         0.0821
    233 H85       162.2804  -34.3266  165.8011 H         1 TYR         0.0453
    234 H86       162.4641  -32.8512  164.7930 H         1 TYR         0.0453
    235 H87       163.8806  -33.6658  168.1778 H         1 TYR         0.0530
    236 H88       161.2416  -31.2024  165.9039 H         1 TYR         0.0530
    237 H89       163.4806  -32.2632  170.1613 H         1 TYR         0.0525
    238 H90       160.8357  -29.8043  167.8834 H         1 TYR         0.0525
    239 H91       162.3951  -30.4967  170.9797 H         1 TYR         0.2458
    240 H92       164.6593  -33.0800  162.9946 H         1 LEU         0.1883
    241 H93       163.8686  -35.4822  161.6810 H         1 LEU         0.0800
    242 H94       165.3472  -34.4319  159.7851 H         1 LEU         0.0315
    243 H95       165.4228  -33.0232  160.8971 H         1 LEU         0.0315
    244 H96       162.8466  -33.0918  160.8295 H         1 LEU         0.0298
    245 H97       162.8530  -31.7337  158.7605 H         1 LEU         0.0232
    246 H98       164.4894  -32.3588  158.3632 H         1 LEU         0.0232
    247 H99       164.2464  -31.3430  159.8247 H         1 LEU         0.0232
    248 H100      162.6374  -35.3098  159.7543 H         1 LEU         0.0232
    249 H101      163.4801  -34.6796  158.2986 H         1 LEU         0.0232
    250 H102      161.8784  -34.0150  158.7673 H         1 LEU         0.0232
    251 H103      167.0022  -34.3605  162.8863 H         1 LYS         0.1883
    252 H104      168.4351  -36.4393  161.4243 H         1 LYS         0.0800
    253 H105      170.4399  -35.5346  162.5800 H         1 LYS         0.0312
    254 H106      169.3751  -34.4446  163.5312 H         1 LYS         0.0312
    255 H107      168.6156  -33.4121  161.3793 H         1 LYS         0.0269
    256 H108      169.8319  -34.4173  160.5209 H         1 LYS         0.0269
    257 H109      171.6477  -33.3691  161.7194 H         1 LYS         0.0317
    258 H110      170.5036  -32.5069  162.8032 H         1 LYS         0.0317
    259 H111      169.6499  -31.2086  160.9021 H         1 LYS         0.0813
    260 H112      170.7388  -32.0999  159.7856 H         1 LYS         0.0813
    261 H113      171.6550  -29.9762  160.4289 H         1 LYS         0.1994
    262 H114      172.6043  -31.1928  161.0017 H         1 LYS         0.1994
    263 H115      171.6064  -30.3761  162.0248 H         1 LYS         0.1994
    264 H116      167.3310  -36.0163  164.7858 H         1 PHE         0.1885
    265 H117      168.9174  -38.4558  165.4167 H         1 PHE         0.0823
    266 H118      168.9362  -37.7111  167.7526 H         1 PHE         0.0474
    267 H119      167.8987  -36.3072  167.3293 H         1 PHE         0.0474
    268 H120      171.2305  -37.8529  166.6939 H         1 PHE         0.0557
    269 H121      168.8622  -34.3081  166.5736 H         1 PHE         0.0557
    270 H122      173.2435  -36.5305  166.2122 H         1 PHE         0.0599
    271 H123      170.8766  -32.9779  166.0909 H         1 PHE         0.0599
    272 H124      173.0717  -34.0891  165.9053 H         1 PHE         0.0559
    273 H125      165.6737  -37.0171  166.0193 H         1 ASP         0.1884
    274 H126      164.8877  -39.2677  167.6551 H         1 ASP         0.0819
    275 H127      163.7829  -36.7477  166.8895 H         1 ASP         0.0478
    276 H128      163.2165  -37.8927  168.1524 H         1 ASP         0.0478
    277 H129      164.3610  -42.4560  164.8140 H         1 PRO         0.0802
    278 H130      163.2414  -44.1675  166.0012 H         1 PRO         0.0313
    279 H131      161.8677  -43.0977  166.4428 H         1 PRO         0.0313
    280 H132      164.5628  -43.3928  167.6872 H         1 PRO         0.0287
    281 H133      162.9701  -43.0396  168.4390 H         1 PRO         0.0287
    282 H134      163.2665  -40.7827  168.2283 H         1 PRO         0.0524
    283 H135      164.9889  -41.1580  167.8829 H         1 PRO         0.0524
    284 H136      161.4314  -40.5091  165.3848 H         1 LEU         0.1883
    285 H137      159.6509  -40.0204  164.0342 H         1 LEU         0.0800
    286 H138      160.2287  -40.1773  161.4787 H         1 LEU         0.0315
    287 H139      161.8926  -40.4943  162.0766 H         1 LEU         0.0315
    288 H140      161.9563  -38.3033  163.1557 H         1 LEU         0.0298
    289 H141      161.8323  -36.8768  161.1467 H         1 LEU         0.0232
    290 H142      160.8831  -38.1442  160.2985 H         1 LEU         0.0232
    291 H143      162.5885  -38.4610  160.7656 H         1 LEU         0.0232
    292 H144      159.5404  -38.2040  163.7478 H         1 LEU         0.0232
    293 H145      159.1256  -38.0139  162.0105 H         1 LEU         0.0232
    294 H146      160.0539  -36.7306  162.8578 H         1 LEU         0.0232
    295 H147      160.6367  -42.0304  161.4243 H         1 LEU         0.1875
    296 H148      158.1430  -42.8664  160.7664 H         1 LEU         0.0726
    297 H149      159.2219  -44.7634  159.5838 H         1 LEU         0.0308
    298 H150      160.7331  -44.4266  160.4946 H         1 LEU         0.0308
    299 H151      159.7300  -42.1816  158.8463 H         1 LEU         0.0297
    300 H152      162.1296  -42.0848  158.2365 H         1 LEU         0.0232
    301 H153      162.4197  -43.6248  159.1145 H         1 LEU         0.0232
    302 H154      161.9187  -42.1559  160.0189 H         1 LEU         0.0232
    303 H155      159.1276  -44.1466  157.4536 H         1 LEU         0.0232
    304 H156      160.7995  -44.7792  157.6310 H         1 LEU         0.0232
    305 H157      160.5101  -43.2404  156.7507 H         1 LEU         0.0232
@<TRIPOS>BOND
     1    1    2 1  
     2    2    3 1  
     3    2    5 1  
     4    3    4 2  
     5    3    6 am 
     6    6    7 1  
     7    7    8 1  
     8    7   10 1  
     9    8    9 2  
    10    8   11 am 
    11   11   12 1  
    12   12   13 1  
    13   12   15 1  
    14   13   14 2  
    15   13   17 am 
    16   15   16 1  
    17   17   18 1  
    18   18   19 1  
    19   18   21 1  
    20   19   20 2  
    21   19   22 am 
    22   22   23 1  
    23   23   24 1  
    24   23   26 1  
    25   24   25 2  
    26   24   30 am 
    27   26   27 1  
    28   27   28 1  
    29   27   29 1  
    30   30   31 1  
    31   31   32 1  
    32   31   34 1  
    33   32   33 2  
    34   32   41 am 
    35   34   35 1  
    36   35   36 1  
    37   36   37 1  
    38   37   38 ar 
    39   38   39 ar 
    40   38   40 ar 
    41   41   42 1  
    42   42   43 1  
    43   42   45 1  
    44   43   44 2  
    45   43   50 am 
    46   45   46 1  
    47   46   47 1  
    48   47   48 1  
    49   48   49 1  
    50   50   51 1  
    51   51   52 1  
    52   51   54 1  
    53   52   53 2  
    54   52   59 am 
    55   54   55 1  
    56   55   56 1  
    57   56   57 2  
    58   56   58 am 
    59   59   60 1  
    60   60   61 1  
    61   60   63 1  
    62   61   62 1  
    63   62   65 1  
    64   63   64 2  
    65   63   69 am 
    66   65   66 ar 
    67   65   67 ar 
    68   65   68 ar 
    69   69   70 1  
    70   70   71 1  
    71   70   73 1  
    72   71   72 2  
    73   71   77 am 
    74   73   74 1  
    75   74   75 1  
    76   74   76 1  
    77   77   78 1  
    78   78   79 1  
    79   78   81 1  
    80   79   80 2  
    81   79   89 am 
    82   81   82 1  
    83   82   83 ar 
    84   82   84 ar 
    85   83   85 ar 
    86   84   86 ar 
    87   85   87 ar 
    88   86   87 ar 
    89   87   88 1  
    90   89   90 1  
    91   90   91 1  
    92   90   93 1  
    93   91   92 2  
    94   91   97 am 
    95   93   94 1  
    96   94   95 1  
    97   94   96 1  
    98   97   98 1  
    99   98   99 1  
   100   98  101 1  
   101   99  100 2  
   102   99  106 am 
   103  101  102 1  
   104  102  103 1  
   105  103  104 1  
   106  104  105 1  
   107  106  107 1  
   108  107  108 1  
   109  107  110 1  
   110  108  109 2  
   111  108  117 am 
   112  110  111 1  
   113  111  112 ar 
   114  111  113 ar 
   115  112  114 ar 
   116  113  115 ar 
   117  114  116 ar 
   118  115  116 ar 
   119  117  118 1  
   120  118  119 1  
   121  118  121 1  
   122  119  120 2  
   123  119  125 am 
   124  121  122 1  
   125  122  123 ar 
   126  122  124 ar 
   127  125  126 1  
   128  125  131 1  
   129  126  127 1  
   130  126  129 1  
   131  127  128 2  
   132  127  132 am 
   133  129  130 1  
   134  130  131 1  
   135  132  133 1  
   136  133  134 1  
   137  133  136 1  
   138  134  135 2  
   139  134  140 am 
   140  136  137 1  
   141  137  138 1  
   142  137  139 1  
   143  140  141 1  
   144  141  142 1  
   145  141  144 1  
   146  142  143 ar 
   147  142  148 ar 
   148  144  145 1  
   149  145  146 1  
   150  145  147 1  
   151    1  149 1  
   152    1  150 1  
   153    1  151 1  
   154    2  152 1  
   155    5  153 1  
   156    5  154 1  
   157    5  155 1  
   158    6  156 1  
   159    7  157 1  
   160   10  158 1  
   161   10  159 1  
   162   10  160 1  
   163   11  161 1  
   164   12  162 1  
   165   15  163 1  
   166   15  164 1  
   167   16  165 1  
   168   17  166 1  
   169   18  167 1  
   170   21  168 1  
   171   21  169 1  
   172   21  170 1  
   173   22  171 1  
   174   23  172 1  
   175   26  173 1  
   176   26  174 1  
   177   27  175 1  
   178   28  176 1  
   179   28  177 1  
   180   28  178 1  
   181   29  179 1  
   182   29  180 1  
   183   29  181 1  
   184   30  182 1  
   185   31  183 1  
   186   34  184 1  
   187   34  185 1  
   188   35  186 1  
   189   35  187 1  
   190   36  188 1  
   191   36  189 1  
   192   37  190 1  
   193   39  191 1  
   194   39  192 1  
   195   40  193 1  
   196   40  194 1  
   197   41  195 1  
   198   42  196 1  
   199   45  197 1  
   200   45  198 1  
   201   46  199 1  
   202   46  200 1  
   203   47  201 1  
   204   47  202 1  
   205   48  203 1  
   206   48  204 1  
   207   49  205 1  
   208   49  206 1  
   209   49  207 1  
   210   50  208 1  
   211   51  209 1  
   212   54  210 1  
   213   54  211 1  
   214   55  212 1  
   215   55  213 1  
   216   58  214 1  
   217   58  215 1  
   218   59  216 1  
   219   60  217 1  
   220   61  218 1  
   221   61  219 1  
   222   69  220 1  
   223   70  221 1  
   224   73  222 1  
   225   73  223 1  
   226   74  224 1  
   227   75  225 1  
   228   75  226 1  
   229   75  227 1  
   230   76  228 1  
   231   76  229 1  
   232   76  230 1  
   233   77  231 1  
   234   78  232 1  
   235   81  233 1  
   236   81  234 1  
   237   83  235 1  
   238   84  236 1  
   239   85  237 1  
   240   86  238 1  
   241   88  239 1  
   242   89  240 1  
   243   90  241 1  
   244   93  242 1  
   245   93  243 1  
   246   94  244 1  
   247   95  245 1  
   248   95  246 1  
   249   95  247 1  
   250   96  248 1  
   251   96  249 1  
   252   96  250 1  
   253   97  251 1  
   254   98  252 1  
   255  101  253 1  
   256  101  254 1  
   257  102  255 1  
   258  102  256 1  
   259  103  257 1  
   260  103  258 1  
   261  104  259 1  
   262  104  260 1  
   263  105  261 1  
   264  105  262 1  
   265  105  263 1  
   266  106  264 1  
   267  107  265 1  
   268  110  266 1  
   269  110  267 1  
   270  112  268 1  
   271  113  269 1  
   272  114  270 1  
   273  115  271 1  
   274  116  272 1  
   275  117  273 1  
   276  118  274 1  
   277  121  275 1  
   278  121  276 1  
   279  126  277 1  
   280  129  278 1  
   281  129  279 1  
   282  130  280 1  
   283  130  281 1  
   284  131  282 1  
   285  131  283 1  
   286  132  284 1  
   287  133  285 1  
   288  136  286 1  
   289  136  287 1  
   290  137  288 1  
   291  138  289 1  
   292  138  290 1  
   293  138  291 1  
   294  139  292 1  
   295  139  293 1  
   296  139  294 1  
   297  140  295 1  
   298  141  296 1  
   299  144  297 1  
   300  144  298 1  
   301  145  299 1  
   302  146  300 1  
   303  146  301 1  
   304  146  302 1  
   305  147  303 1  
   306  147  304 1  
   307  147  305 1  
@<TRIPOS>SUBSTRUCTURE
     1 LYS         1

