6cq4_ligand
  -I-interpret- 

 43 46  0  0  0  0  0  0  0  0999 V2000
  107.0890  -13.2410   -1.8650 C   0  0  0  0  0
  107.1520  -12.0890    0.2790 C   0  0  0  0  0
  107.1510  -10.7690    2.4270 C   0  0  0  0  0
  106.9460   -9.5330    3.1420 C   0  0  0  0  0
  107.1290   -9.4400    4.5560 C   0  0  0  0  0
  107.5290  -10.5640    5.3240 C   0  0  0  0  0
  107.7470  -10.4780    6.8890 C   0  0  0  0  0
  107.4400  -11.9350    7.3560 C   0  0  0  0  0
  107.7030  -12.1740    8.8620 C   0  0  0  0  0
  107.8600  -10.8640    9.6270 C   0  0  0  0  0
  106.8800   -9.7470    9.2820 C   0  0  0  0  0
  106.9390   -9.4270    7.7730 C   0  0  0  0  0
  107.7320  -11.7760    4.6100 C   0  0  0  0  0
  107.5480  -11.8900    3.1780 C   0  0  0  0  0
  107.7600  -13.1660    2.4070 C   0  0  0  0  0
  107.5550  -13.2550    0.9590 C   0  0  0  0  0
  107.7220  -14.4630    0.1570 C   0  0  0  0  0
  107.4990  -14.4760   -1.2270 C   0  0  0  0  0
  107.6830  -15.7740   -2.0950 C   0  0  0  0  0
  109.2000  -10.4030    9.5960 F   0  0  0  0  0
  107.8530  -11.1060   11.0330 F   0  0  0  0  0
  106.8470  -13.2000   -3.2920 N   0  0  0  0  0
  106.9200  -12.0660   -1.1090 N   0  0  0  0  0
  106.9690  -10.8730    1.0330 O   0  0  0  0  0
  108.1220  -14.1850    3.0500 O   0  0  0  0  0
  107.3410  -15.7830   -3.3100 O   0  0  0  0  0
  108.1870  -16.8230   -1.5380 O   0  0  0  0  0
  106.6429   -8.6447    2.5878 H   0  0  0  0  0
  106.9578   -8.4861    5.0549 H   0  0  0  0  0
  108.7513  -10.0861    7.0500 H   0  0  0  0  0
  108.0998  -12.6012    6.8002 H   0  0  0  0  0
  106.3805  -12.1181    7.1771 H   0  0  0  0  0
  108.6287  -12.7408    8.9615 H   0  0  0  0  0
  106.8504  -12.7118    9.2766 H   0  0  0  0  0
  107.1477   -8.8531    9.8454 H   0  0  0  0  0
  105.8704  -10.0687    9.5376 H   0  0  0  0  0
  105.9112   -9.4368    7.4101 H   0  0  0  0  0
  107.4557   -8.4723    7.6751 H   0  0  0  0  0
  108.0406  -12.6612    5.1662 H   0  0  0  0  0
  108.0301  -15.3849    0.6502 H   0  0  0  0  0
  106.9649  -14.0432   -3.8537 H   0  0  0  0  0
  106.5586  -12.3279   -3.7355 H   0  0  0  0  0
  108.3851  -16.6317   -0.6183 H   0  0  0  0  0
  1 18  4  0  0  0
  1 22  1  0  0  0
 23  1  4  0  0  0
  2 16  4  0  0  0
  2 23  4  0  0  0
 24  2  1  0  0  0
  3  4  4  0  0  0
  3 14  4  0  0  0
  3 24  1  0  0  0
  4  5  4  0  0  0
  5  6  4  0  0  0
  6  7  1  0  0  0
  6 13  4  0  0  0
  7  8  1  0  0  0
  7 12  1  0  0  0
  8  9  1  0  0  0
  9 10  1  0  0  0
 10 11  1  0  0  0
 10 20  1  0  0  0
 10 21  1  0  0  0
 11 12  1  0  0  0
 13 14  4  0  0  0
 14 15  1  0  0  0
 15 16  1  0  0  0
 15 25  2  0  0  0
 16 17  4  0  0  0
 17 18  4  0  0  0
 18 19  1  0  0  0
 19 26  2  0  0  0
 19 27  1  0  0  0
  4 28  1  0  0  0
  5 29  1  0  0  0
  7 30  1  0  0  0
  8 31  1  0  0  0
  8 32  1  0  0  0
  9 33  1  0  0  0
  9 34  1  0  0  0
 11 35  1  0  0  0
 11 36  1  0  0  0
 12 37  1  0  0  0
 12 38  1  0  0  0
 13 39  1  0  0  0
 17 40  1  0  0  0
 22 41  1  0  0  0
 22 42  1  0  0  0
 27 43  1  0  0  0
M  END
$$$$
