4lwh_ligand
  -I-interpret- 

 65 69  0  0  0  0  0  0  0  0999 V2000
    1.5640  -34.0610  -25.1020 C   0  0  0  0  0
    0.3060  -33.6680  -24.6490 C   0  0  0  0  0
    0.1990  -32.9500  -23.4350 C   0  0  0  0  0
    1.3380  -32.6250  -22.7080 C   0  0  0  0  0
    2.5890  -33.0330  -23.1560 C   0  0  0  0  0
    2.6960  -33.7510  -24.3760 C   0  0  0  0  0
    3.9550  -34.1070  -24.8660 O   0  0  0  0  0
    1.2510  -31.9370  -21.5170 O   0  0  0  0  0
   -1.1870  -32.4550  -22.9960 C   0  0  0  0  0
    1.6260  -34.8800  -26.3330 C   0  0  0  0  0
   -2.2430  -33.4170  -23.1960 C   0  0  0  0  0
   -1.4540  -31.1290  -23.6570 C   0  0  0  0  0
    2.3180  -34.7290  -27.4500 N   0  0  0  0  0
    2.0400  -35.7310  -28.2850 O   0  0  0  0  0
    1.1810  -36.5830  -27.7780 C   0  0  0  0  0
    0.8430  -36.1080  -26.4720 C   0  0  0  0  0
   -0.0710  -36.6210  -25.4110 C   0  0  0  0  0
   -1.4740  -36.6430  -25.6220 C   0  0  0  0  0
   -2.3070  -37.0980  -24.5880 C   0  0  0  0  0
   -1.7610  -37.5160  -23.3600 C   0  0  0  0  0
   -0.3660  -37.4710  -23.1350 C   0  0  0  0  0
    0.4670  -37.0140  -24.1690 C   0  0  0  0  0
   -2.6990  -37.9590  -22.2390 C   0  0  0  0  0
   -2.7420  -39.3930  -22.1070 N   0  3  0  0  0
    0.6030  -37.7570  -28.4110 N   0  0  0  0  0
    0.5110  -39.0490  -27.7310 C   0  0  0  0  0
    0.0040  -39.9590  -28.3360 O   0  0  0  0  0
    1.3500  -39.3430  -26.5210 C   0  0  0  0  0
    0.5750  -40.1620  -25.5450 C   0  0  0  0  0
    1.5880  -40.8120  -26.4230 C   0  0  0  0  0
   -3.3550  -40.0810  -23.1750 C   0  0  0  0  0
   -3.8740  -41.4470  -22.8890 C   0  0  0  0  0
   -4.4200  -41.5680  -21.6010 O   0  0  0  0  0
   -3.4760  -41.2120  -20.6410 C   0  0  0  0  0
   -3.1130  -39.7820  -20.7960 C   0  0  0  0  0
   -0.5869  -33.9116  -25.2247 H   0  0  0  0  0
    3.4818  -32.8032  -22.5745 H   0  0  0  0  0
    4.6306  -33.8215  -24.2466 H   0  0  0  0  0
    2.1324  -31.8035  -21.1607 H   0  0  0  0  0
   -1.1782  -32.3192  -21.9145 H   0  0  0  0  0
   -3.1725  -33.0255  -22.7827 H   0  0  0  0  0
   -2.3675  -33.6013  -24.2631 H   0  0  0  0  0
   -1.9841  -34.3486  -22.6928 H   0  0  0  0  0
   -1.5651  -31.2759  -24.7313 H   0  0  0  0  0
   -2.3701  -30.7000  -23.2510 H   0  0  0  0  0
   -0.6194  -30.4545  -23.4656 H   0  0  0  0  0
   -1.8974  -36.3124  -26.5704 H   0  0  0  0  0
   -3.3863  -37.1279  -24.7374 H   0  0  0  0  0
    0.0540  -37.7844  -22.1792 H   0  0  0  0  0
    1.5440  -36.9625  -24.0090 H   0  0  0  0  0
   -3.7034  -37.6081  -22.4761 H   0  0  0  0  0
   -2.3315  -37.5411  -21.3017 H   0  0  0  0  0
   -1.7848  -39.7277  -22.2168 H   0  0  0  0  0
    0.2486  -37.6770  -29.3641 H   0  0  0  0  0
    1.9661  -38.4457  -26.4635 H   0  0  0  0  0
   -0.1801  -40.2331  -24.7621 H   0  0  0  0  0
    2.1164  -41.7066  -26.7526 H   0  0  0  0  0
   -2.5800  -40.2090  -23.9307 H   0  0  0  0  0
   -4.2237  -39.4847  -23.4539 H   0  0  0  0  0
   -3.0374  -42.1420  -22.9616 H   0  0  0  0  0
   -4.6666  -41.6581  -23.6068 H   0  0  0  0  0
   -2.5841  -41.8253  -20.7690 H   0  0  0  0  0
   -3.8958  -41.3708  -19.6477 H   0  0  0  0  0
   -4.0000  -39.2039  -20.5370 H   0  0  0  0  0
   -2.2447  -39.6087  -20.1604 H   0  0  0  0  0
  1  2  4  0  0  0
  1  6  4  0  0  0
  1 10  1  0  0  0
  2  3  4  0  0  0
  3  4  4  0  0  0
  3  9  1  0  0  0
  4  5  4  0  0  0
  4  8  1  0  0  0
  5  6  4  0  0  0
  6  7  1  0  0  0
  9 11  1  0  0  0
  9 12  1  0  0  0
 10 13  4  0  0  0
 10 16  4  0  0  0
 13 14  4  0  0  0
 14 15  4  0  0  0
 15 16  4  0  0  0
 15 25  1  0  0  0
 16 17  1  0  0  0
 17 18  4  0  0  0
 17 22  4  0  0  0
 18 19  4  0  0  0
 19 20  4  0  0  0
 20 21  4  0  0  0
 20 23  1  0  0  0
 21 22  4  0  0  0
 23 24  1  0  0  0
 24 31  1  0  0  0
 24 35  1  0  0  0
 25 26  1  0  0  0
 26 27  2  0  0  0
 26 28  1  0  0  0
 28 29  1  0  0  0
 28 30  1  0  0  0
 29 30  2  0  0  0
 31 32  1  0  0  0
 32 33  1  0  0  0
 33 34  1  0  0  0
 34 35  1  0  0  0
  2 36  1  0  0  0
  5 37  1  0  0  0
  7 38  1  0  0  0
  8 39  1  0  0  0
  9 40  1  0  0  0
 11 41  1  0  0  0
 11 42  1  0  0  0
 11 43  1  0  0  0
 12 44  1  0  0  0
 12 45  1  0  0  0
 12 46  1  0  0  0
 18 47  1  0  0  0
 19 48  1  0  0  0
 21 49  1  0  0  0
 22 50  1  0  0  0
 23 51  1  0  0  0
 23 52  1  0  0  0
 24 53  1  0  0  0
 25 54  1  0  0  0
 28 55  1  0  0  0
 29 56  1  0  0  0
 30 57  1  0  0  0
 31 58  1  0  0  0
 31 59  1  0  0  0
 32 60  1  0  0  0
 32 61  1  0  0  0
 34 62  1  0  0  0
 34 63  1  0  0  0
 35 64  1  0  0  0
 35 65  1  0  0  0
M  END
$$$$
