1nl6_ligand
  -I-interpret- 

102107  0  0  0  0  0  0  0  0999 V2000
  -34.8840   -6.8940   45.1010 C   0  0  0  0  0
  -34.9840   -5.4270   44.9470 O   0  0  0  0  0
  -33.7550   -4.6880   45.3420 C   0  0  0  0  0
  -32.4850   -5.2020   44.5510 C   0  0  0  0  0
  -32.3750   -6.7300   44.6590 N   0  3  0  0  0
  -33.6520   -7.4960   44.3250 C   0  0  0  0  0
  -31.1870   -7.3180   43.8990 C   0  0  0  0  0
  -30.2360   -6.3250   43.1620 C   0  0  0  0  0
  -29.1970   -7.1520   42.5120 O   0  0  0  0  0
  -28.0880   -6.7770   41.7100 C   0  0  0  0  0
  -27.8690   -7.2830   40.3840 C   0  0  0  0  0
  -26.7030   -6.8720   39.6650 C   0  0  0  0  0
  -25.7570   -5.9590   40.2680 C   0  0  0  0  0
  -25.9830   -5.4470   41.5940 C   0  0  0  0  0
  -27.1460   -5.8620   42.3070 C   0  0  0  0  0
  -26.2700   -7.2040   38.3910 C   0  0  0  0  0
  -25.0590   -6.5080   38.1830 C   0  0  0  0  0
  -24.7630   -5.7600   39.3420 O   0  0  0  0  0
  -24.1840   -6.4860   36.9400 C   0  0  0  0  0
  -23.1730   -5.7890   36.9640 O   0  0  0  0  0
  -24.5450   -7.1830   35.8190 N   0  0  0  0  0
  -23.7620   -7.1030   34.5350 C   0  0  0  0  0
  -24.3310   -8.0400   33.4310 C   0  0  0  0  0
  -24.6000   -9.5450   33.6630 C   0  0  0  0  0
  -25.4430  -10.0680   32.4740 C   0  0  0  0  0
  -23.3000  -10.3830   33.7270 C   0  0  0  0  0
  -23.8570   -5.6040   34.0830 C   0  0  0  0  0
  -24.9230   -4.9600   34.2740 O   0  0  0  0  0
  -22.8010   -5.0050   33.4960 N   0  0  0  0  0
  -22.8930   -3.5840   33.0570 C   0  0  0  0  0
  -22.9530   -2.1110   31.1690 O   0  0  0  0  0
  -21.5060   -3.9990   30.8810 C   0  0  0  0  0
  -20.2980   -3.1520   31.1940 N   0  0  0  0  0
  -19.5170   -3.4410   32.4410 C   0  0  0  0  0
  -20.2910   -3.3830   33.7880 C   0  0  0  0  0
  -21.7470   -2.7800   33.7870 C   0  0  0  0  0
  -19.9550   -2.1120   30.3570 C   0  0  0  0  0
  -20.4100   -2.1130   29.1950 O   0  0  0  0  0
  -19.0580   -0.8850   30.7340 C   0  0  0  0  0
  -19.0260    0.2880   29.7100 C   0  0  0  0  0
  -19.7890    1.4680   29.9450 C   0  0  0  0  0
  -19.7760    2.5470   29.0140 C   0  0  0  0  0
  -18.9860    2.4570   27.8240 C   0  0  0  0  0
  -18.1750    1.2790   27.5270 C   0  0  0  0  0
  -18.2390    0.2020   28.5260 C   0  0  0  0  0
  -17.3530    1.1830   26.3280 C   0  0  0  0  0
  -16.3570    0.1060   26.1360 C   0  0  0  0  0
  -15.5820    0.0620   24.9430 C   0  0  0  0  0
  -15.7800    1.0740   23.9370 C   0  0  0  0  0
  -16.7520    2.1020   24.1650 C   0  0  0  0  0
  -17.4730    2.1140   25.3120 N   0  0  0  0  0
  -22.8260   -3.4760   31.5300 C   0  0  0  0  0
  -35.7909   -7.3389   44.6916 H   0  0  0  0  0
  -34.7557   -7.1141   46.1608 H   0  0  0  0  0
  -33.5849   -4.8479   46.4067 H   0  0  0  0  0
  -33.8995   -3.6324   45.1117 H   0  0  0  0  0
  -31.5908   -4.7489   44.9790 H   0  0  0  0  0
  -32.5823   -4.9247   43.5014 H   0  0  0  0  0
  -32.2091   -6.8671   45.6560 H   0  0  0  0  0
  -33.8388   -7.4182   43.2540 H   0  0  0  0  0
  -33.5249   -8.5374   44.6206 H   0  0  0  0  0
  -31.6202   -7.9421   43.1174 H   0  0  0  0  0
  -30.5708   -7.8072   44.6534 H   0  0  0  0  0
  -29.7925   -5.6151   43.8602 H   0  0  0  0  0
  -30.7810   -5.7314   42.4281 H   0  0  0  0  0
  -28.5824   -7.9716   39.9312 H   0  0  0  0  0
  -25.2755   -4.7522   42.0465 H   0  0  0  0  0
  -27.3251   -5.4840   43.3135 H   0  0  0  0  0
  -26.7670   -7.8717   37.6872 H   0  0  0  0  0
  -25.3732   -7.7774   35.8543 H   0  0  0  0  0
  -22.7340   -7.4292   34.6927 H   0  0  0  0  0
  -23.5448   -8.0412   32.6760 H   0  0  0  0  0
  -25.3262   -7.6344   33.2490 H   0  0  0  0  0
  -25.1122   -9.6478   34.6196 H   0  0  0  0  0
  -26.3836   -9.5192   32.4280 H   0  0  0  0  0
  -24.8899   -9.9221   31.5461 H   0  0  0  0  0
  -25.6468  -11.1296   32.6139 H   0  0  0  0  0
  -22.7574  -10.2818   32.7871 H   0  0  0  0  0
  -22.6782  -10.0246   34.5474 H   0  0  0  0  0
  -23.5523  -11.4306   33.8914 H   0  0  0  0  0
  -21.9363   -5.5264   33.3520 H   0  0  0  0  0
  -23.8544   -3.1516   33.3341 H   0  0  0  0  0
  -22.9126   -2.0288   30.2134 H   0  0  0  0  0
  -21.3182   -4.9948   31.2826 H   0  0  0  0  0
  -21.6452   -3.9805   29.8001 H   0  0  0  0  0
  -18.7552   -2.6637   32.5018 H   0  0  0  0  0
  -19.1684   -4.4690   32.3422 H   0  0  0  0  0
  -19.7066   -2.7204   34.4263 H   0  0  0  0  0
  -20.4111   -4.4220   34.0948 H   0  0  0  0  0
  -22.0437   -2.7483   34.8354 H   0  0  0  0  0
  -21.6662   -1.8395   33.2419 H   0  0  0  0  0
  -18.0373   -1.2627   30.7944 H   0  0  0  0  0
  -19.4767   -0.4742   31.6527 H   0  0  0  0  0
  -20.3914    1.5467   30.8500 H   0  0  0  0  0
  -20.3681    3.4413   29.2084 H   0  0  0  0  0
  -18.9896    3.2897   27.1206 H   0  0  0  0  0
  -17.6576   -0.7035   28.3525 H   0  0  0  0  0
  -16.2170   -0.6522   26.9065 H   0  0  0  0  0
  -14.8469   -0.7286   24.7922 H   0  0  0  0  0
  -15.1985    1.0580   23.0152 H   0  0  0  0  0
  -16.9116    2.8758   23.4141 H   0  0  0  0  0
  -23.6335   -4.1079   31.1602 H   0  0  0  0  0
  1  2  1  0  0  0
  6  1  1  0  0  0
  3  2  1  0  0  0
  4  3  1  0  0  0
  5  4  1  0  0  0
  5  6  1  0  0  0
  7  5  1  0  0  0
  8  7  1  0  0  0
  9  8  1  0  0  0
 10  9  1  0  0  0
 11 10  4  0  0  0
 15 10  4  0  0  0
 12 11  4  0  0  0
 13 12  4  0  0  0
 16 12  4  0  0  0
 13 14  4  0  0  0
 18 13  4  0  0  0
 14 15  4  0  0  0
 17 16  4  0  0  0
 17 18  4  0  0  0
 19 17  1  0  0  0
 19 20  2  0  0  0
 21 19  1  0  0  0
 22 21  1  0  0  0
 22 23  1  0  0  0
 27 22  1  0  0  0
 23 24  1  0  0  0
 24 25  1  0  0  0
 24 26  1  0  0  0
 27 28  2  0  0  0
 29 27  1  0  0  0
 30 29  1  0  0  0
 30 36  1  0  0  0
 52 30  1  0  0  0
 52 31  1  0  0  0
 32 33  1  0  0  0
 32 52  1  0  0  0
 33 34  1  0  0  0
 33 37  1  0  0  0
 34 35  1  0  0  0
 35 36  1  0  0  0
 37 38  2  0  0  0
 37 39  1  0  0  0
 39 40  1  0  0  0
 40 41  4  0  0  0
 40 45  4  0  0  0
 41 42  4  0  0  0
 42 43  4  0  0  0
 43 44  4  0  0  0
 44 45  4  0  0  0
 44 46  1  0  0  0
 46 47  4  0  0  0
 46 51  4  0  0  0
 47 48  4  0  0  0
 48 49  4  0  0  0
 49 50  4  0  0  0
 50 51  4  0  0  0
  1 53  1  0  0  0
  1 54  1  0  0  0
  3 55  1  0  0  0
  3 56  1  0  0  0
  4 57  1  0  0  0
  4 58  1  0  0  0
  5 59  1  0  0  0
  6 60  1  0  0  0
  6 61  1  0  0  0
  7 62  1  0  0  0
  7 63  1  0  0  0
  8 64  1  0  0  0
  8 65  1  0  0  0
 11 66  1  0  0  0
 14 67  1  0  0  0
 15 68  1  0  0  0
 16 69  1  0  0  0
 21 70  1  0  0  0
 22 71  1  0  0  0
 23 72  1  0  0  0
 23 73  1  0  0  0
 24 74  1  0  0  0
 25 75  1  0  0  0
 25 76  1  0  0  0
 25 77  1  0  0  0
 26 78  1  0  0  0
 26 79  1  0  0  0
 26 80  1  0  0  0
 29 81  1  0  0  0
 30 82  1  0  0  0
 31 83  1  0  0  0
 32 84  1  0  0  0
 32 85  1  0  0  0
 34 86  1  0  0  0
 34 87  1  0  0  0
 35 88  1  0  0  0
 35 89  1  0  0  0
 36 90  1  0  0  0
 36 91  1  0  0  0
 39 92  1  0  0  0
 39 93  1  0  0  0
 41 94  1  0  0  0
 42 95  1  0  0  0
 43 96  1  0  0  0
 45 97  1  0  0  0
 47 98  1  0  0  0
 48 99  1  0  0  0
 49100  1  0  0  0
 50101  1  0  0  0
 52102  1  0  0  0
M  END
$$$$
