2zxg_ligand
  -I-interpret- 

 57 58  0  0  0  0  0  0  0  0999 V2000
   71.8700   45.1120    6.4610 O   0  0  0  0  0
   72.1010   46.1770    7.3850 P   0  0  0  0  0
   73.4930   46.0300    7.7980 O   0  0  0  0  0
   71.1580   45.9650    8.6670 C   0  0  0  0  0
   71.4820   44.7800    9.4690 N   0  3  0  0  0
   71.1840   47.1000    9.7020 C   0  0  0  0  0
   71.8480   47.6150    6.7410 C   0  0  0  0  0
   72.8780   48.1790    5.7160 C   0  0  0  0  0
   72.5780   47.7440    4.2590 C   0  0  0  0  0
   73.6690   48.2390    3.3160 C   0  0  0  0  0
   74.7960   47.4400    3.0910 C   0  0  0  0  0
   75.8130   47.8810    2.2430 C   0  0  0  0  0
   75.7010   49.1300    1.6350 C   0  0  0  0  0
   74.5930   49.9470    1.8610 C   0  0  0  0  0
   73.5650   49.4970    2.7000 C   0  0  0  0  0
   73.0180   49.6960    5.7370 C   0  0  0  0  0
   72.0740   50.4400    5.5170 O   0  0  0  0  0
   74.2500   50.1710    5.9820 N   0  0  0  0  0
   74.6180   51.5710    5.8030 C   0  0  0  0  0
   75.9130   51.6740    5.0440 C   0  0  0  0  0
   76.0940   52.6740    4.3060 O   0  0  0  0  0
   76.7570   50.7600    5.1650 O   0  0  0  0  0
   74.7830   52.2830    7.1470 C   0  0  0  0  0
   73.5060   52.2970    7.9640 C   0  0  0  0  0
   72.5770   53.3280    7.7840 C   0  0  0  0  0
   71.4000   53.3550    8.5390 C   0  0  0  0  0
   71.1520   52.3490    9.4760 C   0  0  0  0  0
   72.0710   51.3010    9.6360 C   0  0  0  0  0
   73.2580   51.2820    8.8930 C   0  0  0  0  0
   73.7142   46.7221    8.4254 H   0  0  0  0  0
   70.1897   45.8909    8.1719 H   0  0  0  0  0
   71.4911   43.9561    8.8677 H   0  0  0  0  0
   72.4003   44.9008    9.8962 H   0  0  0  0  0
   70.7791   44.6622   10.1986 H   0  0  0  0  0
   70.4424   46.9015   10.4758 H   0  0  0  0  0
   72.1749   47.1565   10.1526 H   0  0  0  0  0
   70.9531   48.0445    9.2094 H   0  0  0  0  0
   71.8818   48.3079    7.5817 H   0  0  0  0  0
   70.9211   47.5099    6.1772 H   0  0  0  0  0
   73.8201   47.7426    6.0480 H   0  0  0  0  0
   71.6241   48.1727    3.9516 H   0  0  0  0  0
   72.5409   46.6555    4.2158 H   0  0  0  0  0
   74.8797   46.4695    3.5800 H   0  0  0  0  0
   76.6859   47.2550    2.0581 H   0  0  0  0  0
   76.4935   49.4748    0.9708 H   0  0  0  0  0
   74.5276   50.9272    1.3888 H   0  0  0  0  0
   72.6881   50.1207    2.8739 H   0  0  0  0  0
   74.9640   49.5203    6.3096 H   0  0  0  0  0
   73.8133   52.0496    5.2449 H   0  0  0  0  0
   75.3284   53.2509    4.3573 H   0  0  0  0  0
   75.0620   53.3172    6.9452 H   0  0  0  0  0
   75.5397   51.7460    7.7189 H   0  0  0  0  0
   72.7714   54.1127    7.0529 H   0  0  0  0  0
   70.6780   54.1590    8.3966 H   0  0  0  0  0
   70.2462   52.3782   10.0817 H   0  0  0  0  0
   71.8601   50.4977   10.3420 H   0  0  0  0  0
   73.9834   50.4815    9.0380 H   0  0  0  0  0
  1  2  2  0  0  0
  2  3  1  0  0  0
  2  4  1  0  0  0
  2  7  1  0  0  0
  4  5  1  0  0  0
  4  6  1  0  0  0
  7  8  1  0  0  0
  8  9  1  0  0  0
  8 16  1  0  0  0
  9 10  1  0  0  0
 10 11  4  0  0  0
 10 15  4  0  0  0
 11 12  4  0  0  0
 12 13  4  0  0  0
 13 14  4  0  0  0
 14 15  4  0  0  0
 16 17  2  0  0  0
 16 18  1  0  0  0
 18 19  1  0  0  0
 19 20  1  0  0  0
 19 23  1  0  0  0
 20 21  1  0  0  0
 20 22  2  0  0  0
 23 24  1  0  0  0
 24 25  4  0  0  0
 24 29  4  0  0  0
 25 26  4  0  0  0
 26 27  4  0  0  0
 27 28  4  0  0  0
 28 29  4  0  0  0
  3 30  1  0  0  0
  4 31  1  0  0  0
  5 32  1  0  0  0
  5 33  1  0  0  0
  5 34  1  0  0  0
  6 35  1  0  0  0
  6 36  1  0  0  0
  6 37  1  0  0  0
  7 38  1  0  0  0
  7 39  1  0  0  0
  8 40  1  0  0  0
  9 41  1  0  0  0
  9 42  1  0  0  0
 11 43  1  0  0  0
 12 44  1  0  0  0
 13 45  1  0  0  0
 14 46  1  0  0  0
 15 47  1  0  0  0
 18 48  1  0  0  0
 19 49  1  0  0  0
 21 50  1  0  0  0
 23 51  1  0  0  0
 23 52  1  0  0  0
 25 53  1  0  0  0
 26 54  1  0  0  0
 27 55  1  0  0  0
 28 56  1  0  0  0
 29 57  1  0  0  0
M  END
$$$$
