3p50_ligand
  -I-interpret- 

 31 31  0  0  0  0  0  0  0  0999 V2000
   45.7150   -4.8190   48.0680 O   0  0  0  0  0
   46.3200   -5.7830   48.8200 C   0  0  0  0  0
   46.2500   -5.5670   50.2700 C   0  0  0  0  0
   46.9960   -6.9640   48.2350 C   0  0  0  0  0
   46.8760   -6.5780   51.1200 C   0  0  0  0  0
   45.4990   -4.3040   50.8530 C   0  0  0  0  0
   47.5320   -7.7280   50.5660 C   0  0  0  0  0
   47.5860   -7.9100   49.1520 C   0  0  0  0  0
   47.1010   -7.2090   46.7120 C   0  0  0  0  0
   43.9410   -4.3900   50.4920 C   0  0  0  0  0
   45.7690   -4.1510   52.3500 C   0  0  0  0  0
   47.0330   -8.6620   46.4380 C   0  0  0  0  0
   46.0450   -6.5800   45.8470 C   0  0  0  0  0
   45.8067   -5.0362   47.1374 H   0  0  0  0  0
   46.8438   -6.4553   52.2026 H   0  0  0  0  0
   45.8861   -3.3969   50.3889 H   0  0  0  0  0
   47.9899   -8.4639   51.2269 H   0  0  0  0  0
   48.0883   -8.7906   48.7517 H   0  0  0  0  0
   48.0493   -6.7390   46.4514 H   0  0  0  0  0
   43.5000   -5.2511   50.9941 H   0  0  0  0  0
   43.4417   -3.4795   50.8235 H   0  0  0  0  0
   43.8246   -4.4976   49.4136 H   0  0  0  0  0
   45.2981   -3.2367   52.7112 H   0  0  0  0  0
   45.3564   -5.0083   52.8818 H   0  0  0  0  0
   46.8443   -4.0992   52.5205 H   0  0  0  0  0
   46.0400   -9.0324   46.6926 H   0  0  0  0  0
   47.2288   -8.8406   45.3807 H   0  0  0  0  0
   47.7804   -9.1793   47.0397 H   0  0  0  0  0
   46.2584   -6.7962   44.8002 H   0  0  0  0  0
   45.0696   -6.9879   46.1121 H   0  0  0  0  0
   46.0439   -5.5013   46.0037 H   0  0  0  0  0
  1  2  1  0  0  0
  2  3  4  0  0  0
  2  4  4  0  0  0
  3  5  4  0  0  0
  3  6  1  0  0  0
  4  8  4  0  0  0
  4  9  1  0  0  0
  5  7  4  0  0  0
  6 10  1  0  0  0
  6 11  1  0  0  0
  7  8  4  0  0  0
  9 12  1  0  0  0
  9 13  1  0  0  0
  1 14  1  0  0  0
  5 15  1  0  0  0
  6 16  1  0  0  0
  7 17  1  0  0  0
  8 18  1  0  0  0
  9 19  1  0  0  0
 10 20  1  0  0  0
 10 21  1  0  0  0
 10 22  1  0  0  0
 11 23  1  0  0  0
 11 24  1  0  0  0
 11 25  1  0  0  0
 12 26  1  0  0  0
 12 27  1  0  0  0
 12 28  1  0  0  0
 13 29  1  0  0  0
 13 30  1  0  0  0
 13 31  1  0  0  0
M  END
$$$$
