1h62_ligand
  -I-interpret- 

 45 48  0  0  0  0  0  0  0  0999 V2000
   20.4160   11.6840   21.3750 C   0  0  0  0  0
   21.4620   11.3680   20.3070 C   0  0  0  0  0
   21.1220   13.6310   19.1580 C   0  0  0  0  0
   20.8530   14.3810   17.8010 C   0  0  0  0  0
   22.0170   14.1080   16.8370 C   0  0  0  0  0
   22.0480   12.6050   16.5620 C   0  0  0  0  0
   23.0080   12.4420   15.3320 C   0  0  0  0  0
   22.4890   13.6390   14.4970 C   0  0  0  0  0
   21.8480   14.7210   15.4410 C   0  0  0  0  0
   23.3880   14.6970   17.3790 C   0  0  0  0  0
   22.8520   11.8150   20.9410 C   0  0  0  0  0
   19.6430   10.7440   21.9520 C   0  0  0  0  0
   19.7660    9.3090   21.5690 C   0  0  0  0  0
   20.7410    8.9630   20.5510 C   0  0  0  0  0
   21.5560    9.8730   19.9330 C   0  0  0  0  0
   22.5490    9.4620   18.8880 C   0  0  0  0  0
   22.3380   10.3250   17.6190 C   0  0  0  0  0
   22.3010   11.7680   17.8620 C   0  0  0  0  0
   21.1840   12.1630   18.9690 C   0  0  0  0  0
   19.0740    8.4260   22.0780 O   0  0  0  0  0
   21.3690   15.7320   15.1630 O   0  0  0  0  0
   20.2891   12.7212   21.6852 H   0  0  0  0  0
   20.3039   13.8551   19.8426 H   0  0  0  0  0
   22.0808   13.9675   19.5525 H   0  0  0  0  0
   20.7719   15.4525   17.9839 H   0  0  0  0  0
   19.9217   14.0228   17.3623 H   0  0  0  0  0
   21.0920   12.1667   16.2756 H   0  0  0  0  0
   22.9749   11.4725   14.8350 H   0  0  0  0  0
   24.0734   12.4560   15.5620 H   0  0  0  0  0
   21.7337   13.2844   13.7956 H   0  0  0  0  0
   23.3234   14.0859   13.9565 H   0  0  0  0  0
   24.1972   14.4052   16.7096 H   0  0  0  0  0
   23.3236   15.7843   17.4209 H   0  0  0  0  0
   23.5812   14.3045   18.3773 H   0  0  0  0  0
   23.0522   11.2189   21.8313 H   0  0  0  0  0
   23.6482   11.6613   20.2127 H   0  0  0  0  0
   22.8040   12.8698   21.2116 H   0  0  0  0  0
   18.9168   11.0371   22.7102 H   0  0  0  0  0
   20.8296    7.9160   20.2612 H   0  0  0  0  0
   22.4079    8.4094   18.6426 H   0  0  0  0  0
   23.5606    9.6085   19.2664 H   0  0  0  0  0
   21.3693   10.0476   17.2034 H   0  0  0  0  0
   23.1858   10.1351   16.9608 H   0  0  0  0  0
   23.2929   12.0180   18.2384 H   0  0  0  0  0
   20.1945   11.8690   18.6189 H   0  0  0  0  0
  2  1  1  0  0  0
  1 12  2  0  0  0
  2 11  1  0  0  0
  2 15  1  0  0  0
 19  2  1  0  0  0
  3  4  1  0  0  0
  3 19  1  0  0  0
  4  5  1  0  0  0
  5  6  1  0  0  0
  5  9  1  0  0  0
  5 10  1  0  0  0
  6  7  1  0  0  0
  6 18  1  0  0  0
  7  8  1  0  0  0
  8  9  1  0  0  0
  9 21  2  0  0  0
 12 13  1  0  0  0
 13 14  1  0  0  0
 13 20  2  0  0  0
 14 15  2  0  0  0
 15 16  1  0  0  0
 16 17  1  0  0  0
 17 18  1  0  0  0
 18 19  1  0  0  0
  1 22  1  0  0  0
  3 23  1  0  0  0
  3 24  1  0  0  0
  4 25  1  0  0  0
  4 26  1  0  0  0
  6 27  1  0  0  0
  7 28  1  0  0  0
  7 29  1  0  0  0
  8 30  1  0  0  0
  8 31  1  0  0  0
 10 32  1  0  0  0
 10 33  1  0  0  0
 10 34  1  0  0  0
 11 35  1  0  0  0
 11 36  1  0  0  0
 11 37  1  0  0  0
 12 38  1  0  0  0
 14 39  1  0  0  0
 16 40  1  0  0  0
 16 41  1  0  0  0
 17 42  1  0  0  0
 17 43  1  0  0  0
 18 44  1  0  0  0
 19 45  1  0  0  0
M  END
$$$$
