3vfq_ligand
  -I-interpret- 

 59 62  0  0  0  0  0  0  0  0999 V2000
   25.1040   -1.9130   16.6720 N   0  0  0  0  0
   24.1930   -1.0490   17.1200 C   0  0  0  0  0
   23.4850   -0.2900   16.2800 N   0  0  0  0  0
   23.6930   -0.3960   14.9380 C   0  0  0  0  0
   24.6470   -1.2830   14.4520 C   0  0  0  0  0
   25.3510   -2.0350   15.3500 C   0  0  0  0  0
   26.2480   -2.8780   14.8570 N   0  0  0  0  0
   24.6840   -1.2180   13.1260 N   0  0  0  0  0
   23.7790   -0.2920   12.7720 C   0  0  0  0  0
   23.1820    0.2100   13.8660 N   0  0  0  0  0
   19.0940   -0.9540    9.7090 P   0  0  0  0  0
   16.3590   -0.7490   10.0860 P   0  0  0  0  0
   22.1560    1.2100   13.8780 C   0  0  0  0  0
   20.1050   -2.0550    9.7750 O   0  0  0  0  0
   15.6050   -1.1260   11.2930 O   0  0  0  0  0
   14.5690   -3.5930    6.4500 C   0  0  0  0  0
   13.8140   -4.7590    6.2290 O   0  0  0  0  0
   22.1310    2.1010   12.6430 C   0  0  0  0  0
   22.7900    3.3440   12.9240 O   0  0  0  0  0
   18.8750   -0.2060    8.4360 O   0  0  0  0  0
   16.5050    0.6770    9.6950 O   0  0  0  0  0
   15.7430   -3.5360    5.4590 C   0  0  0  0  0
   15.6470   -4.5720    4.4800 O   0  0  0  0  0
   20.6330    2.3630   12.4550 C   0  0  0  0  0
   20.2600    3.4660   13.2830 O   0  0  0  0  0
   17.7170   -1.5320   10.2030 O   0  0  0  0  0
   16.9690   -3.7720    6.3290 C   0  0  0  0  0
   17.2590   -5.1700    6.4540 O   0  0  0  0  0
   19.9770    1.1010   13.0560 C   0  0  0  0  0
   21.1240    0.3070   13.6100 O   0  0  0  0  0
   16.5020   -3.2830    7.7070 C   0  0  0  0  0
   15.1370   -3.7670    7.7840 O   0  0  0  0  0
   19.0120    0.2300   12.1080 C   0  0  0  0  0
   19.6230    0.0590   10.8350 O   0  0  0  0  0
   16.4240   -1.7660    7.8260 C   0  0  0  0  0
   15.6260   -1.4570    8.9300 O   0  0  0  0  0
   24.0227   -0.9604   18.1930 H   0  0  0  0  0
   26.7888   -3.4722   15.4853 H   0  0  0  0  0
   26.3972   -2.9323   13.8494 H   0  0  0  0  0
   23.5605    0.0086   11.7473 H   0  0  0  0  0
   22.1895    1.8642   14.7492 H   0  0  0  0  0
   20.1160   -2.4252   10.6607 H   0  0  0  0  0
   13.9617   -2.6946    6.3397 H   0  0  0  0  0
   13.0831   -4.7882    6.8507 H   0  0  0  0  0
   22.6226    1.6578   11.7770 H   0  0  0  0  0
   22.7700    3.8996   12.1413 H   0  0  0  0  0
   17.0231    0.7352    8.8889 H   0  0  0  0  0
   15.7689   -2.5929    4.9131 H   0  0  0  0  0
   16.3916   -4.5110    3.8771 H   0  0  0  0  0
   20.3566    2.5680   11.4207 H   0  0  0  0  0
   19.3225    3.6424   13.1758 H   0  0  0  0  0
   17.8552   -3.2821    5.9255 H   0  0  0  0  0
   18.0352   -5.2865    7.0068 H   0  0  0  0  0
   19.2510    1.4128   13.8068 H   0  0  0  0  0
   17.1928   -3.6277    8.4765 H   0  0  0  0  0
   18.0601    0.7469   11.9867 H   0  0  0  0  0
   18.8419   -0.7460   12.5626 H   0  0  0  0  0
   15.9927   -1.3401    6.9201 H   0  0  0  0  0
   17.4222   -1.3478    7.9555 H   0  0  0  0  0
  2  1  4  0  0  0
  6  1  4  0  0  0
  3  2  4  0  0  0
  4  3  4  0  0  0
  4  5  4  0  0  0
 10  4  4  0  0  0
  5  6  4  0  0  0
  8  5  4  0  0  0
  6  7  1  0  0  0
  9  8  4  0  0  0
 10  9  4  0  0  0
 13 10  1  0  0  0
 11 14  1  0  0  0
 11 20  2  0  0  0
 26 11  1  0  0  0
 11 34  1  0  0  0
 12 15  2  0  0  0
 12 21  1  0  0  0
 12 26  1  0  0  0
 36 12  1  0  0  0
 13 18  1  0  0  0
 30 13  1  0  0  0
 16 17  1  0  0  0
 16 22  1  0  0  0
 32 16  1  0  0  0
 18 19  1  0  0  0
 24 18  1  0  0  0
 22 23  1  0  0  0
 27 22  1  0  0  0
 24 25  1  0  0  0
 29 24  1  0  0  0
 27 28  1  0  0  0
 31 27  1  0  0  0
 29 30  1  0  0  0
 33 29  1  0  0  0
 31 32  1  0  0  0
 35 31  1  0  0  0
 34 33  1  0  0  0
 35 36  1  0  0  0
  2 37  1  0  0  0
  7 38  1  0  0  0
  7 39  1  0  0  0
  9 40  1  0  0  0
 13 41  1  0  0  0
 14 42  1  0  0  0
 16 43  1  0  0  0
 17 44  1  0  0  0
 18 45  1  0  0  0
 19 46  1  0  0  0
 21 47  1  0  0  0
 22 48  1  0  0  0
 23 49  1  0  0  0
 24 50  1  0  0  0
 25 51  1  0  0  0
 27 52  1  0  0  0
 28 53  1  0  0  0
 29 54  1  0  0  0
 31 55  1  0  0  0
 33 56  1  0  0  0
 33 57  1  0  0  0
 35 58  1  0  0  0
 35 59  1  0  0  0
M  END
$$$$
