### 
### Created by X-TOOL on Mon Sep 10 21:13:15 2018
### 

@<TRIPOS>MOLECULE
3vfq_ligand
   57    60     1     0     0
SMALL
GAST_HUCK


@<TRIPOS>ATOM
      1 N1         25.1040   -1.9130   16.6720 N.ar      1 AR6        -0.2698
      2 C2         24.1930   -1.0490   17.1200 C.ar      1 AR6         0.0533
      3 N3         23.4850   -0.2900   16.2800 N.ar      1 AR6        -0.2714
      4 C4         23.6930   -0.3960   14.9380 C.ar      1 AR6         0.1613
      5 C5         24.6470   -1.2830   14.4520 C.ar      1 AR6         0.1045
      6 C6         25.3510   -2.0350   15.3500 C.ar      1 AR6         0.1298
      7 N6         26.2480   -2.8780   14.8570 N.pl3     1 AR6        -0.3152
      8 N7         24.6840   -1.2180   13.1260 N.2       1 AR6        -0.2958
      9 C8         23.7790   -0.2920   12.7720 C.2       1 AR6         0.1123
     10 N9         23.1820    0.2100   13.8660 N.pl3     1 AR6        -0.1919
     11 PA         19.0940   -0.9540    9.7090 P.3       1 AR6         0.2972
     12 PB         16.3590   -0.7490   10.0860 P.3       1 AR6         0.2972
     13 C1'        22.1560    1.2100   13.8780 C.3       1 AR6         0.2010
     14 O1A        20.1050   -2.0550    9.7750 O.co2     1 AR6        -0.6127
     15 O1B        15.6050   -1.1260   11.2930 O.co2     1 AR6        -0.6127
     16 C1D        14.5690   -3.5930    6.4500 C.3       1 AR6         0.1854
     17 O1D        13.8140   -4.7590    6.2290 O.3       1 AR6        -0.3649
     18 C2'        22.1310    2.1010   12.6430 C.3       1 AR6         0.1385
     19 O2'        22.7900    3.3440   12.9240 O.3       1 AR6        -0.3836
     20 O2A        18.8750   -0.2060    8.4360 O.co2     1 AR6        -0.6127
     21 O2B        16.5050    0.6770    9.6950 O.co2     1 AR6        -0.6127
     22 C2D        15.7430   -3.5360    5.4590 C.3       1 AR6         0.1339
     23 O2D        15.6470   -4.5720    4.4800 O.3       1 AR6        -0.3841
     24 C3'        20.6330    2.3630   12.4550 C.3       1 AR6         0.1149
     25 O3'        20.2600    3.4660   13.2830 O.3       1 AR6        -0.3864
     26 O3A        17.7170   -1.5320   10.2030 O.3       1 AR6        -0.1319
     27 C3D        16.9690   -3.7720    6.3290 C.3       1 AR6         0.1144
     28 O3D        17.2590   -5.1700    6.4540 O.3       1 AR6        -0.3864
     29 C4'        19.9770    1.1010   13.0560 C.3       1 AR6         0.1189
     30 O4'        21.1240    0.3070   13.6100 O.3       1 AR6        -0.3364
     31 C4D        16.5020   -3.2830    7.7070 C.3       1 AR6         0.1184
     32 O4D        15.1370   -3.7670    7.7840 O.3       1 AR6        -0.3403
     33 C5'        19.0120    0.2300   12.1080 C.3       1 AR6         0.1128
     34 O5'        19.6230    0.0590   10.8350 O.3       1 AR6        -0.2476
     35 C5D        16.4240   -1.7660    7.8260 C.3       1 AR6         0.1128
     36 O5D        15.6260   -1.4570    8.9300 O.3       1 AR6        -0.2476
     37 H1         24.0237   -0.9609   18.1871 H         1 AR6         0.0996
     38 H2         26.3986   -2.9328   13.8395 H         1 AR6         0.1820
     39 H3         26.7941   -3.4780   15.4915 H         1 AR6         0.1820
     40 H4         23.5607    0.0083   11.7482 H         1 AR6         0.1349
     41 H5         22.0911    1.7801   14.8165 H         1 AR6         0.0996
     42 H6         13.9470   -2.6885    6.3792 H         1 AR6         0.0935
     43 H7         14.3843   -5.5175    6.2741 H         1 AR6         0.2126
     44 H8         22.5816    1.6089   11.7685 H         1 AR6         0.0676
     45 H9         22.3429    3.7840   13.6375 H         1 AR6         0.2101
     46 H10        15.7893   -2.5561    4.9614 H         1 AR6         0.0671
     47 H11        15.6573   -5.4174    4.9132 H         1 AR6         0.2101
     48 H12        20.3598    2.5291   11.4025 H         1 AR6         0.0648
     49 H13        19.3323    3.6406   13.1770 H         1 AR6         0.2100
     50 H14        17.8455   -3.2207    5.9578 H         1 AR6         0.0648
     51 H15        17.4241   -5.5362    5.5931 H         1 AR6         0.2100
     52 H16        19.3483    1.4299   13.8965 H         1 AR6         0.0651
     53 H17        17.1383   -3.6947    8.5043 H         1 AR6         0.0651
     54 H18        18.0510    0.7510   11.9859 H         1 AR6         0.0648
     55 H19        18.8396   -0.7548   12.5667 H         1 AR6         0.0648
     56 H20        15.9780   -1.3430    6.9138 H         1 AR6         0.0648
     57 H21        17.4328   -1.3509    7.9675 H         1 AR6         0.0648
@<TRIPOS>BOND
     1    2    1 ar 
     2    6    1 ar 
     3    3    2 ar 
     4    4    3 ar 
     5    4    5 ar 
     6   10    4 1  
     7    5    6 ar 
     8    8    5 1  
     9    6    7 1  
    10    9    8 2  
    11   10    9 1  
    12   13   10 1  
    13   11   14 ar 
    14   11   20 ar 
    15   26   11 1  
    16   11   34 1  
    17   12   15 ar 
    18   12   21 ar 
    19   12   26 1  
    20   36   12 1  
    21   13   18 1  
    22   30   13 1  
    23   16   17 1  
    24   16   22 1  
    25   32   16 1  
    26   18   19 1  
    27   24   18 1  
    28   22   23 1  
    29   27   22 1  
    30   24   25 1  
    31   29   24 1  
    32   27   28 1  
    33   31   27 1  
    34   29   30 1  
    35   33   29 1  
    36   31   32 1  
    37   35   31 1  
    38   34   33 1  
    39   35   36 1  
    40    2   37 1  
    41    7   38 1  
    42    7   39 1  
    43    9   40 1  
    44   13   41 1  
    45   16   42 1  
    46   17   43 1  
    47   18   44 1  
    48   19   45 1  
    49   22   46 1  
    50   23   47 1  
    51   24   48 1  
    52   25   49 1  
    53   27   50 1  
    54   28   51 1  
    55   29   52 1  
    56   31   53 1  
    57   33   54 1  
    58   33   55 1  
    59   35   56 1  
    60   35   57 1  
@<TRIPOS>SUBSTRUCTURE
     1 AR6         1

