3qs4_ligand
  -I-interpret- 

 27 28  0  0  0  0  0  0  0  0999 V2000
  -25.9110   -4.1100  -19.2820 N   0  3  0  0  0
  -26.7070   -5.3330  -19.3020 C   0  0  0  0  0
  -26.2980   -6.2810  -18.1820 C   0  0  0  0  0
  -26.8820   -7.3490  -18.0050 O   0  0  0  0  0
  -26.5790   -6.0350  -20.6550 C   0  0  0  0  0
  -26.9740   -5.1790  -21.8120 C   0  0  0  0  0
  -26.1750   -4.7670  -22.8390 C   0  0  0  0  0
  -28.2670   -4.6160  -22.0570 C   0  0  0  0  0
  -26.8940   -3.9880  -23.7130 N   0  0  0  0  0
  -28.1810   -3.8780  -23.2540 C   0  0  0  0  0
  -29.4910   -4.6650  -21.3810 C   0  0  0  0  0
  -29.2720   -3.1960  -23.7900 C   0  0  0  0  0
  -30.5710   -3.9870  -21.9140 C   0  0  0  0  0
  -30.4550   -3.2630  -23.1060 C   0  0  0  0  0
  -25.3770   -5.9990  -17.4220 O   0  0  0  0  0
  -26.0089   -3.6568  -18.3735 H   0  0  0  0  0
  -24.9308   -4.3410  -19.4442 H   0  0  0  0  0
  -26.2388   -3.4804  -20.0144 H   0  0  0  0  0
  -27.7481   -5.0509  -19.1448 H   0  0  0  0  0
  -27.5751   -7.4462  -18.6621 H   0  0  0  0  0
  -27.2482   -6.8953  -20.6414 H   0  0  0  0  0
  -25.5301   -6.3001  -20.7877 H   0  0  0  0  0
  -25.1204   -5.0192  -22.9496 H   0  0  0  0  0
  -29.5908   -5.2268  -20.4523 H   0  0  0  0  0
  -29.1860   -2.6311  -24.7182 H   0  0  0  0  0
  -31.5300   -4.0167  -21.3968 H   0  0  0  0  0
  -31.3273   -2.7404  -23.4985 H   0  0  0  0  0
  1  2  1  0  0  0
  2  3  1  0  0  0
  2  5  1  0  0  0
  3  4  1  0  0  0
  3 15  2  0  0  0
  5  6  1  0  0  0
  6  7  4  0  0  0
  6  8  4  0  0  0
  7  9  4  0  0  0
  8 10  4  0  0  0
  8 11  4  0  0  0
  9 10  4  0  0  0
 10 12  4  0  0  0
 11 13  4  0  0  0
 12 14  4  0  0  0
 13 14  4  0  0  0
  1 16  1  0  0  0
  1 17  1  0  0  0
  1 18  1  0  0  0
  2 19  1  0  0  0
  4 20  1  0  0  0
  5 21  1  0  0  0
  5 22  1  0  0  0
  7 23  1  0  0  0
 11 24  1  0  0  0
 12 25  1  0  0  0
 13 26  1  0  0  0
 14 27  1  0  0  0
M  END
$$$$
