4d8z_ligand
  -I-interpret- 

 30 31  0  0  0  0  0  0  0  0999 V2000
  -11.7000   25.9000    9.5310 C   0  0  0  0  0
  -10.0490   25.9230    7.7410 C   0  0  0  0  0
  -13.0730   26.3240    9.9180 C   0  0  0  0  0
  -13.4700   27.5020    9.6700 O   0  0  0  0  0
  -13.8780   25.4390   10.3020 O   0  0  0  0  0
  -12.7030   24.3970    7.2460 N   0  0  0  0  0
  -13.5510   23.8330    6.3370 N   0  0  0  0  0
  -14.2810   27.9130    3.7580 O   0  0  0  0  0
  -11.4400   26.3110    8.1180 C   0  0  0  0  0
  -16.4570   23.7020    2.4900 N   0  0  0  0  0
  -14.5340   26.5800    3.9900 C   0  0  0  0  0
  -13.9060   25.8850    5.0890 C   0  0  0  0  0
  -15.3870   25.8800    3.1280 N   0  0  0  0  0
  -14.1640   24.5580    5.2580 C   0  0  0  0  0
  -12.4060   25.6730    7.1690 C   0  0  0  0  0
  -12.9880   26.5030    6.0780 C   0  0  0  0  0
  -14.9890   23.8400    4.4350 N   0  0  0  0  0
  -12.6970   27.8470    6.0370 O   0  0  0  0  0
  -15.6180   24.4580    3.3490 C   0  0  0  0  0
  -11.6126   24.8171    9.6194 H   0  0  0  0  0
  -10.9714   26.3725   10.1898 H   0  0  0  0  0
   -9.9492   24.8388    7.7918 H   0  0  0  0  0
   -9.8414   26.2611    6.7258 H   0  0  0  0  0
   -9.3441   26.3867    8.4311 H   0  0  0  0  0
  -12.7239   28.0379    9.3911 H   0  0  0  0  0
  -11.5667   27.3916    8.0517 H   0  0  0  0  0
  -16.6017   22.7075    2.6642 H   0  0  0  0  0
  -16.9154   24.1531    1.6983 H   0  0  0  0  0
  -15.8426   26.3609    2.3524 H   0  0  0  0  0
  -12.0908   28.0639    6.7491 H   0  0  0  0  0
  1  3  1  0  0  0
  9  1  1  0  0  0
  9  2  1  0  0  0
  3  4  1  0  0  0
  3  5  2  0  0  0
  7  6  4  0  0  0
  6 15  4  0  0  0
 14  7  4  0  0  0
 11  8  2  0  0  0
 15  9  1  0  0  0
 19 10  1  0  0  0
 11 12  1  0  0  0
 13 11  1  0  0  0
 12 14  4  0  0  0
 12 16  4  0  0  0
 13 19  1  0  0  0
 14 17  1  0  0  0
 15 16  4  0  0  0
 16 18  1  0  0  0
 17 19  2  0  0  0
  1 20  1  0  0  0
  1 21  1  0  0  0
  2 22  1  0  0  0
  2 23  1  0  0  0
  2 24  1  0  0  0
  4 25  1  0  0  0
  9 26  1  0  0  0
 10 27  1  0  0  0
 10 28  1  0  0  0
 13 29  1  0  0  0
 18 30  1  0  0  0
M  END
$$$$
