### 
### Created by X-TOOL on Mon Sep 10 21:13:10 2018
### 

@<TRIPOS>MOLECULE
4hcz_ligand
  166   167     1     0     0
SMALL
GAST_HUCK


@<TRIPOS>ATOM
      1 N           1.3910   -5.6560    9.8420 N.4       1 SER         0.2396
      2 CA          1.9450   -5.7380    8.4920 C.3       1 SER         0.0885
      3 C           2.9470   -6.8700    8.3580 C.2       1 SER         0.2291
      4 O           3.9340   -6.9060    9.0790 O.2       1 SER        -0.3906
      5 CB          2.6250   -4.4170    8.1200 C.3       1 SER         0.1041
      6 OG          3.6340   -4.6210    7.1380 O.3       1 SER        -0.3870
      7 N           2.7210   -7.7880    7.4290 N.am      1 THR        -0.2585
      8 CA          3.6890   -8.8820    7.2460 C.3       1 THR         0.1566
      9 C           4.9690   -8.4180    6.5380 C.2       1 THR         0.2063
     10 O           4.9200   -7.7360    5.5130 O.2       1 THR        -0.3943
     11 CB          3.0690  -10.0940    6.5390 C.3       1 THR         0.0924
     12 OG1         3.1790   -9.9430    5.1200 O.3       1 THR        -0.3874
     13 CG2         1.6110  -10.2290    6.9400 C.3       1 THR        -0.0346
     14 N           6.1120   -8.7770    7.1190 N.am      1 GLY        -0.2663
     15 CA          7.4060   -8.3340    6.6300 C.3       1 GLY         0.1201
     16 C           7.7690   -6.9510    7.1510 C.2       1 GLY         0.2005
     17 O           8.8220   -6.4150    6.8150 O.2       1 GLY        -0.3947
     18 N           6.8950   -6.3700    7.9730 N.am      1 GLY        -0.2666
     19 CA          7.1340   -5.0500    8.5460 C.3       1 GLY         0.1201
     20 C           8.3070   -5.0720    9.5140 C.2       1 GLY         0.2008
     21 O           8.7530   -6.1330    9.9310 O.2       1 GLY        -0.3947
     22 N           8.8090   -3.8980    9.8760 N.am      1 VAL        -0.2637
     23 CA          9.9450   -3.8040   10.7850 C.3       1 VAL         0.1332
     24 C           9.6370   -2.8030   11.9030 C.2       1 VAL         0.2041
     25 O           9.1510   -1.7030   11.6440 O.2       1 VAL        -0.3944
     26 CB         11.2340   -3.3890   10.0200 C.3       1 VAL        -0.0063
     27 CG1        11.0230   -2.0710    9.2870 C.3       1 VAL        -0.0584
     28 CG2        12.4420   -3.3110   10.9590 C.3       1 VAL        -0.0584
     29 N           9.8970   -3.2000   13.1450 N.am      1 M3L        -0.2637
     30 CA          9.6520   -2.3330   14.2940 C.3       1 M3L         0.1310
     31 CB          9.4770   -3.1130   15.5940 C.3       1 M3L        -0.0122
     32 CG          8.3060   -4.0580   15.7200 C.3       1 M3L        -0.0440
     33 CD          8.2910   -4.9250   16.9930 C.3       1 M3L        -0.0123
     34 CE          8.3690   -4.1850   18.3250 C.3       1 M3L        -0.0309
     35 NZ          8.6550   -4.9700   19.5200 N.4       1 M3L         0.2369
     36 C          10.7840   -1.3830   14.4670 C.2       1 M3L         0.2039
     37 O          11.9720   -1.7710   14.3480 O.2       1 M3L        -0.3944
     38 CM1         8.1450   -4.1770   20.6760 C.3       1 M3L        -0.0418
     39 CM2        10.0810   -5.1320   19.6980 C.3       1 M3L        -0.0418
     40 CM3         8.0920   -6.3280   19.3080 C.3       1 M3L        -0.0418
     41 N          10.4540   -0.1310   14.7520 N.am      1 LYS        -0.2637
     42 CA         11.4640    0.8350   15.1570 C.3       1 LYS         0.1312
     43 C          10.9870    1.5770   16.3930 C.2       1 LYS         0.2064
     44 O           9.7870    1.7990   16.5640 O.2       1 LYS        -0.3942
     45 CB         11.8110    1.8130   14.0230 C.3       1 LYS        -0.0122
     46 CG         10.7010    2.0700   13.0160 C.3       1 LYS        -0.0440
     47 CD          9.6470    3.0210   13.5450 C.3       1 LYS        -0.0124
     48 CE          8.7570    3.5210   12.4140 C.3       1 LYS        -0.0354
     49 NZ          8.3000    2.4120   11.5230 N.4       1 LYS         0.2185
     50 N          11.9290    1.9460   17.2680 N.am      1 PRO        -0.2498
     51 CA         11.5970    2.7130   18.4700 C.3       1 PRO         0.1338
     52 C          10.9060    4.0250   18.0980 C.2       1 PRO         0.2042
     53 O          11.3330    4.7050   17.1700 O.2       1 PRO        -0.3944
     54 CB         12.9650    2.9860   19.0960 C.3       1 PRO        -0.0104
     55 CG         13.8290    1.8670   18.6150 C.3       1 PRO        -0.0281
     56 CD         13.3470    1.5450   17.2320 C.3       1 PRO         0.0369
     57 N           9.8330    4.3530   18.8030 N.am      1 HIS        -0.2625
     58 CA          9.0500    5.5440   18.4910 C.3       1 HIS         0.1369
     59 C           9.9160    6.7920   18.5690 C.2       1 HIS         0.2048
     60 O          10.7120    6.9480   19.4980 O.2       1 HIS        -0.3943
     61 CB          7.8690    5.6610   19.4540 C.3       1 HIS         0.0145
     62 CG          6.8810    6.7250   19.0810 C.2       1 HIS        -0.0027
     63 ND1         6.1030    6.6540   17.9470 N.2       1 HIS        -0.3252
     64 CD2         6.5360    7.8740   19.7090 C.2       1 HIS         0.0291
     65 CE1         5.3190    7.7200   17.8860 C.2       1 HIS         0.0907
     66 NE2         5.5600    8.4710   18.9430 N.pl3     1 HIS        -0.2752
     67 N           9.7520    7.6710   17.5840 N.am      1 ARG        -0.2694
     68 CA         10.5000    8.9190   17.5030 C.3       1 ARG         0.0945
     69 C          11.9790    8.7060   17.7400 C.2       1 ARG         0.0601
     70 O          12.7363    9.6911   17.9493 O.co2     1 ARG        -0.5666
     71 CB          9.9380    9.9620   18.4760 C.3       1 ARG        -0.0148
     72 CG          8.4660   10.2780   18.2380 C.3       1 ARG        -0.0162
     73 CD          7.8500   11.0780   19.3790 C.3       1 ARG         0.0627
     74 NE          8.6210   12.2850   19.6630 N.pl3     1 ARG        -0.2723
     75 CZ          9.0540   12.6280   20.8700 C.cat     1 ARG         0.2882
     76 NH1         8.7720   11.8620   21.9220 N.pl3     1 ARG        -0.2849
     77 NH2         9.7630   13.7420   21.0230 N.pl3     1 ARG        -0.2849
     78 H           0.9413   -6.5406   10.0780 H         1 SER         0.2016
     79 H           2.1423   -5.4674   10.5056 H         1 SER         0.2016
     80 H           0.7041   -4.9030    9.8812 H         1 SER         0.2016
     81 H           1.1149   -5.9357    7.8138 H         1 SER         0.1122
     82 H           3.0870   -3.9980    9.0139 H         1 SER         0.0640
     83 H           1.8739   -3.7396    7.7137 H         1 SER         0.0640
     84 H           4.2977   -5.2228    7.4830 H         1 SER         0.2099
     85 H           1.8850   -7.7370    6.8469 H         1 THR         0.1885
     86 H           3.9747   -9.2026    8.2478 H         1 THR         0.0826
     87 H           3.6047  -10.9954    6.8367 H         1 THR         0.0639
     88 H           4.1054   -9.8752    4.8774 H         1 THR         0.2101
     89 H           1.0667   -9.3362    6.6322 H         1 THR         0.0257
     90 H           1.1811  -11.1042    6.4529 H         1 THR         0.0257
     91 H           1.5421  -10.3432    8.0218 H         1 THR         0.0257
     92 H           6.0777   -9.3852    7.9371 H         1 GLY         0.1881
     93 H           7.3616   -8.2876    5.5419 H         1 GLY         0.0763
     94 H           8.1614   -9.0385    6.9780 H         1 GLY         0.0763
     95 H           6.0336   -6.8631    8.2082 H         1 GLY         0.1881
     96 H           6.2412   -4.7408    9.0896 H         1 GLY         0.0763
     97 H           7.3647   -4.3571    7.7369 H         1 GLY         0.0763
     98 H           8.3908   -3.0426    9.5102 H         1 VAL         0.1883
     99 H          10.1186   -4.7851   11.2270 H         1 VAL         0.0802
    100 H          11.4464   -4.1603    9.2797 H         1 VAL         0.0343
    101 H          10.2078   -2.1809    8.5719 H         1 VAL         0.0234
    102 H          10.7735   -1.2920   10.0074 H         1 VAL         0.0234
    103 H          11.9372   -1.8000    8.7589 H         1 VAL         0.0234
    104 H          12.2486   -2.5727   11.7372 H         1 VAL         0.0234
    105 H          12.6094   -4.2866   11.4154 H         1 VAL         0.0234
    106 H          13.3245   -3.0184   10.3901 H         1 VAL         0.0234
    107 H          10.2772   -4.1339   13.2990 H         1 M3L         0.1883
    108 H           8.7234   -1.8009   14.0873 H         1 M3L         0.0800
    109 H           9.3130   -2.3547   16.3597 H         1 M3L         0.0312
    110 H          10.3613   -3.7462   15.6659 H         1 M3L         0.0312
    111 H           8.3682   -4.7451   14.8761 H         1 M3L         0.0269
    112 H           7.4091   -3.4395   15.7540 H         1 M3L         0.0269
    113 H           9.1835   -5.5488   16.9427 H         1 M3L         0.0317
    114 H           7.3322   -5.4435   16.9926 H         1 M3L         0.0317
    115 H           7.3764   -3.7635   18.4833 H         1 M3L         0.0815
    116 H           9.2036   -3.4910   18.2250 H         1 M3L         0.0815
    117 H           8.6560   -3.2147   20.7085 H         1 M3L         0.0778
    118 H           7.0730   -4.0169   20.5604 H         1 M3L         0.0778
    119 H           8.3347   -4.7220   21.6007 H         1 M3L         0.0778
    120 H          10.4981   -5.6450   18.8314 H         1 M3L         0.0778
    121 H          10.5467   -4.1519   19.8006 H         1 M3L         0.0778
    122 H          10.2692   -5.7209   20.5957 H         1 M3L         0.0778
    123 H           7.0162   -6.2532   19.1494 H         1 M3L         0.0778
    124 H           8.5589   -6.7810   18.4334 H         1 M3L         0.0778
    125 H           8.2892   -6.9428   20.1862 H         1 M3L         0.0778
    126 H           9.4784    0.1592   14.6864 H         1 LYS         0.1883
    127 H          12.3807    0.2949   15.3938 H         1 LYS         0.0800
    128 H          12.6351    1.3645   13.4682 H         1 LYS         0.0312
    129 H          12.0287    2.7708   14.4955 H         1 LYS         0.0312
    130 H          10.2166    1.1180   12.7989 H         1 LYS         0.0269
    131 H          11.1480    2.5220   12.1306 H         1 LYS         0.0269
    132 H          10.1426    3.8747   14.0073 H         1 LYS         0.0317
    133 H           9.0298    2.4938   14.2725 H         1 LYS         0.0317
    134 H           9.3349    4.2229   11.8127 H         1 LYS         0.0813
    135 H           7.8758    3.9858   12.8561 H         1 LYS         0.0813
    136 H           7.7094    2.7929   10.7837 H         1 LYS         0.1994
    137 H           9.1117    1.9535   11.1091 H         1 LYS         0.1994
    138 H           7.7679    1.7352   12.0701 H         1 LYS         0.1994
    139 H          10.9136    2.1895   19.1386 H         1 PRO         0.0802
    140 H          12.9151    3.0238   20.1842 H         1 PRO         0.0313
    141 H          13.3594    3.9596   18.8052 H         1 PRO         0.0313
    142 H          13.7577    1.0001   19.2719 H         1 PRO         0.0287
    143 H          14.8813    2.1512   18.6123 H         1 PRO         0.0287
    144 H          13.9116    2.0650   16.4581 H         1 PRO         0.0524
    145 H          13.4806    0.4944   16.9740 H         1 PRO         0.0524
    146 H           9.5479    3.7592   19.5818 H         1 HIS         0.1885
    147 H           8.6711    5.4522   17.4731 H         1 HIS         0.0817
    148 H           8.2736    5.9239   20.4314 H         1 HIS         0.0420
    149 H           7.3404    4.7079   19.4346 H         1 HIS         0.0420
    150 H           6.9515    8.2537   20.6424 H         1 HIS         0.0729
    151 H           4.5986    7.9388   17.0978 H         1 HIS         0.1199
    152 H           5.0969    9.3538   19.1588 H         1 HIS         0.2361
    153 H           9.0723    7.4621   16.8527 H         1 ARG         0.1875
    154 H          10.3829    9.2988   16.4880 H         1 ARG         0.0726
    155 O          12.4552    7.5395   17.7280 O.co2     1 ARG        -0.5666
    156 H          10.5004   10.8844   18.3308 H         1 ARG         0.0307
    157 H          10.0287    9.5552   19.4832 H         1 ARG         0.0307
    158 H           7.9274    9.3336   18.1599 H         1 ARG         0.0301
    159 H           8.3927   10.8760   17.3297 H         1 ARG         0.0301
    160 H           7.8423   10.4547   20.2731 H         1 ARG         0.0689
    161 H           6.8414   11.3726   19.0891 H         1 ARG         0.0689
    162 H           8.8411   12.9048   18.8834 H         1 ARG         0.2642
    163 H           8.2229   11.0110   21.8007 H         1 ARG         0.2615
    164 H           9.1051   12.1262   22.8492 H         1 ARG         0.2615
    165 H           9.9719   14.3286   20.2151 H         1 ARG         0.2615
    166 H          10.0981   14.0102   21.9483 H         1 ARG         0.2615
@<TRIPOS>BOND
     1    1    2 1  
     2    2    3 1  
     3    2    5 1  
     4    3    4 2  
     5    3    7 am 
     6    5    6 1  
     7    7    8 1  
     8    8    9 1  
     9    8   11 1  
    10    9   10 2  
    11    9   14 am 
    12   11   12 1  
    13   11   13 1  
    14   14   15 1  
    15   15   16 1  
    16   16   17 2  
    17   16   18 am 
    18   18   19 1  
    19   19   20 1  
    20   20   21 2  
    21   20   22 am 
    22   22   23 1  
    23   23   24 1  
    24   23   26 1  
    25   24   25 2  
    26   24   29 am 
    27   26   27 1  
    28   26   28 1  
    29   29   30 1  
    30   30   31 1  
    31   30   36 1  
    32   31   32 1  
    33   32   33 1  
    34   33   34 1  
    35   34   35 1  
    36   35   38 1  
    37   35   39 1  
    38   35   40 1  
    39   36   37 2  
    40   36   41 am 
    41   41   42 1  
    42   42   43 1  
    43   42   45 1  
    44   43   44 2  
    45   43   50 am 
    46   45   46 1  
    47   46   47 1  
    48   47   48 1  
    49   48   49 1  
    50   50   51 1  
    51   50   56 1  
    52   51   52 1  
    53   51   54 1  
    54   52   53 2  
    55   52   57 am 
    56   54   55 1  
    57   55   56 1  
    58   57   58 1  
    59   58   59 1  
    60   58   61 1  
    61   59   60 2  
    62   59   67 am 
    63   61   62 1  
    64   62   63 1  
    65   62   64 2  
    66   63   65 2  
    67   64   66 1  
    68   65   66 1  
    69   67   68 1  
    70   68   69 1  
    71   68   71 1  
    72   69   70 ar 
    73   71   72 1  
    74   72   73 1  
    75   73   74 1  
    76   74   75 ar 
    77   75   76 ar 
    78   75   77 ar 
    79    1   78 1  
    80    1   79 1  
    81    1   80 1  
    82    2   81 1  
    83    5   82 1  
    84    5   83 1  
    85    6   84 1  
    86    7   85 1  
    87    8   86 1  
    88   11   87 1  
    89   12   88 1  
    90   13   89 1  
    91   13   90 1  
    92   13   91 1  
    93   14   92 1  
    94   15   93 1  
    95   15   94 1  
    96   18   95 1  
    97   19   96 1  
    98   19   97 1  
    99   22   98 1  
   100   23   99 1  
   101   26  100 1  
   102   27  101 1  
   103   27  102 1  
   104   27  103 1  
   105   28  104 1  
   106   28  105 1  
   107   28  106 1  
   108   29  107 1  
   109   30  108 1  
   110   31  109 1  
   111   31  110 1  
   112   32  111 1  
   113   32  112 1  
   114   33  113 1  
   115   33  114 1  
   116   34  115 1  
   117   34  116 1  
   118   38  117 1  
   119   38  118 1  
   120   38  119 1  
   121   39  120 1  
   122   39  121 1  
   123   39  122 1  
   124   40  123 1  
   125   40  124 1  
   126   40  125 1  
   127   41  126 1  
   128   42  127 1  
   129   45  128 1  
   130   45  129 1  
   131   46  130 1  
   132   46  131 1  
   133   47  132 1  
   134   47  133 1  
   135   48  134 1  
   136   48  135 1  
   137   49  136 1  
   138   49  137 1  
   139   49  138 1  
   140   51  139 1  
   141   54  140 1  
   142   54  141 1  
   143   55  142 1  
   144   55  143 1  
   145   56  144 1  
   146   56  145 1  
   147   57  146 1  
   148   58  147 1  
   149   61  148 1  
   150   61  149 1  
   151   64  150 1  
   152   65  151 1  
   153   66  152 1  
   154   67  153 1  
   155   68  154 1  
   156   69  155 ar 
   157   71  156 1  
   158   71  157 1  
   159   72  158 1  
   160   72  159 1  
   161   73  160 1  
   162   73  161 1  
   163   74  162 1  
   164   76  163 1  
   165   76  164 1  
   166   77  165 1  
   167   77  166 1  
@<TRIPOS>SUBSTRUCTURE
     1 SER         1

