4hcz_ligand
  -I-interpret- 

165166  0  0  0  0  0  0  0  0999 V2000
    1.3910   -5.6560    9.8420 N   0  3  0  0  0
    1.9450   -5.7380    8.4920 C   0  0  0  0  0
    2.9470   -6.8700    8.3580 C   0  0  0  0  0
    3.9340   -6.9060    9.0790 O   0  0  0  0  0
    2.6250   -4.4170    8.1200 C   0  0  0  0  0
    3.6340   -4.6210    7.1380 O   0  0  0  0  0
    2.7210   -7.7880    7.4290 N   0  0  0  0  0
    3.6890   -8.8820    7.2460 C   0  0  0  0  0
    4.9690   -8.4180    6.5380 C   0  0  0  0  0
    4.9200   -7.7360    5.5130 O   0  0  0  0  0
    3.0690  -10.0940    6.5390 C   0  0  0  0  0
    3.1790   -9.9430    5.1200 O   0  0  0  0  0
    1.6110  -10.2290    6.9400 C   0  0  0  0  0
    6.1120   -8.7770    7.1190 N   0  0  0  0  0
    7.4060   -8.3340    6.6300 C   0  0  0  0  0
    7.7690   -6.9510    7.1510 C   0  0  0  0  0
    8.8220   -6.4150    6.8150 O   0  0  0  0  0
    6.8950   -6.3700    7.9730 N   0  0  0  0  0
    7.1340   -5.0500    8.5460 C   0  0  0  0  0
    8.3070   -5.0720    9.5140 C   0  0  0  0  0
    8.7530   -6.1330    9.9310 O   0  0  0  0  0
    8.8090   -3.8980    9.8760 N   0  0  0  0  0
    9.9450   -3.8040   10.7850 C   0  0  0  0  0
    9.6370   -2.8030   11.9030 C   0  0  0  0  0
    9.1510   -1.7030   11.6440 O   0  0  0  0  0
   11.2340   -3.3890   10.0200 C   0  0  0  0  0
   11.0230   -2.0710    9.2870 C   0  0  0  0  0
   12.4420   -3.3110   10.9590 C   0  0  0  0  0
    9.8970   -3.2000   13.1450 N   0  0  0  0  0
    9.6520   -2.3330   14.2940 C   0  0  0  0  0
    9.4770   -3.1130   15.5940 C   0  0  0  0  0
    8.3060   -4.0580   15.7200 C   0  0  0  0  0
    8.2910   -4.9250   16.9930 C   0  0  0  0  0
    8.3690   -4.1850   18.3250 C   0  0  0  0  0
    8.6550   -4.9700   19.5200 N   0  3  0  0  0
   10.7840   -1.3830   14.4670 C   0  0  0  0  0
   11.9720   -1.7710   14.3480 O   0  0  0  0  0
    8.1450   -4.1770   20.6760 C   0  0  0  0  0
   10.0810   -5.1320   19.6980 C   0  0  0  0  0
    8.0920   -6.3280   19.3080 C   0  0  0  0  0
   10.4540   -0.1310   14.7520 N   0  0  0  0  0
   11.4640    0.8350   15.1570 C   0  0  0  0  0
   10.9870    1.5770   16.3930 C   0  0  0  0  0
    9.7870    1.7990   16.5640 O   0  0  0  0  0
   11.8110    1.8130   14.0230 C   0  0  0  0  0
   10.7010    2.0700   13.0160 C   0  0  0  0  0
    9.6470    3.0210   13.5450 C   0  0  0  0  0
    8.7570    3.5210   12.4140 C   0  0  0  0  0
    8.3000    2.4120   11.5230 N   0  3  0  0  0
   11.9290    1.9460   17.2680 N   0  0  0  0  0
   11.5970    2.7130   18.4700 C   0  0  0  0  0
   10.9060    4.0250   18.0980 C   0  0  0  0  0
   11.3330    4.7050   17.1700 O   0  0  0  0  0
   12.9650    2.9860   19.0960 C   0  0  0  0  0
   13.8290    1.8670   18.6150 C   0  0  0  0  0
   13.3470    1.5450   17.2320 C   0  0  0  0  0
    9.8330    4.3530   18.8030 N   0  0  0  0  0
    9.0500    5.5440   18.4910 C   0  0  0  0  0
    9.9160    6.7920   18.5690 C   0  0  0  0  0
   10.7120    6.9480   19.4980 O   0  0  0  0  0
    7.8690    5.6610   19.4540 C   0  0  0  0  0
    6.8810    6.7250   19.0810 C   0  0  0  0  0
    6.1030    6.6540   17.9470 N   0  0  0  0  0
    6.5360    7.8740   19.7090 C   0  0  0  0  0
    5.3190    7.7200   17.8860 C   0  0  0  0  0
    5.5600    8.4710   18.9430 N   0  0  0  0  0
    9.7520    7.6710   17.5840 N   0  0  0  0  0
   10.5000    8.9190   17.5030 C   0  0  0  0  0
   11.9790    8.7060   17.7400 C   0  0  0  0  0
   12.7363    9.6911   17.9493 O   0  0  0  0  0
    9.9380    9.9620   18.4760 C   0  0  0  0  0
    8.4660   10.2780   18.2380 C   0  0  0  0  0
    7.8500   11.0780   19.3790 C   0  0  0  0  0
    8.6210   12.2850   19.6630 N   0  0  0  0  0
    9.0540   12.6280   20.8700 C   0  0  0  0  0
    8.7720   11.8620   21.9220 N   0  0  0  0  0
    9.7630   13.7420   21.0230 N   0  0  0  0  0
   12.4552    7.5395   17.7280 O   0  0  0  0  0
    0.9413   -6.5406   10.0780 H   0  0  0  0  0
    2.1423   -5.4674   10.5056 H   0  0  0  0  0
    0.7041   -4.9030    9.8812 H   0  0  0  0  0
    1.1149   -5.9357    7.8138 H   0  0  0  0  0
    3.0870   -3.9980    9.0139 H   0  0  0  0  0
    1.8739   -3.7396    7.7137 H   0  0  0  0  0
    4.0440   -3.7801    6.9226 H   0  0  0  0  0
    1.8850   -7.7370    6.8469 H   0  0  0  0  0
    3.9747   -9.2026    8.2478 H   0  0  0  0  0
    3.6047  -10.9954    6.8367 H   0  0  0  0  0
    2.7886  -10.7057    4.6870 H   0  0  0  0  0
    1.0667   -9.3362    6.6322 H   0  0  0  0  0
    1.1811  -11.1042    6.4529 H   0  0  0  0  0
    1.5421  -10.3432    8.0218 H   0  0  0  0  0
    6.0777   -9.3852    7.9371 H   0  0  0  0  0
    7.3616   -8.2876    5.5419 H   0  0  0  0  0
    8.1614   -9.0385    6.9780 H   0  0  0  0  0
    6.0336   -6.8631    8.2082 H   0  0  0  0  0
    6.2412   -4.7408    9.0896 H   0  0  0  0  0
    7.3647   -4.3571    7.7369 H   0  0  0  0  0
    8.3908   -3.0426    9.5102 H   0  0  0  0  0
   10.1186   -4.7851   11.2270 H   0  0  0  0  0
   11.4464   -4.1603    9.2797 H   0  0  0  0  0
   10.2078   -2.1809    8.5719 H   0  0  0  0  0
   10.7735   -1.2920   10.0074 H   0  0  0  0  0
   11.9372   -1.8000    8.7589 H   0  0  0  0  0
   12.2486   -2.5727   11.7372 H   0  0  0  0  0
   12.6094   -4.2866   11.4154 H   0  0  0  0  0
   13.3245   -3.0184   10.3901 H   0  0  0  0  0
   10.2772   -4.1339   13.2990 H   0  0  0  0  0
    8.7234   -1.8009   14.0873 H   0  0  0  0  0
    9.3130   -2.3547   16.3597 H   0  0  0  0  0
   10.3613   -3.7462   15.6659 H   0  0  0  0  0
    8.3682   -4.7451   14.8761 H   0  0  0  0  0
    7.4091   -3.4395   15.7540 H   0  0  0  0  0
    9.1835   -5.5488   16.9427 H   0  0  0  0  0
    7.3322   -5.4435   16.9926 H   0  0  0  0  0
    7.3764   -3.7635   18.4833 H   0  0  0  0  0
    9.2036   -3.4910   18.2250 H   0  0  0  0  0
    8.6560   -3.2147   20.7085 H   0  0  0  0  0
    7.0730   -4.0169   20.5604 H   0  0  0  0  0
    8.3347   -4.7220   21.6007 H   0  0  0  0  0
   10.4981   -5.6450   18.8314 H   0  0  0  0  0
   10.5467   -4.1519   19.8006 H   0  0  0  0  0
   10.2692   -5.7209   20.5957 H   0  0  0  0  0
    7.0162   -6.2532   19.1494 H   0  0  0  0  0
    8.5589   -6.7810   18.4334 H   0  0  0  0  0
    8.2892   -6.9428   20.1862 H   0  0  0  0  0
    9.4784    0.1592   14.6864 H   0  0  0  0  0
   12.3807    0.2949   15.3938 H   0  0  0  0  0
   12.6351    1.3645   13.4682 H   0  0  0  0  0
   12.0287    2.7708   14.4955 H   0  0  0  0  0
   10.2166    1.1180   12.7989 H   0  0  0  0  0
   11.1480    2.5220   12.1306 H   0  0  0  0  0
   10.1426    3.8747   14.0073 H   0  0  0  0  0
    9.0298    2.4938   14.2725 H   0  0  0  0  0
    9.3349    4.2229   11.8127 H   0  0  0  0  0
    7.8758    3.9858   12.8561 H   0  0  0  0  0
    7.7094    2.7929   10.7837 H   0  0  0  0  0
    9.1117    1.9535   11.1091 H   0  0  0  0  0
    7.7679    1.7352   12.0701 H   0  0  0  0  0
   10.9136    2.1895   19.1386 H   0  0  0  0  0
   12.9151    3.0238   20.1842 H   0  0  0  0  0
   13.3594    3.9596   18.8052 H   0  0  0  0  0
   13.7577    1.0001   19.2719 H   0  0  0  0  0
   14.8813    2.1512   18.6123 H   0  0  0  0  0
   13.9116    2.0650   16.4581 H   0  0  0  0  0
   13.4806    0.4944   16.9740 H   0  0  0  0  0
    9.5479    3.7592   19.5818 H   0  0  0  0  0
    8.6711    5.4522   17.4731 H   0  0  0  0  0
    8.2736    5.9239   20.4314 H   0  0  0  0  0
    7.3404    4.7079   19.4346 H   0  0  0  0  0
    6.9515    8.2537   20.6424 H   0  0  0  0  0
    4.5986    7.9388   17.0978 H   0  0  0  0  0
    9.0723    7.4621   16.8527 H   0  0  0  0  0
   10.3829    9.2988   16.4880 H   0  0  0  0  0
   12.2206   10.5005   17.9258 H   0  0  0  0  0
   10.5004   10.8844   18.3308 H   0  0  0  0  0
   10.0287    9.5552   19.4832 H   0  0  0  0  0
    7.9274    9.3336   18.1599 H   0  0  0  0  0
    8.3927   10.8760   17.3297 H   0  0  0  0  0
    7.8423   10.4547   20.2731 H   0  0  0  0  0
    6.8414   11.3726   19.0891 H   0  0  0  0  0
    8.8411   12.9048   18.8834 H   0  0  0  0  0
    9.1003   12.1291   22.8500 H   0  0  0  0  0
    8.2277   11.0081   21.7998 H   0  0  0  0  0
    9.9719   14.3286   20.2151 H   0  0  0  0  0
  1  2  1  0  0  0
  2  3  1  0  0  0
  2  5  1  0  0  0
  3  4  2  0  0  0
  3  7  1  0  0  0
  5  6  1  0  0  0
  7  8  1  0  0  0
  8  9  1  0  0  0
  8 11  1  0  0  0
  9 10  2  0  0  0
  9 14  1  0  0  0
 11 12  1  0  0  0
 11 13  1  0  0  0
 14 15  1  0  0  0
 15 16  1  0  0  0
 16 17  2  0  0  0
 16 18  1  0  0  0
 18 19  1  0  0  0
 19 20  1  0  0  0
 20 21  2  0  0  0
 20 22  1  0  0  0
 22 23  1  0  0  0
 23 24  1  0  0  0
 23 26  1  0  0  0
 24 25  2  0  0  0
 24 29  1  0  0  0
 26 27  1  0  0  0
 26 28  1  0  0  0
 29 30  1  0  0  0
 30 31  1  0  0  0
 30 36  1  0  0  0
 31 32  1  0  0  0
 32 33  1  0  0  0
 33 34  1  0  0  0
 34 35  1  0  0  0
 35 38  1  0  0  0
 35 39  1  0  0  0
 35 40  1  0  0  0
 36 37  2  0  0  0
 36 41  1  0  0  0
 41 42  1  0  0  0
 42 43  1  0  0  0
 42 45  1  0  0  0
 43 44  2  0  0  0
 43 50  1  0  0  0
 45 46  1  0  0  0
 46 47  1  0  0  0
 47 48  1  0  0  0
 48 49  1  0  0  0
 50 51  1  0  0  0
 50 56  1  0  0  0
 51 52  1  0  0  0
 51 54  1  0  0  0
 52 53  2  0  0  0
 52 57  1  0  0  0
 54 55  1  0  0  0
 55 56  1  0  0  0
 57 58  1  0  0  0
 58 59  1  0  0  0
 58 61  1  0  0  0
 59 60  2  0  0  0
 59 67  1  0  0  0
 61 62  1  0  0  0
 62 63  4  0  0  0
 62 64  4  0  0  0
 63 65  4  0  0  0
 64 66  4  0  0  0
 65 66  4  0  0  0
 67 68  1  0  0  0
 68 69  1  0  0  0
 68 71  1  0  0  0
 69 70  1  0  0  0
 71 72  1  0  0  0
 72 73  1  0  0  0
 73 74  1  0  0  0
 74 75  1  0  0  0
 75 76  1  0  0  0
 75 77  2  0  0  0
 69 78  2  0  0  0
  1 79  1  0  0  0
  1 80  1  0  0  0
  1 81  1  0  0  0
  2 82  1  0  0  0
  5 83  1  0  0  0
  5 84  1  0  0  0
  6 85  1  0  0  0
  7 86  1  0  0  0
  8 87  1  0  0  0
 11 88  1  0  0  0
 12 89  1  0  0  0
 13 90  1  0  0  0
 13 91  1  0  0  0
 13 92  1  0  0  0
 14 93  1  0  0  0
 15 94  1  0  0  0
 15 95  1  0  0  0
 18 96  1  0  0  0
 19 97  1  0  0  0
 19 98  1  0  0  0
 22 99  1  0  0  0
 23100  1  0  0  0
 26101  1  0  0  0
 27102  1  0  0  0
 27103  1  0  0  0
 27104  1  0  0  0
 28105  1  0  0  0
 28106  1  0  0  0
 28107  1  0  0  0
 29108  1  0  0  0
 30109  1  0  0  0
 31110  1  0  0  0
 31111  1  0  0  0
 32112  1  0  0  0
 32113  1  0  0  0
 33114  1  0  0  0
 33115  1  0  0  0
 34116  1  0  0  0
 34117  1  0  0  0
 38118  1  0  0  0
 38119  1  0  0  0
 38120  1  0  0  0
 39121  1  0  0  0
 39122  1  0  0  0
 39123  1  0  0  0
 40124  1  0  0  0
 40125  1  0  0  0
 40126  1  0  0  0
 41127  1  0  0  0
 42128  1  0  0  0
 45129  1  0  0  0
 45130  1  0  0  0
 46131  1  0  0  0
 46132  1  0  0  0
 47133  1  0  0  0
 47134  1  0  0  0
 48135  1  0  0  0
 48136  1  0  0  0
 49137  1  0  0  0
 49138  1  0  0  0
 49139  1  0  0  0
 51140  1  0  0  0
 54141  1  0  0  0
 54142  1  0  0  0
 55143  1  0  0  0
 55144  1  0  0  0
 56145  1  0  0  0
 56146  1  0  0  0
 57147  1  0  0  0
 58148  1  0  0  0
 61149  1  0  0  0
 61150  1  0  0  0
 64151  1  0  0  0
 65152  1  0  0  0
 67153  1  0  0  0
 68154  1  0  0  0
 70155  1  0  0  0
 71156  1  0  0  0
 71157  1  0  0  0
 72158  1  0  0  0
 72159  1  0  0  0
 73160  1  0  0  0
 73161  1  0  0  0
 74162  1  0  0  0
 76163  1  0  0  0
 76164  1  0  0  0
 77165  1  0  0  0
M  END
$$$$
