5u49_ligand
  -I-interpret- 

 29 30  0  0  0  0  0  0  0  0999 V2000
   44.5830   79.7230   42.5190 C   0  0  0  0  0
   43.6560   79.0270   41.7570 C   0  0  0  0  0
   43.7160   77.6410   41.7990 C   0  0  0  0  0
   44.6400   76.9350   42.5640 C   0  0  0  0  0
   45.5350   77.7040   43.3000 C   0  0  0  0  0
   45.5380   79.0900   43.3040 C   0  0  0  0  0
   46.4700   79.8070   44.0780 O   0  0  0  0  0
   44.8240   75.4340   42.7040 C   0  0  0  0  0
   44.0440   74.4950   42.1450 C   0  0  0  0  0
   44.2170   72.9890   42.2610 C   0  0  0  0  0
   44.1990   72.3130   41.0500 C   0  0  0  0  0
   44.3280   70.9430   40.9010 C   0  0  0  0  0
   44.4980   70.1210   42.0000 C   0  0  0  0  0
   44.5230   70.7620   43.2160 C   0  0  0  0  0
   44.3850   72.1280   43.3390 C   0  0  0  0  0
   44.4240   72.7750   45.0220 Cl  0  0  0  0  0
   44.6350   68.7460   41.8700 O   0  0  0  0  0
   42.6880   79.6590   40.9570 O   0  0  0  0  0
   44.5610   80.8126   42.5009 H   0  0  0  0  0
   43.0015   77.0753   41.2011 H   0  0  0  0  0
   46.2768   77.1870   43.9087 H   0  0  0  0  0
   47.0390   79.1902   44.5443 H   0  0  0  0  0
   45.6615   75.0893   43.3106 H   0  0  0  0  0
   43.2027   74.8476   41.5484 H   0  0  0  0  0
   44.0734   72.9071   40.1448 H   0  0  0  0  0
   44.2951   70.5057   39.9031 H   0  0  0  0  0
   44.6573   70.1663   44.1189 H   0  0  0  0  0
   44.7420   68.3526   42.7391 H   0  0  0  0  0
   42.1531   78.9935   40.5181 H   0  0  0  0  0
  1  2  4  0  0  0
  1  6  4  0  0  0
  2  3  4  0  0  0
  2 18  1  0  0  0
  3  4  4  0  0  0
  4  5  4  0  0  0
  4  8  1  0  0  0
  5  6  4  0  0  0
  6  7  1  0  0  0
  8  9  2  0  0  0
  9 10  1  0  0  0
 10 11  4  0  0  0
 10 15  4  0  0  0
 11 12  4  0  0  0
 12 13  4  0  0  0
 13 14  4  0  0  0
 13 17  1  0  0  0
 14 15  4  0  0  0
 15 16  1  0  0  0
  1 19  1  0  0  0
  3 20  1  0  0  0
  5 21  1  0  0  0
  7 22  1  0  0  0
  8 23  1  0  0  0
  9 24  1  0  0  0
 11 25  1  0  0  0
 12 26  1  0  0  0
 14 27  1  0  0  0
 17 28  1  0  0  0
 18 29  1  0  0  0
M  END
$$$$
