3gjw_ligand
  -I-interpret- 

 38 41  0  0  0  0  0  0  0  0999 V2000
   50.9960   55.4160    9.0390 C   0  0  0  0  0
   49.5310   55.8580   10.6850 C   0  0  0  0  0
   48.8900   54.1470    9.1360 C   0  0  0  0  0
   48.2260   52.4890    7.5970 C   0  0  0  0  0
   47.0480   52.3320    8.2950 C   0  0  0  0  0
   45.8970   50.1520    8.6260 N   0  3  0  0  0
   44.6160   49.4720    8.3430 C   0  0  0  0  0
   47.0240   49.2100    8.4530 C   0  0  0  0  0
   51.5480   56.4050    9.8230 C   0  0  0  0  0
   49.7880   55.0940    9.5890 N   0  0  0  0  0
   50.6220   56.6830   10.8600 C   0  0  0  0  0
   47.7300   53.9910    9.8530 C   0  0  0  0  0
   47.4730   54.7590   10.9950 N   0  0  0  0  0
   48.3310   55.7430   11.4450 C   0  0  0  0  0
   49.1640   53.4030    8.0140 C   0  0  0  0  0
   46.7960   53.0780    9.4240 C   0  0  0  0  0
   48.0910   56.4390   12.4190 O   0  0  0  0  0
   46.0300   51.3670    7.8070 C   0  0  0  0  0
   44.8890   48.0220    8.6420 C   0  0  0  0  0
   46.3920   47.8550    8.6730 C   0  0  0  0  0
   51.4399   54.9735    8.1472 H   0  0  0  0  0
   48.4148   51.8851    6.7095 H   0  0  0  0  0
   45.9133   50.4572    9.5991 H   0  0  0  0  0
   44.2899   49.6240    7.3141 H   0  0  0  0  0
   43.7995   49.8683    8.9467 H   0  0  0  0  0
   47.8414   49.4062    9.1469 H   0  0  0  0  0
   47.4930   49.2969    7.4729 H   0  0  0  0  0
   52.5156   56.8842    9.6740 H   0  0  0  0  0
   50.7498   57.4183   11.6545 H   0  0  0  0  0
   46.6146   54.5841   11.5174 H   0  0  0  0  0
   50.0992   53.5339    7.4697 H   0  0  0  0  0
   45.8638   52.9460    9.9732 H   0  0  0  0  0
   46.3440   51.0483    6.8130 H   0  0  0  0  0
   45.0674   51.8776    7.8360 H   0  0  0  0  0
   44.4443   47.3801    7.8816 H   0  0  0  0  0
   44.4483   47.7344    9.5966 H   0  0  0  0  0
   46.7035   47.4487    9.6353 H   0  0  0  0  0
   46.7078   47.1636    7.8917 H   0  0  0  0  0
  1  9  4  0  0  0
 10  1  4  0  0  0
 10  2  4  0  0  0
  2 11  4  0  0  0
  2 14  1  0  0  0
  3 10  1  0  0  0
  3 12  4  0  0  0
 15  3  4  0  0  0
  5  4  4  0  0  0
  4 15  4  0  0  0
  5 16  4  0  0  0
 18  5  1  0  0  0
  6  7  1  0  0  0
  6  8  1  0  0  0
  6 18  1  0  0  0
  7 19  1  0  0  0
  8 20  1  0  0  0
  9 11  4  0  0  0
 12 13  1  0  0  0
 12 16  4  0  0  0
 13 14  1  0  0  0
 14 17  2  0  0  0
 19 20  1  0  0  0
  1 21  1  0  0  0
  4 22  1  0  0  0
  6 23  1  0  0  0
  7 24  1  0  0  0
  7 25  1  0  0  0
  8 26  1  0  0  0
  8 27  1  0  0  0
  9 28  1  0  0  0
 11 29  1  0  0  0
 13 30  1  0  0  0
 15 31  1  0  0  0
 16 32  1  0  0  0
 18 33  1  0  0  0
 18 34  1  0  0  0
 19 35  1  0  0  0
 19 36  1  0  0  0
 20 37  1  0  0  0
 20 38  1  0  0  0
M  END
$$$$
