### 
### Created by X-TOOL on Mon Sep 10 21:13:13 2018
### 

@<TRIPOS>MOLECULE
4ii9_ligand
  234   244     1     0     0
SMALL
GAST_HUCK


@<TRIPOS>ATOM
      1 N          14.0640    2.1350   20.5800 N.am      1 ALA        -0.2638
      2 CA         13.3560    1.7950   21.8400 C.3       1 ALA         0.1282
      3 C          13.0750    2.9800   22.7630 C.2       1 ALA         0.2031
      4 O          12.0760    3.0010   23.5410 O.2       1 ALA        -0.3944
      5 CB         14.2430    0.7650   22.5580 C.3       1 ALA        -0.0244
      6 N          13.9180    4.0340   22.6740 N.am      1 FGA        -0.2693
      7 CA         13.7120    5.2240   23.4720 C.3       1 FGA         0.0964
      8 C          14.7430    5.3210   24.6260 C.2       1 FGA         0.0602
      9 O          15.9130    4.8180   24.4880 O.co2     1 FGA        -0.5666
     10 CB         13.8640    6.4880   22.6020 C.3       1 FGA        -0.0010
     11 CG         12.8590    6.6040   21.4060 C.3       1 FGA         0.0410
     12 CD         11.4740    6.9710   21.8900 C.2       1 FGA         0.1784
     13 OE1        11.1160    6.9460   23.0640 O.2       1 FGA        -0.3969
     14 OXT        14.3980    5.9470   25.6690 O.co2     1 FGA        -0.5666
     15 N          10.5750    6.9650   20.8020 N.am      1 CYS        -0.2648
     16 CA          9.1890    7.4930   21.0670 C.3       1 CYS         0.1398
     17 C           8.3250    6.8570   19.9730 C.2       1 CYS         0.2047
     18 O           7.5170    7.5550   19.3280 O.2       1 CYS        -0.3944
     19 CB          9.2800    9.0970   20.9720 C.3       1 CYS         0.0342
     20 SG          8.3370    9.6600   22.4070 S.3       1 CYS        -0.1545
     21 N           8.4800    5.5490   19.7050 N.am      1 DAL        -0.2640
     22 CA          7.7540    5.0050   18.5430 C.3       1 DAL         0.1282
     23 CB          7.9580    3.4870   18.4600 C.3       1 DAL        -0.0244
     24 C           8.0980    5.5840   17.2030 C.2       1 DAL         0.2031
     25 O           9.3010    5.7800   16.8980 O.2       1 DAL        -0.3944
     26 N           7.0570    5.8860   16.3880 N.am      1 DAL        -0.2698
     27 CA          7.3150    6.5980   15.1280 C.3       1 DAL         0.0916
     28 CB          5.9890    6.8270   14.4130 C.3       1 DAL        -0.0300
     29 C           8.2460    5.7700   14.2040 C.2       1 DAL         0.0598
     30 O           9.1290    6.2830   13.4410 O.co2     1 DAL        -0.5666
     31 OXT         8.1520    4.5240   14.1370 O.co2     1 DAL        -0.5666
     32 P          17.3820   19.1440   34.1400 P.3       1 C           0.1064
     33 OP1        16.6110   19.6400   35.3220 O.co2     1 C          -0.6222
     34 OP2        17.8150   17.7300   34.0840 O.co2     1 C          -0.6222
     35 O5'        16.4430   19.2870   32.8620 O.3       1 C          -0.2803
     36 C5'        15.0810   18.8410   32.9390 C.3       1 C           0.1108
     37 C4'        14.2270   19.6150   31.9690 C.3       1 C           0.1245
     38 O4'        14.2440   21.0370   32.2710 O.3       1 C          -0.3348
     39 C3'        14.6730   19.5870   30.5220 C.3       1 C           0.1541
     40 O3'        14.2770   18.3550   29.9410 O.3       1 C          -0.2453
     41 C2'        13.8910   20.7640   29.9410 C.3       1 C           0.1453
     42 O2'        12.5490   20.4230   29.6750 O.3       1 C          -0.3831
     43 C1'        14.0060   21.7840   31.0730 C.3       1 C           0.2113
     44 N1         15.1700   22.6560   30.8740 N.am      1 C          -0.1467
     45 C2         15.0710   23.7860   30.0450 C.2       1 C           0.3488
     46 O2         13.9870   24.0400   29.4780 O.2       1 C          -0.3777
     47 N3         16.1520   24.5870   29.9020 N.am      1 C          -0.1924
     48 C4         17.3040   24.2670   30.5010 C.2       1 C           0.0853
     49 N4         18.3430   25.0880   30.3330 N.2       1 C          -0.4291
     50 C5         17.4230   23.1310   31.3540 C.2       1 C           0.0019
     51 C6         16.3430   22.3690   31.5180 C.2       1 C           0.0739
     52 P          15.0910   17.8960   28.6370 P.3       1 C           0.2557
     53 OP1        14.4770   16.6280   28.1340 O.co2     1 C          -0.6177
     54 OP2        16.5770   17.9710   28.8950 O.co2     1 C          -0.6177
     55 O5'        14.6620   19.0290   27.6260 O.3       1 C          -0.2514
     56 C5'        13.5050   18.8960   26.7840 C.3       1 C           0.1128
     57 C4'        13.4930   19.9800   25.7560 C.3       1 C           0.1243
     58 O4'        13.8270   21.2450   26.3930 O.3       1 C          -0.3348
     59 C3'        14.5080   19.8360   24.6380 C.3       1 C           0.1541
     60 O3'        13.9250   19.0030   23.6130 O.3       1 C          -0.2453
     61 C2'        14.6470   21.2870   24.1590 C.3       1 C           0.1453
     62 O2'        13.5960   21.4830   23.2120 O.3       1 C          -0.3831
     63 C1'        14.4960   22.0830   25.4760 C.3       1 C           0.2113
     64 N1         15.7690   22.4930   26.1060 N.am      1 C          -0.1467
     65 C2         16.4670   23.5800   25.5680 C.2       1 C           0.3488
     66 O2         15.9620   24.2090   24.6210 O.2       1 C          -0.3777
     67 N3         17.6540   23.9410   26.1200 N.am      1 C          -0.1924
     68 C4         18.1680   23.2190   27.1230 C.2       1 C           0.0853
     69 N4         19.3370   23.6070   27.6420 N.2       1 C          -0.4291
     70 C5         17.5000   22.0730   27.6500 C.2       1 C           0.0019
     71 C6         16.3260   21.7390   27.1040 C.2       1 C           0.0739
     72 OP1        15.5690   19.0220   21.6720 O.co2     1 A9Z        -0.6177
     73 P          15.2000   18.0970   22.8840 P.3       1 A9Z         0.2557
     74 OP2        16.4410   17.7450   23.6490 O.co2     1 A9Z        -0.6177
     75 O5'        14.1710   16.8620   22.1820 O.3       1 A9Z        -0.2514
     76 C5'        14.4740   16.4430   20.8750 C.3       1 A9Z         0.1124
     77 C4'        13.8080   15.0900   20.8060 C.3       1 A9Z         0.1196
     78 C3'        12.2800   15.0940   20.6550 C.3       1 A9Z         0.1221
     79 O3'        12.0450   14.2960   19.5060 O.3       1 A9Z        -0.3856
     80 C2'        11.7270   14.4600   21.9590 C.3       1 A9Z         0.1691
     81 N1T        10.5290   13.8000   21.7900 N.pl3     1 A9Z        -0.1701
     82 C5T        10.1120   12.5750   21.3870 C.2       1 A9Z         0.0700
     83 C4T         8.6680   12.5780   21.3470 C.2       1 A9Z         0.0378
     84 C6T         7.6890   11.4220   21.0140 C.3       1 A9Z        -0.0094
     85 C7T         7.2640   11.0940   22.4140 C.3       1 A9Z         0.0006
     86 N3T         8.3160   13.8460   21.7220 N.2       1 A9Z        -0.2265
     87 N2T         9.4070   14.6310   22.0060 N.2       1 A9Z        -0.1015
     88 C1'        12.8980   13.4800   22.2310 C.3       1 A9Z         0.2082
     89 O4'        14.0940   14.3030   22.0090 O.3       1 A9Z        -0.3358
     90 N9         12.9130   13.1360   23.6200 N.pl3     1 A9Z        -0.1912
     91 C4         12.6170   11.9330   24.1690 C.ar      1 A9Z         0.1613
     92 C5         12.8190   12.0530   25.6040 C.ar      1 A9Z         0.1045
     93 N7         13.2780   13.3570   25.8060 N.2       1 A9Z        -0.2958
     94 C8         13.3330   13.9740   24.6200 C.2       1 A9Z         0.1123
     95 N3         12.2200   10.7830   23.6050 N.ar      1 A9Z        -0.2714
     96 C2         11.9290    9.7420   24.4310 C.ar      1 A9Z         0.0533
     97 N1         12.0750    9.7090   25.7480 N.ar      1 A9Z        -0.2698
     98 C6         12.5420   10.8660   26.4010 C.ar      1 A9Z         0.1298
     99 N6         12.7150   10.9220   27.7050 N.pl3     1 A9Z        -0.3152
    100 N1          6.8460   -5.5740   19.2140 N.am      1 UDP        -0.1592
    101 C2          5.8060   -6.0580   20.0380 C.2       1 UDP         0.3328
    102 N3          5.4690   -7.4070   19.9760 N.am      1 UDP        -0.1865
    103 C4          6.1970   -8.1910   19.1730 C.2       1 UDP         0.1822
    104 C5          7.2210   -7.7000   18.3440 C.2       1 UDP         0.0062
    105 C6          7.5250   -6.3470   18.3480 C.2       1 UDP         0.0591
    106 O2          5.1500   -5.3200   20.7500 O.2       1 UDP        -0.3815
    107 O4          5.9350   -9.4590   19.1200 O.2       1 UDP        -0.4124
    108 C1'         7.1800   -4.1310   19.3490 C.3       1 UDP         0.2059
    109 C2'         8.6550   -3.9540   19.5980 C.3       1 UDP         0.1387
    110 O2'         8.9460   -4.1930   20.9650 O.3       1 UDP        -0.3836
    111 C3'         8.8700   -2.4840   19.3030 C.3       1 UDP         0.1149
    112 C4'         7.8080   -2.2580   18.2350 C.3       1 UDP         0.1189
    113 O4'         7.1140   -3.5220   18.1140 O.3       1 UDP        -0.3363
    114 O3'         8.4000   -1.6120   20.3310 O.3       1 UDP        -0.3864
    115 C5'         8.3510   -1.9860   16.8690 C.3       1 UDP         0.1128
    116 O5'         9.0380   -0.6900   16.8950 O.3       1 UDP        -0.2476
    117 PA          9.3320    0.0960   15.6500 P.3       1 UDP         0.2972
    118 O1A         8.1670    0.3520   14.7440 O.co2     1 UDP        -0.6127
    119 O2A        10.0990    1.3400   16.0550 O.co2     1 UDP        -0.6127
    120 O3A        10.3170   -0.9210   14.8760 O.3       1 UDP        -0.1318
    121 PB         11.6270   -0.6100   14.0470 P.3       1 UDP         0.2996
    122 O1B        11.3710    0.5290   13.1330 O.co2     1 UDP        -0.6127
    123 O3B        12.0780   -1.9710   13.4680 O.co2     1 UDP        -0.6127
    124 C1         13.2980   -0.8570   16.1690 C.3       1 MUB         0.2196
    125 C2         13.5680    0.0510   17.3470 C.3       1 MUB         0.1265
    126 C3         14.4960    1.1840   16.8730 C.3       1 MUB         0.1182
    127 C4         15.7490    0.6030   16.1730 C.3       1 MUB         0.1121
    128 C5         15.3520   -0.3570   15.0600 C.3       1 MUB         0.1133
    129 C6         16.5930   -1.1510   14.6680 C.3       1 MUB         0.0730
    130 C7         11.7190    0.2090   19.0220 C.2       1 MUB         0.1734
    131 C8         10.4110    0.8150   19.4490 C.3       1 MUB         0.0257
    132 C9         14.1650    3.1180   18.3340 C.3       1 MUB         0.1449
    133 C10        13.4580    2.9370   19.6380 C.2       1 MUB         0.2072
    134 C11        15.1830    4.2940   18.4250 C.3       1 MUB        -0.0211
    135 O1         12.6680   -0.0760   15.1670 O.3       1 MUB        -0.2157
    136 O3         14.9140    1.9450   18.0040 O.3       1 MUB        -0.3482
    137 O4         16.4930    1.6820   15.5650 O.3       1 MUB        -0.3865
    138 O5         14.5110   -1.3750   15.6060 O.3       1 MUB        -0.3366
    139 O6         16.3520   -1.8180   13.4190 O.3       1 MUB        -0.3924
    140 O7         12.3110   -0.5450   19.7910 O.2       1 MUB        -0.3974
    141 O10        12.3670    3.5250   19.7690 O.2       1 MUB        -0.3941
    142 N2         12.2780    0.5710   17.8700 N.am      1 MUB        -0.2762
    143 H1         14.9843    1.7805   20.4145 H         1 ALA         0.1883
    144 H2         12.3906    1.3337   21.5845 H         1 ALA         0.0797
    145 H3         13.7693    0.4708   23.5062 H         1 ALA         0.0277
    146 H4         15.2284    1.2090   22.7627 H         1 ALA         0.0277
    147 H5         14.3660   -0.1219   21.9190 H         1 ALA         0.0277
    148 H6         14.6958    3.9905   22.0470 H         1 FGA         0.1875
    149 H7         12.6974    5.1918   23.8956 H         1 FGA         0.0727
    150 H8         14.8840    6.4963   22.1904 H         1 FGA         0.0330
    151 H9         13.7230    7.3654   23.2503 H         1 FGA         0.0330
    152 H10        12.8118    5.6381   20.8819 H         1 FGA         0.0504
    153 H11        13.2143    7.3805   20.7126 H         1 FGA         0.0504
    154 H12        10.8445    6.6272   19.9002 H         1 CYS         0.1883
    155 H13         8.8233    7.1981   22.0616 H         1 CYS         0.0808
    156 H14         8.8286    9.4616   20.0375 H         1 CYS         0.0424
    157 H15        10.3249    9.4356   21.0310 H         1 CYS         0.0424
    158 H16         9.0646    4.9680   20.2713 H         1 DAL         0.1883
    159 H17         6.6862    5.2039   18.7169 H         1 DAL         0.0797
    160 H18         7.4129    3.0908   17.5906 H         1 DAL         0.0277
    161 H19         7.5771    3.0151   19.3777 H         1 DAL         0.0277
    162 H20         9.0302    3.2665   18.3521 H         1 DAL         0.0277
    163 H21         6.1248    5.6274   16.6412 H         1 DAL         0.1875
    164 H22         7.7895    7.5657   15.3482 H         1 DAL         0.0723
    165 H23         6.1694    7.3596   13.4676 H         1 DAL         0.0270
    166 H24         5.3268    7.4291   15.0525 H         1 DAL         0.0270
    167 H25         5.5136    5.8576   14.2027 H         1 DAL         0.0270
    168 H26        18.1996   19.7264   34.0487 H         1 C           0.1780
    169 H27        14.7041   18.9975   33.9605 H         1 C           0.0650
    170 H28        15.0342   17.7704   32.6908 H         1 C           0.0650
    171 H29        13.2022   19.2217   32.0411 H         1 C           0.0655
    172 H30        15.7589   19.7269   30.4162 H         1 C           0.0712
    173 H31        14.3587   21.1375   29.0181 H         1 C           0.0681
    174 H32        12.5230   19.7094   29.0485 H         1 C           0.2102
    175 H33        13.0858   22.3818   31.1496 H         1 C           0.1013
    176 H34        16.0896   25.4177   29.3488 H         1 C           0.2412
    177 H35        19.2269   24.8782   30.7698 H         1 C           0.0340
    178 H36        18.3618   22.8951   31.8529 H         1 C           0.0330
    179 H37        16.3942   21.5027   32.1759 H         1 C           0.1288
    180 H38        12.5963   18.9680   27.3997 H         1 C           0.0647
    181 H39        13.5308   17.9179   26.2814 H         1 C           0.0647
    182 H40        12.4843   20.0263   25.3196 H         1 C           0.0655
    183 H41        15.4661   19.4202   24.9830 H         1 C           0.0712
    184 H42        15.6215   21.4889   23.6904 H         1 C           0.0681
    185 H43        13.7000   20.8699   22.4938 H         1 C           0.2102
    186 H44        13.8966   22.9835   25.2763 H         1 C           0.1013
    187 H45        18.1426   24.7438   25.7782 H         1 C           0.2412
    188 H46        19.7508   23.0847   28.3983 H         1 C           0.0340
    189 H47        17.9299   21.4930   28.4653 H         1 C           0.0330
    190 H48        15.8038   20.8519   27.4593 H         1 C           0.1288
    191 H49        15.5606   16.3597   20.7256 H         1 CYS         0.0647
    192 H50        14.0529   17.1323   20.1284 H         1 CYS         0.0647
    193 H51        14.2305   14.5709   19.9330 H         1 CYS         0.0651
    194 H52        11.8754   16.1075   20.5172 H         1 CYS         0.0655
    195 H53        11.1106   14.2472   19.3414 H         1 CYS         0.2100
    196 H54        11.6159   15.2056   22.7600 H         1 CYS         0.0768
    197 H55        10.7553   11.7328   21.1363 H         1 CYS         0.0899
    198 H56         8.1944   10.5769   20.5238 H         1 CYS         0.0388
    199 H57         6.8464   11.7567   20.3911 H         1 CYS         0.0388
    200 H58         7.5396   11.8570   23.1569 H         1 CYS         0.0393
    201 H59         6.1951   10.8541   22.5138 H         1 CYS         0.0393
    202 H60        12.8593   12.5896   21.5863 H         1 CYS         0.1004
    203 H61        13.6655   15.0001   24.4700 H         1 CYS         0.1349
    204 H62        11.5368    8.8461   23.9634 H         1 CYS         0.0996
    205 H63        12.5244   10.0930   28.2859 H         1 CYS         0.1820
    206 H64        13.0409   11.7948   28.1443 H         1 CYS         0.1820
    207 H65         4.7102   -7.7767   20.5123 H         1 UDP         0.2259
    208 H66         7.7747   -8.3813   17.6996 H         1 UDP         0.0258
    209 H67         8.2782   -5.9300   17.6812 H         1 UDP         0.1178
    210 H68         6.5489   -3.6487   20.1099 H         1 UDP         0.0997
    211 H69         9.2632   -4.6021   18.9499 H         1 UDP         0.0676
    212 H70         8.4610   -3.5784   21.5030 H         1 UDP         0.2101
    213 H71         9.9030   -2.2600   18.9985 H         1 UDP         0.0648
    214 H72         7.1330   -1.4454   18.5416 H         1 UDP         0.0651
    215 H73         8.9874   -1.6574   21.0763 H         1 UDP         0.2100
    216 H74         7.5272   -1.9555   16.1407 H         1 UDP         0.0648
    217 H75         9.0609   -2.7774   16.5867 H         1 UDP         0.0648
    218 H76        12.6476   -1.6876   16.4807 H         1 ALA         0.0996
    219 H77        14.0714   -0.5166   18.1435 H         1 ALA         0.0637
    220 H78        13.9516    1.8318   16.1701 H         1 ALA         0.0650
    221 H79        16.3735    0.0801   16.9123 H         1 ALA         0.0647
    222 H80        14.8904    0.1705   14.2123 H         1 ALA         0.0647
    223 H81        16.8140   -1.8962   15.4463 H         1 ALA         0.0584
    224 H82        17.4484   -0.4677   14.5611 H         1 ALA         0.0584
    225 H83        10.0248    1.4579   18.6444 H         1 ALA         0.0467
    226 H84        10.5646    1.4165   20.3571 H         1 ALA         0.0467
    227 H85         9.6866    0.0140   19.6579 H         1 ALA         0.0467
    228 H86        13.4248    3.3234   17.5467 H         1 ALA         0.0837
    229 H87        15.6934    4.4127   17.4579 H         1 ALA         0.0279
    230 H88        15.9253    4.0767   19.2071 H         1 ALA         0.0279
    231 H89        14.6490    5.2228   18.6742 H         1 ALA         0.0279
    232 H90        16.7564    2.3009   16.2359 H         1 ALA         0.2100
    233 H91        15.6126   -2.4071   13.5133 H         1 ALA         0.2095
    234 H92        11.7925    1.2450   17.3132 H         1 ALA         0.1857
@<TRIPOS>BOND
     1    1    2 1  
     2  133    1 am 
     3    2    3 1  
     4    2    5 1  
     5    3    4 2  
     6    3    6 am 
     7    6    7 1  
     8    7    8 1  
     9    7   10 1  
    10    8    9 ar 
    11    8   14 ar 
    12   10   11 1  
    13   11   12 1  
    14   12   13 2  
    15   12   15 am 
    16   15   16 1  
    17   16   17 1  
    18   16   19 1  
    19   17   18 2  
    20   17   21 am 
    21   19   20 1  
    22   20   85 1  
    23   21   22 1  
    24   22   23 1  
    25   22   24 1  
    26   24   25 2  
    27   24   26 am 
    28   26   27 1  
    29   27   28 1  
    30   27   29 1  
    31   29   30 ar 
    32   29   31 ar 
    33   32   33 ar 
    34   32   34 ar 
    35   35   32 1  
    36   36   35 1  
    37   37   36 1  
    38   37   38 1  
    39   39   37 1  
    40   43   38 1  
    41   40   39 1  
    42   39   41 1  
    43   52   40 1  
    44   41   42 1  
    45   41   43 1  
    46   43   44 1  
    47   44   45 am 
    48   44   51 1  
    49   45   46 2  
    50   45   47 am 
    51   47   48 1  
    52   48   49 2  
    53   50   48 1  
    54   51   50 2  
    55   52   53 ar 
    56   52   54 ar 
    57   55   52 1  
    58   56   55 1  
    59   57   56 1  
    60   57   58 1  
    61   59   57 1  
    62   63   58 1  
    63   60   59 1  
    64   59   61 1  
    65   73   60 1  
    66   61   62 1  
    67   61   63 1  
    68   63   64 1  
    69   64   65 am 
    70   64   71 1  
    71   65   66 2  
    72   65   67 am 
    73   67   68 1  
    74   68   69 2  
    75   70   68 1  
    76   71   70 2  
    77   73   72 ar 
    78   73   74 ar 
    79   75   73 1  
    80   76   75 1  
    81   77   76 1  
    82   78   77 1  
    83   89   77 1  
    84   78   79 1  
    85   80   78 1  
    86   81   80 1  
    87   80   88 1  
    88   82   81 1  
    89   87   81 1  
    90   83   82 2  
    91   84   83 1  
    92   83   86 1  
    93   85   84 1  
    94   86   87 2  
    95   88   89 1  
    96   88   90 1  
    97   90   91 1  
    98   90   94 1  
    99   91   92 ar 
   100   91   95 ar 
   101   93   92 1  
   102   92   98 ar 
   103   94   93 2  
   104   95   96 ar 
   105   96   97 ar 
   106   98   97 ar 
   107   98   99 1  
   108  100  101 am 
   109  100  105 1  
   110  108  100 1  
   111  101  102 am 
   112  101  106 2  
   113  102  103 am 
   114  104  103 1  
   115  103  107 2  
   116  105  104 2  
   117  108  109 1  
   118  113  108 1  
   119  109  110 1  
   120  111  109 1  
   121  112  111 1  
   122  111  114 1  
   123  112  113 1  
   124  115  112 1  
   125  116  115 1  
   126  117  116 1  
   127  117  118 ar 
   128  117  119 ar 
   129  120  117 1  
   130  121  120 1  
   131  121  122 ar 
   132  121  123 ar 
   133  135  121 1  
   134  125  124 1  
   135  124  135 1  
   136  124  138 1  
   137  126  125 1  
   138  125  142 1  
   139  126  127 1  
   140  136  126 1  
   141  127  128 1  
   142  127  137 1  
   143  128  129 1  
   144  128  138 1  
   145  129  139 1  
   146  130  131 1  
   147  130  140 2  
   148  142  130 am 
   149  132  133 1  
   150  132  134 1  
   151  132  136 1  
   152  133  141 2  
   153    1  143 1  
   154    2  144 1  
   155    5  145 1  
   156    5  146 1  
   157    5  147 1  
   158    6  148 1  
   159    7  149 1  
   160   10  150 1  
   161   10  151 1  
   162   11  152 1  
   163   11  153 1  
   164   15  154 1  
   165   16  155 1  
   166   19  156 1  
   167   19  157 1  
   168   21  158 1  
   169   22  159 1  
   170   23  160 1  
   171   23  161 1  
   172   23  162 1  
   173   26  163 1  
   174   27  164 1  
   175   28  165 1  
   176   28  166 1  
   177   28  167 1  
   178   32  168 1  
   179   36  169 1  
   180   36  170 1  
   181   37  171 1  
   182   39  172 1  
   183   41  173 1  
   184   42  174 1  
   185   43  175 1  
   186   47  176 1  
   187   49  177 1  
   188   50  178 1  
   189   51  179 1  
   190   56  180 1  
   191   56  181 1  
   192   57  182 1  
   193   59  183 1  
   194   61  184 1  
   195   62  185 1  
   196   63  186 1  
   197   67  187 1  
   198   69  188 1  
   199   70  189 1  
   200   71  190 1  
   201   76  191 1  
   202   76  192 1  
   203   77  193 1  
   204   78  194 1  
   205   79  195 1  
   206   80  196 1  
   207   82  197 1  
   208   84  198 1  
   209   84  199 1  
   210   85  200 1  
   211   85  201 1  
   212   88  202 1  
   213   94  203 1  
   214   96  204 1  
   215   99  205 1  
   216   99  206 1  
   217  102  207 1  
   218  104  208 1  
   219  105  209 1  
   220  108  210 1  
   221  109  211 1  
   222  110  212 1  
   223  111  213 1  
   224  112  214 1  
   225  114  215 1  
   226  115  216 1  
   227  115  217 1  
   228  124  218 1  
   229  125  219 1  
   230  126  220 1  
   231  127  221 1  
   232  128  222 1  
   233  129  223 1  
   234  129  224 1  
   235  131  225 1  
   236  131  226 1  
   237  131  227 1  
   238  132  228 1  
   239  134  229 1  
   240  134  230 1  
   241  134  231 1  
   242  137  232 1  
   243  139  233 1  
   244  142  234 1  
@<TRIPOS>SUBSTRUCTURE
     1 ALA         1

