4ii9_ligand
  -I-interpret- 

240250  0  0  0  0  0  0  0  0999 V2000
   14.0640    2.1350   20.5800 N   0  0  0  0  0
   13.3560    1.7950   21.8400 C   0  0  0  0  0
   13.0750    2.9800   22.7630 C   0  0  0  0  0
   12.0760    3.0010   23.5410 O   0  0  0  0  0
   14.2430    0.7650   22.5580 C   0  0  0  0  0
   13.9180    4.0340   22.6740 N   0  0  0  0  0
   13.7120    5.2240   23.4720 C   0  0  0  0  0
   14.7430    5.3210   24.6260 C   0  0  0  0  0
   15.9130    4.8180   24.4880 O   0  0  0  0  0
   13.8640    6.4880   22.6020 C   0  0  0  0  0
   12.8590    6.6040   21.4060 C   0  0  0  0  0
   11.4740    6.9710   21.8900 C   0  0  0  0  0
   11.1160    6.9460   23.0640 O   0  0  0  0  0
   14.3980    5.9470   25.6690 O   0  0  0  0  0
   10.5750    6.9650   20.8020 N   0  0  0  0  0
    9.1890    7.4930   21.0670 C   0  0  0  0  0
    8.3250    6.8570   19.9730 C   0  0  0  0  0
    7.5170    7.5550   19.3280 O   0  0  0  0  0
    9.2800    9.0970   20.9720 C   0  0  0  0  0
    8.3370    9.6600   22.4070 S   0  0  0  0  0
    8.4800    5.5490   19.7050 N   0  0  0  0  0
    7.7540    5.0050   18.5430 C   0  0  0  0  0
    7.9580    3.4870   18.4600 C   0  0  0  0  0
    8.0980    5.5840   17.2030 C   0  0  0  0  0
    9.3010    5.7800   16.8980 O   0  0  0  0  0
    7.0570    5.8860   16.3880 N   0  0  0  0  0
    7.3150    6.5980   15.1280 C   0  0  0  0  0
    5.9890    6.8270   14.4130 C   0  0  0  0  0
    8.2460    5.7700   14.2040 C   0  0  0  0  0
    9.1290    6.2830   13.4410 O   0  0  0  0  0
    8.1520    4.5240   14.1370 O   0  0  0  0  0
   17.3820   19.1440   34.1400 P   0  0  0  0  0
   16.6110   19.6400   35.3220 O   0  0  0  0  0
   17.8150   17.7300   34.0840 O   0  0  0  0  0
   16.4430   19.2870   32.8620 O   0  0  0  0  0
   15.0810   18.8410   32.9390 C   0  0  0  0  0
   14.2270   19.6150   31.9690 C   0  0  0  0  0
   14.2440   21.0370   32.2710 O   0  0  0  0  0
   14.6730   19.5870   30.5220 C   0  0  0  0  0
   14.2770   18.3550   29.9410 O   0  0  0  0  0
   13.8910   20.7640   29.9410 C   0  0  0  0  0
   12.5490   20.4230   29.6750 O   0  0  0  0  0
   14.0060   21.7840   31.0730 C   0  0  0  0  0
   15.1700   22.6560   30.8740 N   0  0  0  0  0
   15.0710   23.7860   30.0450 C   0  0  0  0  0
   13.9870   24.0400   29.4780 O   0  0  0  0  0
   16.1520   24.5870   29.9020 N   0  0  0  0  0
   17.3040   24.2670   30.5010 C   0  0  0  0  0
   18.3430   25.0880   30.3330 N   0  0  0  0  0
   17.4230   23.1310   31.3540 C   0  0  0  0  0
   16.3430   22.3690   31.5180 C   0  0  0  0  0
   15.0910   17.8960   28.6370 P   0  0  0  0  0
   14.4770   16.6280   28.1340 O   0  0  0  0  0
   16.5770   17.9710   28.8950 O   0  0  0  0  0
   14.6620   19.0290   27.6260 O   0  0  0  0  0
   13.5050   18.8960   26.7840 C   0  0  0  0  0
   13.4930   19.9800   25.7560 C   0  0  0  0  0
   13.8270   21.2450   26.3930 O   0  0  0  0  0
   14.5080   19.8360   24.6380 C   0  0  0  0  0
   13.9250   19.0030   23.6130 O   0  0  0  0  0
   14.6470   21.2870   24.1590 C   0  0  0  0  0
   13.5960   21.4830   23.2120 O   0  0  0  0  0
   14.4960   22.0830   25.4760 C   0  0  0  0  0
   15.7690   22.4930   26.1060 N   0  0  0  0  0
   16.4670   23.5800   25.5680 C   0  0  0  0  0
   15.9620   24.2090   24.6210 O   0  0  0  0  0
   17.6540   23.9410   26.1200 N   0  0  0  0  0
   18.1680   23.2190   27.1230 C   0  0  0  0  0
   19.3370   23.6070   27.6420 N   0  0  0  0  0
   17.5000   22.0730   27.6500 C   0  0  0  0  0
   16.3260   21.7390   27.1040 C   0  0  0  0  0
   15.5690   19.0220   21.6720 O   0  0  0  0  0
   15.2000   18.0970   22.8840 P   0  0  0  0  0
   16.4410   17.7450   23.6490 O   0  0  0  0  0
   14.1710   16.8620   22.1820 O   0  0  0  0  0
   14.4740   16.4430   20.8750 C   0  0  0  0  0
   13.8080   15.0900   20.8060 C   0  0  0  0  0
   12.2800   15.0940   20.6550 C   0  0  0  0  0
   12.0450   14.2960   19.5060 O   0  0  0  0  0
   11.7270   14.4600   21.9590 C   0  0  0  0  0
   10.5290   13.8000   21.7900 N   0  0  0  0  0
   10.1120   12.5750   21.3870 C   0  0  0  0  0
    8.6680   12.5780   21.3470 C   0  0  0  0  0
    7.6890   11.4220   21.0140 C   0  0  0  0  0
    7.2640   11.0940   22.4140 C   0  0  0  0  0
    8.3160   13.8460   21.7220 N   0  0  0  0  0
    9.4070   14.6310   22.0060 N   0  0  0  0  0
   12.8980   13.4800   22.2310 C   0  0  0  0  0
   14.0940   14.3030   22.0090 O   0  0  0  0  0
   12.9130   13.1360   23.6200 N   0  0  0  0  0
   12.6170   11.9330   24.1690 C   0  0  0  0  0
   12.8190   12.0530   25.6040 C   0  0  0  0  0
   13.2780   13.3570   25.8060 N   0  0  0  0  0
   13.3330   13.9740   24.6200 C   0  0  0  0  0
   12.2200   10.7830   23.6050 N   0  0  0  0  0
   11.9290    9.7420   24.4310 C   0  0  0  0  0
   12.0750    9.7090   25.7480 N   0  0  0  0  0
   12.5420   10.8660   26.4010 C   0  0  0  0  0
   12.7150   10.9220   27.7050 N   0  0  0  0  0
    6.8460   -5.5740   19.2140 N   0  0  0  0  0
    5.8060   -6.0580   20.0380 C   0  0  0  0  0
    5.4690   -7.4070   19.9760 N   0  0  0  0  0
    6.1970   -8.1910   19.1730 C   0  0  0  0  0
    7.2210   -7.7000   18.3440 C   0  0  0  0  0
    7.5250   -6.3470   18.3480 C   0  0  0  0  0
    5.1500   -5.3200   20.7500 O   0  0  0  0  0
    5.9350   -9.4590   19.1200 O   0  0  0  0  0
    7.1800   -4.1310   19.3490 C   0  0  0  0  0
    8.6550   -3.9540   19.5980 C   0  0  0  0  0
    8.9460   -4.1930   20.9650 O   0  0  0  0  0
    8.8700   -2.4840   19.3030 C   0  0  0  0  0
    7.8080   -2.2580   18.2350 C   0  0  0  0  0
    7.1140   -3.5220   18.1140 O   0  0  0  0  0
    8.4000   -1.6120   20.3310 O   0  0  0  0  0
    8.3510   -1.9860   16.8690 C   0  0  0  0  0
    9.0380   -0.6900   16.8950 O   0  0  0  0  0
    9.3320    0.0960   15.6500 P   0  0  0  0  0
    8.1670    0.3520   14.7440 O   0  0  0  0  0
   10.0990    1.3400   16.0550 O   0  0  0  0  0
   10.3170   -0.9210   14.8760 O   0  0  0  0  0
   11.6270   -0.6100   14.0470 P   0  0  0  0  0
   11.3710    0.5290   13.1330 O   0  0  0  0  0
   12.0780   -1.9710   13.4680 O   0  0  0  0  0
   13.2980   -0.8570   16.1690 C   0  0  0  0  0
   13.5680    0.0510   17.3470 C   0  0  0  0  0
   14.4960    1.1840   16.8730 C   0  0  0  0  0
   15.7490    0.6030   16.1730 C   0  0  0  0  0
   15.3520   -0.3570   15.0600 C   0  0  0  0  0
   16.5930   -1.1510   14.6680 C   0  0  0  0  0
   11.7190    0.2090   19.0220 C   0  0  0  0  0
   10.4110    0.8150   19.4490 C   0  0  0  0  0
   14.1650    3.1180   18.3340 C   0  0  0  0  0
   13.4580    2.9370   19.6380 C   0  0  0  0  0
   15.1830    4.2940   18.4250 C   0  0  0  0  0
   12.6680   -0.0760   15.1670 O   0  0  0  0  0
   14.9140    1.9450   18.0040 O   0  0  0  0  0
   16.4930    1.6820   15.5650 O   0  0  0  0  0
   14.5110   -1.3750   15.6060 O   0  0  0  0  0
   16.3520   -1.8180   13.4190 O   0  0  0  0  0
   12.3110   -0.5450   19.7910 O   0  0  0  0  0
   12.3670    3.5250   19.7690 O   0  0  0  0  0
   12.2780    0.5710   17.8700 N   0  0  0  0  0
   15.0027    1.7734   20.4112 H   0  0  0  0  0
   12.3664    1.4146   21.5870 H   0  0  0  0  0
   15.1868    1.2327   22.8382 H   0  0  0  0  0
   13.7327    0.4090   23.4530 H   0  0  0  0  0
   14.4362   -0.0745   21.8902 H   0  0  0  0  0
   14.7114    3.9896   22.0345 H   0  0  0  0  0
   12.7053    5.1571   23.8846 H   0  0  0  0  0
   15.9759    4.3868   23.6326 H   0  0  0  0  0
   14.8627    6.4487   22.1671 H   0  0  0  0  0
   13.6720    7.3401   23.2541 H   0  0  0  0  0
   12.8069    5.6399   20.9002 H   0  0  0  0  0
   13.2100    7.3843   20.7307 H   0  0  0  0  0
   10.8499    6.6204   19.8822 H   0  0  0  0  0
    8.7648    7.2554   22.0426 H   0  0  0  0  0
    8.8820    9.4828   20.0335 H   0  0  0  0  0
   10.3085    9.4580   20.9806 H   0  0  0  0  0
    9.0762    4.9564   20.2827 H   0  0  0  0  0
    6.7194    5.2889   18.7359 H   0  0  0  0  0
    9.0208    3.2698   18.3532 H   0  0  0  0  0
    7.5802    3.0206   19.3699 H   0  0  0  0  0
    7.4175    3.0956   17.5982 H   0  0  0  0  0
    6.1061    5.6222   16.6462 H   0  0  0  0  0
    7.8019    7.5464   15.3551 H   0  0  0  0  0
    5.5190    5.8658   14.2052 H   0  0  0  0  0
    5.3338    7.4237   15.0476 H   0  0  0  0  0
    6.1691    7.3548   13.4765 H   0  0  0  0  0
    9.1340    7.2362   13.5549 H   0  0  0  0  0
   16.4089   20.5709   35.2031 H   0  0  0  0  0
   14.7086   19.0019   33.9507 H   0  0  0  0  0
   15.0369   17.7813   32.6876 H   0  0  0  0  0
   13.2616   19.1221   32.0838 H   0  0  0  0  0
   15.7477   19.6659   30.3580 H   0  0  0  0  0
   14.2664   21.1188   28.9812 H   0  0  0  0  0
   12.0921   21.1855   29.3124 H   0  0  0  0  0
   13.1025   22.3924   31.1135 H   0  0  0  0  0
   16.0883   25.4343   29.3377 H   0  0  0  0  0
   18.2425   25.9276   29.7626 H   0  0  0  0  0
   18.3627   22.8949   31.8533 H   0  0  0  0  0
   16.3943   21.5019   32.1765 H   0  0  0  0  0
   16.8017   18.8489   29.2117 H   0  0  0  0  0
   12.6060   18.9722   27.3956 H   0  0  0  0  0
   13.5352   17.9280   26.2838 H   0  0  0  0  0
   12.4924   19.9262   25.3270 H   0  0  0  0  0
   15.4614   19.3860   24.9147 H   0  0  0  0  0
   15.5700   21.5803   23.6588 H   0  0  0  0  0
   13.6335   22.3813   22.8754 H   0  0  0  0  0
   13.9614   23.0001   25.2285 H   0  0  0  0  0
   18.1524   24.7598   25.7714 H   0  0  0  0  0
   19.8104   24.4316   27.2727 H   0  0  0  0  0
   17.9303   21.4925   28.4661 H   0  0  0  0  0
   15.8033   20.8510   27.4596 H   0  0  0  0  0
   14.7715   19.2442   21.1860 H   0  0  0  0  0
   15.5449   16.4037   20.6755 H   0  0  0  0  0
   14.1190   17.1343   20.1107 H   0  0  0  0  0
   14.2323   14.6620   19.8978 H   0  0  0  0  0
   11.8070   16.0675   20.5264 H   0  0  0  0  0
   11.1008   14.2467   19.3397 H   0  0  0  0  0
   11.4833   15.1670   22.7520 H   0  0  0  0  0
   10.7559   11.7320   21.1361 H   0  0  0  0  0
    8.1174   10.5942   20.4490 H   0  0  0  0  0
    6.8815   11.6759   20.3272 H   0  0  0  0  0
    7.3604   11.8418   23.2012 H   0  0  0  0  0
    6.2057   10.9805   22.6488 H   0  0  0  0  0
   12.8319   12.5789   21.6212 H   0  0  0  0  0
   13.6658   15.0010   24.4699 H   0  0  0  0  0
   11.5347    8.8412   23.9608 H   0  0  0  0  0
   13.0377   11.7863   28.1400 H   0  0  0  0  0
   12.5263   10.1011   28.2802 H   0  0  0  0  0
    4.6950   -7.7841   20.5230 H   0  0  0  0  0
    7.7752   -8.3819   17.6990 H   0  0  0  0  0
    8.2789   -5.9296   17.6805 H   0  0  0  0  0
    6.5152   -3.7445   20.1215 H   0  0  0  0  0
    9.2755   -4.6259   19.0050 H   0  0  0  0  0
    9.8872   -4.0783   21.1155 H   0  0  0  0  0
    9.9257   -2.2931   19.1100 H   0  0  0  0  0
    7.2125   -1.3970   18.5386 H   0  0  0  0  0
    8.5680   -0.7013   20.0781 H   0  0  0  0  0
    7.5392   -1.9639   16.1419 H   0  0  0  0  0
    9.0483   -2.7727   16.5808 H   0  0  0  0  0
   10.8255    1.0930   16.6318 H   0  0  0  0  0
   12.2003   -2.5977   14.1848 H   0  0  0  0  0
   12.6848   -1.6923   16.5071 H   0  0  0  0  0
   14.0585   -0.4852   18.1594 H   0  0  0  0  0
   13.9527    1.8121   16.1671 H   0  0  0  0  0
   16.3424    0.0775   16.9212 H   0  0  0  0  0
   14.8929    0.2121   14.2517 H   0  0  0  0  0
   16.8143   -1.8883   15.4397 H   0  0  0  0  0
   17.4418   -0.4752   14.5639 H   0  0  0  0  0
    9.6941    0.0203   19.6557 H   0  0  0  0  0
   10.5646    1.4107   20.3488 H   0  0  0  0  0
   10.0293    1.4518   18.6509 H   0  0  0  0  0
   13.4056    3.3191   17.5784 H   0  0  0  0  0
   14.6526    5.2137   18.6720 H   0  0  0  0  0
   15.9179    4.0775   19.2003 H   0  0  0  0  0
   15.6881    4.4106   17.4662 H   0  0  0  0  0
   17.2713    1.3269   15.1294 H   0  0  0  0  0
   17.1319   -2.3190   13.1694 H   0  0  0  0  0
   11.7828    1.2585   17.3021 H   0  0  0  0  0
  1  2  1  0  0  0
133  1  1  0  0  0
  2  3  1  0  0  0
  2  5  1  0  0  0
  3  4  2  0  0  0
  3  6  1  0  0  0
  6  7  1  0  0  0
  7  8  1  0  0  0
  7 10  1  0  0  0
  8  9  1  0  0  0
  8 14  2  0  0  0
 10 11  1  0  0  0
 11 12  1  0  0  0
 12 13  2  0  0  0
 12 15  1  0  0  0
 15 16  1  0  0  0
 16 17  1  0  0  0
 16 19  1  0  0  0
 17 18  2  0  0  0
 17 21  1  0  0  0
 19 20  1  0  0  0
 20 85  1  0  0  0
 21 22  1  0  0  0
 22 23  1  0  0  0
 22 24  1  0  0  0
 24 25  2  0  0  0
 24 26  1  0  0  0
 26 27  1  0  0  0
 27 28  1  0  0  0
 27 29  1  0  0  0
 29 30  1  0  0  0
 29 31  2  0  0  0
 32 33  1  0  0  0
 32 34  2  0  0  0
 35 32  1  0  0  0
 36 35  1  0  0  0
 37 36  1  0  0  0
 37 38  1  0  0  0
 39 37  1  0  0  0
 43 38  1  0  0  0
 40 39  1  0  0  0
 39 41  1  0  0  0
 52 40  1  0  0  0
 41 42  1  0  0  0
 41 43  1  0  0  0
 43 44  1  0  0  0
 44 45  1  0  0  0
 44 51  1  0  0  0
 45 46  2  0  0  0
 45 47  1  0  0  0
 47 48  1  0  0  0
 48 49  2  0  0  0
 50 48  1  0  0  0
 51 50  2  0  0  0
 52 53  2  0  0  0
 52 54  1  0  0  0
 55 52  1  0  0  0
 56 55  1  0  0  0
 57 56  1  0  0  0
 57 58  1  0  0  0
 59 57  1  0  0  0
 63 58  1  0  0  0
 60 59  1  0  0  0
 59 61  1  0  0  0
 73 60  1  0  0  0
 61 62  1  0  0  0
 61 63  1  0  0  0
 63 64  1  0  0  0
 64 65  1  0  0  0
 64 71  1  0  0  0
 65 66  2  0  0  0
 65 67  1  0  0  0
 67 68  1  0  0  0
 68 69  2  0  0  0
 70 68  1  0  0  0
 71 70  2  0  0  0
 73 72  1  0  0  0
 73 74  2  0  0  0
 75 73  1  0  0  0
 76 75  1  0  0  0
 77 76  1  0  0  0
 78 77  1  0  0  0
 89 77  1  0  0  0
 78 79  1  0  0  0
 80 78  1  0  0  0
 81 80  1  0  0  0
 80 88  1  0  0  0
 82 81  4  0  0  0
 87 81  4  0  0  0
 83 82  4  0  0  0
 84 83  1  0  0  0
 83 86  4  0  0  0
 85 84  1  0  0  0
 86 87  4  0  0  0
 88 89  1  0  0  0
 88 90  1  0  0  0
 90 91  4  0  0  0
 90 94  4  0  0  0
 91 92  4  0  0  0
 91 95  4  0  0  0
 93 92  4  0  0  0
 92 98  4  0  0  0
 94 93  4  0  0  0
 95 96  4  0  0  0
 96 97  4  0  0  0
 98 97  4  0  0  0
 98 99  1  0  0  0
100101  1  0  0  0
100105  1  0  0  0
108100  1  0  0  0
101102  1  0  0  0
101106  2  0  0  0
102103  1  0  0  0
104103  1  0  0  0
103107  2  0  0  0
105104  2  0  0  0
108109  1  0  0  0
113108  1  0  0  0
109110  1  0  0  0
111109  1  0  0  0
112111  1  0  0  0
111114  1  0  0  0
112113  1  0  0  0
115112  1  0  0  0
116115  1  0  0  0
117116  1  0  0  0
117118  2  0  0  0
117119  1  0  0  0
120117  1  0  0  0
121120  1  0  0  0
121122  2  0  0  0
121123  1  0  0  0
135121  1  0  0  0
125124  1  0  0  0
124135  1  0  0  0
124138  1  0  0  0
126125  1  0  0  0
125142  1  0  0  0
126127  1  0  0  0
136126  1  0  0  0
127128  1  0  0  0
127137  1  0  0  0
128129  1  0  0  0
128138  1  0  0  0
129139  1  0  0  0
130131  1  0  0  0
130140  2  0  0  0
142130  1  0  0  0
132133  1  0  0  0
132134  1  0  0  0
132136  1  0  0  0
133141  2  0  0  0
  1143  1  0  0  0
  2144  1  0  0  0
  5145  1  0  0  0
  5146  1  0  0  0
  5147  1  0  0  0
  6148  1  0  0  0
  7149  1  0  0  0
  9150  1  0  0  0
 10151  1  0  0  0
 10152  1  0  0  0
 11153  1  0  0  0
 11154  1  0  0  0
 15155  1  0  0  0
 16156  1  0  0  0
 19157  1  0  0  0
 19158  1  0  0  0
 21159  1  0  0  0
 22160  1  0  0  0
 23161  1  0  0  0
 23162  1  0  0  0
 23163  1  0  0  0
 26164  1  0  0  0
 27165  1  0  0  0
 28166  1  0  0  0
 28167  1  0  0  0
 28168  1  0  0  0
 30169  1  0  0  0
 33170  1  0  0  0
 36171  1  0  0  0
 36172  1  0  0  0
 37173  1  0  0  0
 39174  1  0  0  0
 41175  1  0  0  0
 42176  1  0  0  0
 43177  1  0  0  0
 47178  1  0  0  0
 49179  1  0  0  0
 50180  1  0  0  0
 51181  1  0  0  0
 54182  1  0  0  0
 56183  1  0  0  0
 56184  1  0  0  0
 57185  1  0  0  0
 59186  1  0  0  0
 61187  1  0  0  0
 62188  1  0  0  0
 63189  1  0  0  0
 67190  1  0  0  0
 69191  1  0  0  0
 70192  1  0  0  0
 71193  1  0  0  0
 72194  1  0  0  0
 76195  1  0  0  0
 76196  1  0  0  0
 77197  1  0  0  0
 78198  1  0  0  0
 79199  1  0  0  0
 80200  1  0  0  0
 82201  1  0  0  0
 84202  1  0  0  0
 84203  1  0  0  0
 85204  1  0  0  0
 85205  1  0  0  0
 88206  1  0  0  0
 94207  1  0  0  0
 96208  1  0  0  0
 99209  1  0  0  0
 99210  1  0  0  0
102211  1  0  0  0
104212  1  0  0  0
105213  1  0  0  0
108214  1  0  0  0
109215  1  0  0  0
110216  1  0  0  0
111217  1  0  0  0
112218  1  0  0  0
114219  1  0  0  0
115220  1  0  0  0
115221  1  0  0  0
119222  1  0  0  0
123223  1  0  0  0
124224  1  0  0  0
125225  1  0  0  0
126226  1  0  0  0
127227  1  0  0  0
128228  1  0  0  0
129229  1  0  0  0
129230  1  0  0  0
131231  1  0  0  0
131232  1  0  0  0
131233  1  0  0  0
132234  1  0  0  0
134235  1  0  0  0
134236  1  0  0  0
134237  1  0  0  0
137238  1  0  0  0
139239  1  0  0  0
142240  1  0  0  0
M  END
$$$$
