4a6c_ligand
  -I-interpret- 

106111  0  0  0  0  0  0  0  0999 V2000
   10.7320   24.3680    6.1060 C   0  0  0  0  0
   10.5130   23.3840    6.8300 O   0  0  0  0  0
   11.9630   26.0240    4.9070 C   0  0  0  0  0
   10.5140   26.3540    5.0220 C   0  0  0  0  0
    9.9160   25.4100    5.9350 N   0  0  0  0  0
    8.5990   25.6310    6.5670 C   0  0  0  0  0
    8.4340   26.8860    7.4080 C   0  0  0  0  0
    7.0810   27.3170    7.3520 C   0  0  0  0  0
    6.2640   26.4010    6.4850 C   0  0  0  0  0
    7.3360   25.6980    5.6230 C   0  0  0  0  0
    7.4970   26.5270    4.4680 O   0  0  0  0  0
    6.6340   28.4960    8.0560 C   0  0  0  0  0
    7.6070   29.2440    8.8420 C   0  0  0  0  0
    9.0010   28.8080    8.9060 C   0  0  0  0  0
    9.4290   27.6190    8.1900 C   0  0  0  0  0
   12.5660   26.9050    5.8200 O   0  0  0  0  0
   14.6380   24.4000    5.6370 C   0  0  0  0  0
   15.7440   24.1370    6.6190 C   0  0  0  0  0
   12.0790   23.4740    3.9710 C   0  0  0  0  0
   10.8350   23.6470    2.9730 C   0  0  0  0  0
   10.4760   24.6140    1.9390 C   0  0  0  0  0
    9.2520   24.4940    1.1880 C   0  0  0  0  0
    8.3500   23.3960    1.4560 C   0  0  0  0  0
    8.6830   22.4190    2.4790 C   0  0  0  0  0
    9.9110   22.5350    3.2350 C   0  0  0  0  0
   17.1980   17.5490   11.0130 C   0  0  0  0  0
   17.0830   18.9050   10.3180 C   0  0  0  0  0
   18.2770   19.6290    9.8550 C   0  0  0  0  0
   18.1860   20.9160    9.1950 C   0  0  0  0  0
   16.9020   21.5310    8.9740 C   0  0  0  0  0
   15.6930   20.8540    9.4160 C   0  0  0  0  0
   15.7810   19.5580   10.0790 C   0  0  0  0  0
   16.7070   22.7770    8.3390 C   0  0  0  0  0
   15.8020   22.7940    7.1660 N   0  3  0  0  0
   16.2440   21.8850    6.1970 N   0  0  0  0  0
   15.5070   20.8670    5.7160 C   0  0  0  0  0
   16.2930   20.0420    4.6950 C   0  0  0  0  0
   17.0760   19.1570    5.5950 N   0  0  0  0  0
   18.4560   19.2700    5.7740 C   0  0  0  0  0
   18.8770   18.3410    6.6620 O   0  0  0  0  0
   20.2620   18.2660    7.0120 C   0  0  0  0  0
   19.1680   20.1050    5.2010 O   0  0  0  0  0
   15.5340   19.2240    3.5680 C   0  0  0  0  0
   14.5750   18.1420    4.1210 C   0  0  0  0  0
   14.7430   20.1960    2.6610 C   0  0  0  0  0
   16.5590   18.4930    2.6520 C   0  0  0  0  0
   14.3460   20.6210    6.0770 O   0  0  0  0  0
   18.5010   17.0180   11.1900 C   0  0  0  0  0
   18.6880   15.7870   11.8160 C   0  0  0  0  0
   17.5780   15.0050   12.3040 N   0  0  0  0  0
   16.2300   15.5230   12.1360 C   0  0  0  0  0
   12.0240   24.4970    5.2620 C   0  0  0  0  0
   16.0320   16.7960   11.4870 C   0  0  0  0  0
   13.2130   24.2100    6.2240 C   0  0  0  0  0
   12.4690   26.1492    3.9497 H   0  0  0  0  0
   10.0336   26.2914    4.0456 H   0  0  0  0  0
   10.3864   27.3710    5.3929 H   0  0  0  0  0
    8.6211   24.7204    7.1657 H   0  0  0  0  0
    5.5217   26.9318    5.8888 H   0  0  0  0  0
    5.6573   25.7019    7.0605 H   0  0  0  0  0
    7.1139   24.6913    5.2689 H   0  0  0  0  0
    8.1565   26.1403    3.8874 H   0  0  0  0  0
    5.5943   28.8186    8.0009 H   0  0  0  0  0
    7.2932   30.1349    9.3860 H   0  0  0  0  0
    9.7217   29.3773    9.4931 H   0  0  0  0  0
   10.4646   27.2819    8.2343 H   0  0  0  0  0
   12.4695   27.8065    5.5045 H   0  0  0  0  0
   14.7507   23.6831    4.8237 H   0  0  0  0  0
   14.7231   25.4411    5.3257 H   0  0  0  0  0
   15.5695   24.8043    7.4630 H   0  0  0  0  0
   16.6775   24.2875    6.0767 H   0  0  0  0  0
   12.9860   23.6992    3.4099 H   0  0  0  0  0
   12.0537   22.4547    4.3563 H   0  0  0  0  0
   11.1493   25.4455    1.7306 H   0  0  0  0  0
    9.0069   25.2283    0.4206 H   0  0  0  0  0
    7.4222   23.3013    0.8918 H   0  0  0  0  0
    8.0018   21.5918    2.6784 H   0  0  0  0  0
   10.1511   21.7965    3.9999 H   0  0  0  0  0
   19.2595   19.1842   10.0131 H   0  0  0  0  0
   19.0934   21.4212    8.8642 H   0  0  0  0  0
   14.7196   21.3160    9.2515 H   0  0  0  0  0
   14.8669   19.0616   10.4046 H   0  0  0  0  0
   17.6857   23.0797    7.9666 H   0  0  0  0  0
   16.2436   23.4236    9.0842 H   0  0  0  0  0
   14.8658   22.5144    7.4588 H   0  0  0  0  0
   17.1887   22.0024    5.8309 H   0  0  0  0  0
   16.8396   20.7145    4.0339 H   0  0  0  0  0
   16.5797   18.4290    6.1089 H   0  0  0  0  0
   20.8511   18.0642    6.1174 H   0  0  0  0  0
   20.5766   19.2134    7.4497 H   0  0  0  0  0
   20.4099   17.4635    7.7346 H   0  0  0  0  0
   15.1418   17.4257    4.7158 H   0  0  0  0  0
   13.8167   18.6150    4.7450 H   0  0  0  0  0
   14.0936   17.6261    3.2902 H   0  0  0  0  0
   14.0167   20.7426    3.2626 H   0  0  0  0  0
   15.4333   20.8991    2.1950 H   0  0  0  0  0
   14.2236   19.6288    1.8886 H   0  0  0  0  0
   17.2126   19.2277    2.1817 H   0  0  0  0  0
   17.1553   17.8058    3.2523 H   0  0  0  0  0
   16.0242   17.9355    1.8830 H   0  0  0  0  0
   19.3650   17.5784   10.8328 H   0  0  0  0  0
   19.7010   15.4043   11.9404 H   0  0  0  0  0
   15.3744   14.9531   12.4982 H   0  0  0  0  0
   15.0265   17.1941   11.3503 H   0  0  0  0  0
   13.1232   24.9285    7.0387 H   0  0  0  0  0
   13.1354   23.1571    6.4951 H   0  0  0  0  0
  1  2  2  0  0  0
  1  5  1  0  0  0
 52  1  1  0  0  0
  3  4  1  0  0  0
  3 16  1  0  0  0
 52  3  1  0  0  0
  4  5  1  0  0  0
  5  6  1  0  0  0
  6  7  1  0  0  0
  6 10  1  0  0  0
  7  8  4  0  0  0
  7 15  4  0  0  0
  9  8  1  0  0  0
  8 12  4  0  0  0
 10  9  1  0  0  0
 10 11  1  0  0  0
 12 13  4  0  0  0
 14 13  4  0  0  0
 15 14  4  0  0  0
 17 18  1  0  0  0
 54 17  1  0  0  0
 18 34  1  0  0  0
 19 20  1  0  0  0
 52 19  1  0  0  0
 20 21  4  0  0  0
 20 25  4  0  0  0
 21 22  4  0  0  0
 22 23  4  0  0  0
 24 23  4  0  0  0
 25 24  4  0  0  0
 27 26  1  0  0  0
 26 48  4  0  0  0
 26 53  4  0  0  0
 28 27  4  0  0  0
 32 27  4  0  0  0
 29 28  4  0  0  0
 30 29  4  0  0  0
 30 31  4  0  0  0
 33 30  1  0  0  0
 31 32  4  0  0  0
 34 33  1  0  0  0
 34 35  1  0  0  0
 35 36  1  0  0  0
 36 37  1  0  0  0
 36 47  2  0  0  0
 37 38  1  0  0  0
 37 43  1  0  0  0
 38 39  1  0  0  0
 39 40  1  0  0  0
 39 42  2  0  0  0
 40 41  1  0  0  0
 43 44  1  0  0  0
 43 45  1  0  0  0
 43 46  1  0  0  0
 48 49  4  0  0  0
 49 50  4  0  0  0
 51 50  4  0  0  0
 53 51  4  0  0  0
 52 54  1  0  0  0
  3 55  1  0  0  0
  4 56  1  0  0  0
  4 57  1  0  0  0
  6 58  1  0  0  0
  9 59  1  0  0  0
  9 60  1  0  0  0
 10 61  1  0  0  0
 11 62  1  0  0  0
 12 63  1  0  0  0
 13 64  1  0  0  0
 14 65  1  0  0  0
 15 66  1  0  0  0
 16 67  1  0  0  0
 17 68  1  0  0  0
 17 69  1  0  0  0
 18 70  1  0  0  0
 18 71  1  0  0  0
 19 72  1  0  0  0
 19 73  1  0  0  0
 21 74  1  0  0  0
 22 75  1  0  0  0
 23 76  1  0  0  0
 24 77  1  0  0  0
 25 78  1  0  0  0
 28 79  1  0  0  0
 29 80  1  0  0  0
 31 81  1  0  0  0
 32 82  1  0  0  0
 33 83  1  0  0  0
 33 84  1  0  0  0
 34 85  1  0  0  0
 35 86  1  0  0  0
 37 87  1  0  0  0
 38 88  1  0  0  0
 41 89  1  0  0  0
 41 90  1  0  0  0
 41 91  1  0  0  0
 44 92  1  0  0  0
 44 93  1  0  0  0
 44 94  1  0  0  0
 45 95  1  0  0  0
 45 96  1  0  0  0
 45 97  1  0  0  0
 46 98  1  0  0  0
 46 99  1  0  0  0
 46100  1  0  0  0
 48101  1  0  0  0
 49102  1  0  0  0
 51103  1  0  0  0
 53104  1  0  0  0
 54105  1  0  0  0
 54106  1  0  0  0
M  END
$$$$
