5vih_ligand
  -I-interpret- 

 35 36  0  0  0  0  0  0  0  0999 V2000
  -19.5440   15.7870  -10.1270 C   0  0  0  0  0
  -19.2640   14.6810  -10.6660 O   0  0  0  0  0
  -18.9280   16.1720   -9.0970 O   0  0  0  0  0
  -20.7870   21.5690   -8.5590 C   0  0  0  0  0
  -21.5140   21.2730   -7.5730 O   0  0  0  0  0
  -19.9320   22.4880   -8.4740 O   0  0  0  0  0
  -15.8920   19.9600  -16.0240 F   0  0  0  0  0
  -17.5750   20.7770  -12.6320 C   0  0  0  0  0
  -16.5110   20.7080  -13.7270 C   0  0  0  0  0
  -16.8390   20.0170  -15.0490 C   0  0  0  0  0
  -18.2130   19.4000  -15.2840 C   0  0  0  0  0
  -19.2700   19.4720  -14.1940 C   0  0  0  0  0
  -18.9460   20.1590  -12.8800 C   0  0  0  0  0
  -21.3160   15.9620  -11.7760 N   0  3  0  0  0
  -20.6280   16.6770  -10.7190 C   0  0  0  0  0
  -19.9220   17.8930  -11.2980 C   0  0  0  0  0
  -21.2040   19.4740   -9.9080 C   0  0  0  0  0
  -20.7720   19.0400  -11.3370 C   0  0  0  0  0
  -19.9320   20.2170  -11.8300 N   0  3  0  0  0
  -20.2560   21.2660  -11.0860 N   0  0  0  0  0
  -20.9480   20.8140   -9.8740 C   0  0  0  0  0
  -19.8258   14.5489  -11.4332 H   0  0  0  0  0
  -22.1034   20.5551   -7.8155 H   0  0  0  0  0
  -17.3553   21.2640  -11.6819 H   0  0  0  0  0
  -15.5269   21.1480  -13.5659 H   0  0  0  0  0
  -18.4368   18.9086  -16.2309 H   0  0  0  0  0
  -20.2546   19.0330  -14.3551 H   0  0  0  0  0
  -21.7878   15.1476  -11.3828 H   0  0  0  0  0
  -22.0035   16.5780  -12.2099 H   0  0  0  0  0
  -20.6391   15.6591  -12.4764 H   0  0  0  0  0
  -21.3608   16.9674   -9.9662 H   0  0  0  0  0
  -19.6217   17.6576  -12.3190 H   0  0  0  0  0
  -19.0675   18.1247  -10.6622 H   0  0  0  0  0
  -21.6168   18.8507   -9.1148 H   0  0  0  0  0
  -21.6342   18.7950  -11.9572 H   0  0  0  0  0
  1  2  1  0  0  0
  1  3  2  0  0  0
 15  1  1  0  0  0
  4  5  1  0  0  0
  4  6  2  0  0  0
 21  4  1  0  0  0
 10  7  1  0  0  0
  8  9  4  0  0  0
 13  8  4  0  0  0
  9 10  4  0  0  0
 11 10  4  0  0  0
 12 11  4  0  0  0
 13 12  4  0  0  0
 19 13  1  0  0  0
 15 14  1  0  0  0
 16 15  1  0  0  0
 18 16  1  0  0  0
 18 17  1  0  0  0
 17 21  2  0  0  0
 18 19  1  0  0  0
 19 20  2  0  0  0
 20 21  1  0  0  0
  2 22  1  0  0  0
  5 23  1  0  0  0
  8 24  1  0  0  0
  9 25  1  0  0  0
 11 26  1  0  0  0
 12 27  1  0  0  0
 14 28  1  0  0  0
 14 29  1  0  0  0
 14 30  1  0  0  0
 15 31  1  0  0  0
 16 32  1  0  0  0
 16 33  1  0  0  0
 17 34  1  0  0  0
 18 35  1  0  0  0
M  END
$$$$
