1nlj_ligand
  -I-interpret- 

 69 72  0  0  0  0  0  0  0  0999 V2000
   29.6300  -32.9150   -2.0180 S   0  0  0  0  0
   28.8170  -33.6090   -2.9910 O   0  0  0  0  0
   29.0090  -32.6540   -0.7440 O   0  0  0  0  0
   34.9610  -38.0910   -2.0460 O   0  0  0  0  0
   37.4430  -36.1140   -0.9680 O   0  0  0  0  0
   39.0130  -38.0210    0.1770 O   0  0  0  0  0
   34.1850  -36.0140   -2.4720 N   0  0  0  0  0
   37.4190  -37.2680   -2.9830 N   0  0  0  0  0
   30.7400  -31.4510   -4.0110 N   0  0  0  0  0
   35.0620  -36.9930   -2.6440 C   0  0  0  0  0
   36.2380  -36.6680   -3.6230 C   0  0  0  0  0
   35.9390  -37.3450   -4.9760 C   0  0  0  0  0
   36.5900  -36.8630   -6.3110 C   0  0  0  0  0
   37.3160  -37.9990   -6.9810 C   0  0  0  0  0
   37.6380  -35.8030   -6.0820 C   0  0  0  0  0
   37.8260  -37.0480   -1.6900 C   0  0  0  0  0
   38.7850  -38.0400   -1.1800 C   0  0  0  0  0
   39.5080  -38.9730   -1.7960 C   0  0  0  0  0
   40.9300  -40.9300   -0.6930 C   0  0  0  0  0
   41.4380  -41.3500    0.5730 C   0  0  0  0  0
   41.1420  -40.6110    1.7670 C   0  0  0  0  0
   40.2580  -39.5040    1.7610 C   0  0  0  0  0
   39.7940  -39.0820    0.4420 C   0  0  0  0  0
   40.1290  -39.7520   -0.7520 C   0  0  0  0  0
   30.2360  -31.3390   -2.7460 C   0  0  0  0  0
   30.2220  -30.0900   -2.0310 C   0  0  0  0  0
   31.0530  -29.0390   -2.5310 C   0  0  0  0  0
   31.5970  -29.1320   -3.8390 C   0  0  0  0  0
   31.4270  -30.3470   -4.5490 C   0  0  0  0  0
   32.9650  -36.2610   -1.5070 C   0  0  0  0  0
   33.0950  -35.3750   -0.2080 C   0  0  0  0  0
   33.2270  -33.8500   -0.4020 C   0  0  0  0  0
   32.0290  -33.0970   -1.0340 C   0  0  0  0  0
   30.9160  -33.8590   -1.6960 N   0  0  0  0  0
   31.3360  -34.6800   -2.8710 C   0  0  0  0  0
   30.5640  -36.5960   -1.5880 O   0  0  0  0  0
   31.6630  -36.1070   -2.3500 C   0  0  0  0  0
   34.2976  -35.1218   -2.9533 H   0  0  0  0  0
   37.9840  -37.9018   -3.5482 H   0  0  0  0  0
   36.3822  -35.6036   -3.8082 H   0  0  0  0  0
   34.8768  -37.1525   -5.1272 H   0  0  0  0  0
   36.3354  -38.3524   -4.8492 H   0  0  0  0  0
   35.7709  -36.4747   -6.9163 H   0  0  0  0  0
   38.0975  -38.3704   -6.3181 H   0  0  0  0  0
   36.6108  -38.8012   -7.1986 H   0  0  0  0  0
   37.7635  -37.6451   -7.9097 H   0  0  0  0  0
   37.1809  -34.9409   -5.5963 H   0  0  0  0  0
   38.4262  -36.2048   -5.4453 H   0  0  0  0  0
   38.0617  -35.4999   -7.0395 H   0  0  0  0  0
   39.6102  -39.1189   -2.8713 H   0  0  0  0  0
   41.1500  -41.4985   -1.5966 H   0  0  0  0  0
   42.0589  -42.2438    0.6337 H   0  0  0  0  0
   41.6104  -40.9098    2.7048 H   0  0  0  0  0
   39.9459  -39.0022    2.6769 H   0  0  0  0  0
   29.6032  -29.9508   -1.1445 H   0  0  0  0  0
   31.2680  -28.1694   -1.9099 H   0  0  0  0  0
   32.1305  -28.2925   -4.2848 H   0  0  0  0  0
   31.8453  -30.4295   -5.5522 H   0  0  0  0  0
   32.9382  -37.2713   -1.0988 H   0  0  0  0  0
   34.0196  -35.6922    0.2743 H   0  0  0  0  0
   32.1670  -35.5230    0.3442 H   0  0  0  0  0
   34.0554  -33.7154   -1.0975 H   0  0  0  0  0
   33.3344  -33.4369    0.6010 H   0  0  0  0  0
   32.4729  -32.5136   -1.8406 H   0  0  0  0  0
   31.5499  -32.5980   -0.1916 H   0  0  0  0  0
   32.2099  -34.2397   -3.3511 H   0  0  0  0  0
   30.5392  -34.7185   -3.6138 H   0  0  0  0  0
   29.7563  -36.5055   -2.0989 H   0  0  0  0  0
   31.8424  -36.6883   -3.2544 H   0  0  0  0  0
  1  2  2  0  0  0
  1  3  2  0  0  0
  1 25  1  0  0  0
 34  1  1  0  0  0
 10  4  2  0  0  0
 16  5  2  0  0  0
 17  6  4  0  0  0
  6 23  4  0  0  0
  7 10  1  0  0  0
 30  7  1  0  0  0
 11  8  1  0  0  0
  8 16  1  0  0  0
 25  9  4  0  0  0
  9 29  4  0  0  0
 10 11  1  0  0  0
 11 12  1  0  0  0
 12 13  1  0  0  0
 13 14  1  0  0  0
 13 15  1  0  0  0
 16 17  1  0  0  0
 17 18  4  0  0  0
 18 24  4  0  0  0
 19 20  4  0  0  0
 24 19  4  0  0  0
 20 21  4  0  0  0
 22 21  4  0  0  0
 23 22  4  0  0  0
 24 23  4  0  0  0
 25 26  4  0  0  0
 26 27  4  0  0  0
 27 28  4  0  0  0
 29 28  4  0  0  0
 31 30  1  0  0  0
 30 37  1  0  0  0
 32 31  1  0  0  0
 33 32  1  0  0  0
 33 34  1  0  0  0
 34 35  1  0  0  0
 35 37  1  0  0  0
 37 36  1  0  0  0
  7 38  1  0  0  0
  8 39  1  0  0  0
 11 40  1  0  0  0
 12 41  1  0  0  0
 12 42  1  0  0  0
 13 43  1  0  0  0
 14 44  1  0  0  0
 14 45  1  0  0  0
 14 46  1  0  0  0
 15 47  1  0  0  0
 15 48  1  0  0  0
 15 49  1  0  0  0
 18 50  1  0  0  0
 19 51  1  0  0  0
 20 52  1  0  0  0
 21 53  1  0  0  0
 22 54  1  0  0  0
 26 55  1  0  0  0
 27 56  1  0  0  0
 28 57  1  0  0  0
 29 58  1  0  0  0
 30 59  1  0  0  0
 31 60  1  0  0  0
 31 61  1  0  0  0
 32 62  1  0  0  0
 32 63  1  0  0  0
 33 64  1  0  0  0
 33 65  1  0  0  0
 35 66  1  0  0  0
 35 67  1  0  0  0
 36 68  1  0  0  0
 37 69  1  0  0  0
M  END
$$$$
