4zjc_ligand
  -I-interpret- 

 53 57  0  0  0  0  0  0  0  0999 V2000
   -9.8830   -1.0560  -53.9950 C   0  0  0  0  0
   -8.9270   -1.3980  -55.0790 C   0  0  0  0  0
   -8.9500   -1.1590  -56.3390 N   0  0  0  0  0
   -7.7850   -1.7290  -56.8710 N   0  0  0  0  0
   -7.1570   -2.2650  -55.8810 C   0  0  0  0  0
   -7.8180   -2.1000  -54.7000 O   0  0  0  0  0
   -5.8820   -2.9820  -55.8830 C   0  0  0  0  0
   -9.6920    0.3780  -53.4980 C   0  0  0  0  0
   -8.5120    1.8230  -55.1180 C   0  0  0  0  0
   -7.1980    1.4560  -54.5090 C   0  0  0  0  0
   -9.6550    1.3340  -54.6110 N   0  0  0  0  0
  -11.0150    1.7300  -54.9930 C   0  0  0  0  0
  -11.7850    1.6280  -53.6790 C   0  0  0  0  0
   -8.5080    2.5710  -56.0890 O   0  0  0  0  0
  -10.8650    0.8990  -52.6670 C   0  0  0  0  0
   -3.9830   -0.2270  -54.8840 C   0  0  0  0  0
   -5.1780    0.5530  -54.4430 C   0  0  0  0  0
   -6.2630    0.6690  -55.1560 N   0  0  0  0  0
   -6.8260    1.9450  -53.2800 C   0  0  0  0  0
   -5.2170    1.3940  -52.9200 S   0  0  0  0  0
   -7.5380    2.7930  -52.3010 C   0  0  0  0  0
   -8.1160    3.9880  -52.7310 C   0  0  0  0  0
   -8.7900    4.8090  -51.8450 C   0  0  0  0  0
   -8.9020    4.4560  -50.5190 C   0  0  0  0  0
   -8.3410    3.2780  -50.0610 C   0  0  0  0  0
   -7.6770    2.4770  -50.9580 C   0  0  0  0  0
   -7.1380    1.3240  -50.5020 F   0  0  0  0  0
   -5.1680   -3.1570  -57.0630 C   0  0  0  0  0
   -3.9540   -3.8220  -57.0560 C   0  0  0  0  0
   -3.4420   -4.3210  -55.8770 C   0  0  0  0  0
   -4.1430   -4.1570  -54.7010 C   0  0  0  0  0
   -5.3570   -3.4930  -54.7000 C   0  0  0  0  0
   -9.7089   -1.7336  -53.1592 H   0  0  0  0  0
  -10.8948   -1.1492  -54.3895 H   0  0  0  0  0
   -8.7681    0.3198  -52.9226 H   0  0  0  0  0
  -11.4335    1.0996  -55.7776 H   0  0  0  0  0
  -11.0570    2.7274  -55.4306 H   0  0  0  0  0
  -12.7149    1.0770  -53.8198 H   0  0  0  0  0
  -12.0520    2.6189  -53.3116 H   0  0  0  0  0
  -10.5310    1.5666  -51.8728 H   0  0  0  0  0
  -11.3882    0.0901  -52.1571 H   0  0  0  0  0
   -4.2673   -1.2676  -55.0402 H   0  0  0  0  0
   -3.6017    0.1906  -55.8158 H   0  0  0  0  0
   -3.2109   -0.1713  -54.1166 H   0  0  0  0  0
   -8.0354    4.2783  -53.7785 H   0  0  0  0  0
   -9.2344    5.7395  -52.1982 H   0  0  0  0  0
   -9.4352    5.1080  -49.8271 H   0  0  0  0  0
   -8.4237    2.9916  -49.0125 H   0  0  0  0  0
   -5.5668   -2.7680  -57.9999 H   0  0  0  0  0
   -3.4007   -3.9517  -57.9861 H   0  0  0  0  0
   -2.4856   -4.8438  -55.8746 H   0  0  0  0  0
   -3.7393   -4.5519  -53.7687 H   0  0  0  0  0
   -5.9057   -3.3694  -53.7663 H   0  0  0  0  0
  1  2  1  0  0  0
  8  1  1  0  0  0
  2  3  4  0  0  0
  2  6  4  0  0  0
  3  4  4  0  0  0
  5  4  4  0  0  0
  6  5  4  0  0  0
  5  7  1  0  0  0
  7 28  4  0  0  0
  7 32  4  0  0  0
 11  8  1  0  0  0
  8 15  1  0  0  0
 10  9  1  0  0  0
  9 11  1  0  0  0
  9 14  2  0  0  0
 18 10  4  0  0  0
 10 19  4  0  0  0
 11 12  1  0  0  0
 12 13  1  0  0  0
 13 15  1  0  0  0
 17 16  1  0  0  0
 17 18  4  0  0  0
 17 20  4  0  0  0
 19 20  4  0  0  0
 19 21  1  0  0  0
 21 22  4  0  0  0
 21 26  4  0  0  0
 22 23  4  0  0  0
 23 24  4  0  0  0
 24 25  4  0  0  0
 25 26  4  0  0  0
 26 27  1  0  0  0
 28 29  4  0  0  0
 29 30  4  0  0  0
 30 31  4  0  0  0
 31 32  4  0  0  0
  1 33  1  0  0  0
  1 34  1  0  0  0
  8 35  1  0  0  0
 12 36  1  0  0  0
 12 37  1  0  0  0
 13 38  1  0  0  0
 13 39  1  0  0  0
 15 40  1  0  0  0
 15 41  1  0  0  0
 16 42  1  0  0  0
 16 43  1  0  0  0
 16 44  1  0  0  0
 22 45  1  0  0  0
 23 46  1  0  0  0
 24 47  1  0  0  0
 25 48  1  0  0  0
 28 49  1  0  0  0
 29 50  1  0  0  0
 30 51  1  0  0  0
 31 52  1  0  0  0
 32 53  1  0  0  0
M  END
$$$$
