### 
### Created by X-TOOL on Mon Sep 10 21:13:34 2018
### 

@<TRIPOS>MOLECULE
5gtr_ligand
  185   185     1     0     0
SMALL
GAST_HUCK


@<TRIPOS>ATOM
      1 N           0.3210   25.8990   89.7630 N.4       1 ARG         0.2379
      2 CA          1.4750   26.2520   90.6400 C.3       1 ARG         0.0652
      3 C           2.3590   25.0700   90.9660 C.2       1 ARG         0.2268
      4 O           3.3200   25.2520   91.6950 O.2       1 ARG        -0.3907
      5 CB          1.0010   27.0320   91.8810 C.3       1 ARG         0.0127
      6 CG          0.7810   26.2270   93.1700 C.3       1 ARG        -0.0049
      7 CD         -0.5870   26.4390   93.8180 C.3       1 ARG        -0.0220
      8 NE         -0.4740   26.9110   95.2130 N.4       1 ARG         0.2982
      9 CZ         -1.8110   27.3150   95.6990 C.3       1 ARG         0.0076
     10 NH1        -2.0630   26.7710   97.0520 N.4       1 ARG         0.2909
     11 NH2        -1.9680   28.7850   95.7310 N.4       1 ARG         0.2909
     12 N           2.1010   23.8790   90.3880 N.am      1 IAS        -0.2589
     13 CA          3.0210   22.7490   90.4240 C.3       1 IAS         0.1476
     14 C           4.4020   23.1740   90.0300 C.2       1 IAS         0.2042
     15 O           4.6640   23.4850   88.8750 O.2       1 IAS        -0.3944
     16 CB          2.6190   21.6400   89.4380 C.3       1 IAS         0.0776
     17 CG          3.6150   20.4950   89.4210 C.2       1 IAS         0.1828
     18 OD1         4.4200   20.3160   90.3100 O.2       1 IAS        -0.3967
     19 N           3.5780   19.6330   88.3900 N.am      1 ILE        -0.2652
     20 CA          4.5970   18.5920   88.4910 C.3       1 ILE         0.1334
     21 C           5.9700   19.1500   88.2050 C.2       1 ILE         0.2042
     22 O           6.8600   18.7100   88.8270 O.2       1 ILE        -0.3944
     23 CB          4.2560   17.3590   87.5580 C.3       1 ILE        -0.0037
     24 CG1         2.9940   16.5450   87.9900 C.3       1 ILE        -0.0491
     25 CG2         5.4480   16.3640   87.4110 C.3       1 ILE        -0.0582
     26 CD1         2.4800   15.5090   86.9690 C.3       1 ILE        -0.0648
     27 O           9.1220   21.3470   88.3860 O.2       1 0JY        -0.3944
     28 C           7.9250   21.3670   88.1790 C.2       1 0JY         0.2040
     29 CA          7.3050   20.7410   86.9760 C.3       1 0JY         0.1315
     30 N           6.0520   20.0850   87.2960 N.am      1 0JY        -0.2637
     31 CB          6.9880   21.8430   85.9720 C.3       1 0JY        -0.0075
     32 CAI         8.1670   22.3790   85.1710 C.3       1 0JY        -0.0335
     33 CAB         9.2590   21.3570   84.8890 C.3       1 0JY        -0.0599
     34 CAC         7.5660   22.8860   83.8680 C.3       1 0JY        -0.0599
     35 CAA         8.8330   23.5450   85.8730 C.3       1 0JY        -0.0599
     36 N           7.0880   21.9640   88.9860 N.am      1 DPP        -0.2618
     37 CA          7.5810   22.6540   90.1350 C.3       1 DPP         0.1509
     38 C           7.9870   21.7130   91.2120 C.2       1 DPP         0.2059
     39 O           8.8660   22.0800   91.9540 O.2       1 DPP        -0.3943
     40 CB          6.6300   23.7250   90.6620 C.3       1 DPP         0.0711
     41 NG          5.3230   23.2060   90.9770 N.am      1 DPP        -0.2804
     42 N           7.3820   20.5270   91.3010 N.am      1 ARG        -0.2637
     43 CA          7.7400   19.5710   92.3400 C.3       1 ARG         0.1312
     44 C           8.8760   18.7080   91.9070 C.2       1 ARG         0.2039
     45 O           9.5630   18.2210   92.7620 O.2       1 ARG        -0.3944
     46 CB          6.5170   18.7510   92.8140 C.3       1 ARG        -0.0076
     47 CG          6.7270   17.2960   93.2960 C.3       1 ARG        -0.0080
     48 CD          5.4440   16.4620   93.2810 C.3       1 ARG        -0.0221
     49 NE          5.6520   15.2350   92.4810 N.4       1 ARG         0.2982
     50 CZ          4.4660   14.8120   91.6920 C.3       1 ARG         0.0076
     51 NH1         4.7730   13.6770   90.7770 N.4       1 ARG         0.2909
     52 NH2         4.0060   15.9300   90.8640 N.4       1 ARG         0.2909
     53 O          12.5100   17.8150   90.6240 O.2       1 0JY        -0.3944
     54 C          11.4720   18.2830   90.2020 C.2       1 0JY         0.2039
     55 CA         10.1730   17.5720   90.2600 C.3       1 0JY         0.1314
     56 N           9.1120   18.4730   90.6320 N.am      1 0JY        -0.2637
     57 CB          9.9360   16.9610   88.8910 C.3       1 0JY        -0.0075
     58 CAI         9.2350   15.6210   88.9350 C.3       1 0JY        -0.0335
     59 CAB        10.0370   14.5550   89.6620 C.3       1 0JY        -0.0599
     60 CAC         9.0840   15.1640   87.4930 C.3       1 0JY        -0.0599
     61 CAA         7.8850   15.8000   89.5970 C.3       1 0JY        -0.0599
     62 O          13.9340   20.5410   91.5590 O.2       1 0JY        -0.3944
     63 C          12.8050   20.6570   91.1300 C.2       1 0JY         0.2039
     64 CA         12.5010   20.3540   89.7000 C.3       1 0JY         0.1314
     65 N          11.3900   19.4690   89.6730 N.am      1 0JY        -0.2637
     66 CB         12.0100   21.5340   88.8970 C.3       1 0JY        -0.0075
     67 CAI        13.0170   22.6170   88.6260 C.3       1 0JY        -0.0335
     68 CAB        12.9510   23.5840   89.7960 C.3       1 0JY        -0.0599
     69 CAC        14.4460   22.1450   88.4520 C.3       1 0JY        -0.0599
     70 CAA        12.5730   23.2310   87.3130 C.3       1 0JY        -0.0599
     71 N          11.7390   20.9850   91.8620 N.am      1 GLN        -0.2636
     72 CA         11.6760   21.1660   93.3130 C.3       1 GLN         0.1327
     73 C          11.5480   22.6280   93.6750 C.2       1 GLN         0.1993
     74 O          12.4010   23.4110   93.2990 O.2       1 GLN        -0.3947
     75 CB         12.8140   20.4950   94.0810 C.3       1 GLN         0.0045
     76 CG         12.7490   18.9850   93.9350 C.3       1 GLN         0.0412
     77 CD         12.5620   18.2230   95.2520 C.2       1 GLN         0.1737
     78 OE1        12.7200   18.7640   96.3380 O.2       1 GLN        -0.3973
     79 NE2        12.2370   16.9190   95.1800 N.am      1 GLN        -0.3009
     80 N          10.4370   23.0970   94.4410 N.am      1 NH2        -0.2990
     81 H1         -0.2284   26.7246   89.5821 H         1 ARG         0.2015
     82 H2         -0.2516   25.2085   90.2228 H         1 ARG         0.2015
     83 H3          0.6632   25.5255   88.8915 H         1 ARG         0.2015
     84 H4          2.1032   26.9454   90.0616 H         1 ARG         0.1098
     85 H5          0.0464   27.5147   91.6246 H         1 ARG         0.0347
     86 H6          1.7556   27.8029   92.0963 H         1 ARG         0.0347
     87 H7          1.5547   26.5194   93.8951 H         1 ARG         0.0320
     88 H8          0.8872   25.1585   92.9313 H         1 ARG         0.0320
     89 H9         -1.1351   25.4853   93.8096 H         1 ARG         0.0818
     90 H10        -1.1438   27.1870   93.2345 H         1 ARG         0.0818
     91 H11         0.1517   27.7003   95.2523 H         1 ARG         0.2140
     92 H12        -0.1149   26.1683   95.7923 H         1 ARG         0.2140
     93 H13        -2.5623   26.9021   95.0098 H         1 ARG         0.2163
     94 H14        -2.9777   27.0573   97.3642 H         1 ARG         0.2117
     95 H15        -1.3654   27.1207   97.6901 H         1 ARG         0.2117
     96 H16        -2.0177   25.7644   97.0233 H         1 ARG         0.2117
     97 H17        -1.7974   29.1612   94.8115 H         1 ARG         0.2117
     98 H18        -1.3082   29.1793   96.3831 H         1 ARG         0.2117
     99 H19        -2.9054   29.0166   96.0201 H         1 ARG         0.2117
    100 H20         1.2309   23.7650   89.9085 H         1 IAS         0.1886
    101 H21         3.0351   22.3426   91.4461 H         1 IAS         0.0826
    102 H22         2.5576   22.0703   88.4275 H         1 IAS         0.0551
    103 H23         1.6338   21.2474   89.7298 H         1 IAS         0.0551
    104 H24         2.9240   19.6977   87.6362 H         1 ILE         0.1883
    105 H25         4.5982   18.2283   89.5291 H         1 ILE         0.0803
    106 H26         4.0478   17.7756   86.5615 H         1 ILE         0.0345
    107 H27         2.1810   17.2604   88.1830 H         1 ILE         0.0267
    108 H28         3.2396   16.0097   88.9190 H         1 ILE         0.0267
    109 H29         6.3501   16.9150   87.1068 H         1 ILE         0.0235
    110 H30         5.2043   15.6099   86.6482 H         1 ILE         0.0235
    111 H31         5.6304   15.8654   88.3744 H         1 ILE         0.0235
    112 H32         1.5946   14.9999   87.3774 H         1 ILE         0.0230
    113 H33         3.2687   14.7689   86.7689 H         1 ILE         0.0230
    114 H34         2.2101   16.0195   86.0328 H         1 ILE         0.0230
    115 H35         8.0046   20.0131   86.5394 H         1 0JY         0.0800
    116 H36         5.2242   20.3569   86.8053 H         1 0JY         0.1883
    117 H37         6.5471   22.6852   86.5254 H         1 0JY         0.0317
    118 H38         6.2501   21.4462   85.2592 H         1 0JY         0.0317
    119 H39        10.0643   21.8315   84.3091 H         1 0JY         0.0235
    120 H40         8.8376   20.5193   84.3139 H         1 0JY         0.0235
    121 H41         9.6644   20.9816   85.8402 H         1 0JY         0.0235
    122 H42         6.7796   23.6227   84.0891 H         1 0JY         0.0235
    123 H43         7.1319   22.0422   83.3116 H         1 0JY         0.0235
    124 H44         8.3520   23.3597   83.2615 H         1 0JY         0.0235
    125 H45         9.2748   23.1994   86.8192 H         1 0JY         0.0235
    126 H46         8.0846   24.3239   86.0807 H         1 0JY         0.0235
    127 H47         9.6231   23.9581   85.2288 H         1 0JY         0.0235
    128 H48         6.1059   21.9377   88.7995 H         1 DPP         0.1884
    129 H49         8.4920   23.1793   89.8125 H         1 DPP         0.0821
    130 H50         6.5222   24.5069   89.8959 H         1 DPP         0.0568
    131 H51         7.0635   24.1621   91.5736 H         1 DPP         0.0568
    132 H52         5.1163   22.8753   91.8978 H         1 DPP         0.1854
    133 H53         6.6688   20.2899   90.6414 H         1 ARG         0.1883
    134 H54         8.0897   20.1508   93.2069 H         1 ARG         0.0800
    135 H55         5.8099   18.7122   91.9723 H         1 ARG         0.0314
    136 H56         6.0628   19.3042   93.6493 H         1 ARG         0.0314
    137 H57         7.1146   17.3216   94.3251 H         1 ARG         0.0319
    138 H58         7.4648   16.8133   92.6382 H         1 ARG         0.0319
    139 H59         4.6295   17.0533   92.8373 H         1 ARG         0.0818
    140 H60         5.1767   16.1849   94.3114 H         1 ARG         0.0818
    141 H61         5.8967   14.4859   93.1095 H         1 ARG         0.2140
    142 H62         6.4139   15.4000   91.8420 H         1 ARG         0.2140
    143 H63         3.6678   14.5108   92.3864 H         1 ARG         0.2163
    144 H64         3.9427   13.4248   90.2642 H         1 ARG         0.2117
    145 H65         5.0878   12.8860   91.3167 H         1 ARG         0.2117
    146 H66         5.4962   13.9523   90.1311 H         1 ARG         0.2117
    147 H67         3.7888   16.7179   91.4540 H         1 ARG         0.2117
    148 H68         3.1810   15.6539   90.3549 H         1 ARG         0.2117
    149 H69         4.7318   16.1873   90.2136 H         1 ARG         0.2117
    150 H70        10.2287   16.7695   91.0102 H         1 0JY         0.0800
    151 H71         8.5584   18.9170   89.9274 H         1 0JY         0.1883
    152 H72        10.9098   16.8272   88.3973 H         1 0JY         0.0317
    153 H73         9.3191   17.6562   88.3027 H         1 0JY         0.0317
    154 H74         9.4761   13.6088   89.6595 H         1 0JY         0.0235
    155 H75        10.2141   14.8735   90.6999 H         1 0JY         0.0235
    156 H76        11.0014   14.4108   89.1530 H         1 0JY         0.0235
    157 H77         8.5064   15.9119   86.9299 H         1 0JY         0.0235
    158 H78         8.5572   14.1987   87.4675 H         1 0JY         0.0235
    159 H79        10.0791   15.0508   87.0381 H         1 0JY         0.0235
    160 H80         8.0273   16.1302   90.6366 H         1 0JY         0.0235
    161 H81         7.3421   14.8434   89.5872 H         1 0JY         0.0235
    162 H82         7.3049   16.5565   89.0482 H         1 0JY         0.0235
    163 H83        13.3880   19.9105   89.2240 H         1 0JY         0.0800
    164 H84        10.5357   19.7607   89.2428 H         1 0JY         0.1883
    165 H85        11.1698   21.9862   89.4442 H         1 0JY         0.0317
    166 H86        11.6548   21.1556   87.9271 H         1 0JY         0.0317
    167 H87        13.6747   24.3977   89.6404 H         1 0JY         0.0235
    168 H88        13.1937   23.0505   90.7268 H         1 0JY         0.0235
    169 H89        11.9369   24.0041   89.8678 H         1 0JY         0.0235
    170 H90        14.5002   21.4442   87.6059 H         1 0JY         0.0235
    171 H91        14.7791   21.6382   89.3697 H         1 0JY         0.0235
    172 H92        15.0963   23.0098   88.2540 H         1 0JY         0.0235
    173 H93        11.5357   23.5850   87.4060 H         1 0JY         0.0235
    174 H94        12.6324   22.4751   86.5161 H         1 0JY         0.0235
    175 H95        13.2287   24.0784   87.0642 H         1 0JY         0.0235
    176 H96        10.8843   21.1231   91.3615 H         1 GLN         0.1883
    177 H97        10.7500   20.6737   93.6450 H         1 GLN         0.0801
    178 H98        12.7338   20.7577   95.1462 H         1 GLN         0.0337
    179 H99        13.7759   20.8540   93.6862 H         1 GLN         0.0337
    180 H100       13.6870   18.6445   93.4721 H         1 GLN         0.0504
    181 H101       11.9041   18.7404   93.2744 H         1 GLN         0.0504
    182 H102       12.1068   16.3891   96.0180 H         1 GLN         0.1814
    183 H103       12.1257   16.4799   94.2885 H         1 GLN         0.1814
    184 H104       10.3640   24.0668   94.6739 H         1 NH2         0.1815
    185 H105        9.7323   22.4555   94.7443 H         1 NH2         0.1815
@<TRIPOS>BOND
     1    2    1 1  
     2    3    2 1  
     3    2    5 1  
     4    3    4 2  
     5   12    3 am 
     6    5    6 1  
     7    6    7 1  
     8    7    8 1  
     9    8    9 1  
    10    9   10 1  
    11    9   11 1  
    12   13   12 1  
    13   14   13 1  
    14   13   16 1  
    15   14   15 2  
    16   41   14 am 
    17   16   17 1  
    18   17   18 2  
    19   17   19 am 
    20   20   19 1  
    21   21   20 1  
    22   20   23 1  
    23   21   22 2  
    24   30   21 am 
    25   23   24 1  
    26   23   25 1  
    27   24   26 1  
    28   28   27 2  
    29   28   29 1  
    30   36   28 am 
    31   29   30 1  
    32   29   31 1  
    33   31   32 1  
    34   32   33 1  
    35   32   34 1  
    36   32   35 1  
    37   37   36 1  
    38   38   37 1  
    39   37   40 1  
    40   38   39 2  
    41   42   38 am 
    42   40   41 1  
    43   43   42 1  
    44   44   43 1  
    45   43   46 1  
    46   44   45 2  
    47   56   44 am 
    48   46   47 1  
    49   47   48 1  
    50   48   49 1  
    51   49   50 1  
    52   50   51 1  
    53   50   52 1  
    54   54   53 2  
    55   54   55 1  
    56   65   54 am 
    57   55   56 1  
    58   55   57 1  
    59   57   58 1  
    60   58   59 1  
    61   58   60 1  
    62   58   61 1  
    63   63   62 2  
    64   64   63 1  
    65   63   71 am 
    66   64   65 1  
    67   64   66 1  
    68   66   67 1  
    69   67   68 1  
    70   67   69 1  
    71   67   70 1  
    72   71   72 1  
    73   72   73 1  
    74   72   75 1  
    75   73   74 2  
    76   73   80 am 
    77   75   76 1  
    78   76   77 1  
    79   77   78 2  
    80   77   79 am 
    81    1   81 1  
    82    1   82 1  
    83    1   83 1  
    84    2   84 1  
    85    5   85 1  
    86    5   86 1  
    87    6   87 1  
    88    6   88 1  
    89    7   89 1  
    90    7   90 1  
    91    8   91 1  
    92    8   92 1  
    93    9   93 1  
    94   10   94 1  
    95   10   95 1  
    96   10   96 1  
    97   11   97 1  
    98   11   98 1  
    99   11   99 1  
   100   12  100 1  
   101   13  101 1  
   102   16  102 1  
   103   16  103 1  
   104   19  104 1  
   105   20  105 1  
   106   23  106 1  
   107   24  107 1  
   108   24  108 1  
   109   25  109 1  
   110   25  110 1  
   111   25  111 1  
   112   26  112 1  
   113   26  113 1  
   114   26  114 1  
   115   29  115 1  
   116   30  116 1  
   117   31  117 1  
   118   31  118 1  
   119   33  119 1  
   120   33  120 1  
   121   33  121 1  
   122   34  122 1  
   123   34  123 1  
   124   34  124 1  
   125   35  125 1  
   126   35  126 1  
   127   35  127 1  
   128   36  128 1  
   129   37  129 1  
   130   40  130 1  
   131   40  131 1  
   132   41  132 1  
   133   42  133 1  
   134   43  134 1  
   135   46  135 1  
   136   46  136 1  
   137   47  137 1  
   138   47  138 1  
   139   48  139 1  
   140   48  140 1  
   141   49  141 1  
   142   49  142 1  
   143   50  143 1  
   144   51  144 1  
   145   51  145 1  
   146   51  146 1  
   147   52  147 1  
   148   52  148 1  
   149   52  149 1  
   150   55  150 1  
   151   56  151 1  
   152   57  152 1  
   153   57  153 1  
   154   59  154 1  
   155   59  155 1  
   156   59  156 1  
   157   60  157 1  
   158   60  158 1  
   159   60  159 1  
   160   61  160 1  
   161   61  161 1  
   162   61  162 1  
   163   64  163 1  
   164   65  164 1  
   165   66  165 1  
   166   66  166 1  
   167   68  167 1  
   168   68  168 1  
   169   68  169 1  
   170   69  170 1  
   171   69  171 1  
   172   69  172 1  
   173   70  173 1  
   174   70  174 1  
   175   70  175 1  
   176   71  176 1  
   177   72  177 1  
   178   75  178 1  
   179   75  179 1  
   180   76  180 1  
   181   76  181 1  
   182   79  182 1  
   183   79  183 1  
   184   80  184 1  
   185   80  185 1  
@<TRIPOS>SUBSTRUCTURE
     1 ARG         1

