5gtr_ligand
  -I-interpret- 

185185  0  0  0  0  0  0  0  0999 V2000
    0.3210   25.8990   89.7630 N   0  3  0  0  0
    1.4750   26.2520   90.6400 C   0  0  0  0  0
    2.3590   25.0700   90.9660 C   0  0  0  0  0
    3.3200   25.2520   91.6950 O   0  0  0  0  0
    1.0010   27.0320   91.8810 C   0  0  0  0  0
    0.7810   26.2270   93.1700 C   0  0  0  0  0
   -0.5870   26.4390   93.8180 C   0  0  0  0  0
   -0.4740   26.9110   95.2130 N   0  3  0  0  0
   -1.8110   27.3150   95.6990 C   0  0  0  0  0
   -2.0630   26.7710   97.0520 N   0  3  0  0  0
   -1.9680   28.7850   95.7310 N   0  3  0  0  0
    2.1010   23.8790   90.3880 N   0  0  0  0  0
    3.0210   22.7490   90.4240 C   0  0  0  0  0
    4.4020   23.1740   90.0300 C   0  0  0  0  0
    4.6640   23.4850   88.8750 O   0  0  0  0  0
    2.6190   21.6400   89.4380 C   0  0  0  0  0
    3.6150   20.4950   89.4210 C   0  0  0  0  0
    4.4200   20.3160   90.3100 O   0  0  0  0  0
    3.5780   19.6330   88.3900 N   0  0  0  0  0
    4.5970   18.5920   88.4910 C   0  0  0  0  0
    5.9700   19.1500   88.2050 C   0  0  0  0  0
    6.8600   18.7100   88.8270 O   0  0  0  0  0
    4.2560   17.3590   87.5580 C   0  0  0  0  0
    2.9940   16.5450   87.9900 C   0  0  0  0  0
    5.4480   16.3640   87.4110 C   0  0  0  0  0
    2.4800   15.5090   86.9690 C   0  0  0  0  0
    9.1220   21.3470   88.3860 O   0  0  0  0  0
    7.9250   21.3670   88.1790 C   0  0  0  0  0
    7.3050   20.7410   86.9760 C   0  0  0  0  0
    6.0520   20.0850   87.2960 N   0  0  0  0  0
    6.9880   21.8430   85.9720 C   0  0  0  0  0
    8.1670   22.3790   85.1710 C   0  0  0  0  0
    9.2590   21.3570   84.8890 C   0  0  0  0  0
    7.5660   22.8860   83.8680 C   0  0  0  0  0
    8.8330   23.5450   85.8730 C   0  0  0  0  0
    7.0880   21.9640   88.9860 N   0  0  0  0  0
    7.5810   22.6540   90.1350 C   0  0  0  0  0
    7.9870   21.7130   91.2120 C   0  0  0  0  0
    8.8660   22.0800   91.9540 O   0  0  0  0  0
    6.6300   23.7250   90.6620 C   0  0  0  0  0
    5.3230   23.2060   90.9770 N   0  0  0  0  0
    7.3820   20.5270   91.3010 N   0  0  0  0  0
    7.7400   19.5710   92.3400 C   0  0  0  0  0
    8.8760   18.7080   91.9070 C   0  0  0  0  0
    9.5630   18.2210   92.7620 O   0  0  0  0  0
    6.5170   18.7510   92.8140 C   0  0  0  0  0
    6.7270   17.2960   93.2960 C   0  0  0  0  0
    5.4440   16.4620   93.2810 C   0  0  0  0  0
    5.6520   15.2350   92.4810 N   0  3  0  0  0
    4.4660   14.8120   91.6920 C   0  0  0  0  0
    4.7730   13.6770   90.7770 N   0  3  0  0  0
    4.0060   15.9300   90.8640 N   0  3  0  0  0
   12.5100   17.8150   90.6240 O   0  0  0  0  0
   11.4720   18.2830   90.2020 C   0  0  0  0  0
   10.1730   17.5720   90.2600 C   0  0  0  0  0
    9.1120   18.4730   90.6320 N   0  0  0  0  0
    9.9360   16.9610   88.8910 C   0  0  0  0  0
    9.2350   15.6210   88.9350 C   0  0  0  0  0
   10.0370   14.5550   89.6620 C   0  0  0  0  0
    9.0840   15.1640   87.4930 C   0  0  0  0  0
    7.8850   15.8000   89.5970 C   0  0  0  0  0
   13.9340   20.5410   91.5590 O   0  0  0  0  0
   12.8050   20.6570   91.1300 C   0  0  0  0  0
   12.5010   20.3540   89.7000 C   0  0  0  0  0
   11.3900   19.4690   89.6730 N   0  0  0  0  0
   12.0100   21.5340   88.8970 C   0  0  0  0  0
   13.0170   22.6170   88.6260 C   0  0  0  0  0
   12.9510   23.5840   89.7960 C   0  0  0  0  0
   14.4460   22.1450   88.4520 C   0  0  0  0  0
   12.5730   23.2310   87.3130 C   0  0  0  0  0
   11.7390   20.9850   91.8620 N   0  0  0  0  0
   11.6760   21.1660   93.3130 C   0  0  0  0  0
   11.5480   22.6280   93.6750 C   0  0  0  0  0
   12.4010   23.4110   93.2990 O   0  0  0  0  0
   12.8140   20.4950   94.0810 C   0  0  0  0  0
   12.7490   18.9850   93.9350 C   0  0  0  0  0
   12.5620   18.2230   95.2520 C   0  0  0  0  0
   12.7200   18.7640   96.3380 O   0  0  0  0  0
   12.2370   16.9190   95.1800 N   0  0  0  0  0
   10.4370   23.0970   94.4410 N   0  0  0  0  0
    0.6586   25.3842   88.9497 H   0  0  0  0  0
   -0.3363   25.3194   90.2849 H   0  0  0  0  0
   -0.1455   26.7528   89.4569 H   0  0  0  0  0
    2.1233   26.9210   90.0741 H   0  0  0  0  0
    0.0268   27.4445   91.6184 H   0  0  0  0  0
    1.7959   27.7428   92.1067 H   0  0  0  0  0
    1.5309   26.5594   93.8878 H   0  0  0  0  0
    0.8505   25.1720   92.9051 H   0  0  0  0  0
   -1.1121   25.4838   93.8238 H   0  0  0  0  0
   -1.1208   27.1970   93.2448 H   0  0  0  0  0
    0.1608   27.7083   95.2544 H   0  0  0  0  0
   -0.1086   26.1610   95.7998 H   0  0  0  0  0
   -2.5372   26.9062   94.9964 H   0  0  0  0  0
   -2.9887   27.0613   97.3669 H   0  0  0  0  0
   -2.0168   25.7525   97.0217 H   0  0  0  0  0
   -1.3566   27.1255   97.6967 H   0  0  0  0  0
   -2.9008   29.0188   96.0709 H   0  0  0  0  0
   -1.2673   29.1871   96.3536 H   0  0  0  0  0
   -1.8438   29.1595   94.7904 H   0  0  0  0  0
    1.2135   23.7627   89.8989 H   0  0  0  0  0
    2.9885   22.3768   91.4480 H   0  0  0  0  0
    2.5845   22.0728   88.4382 H   0  0  0  0  0
    1.6532   21.2433   89.7509 H   0  0  0  0  0
    2.9110   19.6990   87.6212 H   0  0  0  0  0
    4.6013   18.2243   89.5171 H   0  0  0  0  0
    4.0422   17.8314   86.5993 H   0  0  0  0  0
    2.1911   17.2701   88.1229 H   0  0  0  0  0
    3.2798   15.9841   88.8798 H   0  0  0  0  0
    6.3023   16.8840   86.9775 H   0  0  0  0  0
    5.7179   15.9747   88.3927 H   0  0  0  0  0
    5.1540   15.5404   86.7604 H   0  0  0  0  0
    2.2130   16.0161   86.0418 H   0  0  0  0  0
    3.2624   14.7763   86.7715 H   0  0  0  0  0
    1.6027   15.0052   87.3748 H   0  0  0  0  0
    8.0053   20.0042   86.5826 H   0  0  0  0  0
    5.2076   20.3623   86.7955 H   0  0  0  0  0
    6.6056   22.6832   86.5516 H   0  0  0  0  0
    6.2998   21.4073   85.2477 H   0  0  0  0  0
    9.6598   20.9858   85.8322 H   0  0  0  0  0
    8.8402   20.5275   84.3192 H   0  0  0  0  0
   10.0563   21.8283   84.3143 H   0  0  0  0  0
    7.0719   22.0624   83.3526 H   0  0  0  0  0
    6.8392   23.6688   84.0850 H   0  0  0  0  0
    8.3580   23.2886   83.2365 H   0  0  0  0  0
    8.1098   24.3501   86.0033 H   0  0  0  0  0
    9.1971   23.2206   86.8478 H   0  0  0  0  0
    9.6695   23.9001   85.2711 H   0  0  0  0  0
    6.0862   21.9372   88.7958 H   0  0  0  0  0
    8.4708   23.1843   89.7957 H   0  0  0  0  0
    6.5111   24.4781   89.8830 H   0  0  0  0  0
    7.0583   24.1294   91.5791 H   0  0  0  0  0
    5.1122   22.8687   91.9162 H   0  0  0  0  0
    6.6545   20.2851   90.6282 H   0  0  0  0  0
    8.0817   20.1345   93.2082 H   0  0  0  0  0
    5.8798   18.6649   91.9339 H   0  0  0  0  0
    6.1445   19.2844   93.6885 H   0  0  0  0  0
    7.0804   17.3381   94.3263 H   0  0  0  0  0
    7.4354   16.8228   92.6160 H   0  0  0  0  0
    4.6387   17.0482   92.8383 H   0  0  0  0  0
    5.1822   16.1858   94.3024 H   0  0  0  0  0
    5.8616   14.4815   93.1357 H   0  0  0  0  0
    6.3999   15.4330   91.8163 H   0  0  0  0  0
    3.7053   14.4970   92.4063 H   0  0  0  0  0
    3.9321   13.4227   90.2586 H   0  0  0  0  0
    5.5049   13.9567   90.1239 H   0  0  0  0  0
    5.0914   12.8773   91.3242 H   0  0  0  0  0
    3.1920   15.6384   90.3230 H   0  0  0  0  0
    3.7533   16.7148   91.4645 H   0  0  0  0  0
    4.7537   16.2123   90.2302 H   0  0  0  0  0
   10.1908   16.7905   91.0197 H   0  0  0  0  0
    8.5474   18.9259   89.9133 H   0  0  0  0  0
   10.9118   16.8030   88.4317 H   0  0  0  0  0
    9.2951   17.6456   88.3355 H   0  0  0  0  0
   10.9923   14.4131   89.1567 H   0  0  0  0  0
   10.2119   14.8718   90.6902 H   0  0  0  0  0
    9.4802   13.6180   89.6589 H   0  0  0  0  0
    8.4929   15.8951   86.9415 H   0  0  0  0  0
   10.0698   15.0733   87.0368 H   0  0  0  0  0
    8.5814   14.1970   87.4704 H   0  0  0  0  0
    8.0256   16.1781   90.6096 H   0  0  0  0  0
    7.2910   16.5102   89.0218 H   0  0  0  0  0
    7.3700   14.8401   89.6345 H   0  0  0  0  0
   13.4347   19.9802   89.2797 H   0  0  0  0  0
   10.5186   19.7665   89.2342 H   0  0  0  0  0
   11.2179   21.9953   89.4867 H   0  0  0  0  0
   11.7175   21.1396   87.9238 H   0  0  0  0  0
   11.9457   23.9995   89.8661 H   0  0  0  0  0
   13.1916   23.0541   90.7177 H   0  0  0  0  0
   13.6685   24.3897   89.6407 H   0  0  0  0  0
   14.7730   21.6383   89.3600 H   0  0  0  0  0
   14.4994   21.4549   87.6100 H   0  0  0  0  0
   15.0901   23.0034   88.2613 H   0  0  0  0  0
   12.5789   22.4669   86.5357 H   0  0  0  0  0
   11.5652   23.6315   87.4230 H   0  0  0  0  0
   13.2568   24.0346   87.0395 H   0  0  0  0  0
   10.8672   21.1259   91.3515 H   0  0  0  0  0
   10.7729   20.6465   93.6333 H   0  0  0  0  0
   12.7224   20.7495   95.1369 H   0  0  0  0  0
   13.7640   20.8458   93.6777 H   0  0  0  0  0
   13.7027   18.6650   93.5154 H   0  0  0  0  0
   11.8816   18.7629   93.3134 H   0  0  0  0  0
   12.1207   16.3744   96.0346 H   0  0  0  0  0
   12.1070   16.4752   94.2708 H   0  0  0  0  0
   10.3589   24.0873   94.6725 H   0  0  0  0  0
    9.7219   22.4415   94.7564 H   0  0  0  0  0
  2  1  1  0  0  0
  3  2  1  0  0  0
  2  5  1  0  0  0
  3  4  2  0  0  0
 12  3  1  0  0  0
  5  6  1  0  0  0
  6  7  1  0  0  0
  7  8  1  0  0  0
  8  9  1  0  0  0
  9 10  1  0  0  0
  9 11  1  0  0  0
 13 12  1  0  0  0
 14 13  1  0  0  0
 13 16  1  0  0  0
 14 15  2  0  0  0
 41 14  1  0  0  0
 16 17  1  0  0  0
 17 18  2  0  0  0
 17 19  1  0  0  0
 20 19  1  0  0  0
 21 20  1  0  0  0
 20 23  1  0  0  0
 21 22  2  0  0  0
 30 21  1  0  0  0
 23 24  1  0  0  0
 23 25  1  0  0  0
 24 26  1  0  0  0
 28 27  2  0  0  0
 28 29  1  0  0  0
 36 28  1  0  0  0
 29 30  1  0  0  0
 29 31  1  0  0  0
 31 32  1  0  0  0
 32 33  1  0  0  0
 32 34  1  0  0  0
 32 35  1  0  0  0
 37 36  1  0  0  0
 38 37  1  0  0  0
 37 40  1  0  0  0
 38 39  2  0  0  0
 42 38  1  0  0  0
 40 41  1  0  0  0
 43 42  1  0  0  0
 44 43  1  0  0  0
 43 46  1  0  0  0
 44 45  2  0  0  0
 56 44  1  0  0  0
 46 47  1  0  0  0
 47 48  1  0  0  0
 48 49  1  0  0  0
 49 50  1  0  0  0
 50 51  1  0  0  0
 50 52  1  0  0  0
 54 53  2  0  0  0
 54 55  1  0  0  0
 65 54  1  0  0  0
 55 56  1  0  0  0
 55 57  1  0  0  0
 57 58  1  0  0  0
 58 59  1  0  0  0
 58 60  1  0  0  0
 58 61  1  0  0  0
 63 62  2  0  0  0
 64 63  1  0  0  0
 63 71  1  0  0  0
 64 65  1  0  0  0
 64 66  1  0  0  0
 66 67  1  0  0  0
 67 68  1  0  0  0
 67 69  1  0  0  0
 67 70  1  0  0  0
 71 72  1  0  0  0
 72 73  1  0  0  0
 72 75  1  0  0  0
 73 74  2  0  0  0
 73 80  1  0  0  0
 75 76  1  0  0  0
 76 77  1  0  0  0
 77 78  2  0  0  0
 77 79  1  0  0  0
  1 81  1  0  0  0
  1 82  1  0  0  0
  1 83  1  0  0  0
  2 84  1  0  0  0
  5 85  1  0  0  0
  5 86  1  0  0  0
  6 87  1  0  0  0
  6 88  1  0  0  0
  7 89  1  0  0  0
  7 90  1  0  0  0
  8 91  1  0  0  0
  8 92  1  0  0  0
  9 93  1  0  0  0
 10 94  1  0  0  0
 10 95  1  0  0  0
 10 96  1  0  0  0
 11 97  1  0  0  0
 11 98  1  0  0  0
 11 99  1  0  0  0
 12100  1  0  0  0
 13101  1  0  0  0
 16102  1  0  0  0
 16103  1  0  0  0
 19104  1  0  0  0
 20105  1  0  0  0
 23106  1  0  0  0
 24107  1  0  0  0
 24108  1  0  0  0
 25109  1  0  0  0
 25110  1  0  0  0
 25111  1  0  0  0
 26112  1  0  0  0
 26113  1  0  0  0
 26114  1  0  0  0
 29115  1  0  0  0
 30116  1  0  0  0
 31117  1  0  0  0
 31118  1  0  0  0
 33119  1  0  0  0
 33120  1  0  0  0
 33121  1  0  0  0
 34122  1  0  0  0
 34123  1  0  0  0
 34124  1  0  0  0
 35125  1  0  0  0
 35126  1  0  0  0
 35127  1  0  0  0
 36128  1  0  0  0
 37129  1  0  0  0
 40130  1  0  0  0
 40131  1  0  0  0
 41132  1  0  0  0
 42133  1  0  0  0
 43134  1  0  0  0
 46135  1  0  0  0
 46136  1  0  0  0
 47137  1  0  0  0
 47138  1  0  0  0
 48139  1  0  0  0
 48140  1  0  0  0
 49141  1  0  0  0
 49142  1  0  0  0
 50143  1  0  0  0
 51144  1  0  0  0
 51145  1  0  0  0
 51146  1  0  0  0
 52147  1  0  0  0
 52148  1  0  0  0
 52149  1  0  0  0
 55150  1  0  0  0
 56151  1  0  0  0
 57152  1  0  0  0
 57153  1  0  0  0
 59154  1  0  0  0
 59155  1  0  0  0
 59156  1  0  0  0
 60157  1  0  0  0
 60158  1  0  0  0
 60159  1  0  0  0
 61160  1  0  0  0
 61161  1  0  0  0
 61162  1  0  0  0
 64163  1  0  0  0
 65164  1  0  0  0
 66165  1  0  0  0
 66166  1  0  0  0
 68167  1  0  0  0
 68168  1  0  0  0
 68169  1  0  0  0
 69170  1  0  0  0
 69171  1  0  0  0
 69172  1  0  0  0
 70173  1  0  0  0
 70174  1  0  0  0
 70175  1  0  0  0
 71176  1  0  0  0
 72177  1  0  0  0
 75178  1  0  0  0
 75179  1  0  0  0
 76180  1  0  0  0
 76181  1  0  0  0
 79182  1  0  0  0
 79183  1  0  0  0
 80184  1  0  0  0
 80185  1  0  0  0
M  END
$$$$
