5ih6_ligand
  -I-interpret- 

 30 32  0  0  0  0  0  0  0  0999 V2000
  -44.5580   19.0190    3.0450 N   0  0  0  0  0
  -45.2920   20.1280    3.3250 C   0  0  0  0  0
  -44.9450   21.3390    2.9510 N   0  0  0  0  0
  -43.7810   21.4710    2.2360 C   0  0  0  0  0
  -42.9920   20.3780    1.9310 C   0  0  0  0  0
  -43.3950   19.1020    2.3430 C   0  0  0  0  0
  -43.4380   22.7320    1.8430 N   0  0  0  0  0
  -42.2690   22.8410    1.1400 C   0  0  0  0  0
  -41.4530   21.7040    0.8790 C   0  0  0  0  0
  -41.8640   20.4810    1.2110 N   0  0  0  0  0
  -40.2700   21.8650    0.0090 C   0  0  0  0  0
  -39.3690   22.9120    0.0570 C   0  0  0  0  0
  -38.3630   23.0290   -0.9110 C   0  0  0  0  0
  -38.3240   22.1080   -1.9910 C   0  0  0  0  0
  -39.3300   21.0770   -2.0930 C   0  0  0  0  0
  -40.2860   20.9890   -1.0950 C   0  0  0  0  0
  -42.5020   18.0450    1.9830 N   0  0  0  0  0
  -46.5190   20.0970    4.0720 N   0  0  0  0  0
  -41.8290   24.1510    0.7380 N   0  0  0  0  0
  -39.5140   19.6830   -3.5100 Br  0  0  0  0  0
  -39.4417   23.6521    0.8539 H   0  0  0  0  0
  -37.6169   23.8200   -0.8357 H   0  0  0  0  0
  -37.5366   22.1790   -2.7413 H   0  0  0  0  0
  -41.0643   20.2291   -1.1645 H   0  0  0  0  0
  -42.7098   17.0854    2.2594 H   0  0  0  0  0
  -41.6571   18.2505    1.4498 H   0  0  0  0  0
  -46.8807   19.2099    4.4221 H   0  0  0  0  0
  -47.0284   20.9621    4.2522 H   0  0  0  0  0
  -42.3851   24.9717    0.9779 H   0  0  0  0  0
  -40.9611   24.2587    0.2131 H   0  0  0  0  0
  1  2  4  0  0  0
  1  6  4  0  0  0
  2  3  4  0  0  0
  2 18  1  0  0  0
  3  4  4  0  0  0
  4  5  4  0  0  0
  4  7  4  0  0  0
  5  6  4  0  0  0
  5 10  4  0  0  0
  6 17  1  0  0  0
  7  8  4  0  0  0
  8  9  4  0  0  0
  8 19  1  0  0  0
  9 10  4  0  0  0
  9 11  1  0  0  0
 11 12  4  0  0  0
 11 16  4  0  0  0
 12 13  4  0  0  0
 13 14  4  0  0  0
 14 15  4  0  0  0
 15 16  4  0  0  0
 15 20  1  0  0  0
 12 21  1  0  0  0
 13 22  1  0  0  0
 14 23  1  0  0  0
 16 24  1  0  0  0
 17 25  1  0  0  0
 17 26  1  0  0  0
 18 27  1  0  0  0
 18 28  1  0  0  0
 19 29  1  0  0  0
 19 30  1  0  0  0
M  END
$$$$
