4amz_ligand
  -I-interpret- 

 52 54  0  0  0  0  0  0  0  0999 V2000
   39.4020   37.9120   83.7150 C   0  0  0  0  0
   39.6990   39.0820   84.0270 O   0  0  0  0  0
   39.7440   36.7740   84.6320 C   0  0  0  0  0
   38.4720   36.4110   85.4040 C   0  0  0  0  0
   38.8220   36.4050   86.8960 C   0  0  0  0  0
   40.2190   37.0000   86.9390 C   0  0  0  0  0
   40.7110   37.1480   85.7090 C   0  0  0  0  0
   36.8590   39.0330   81.9650 C   0  0  0  0  0
   35.9260   37.9610   81.8940 O   0  0  0  0  0
   36.6560   39.6750   83.3670 C   0  0  0  0  0
   37.5900   40.7300   83.5660 O   0  0  0  0  0
   38.2810   38.5220   81.6210 C   0  0  0  0  0
   38.3060   37.7290   80.3110 C   0  0  0  0  0
   38.2490   36.2540   80.6900 C   0  0  0  0  0
   38.3870   36.1640   82.2060 C   0  0  0  0  0
   38.7310   37.5370   82.6030 N   0  0  0  0  0
   42.0870   37.5750   85.4200 C   0  0  0  0  0
   42.5200   37.4280   84.2940 O   0  0  0  0  0
   42.8160   38.1070   86.4180 N   0  0  0  0  0
   44.2150   38.5190   86.3620 C   0  0  0  0  0
   44.9110   37.4070   87.1130 C   0  0  0  0  0
   44.9680   36.1120   86.5920 C   0  0  0  0  0
   45.5920   35.0920   87.3260 C   0  0  0  0  0
   46.1460   35.3380   88.5890 C   0  0  0  0  0
   46.0710   36.6240   89.1190 C   0  0  0  0  0
   45.4600   37.6500   88.3840 C   0  0  0  0  0
   40.1640   35.9868   84.0059 H   0  0  0  0  0
   38.1059   35.4318   85.0952 H   0  0  0  0  0
   37.6839   37.1361   85.2011 H   0  0  0  0  0
   38.7816   35.4056   87.3291 H   0  0  0  0  0
   38.1089   36.9732   87.4932 H   0  0  0  0  0
   40.7481   37.2697   87.8530 H   0  0  0  0  0
   36.7048   39.8196   81.2263 H   0  0  0  0  0
   36.0064   37.5241   81.0430 H   0  0  0  0  0
   36.8093   38.9144   84.1326 H   0  0  0  0  0
   35.6450   40.0774   83.4315 H   0  0  0  0  0
   37.4538   41.1169   84.4339 H   0  0  0  0  0
   38.8988   39.4191   81.5811 H   0  0  0  0  0
   39.2090   37.9488   79.7414 H   0  0  0  0  0
   37.4616   37.9998   79.6772 H   0  0  0  0  0
   39.0528   35.7037   80.2009 H   0  0  0  0  0
   37.3058   35.8137   80.3665 H   0  0  0  0  0
   39.1408   35.4394   82.5140 H   0  0  0  0  0
   37.4768   35.8062   82.6873 H   0  0  0  0  0
   42.3392   38.2364   87.3104 H   0  0  0  0  0
   44.3891   39.5033   86.7966 H   0  0  0  0  0
   44.5839   38.6442   85.3440 H   0  0  0  0  0
   44.5290   35.8947   85.6182 H   0  0  0  0  0
   45.6468   34.0880   86.9051 H   0  0  0  0  0
   46.6280   34.5359   89.1480 H   0  0  0  0  0
   46.4871   36.8327   90.1046 H   0  0  0  0  0
   45.4099   38.6539   88.8057 H   0  0  0  0  0
  1  2  2  0  0  0
  1  3  1  0  0  0
 16  1  1  0  0  0
  3  4  1  0  0  0
  3  7  1  0  0  0
  4  5  1  0  0  0
  6  5  1  0  0  0
  7  6  2  0  0  0
  7 17  1  0  0  0
  8  9  1  0  0  0
  8 10  1  0  0  0
 12  8  1  0  0  0
 10 11  1  0  0  0
 12 13  1  0  0  0
 12 16  1  0  0  0
 13 14  1  0  0  0
 14 15  1  0  0  0
 15 16  1  0  0  0
 17 18  2  0  0  0
 17 19  1  0  0  0
 19 20  1  0  0  0
 20 21  1  0  0  0
 21 22  4  0  0  0
 21 26  4  0  0  0
 22 23  4  0  0  0
 23 24  4  0  0  0
 24 25  4  0  0  0
 25 26  4  0  0  0
  3 27  1  0  0  0
  4 28  1  0  0  0
  4 29  1  0  0  0
  5 30  1  0  0  0
  5 31  1  0  0  0
  6 32  1  0  0  0
  8 33  1  0  0  0
  9 34  1  0  0  0
 10 35  1  0  0  0
 10 36  1  0  0  0
 11 37  1  0  0  0
 12 38  1  0  0  0
 13 39  1  0  0  0
 13 40  1  0  0  0
 14 41  1  0  0  0
 14 42  1  0  0  0
 15 43  1  0  0  0
 15 44  1  0  0  0
 19 45  1  0  0  0
 20 46  1  0  0  0
 20 47  1  0  0  0
 22 48  1  0  0  0
 23 49  1  0  0  0
 24 50  1  0  0  0
 25 51  1  0  0  0
 26 52  1  0  0  0
M  END
$$$$
