### 
### Created by X-TOOL on Mon Sep 10 21:13:15 2018
### 

@<TRIPOS>MOLECULE
4ezo_ligand
  147   151     1     0     0
SMALL
GAST_HUCK


@<TRIPOS>ATOM
      1 N          -9.2080    5.1030   -1.9470 N.4       1 PRO         0.2461
      2 CA         -9.4300    6.2980   -2.7490 C.3       1 PRO         0.0671
      3 C         -10.6580    6.1900   -3.6750 C.2       1 PRO         0.2293
      4 O         -10.7810    5.2040   -4.4120 O.2       1 PRO        -0.3905
      5 CB         -8.1320    6.4160   -3.5800 C.3       1 PRO         0.0127
      6 CG         -7.4940    5.0710   -3.4940 C.3       1 PRO        -0.0053
      7 CD         -7.8410    4.5900   -2.1160 C.3       1 PRO        -0.0313
      8 N         -11.5320    7.2140   -3.6500 N.am      1 PRO        -0.2471
      9 CA        -12.5460    7.3850   -4.6970 C.3       1 PRO         0.1339
     10 C         -11.9140    7.5780   -6.0850 C.2       1 PRO         0.2042
     11 O         -10.7650    7.9910   -6.2430 O.2       1 PRO        -0.3944
     12 CB        -13.2850    8.6710   -4.2840 C.3       1 PRO        -0.0104
     13 CG        -12.8180    9.0410   -2.9160 C.3       1 PRO        -0.0281
     14 CD        -11.4980    8.3470   -2.6960 C.3       1 PRO         0.0371
     15 N         -12.6930    7.3340   -7.1070 N.am      1 TYR        -0.2621
     16 CA        -12.1550    7.3640   -8.4500 C.3       1 TYR         0.1390
     17 C         -12.6150    8.5330   -9.2800 C.2       1 TYR         0.2057
     18 O         -13.7300    9.0260   -9.1520 O.2       1 TYR        -0.3942
     19 CB        -12.6500    6.1470   -9.1760 C.3       1 TYR         0.0163
     20 CG        -12.4130    4.8710   -8.4770 C.ar      1 TYR        -0.0493
     21 CD1       -11.1640    4.5840   -7.9290 C.ar      1 TYR        -0.0685
     22 CD2       -13.4350    3.9410   -8.3590 C.ar      1 TYR        -0.0685
     23 CE1       -10.9260    3.3820   -7.2730 C.ar      1 TYR        -0.0398
     24 CE2       -13.2300    2.7390   -7.7130 C.ar      1 TYR        -0.0398
     25 CZ        -11.9770    2.4590   -7.1730 C.ar      1 TYR         0.0805
     26 OH        -11.7920    1.2520   -6.5230 O.3       1 TYR        -0.3376
     27 N         -11.7800    8.8900  -10.2350 N.am      1 LEU        -0.2636
     28 CA        -12.0230   10.0720  -11.0440 C.3       1 LEU         0.1314
     29 C         -12.3700    9.6830  -12.4800 C.2       1 LEU         0.2064
     30 O         -11.6960    8.8340  -13.0490 O.2       1 LEU        -0.3942
     31 CB        -10.7510   10.8930  -11.0240 C.3       1 LEU        -0.0101
     32 CG        -10.5160   11.5850   -9.7020 C.3       1 LEU        -0.0425
     33 CD1        -9.1710   12.3080   -9.8040 C.3       1 LEU        -0.0625
     34 CD2       -11.6430   12.5970   -9.5450 C.3       1 LEU        -0.0625
     35 N         -13.3580   10.3560  -13.0900 N.am      1 PRO        -0.2498
     36 CA        -13.6620   10.1470  -14.5070 C.3       1 PRO         0.1338
     37 C         -12.5650   10.6810  -15.4710 C.2       1 PRO         0.2041
     38 O         -11.7920   11.5650  -15.1120 O.2       1 PRO        -0.3944
     39 CB        -14.9360   10.9710  -14.6880 C.3       1 PRO        -0.0104
     40 CG        -14.7530   12.1160  -13.7520 C.3       1 PRO        -0.0281
     41 CD        -14.1730   11.4660  -12.5330 C.3       1 PRO         0.0369
     42 N         -12.5010   10.1250  -16.6760 N.am      1 ARG        -0.2637
     43 CA        -11.5630   10.6320  -17.6660 C.3       1 ARG         0.1313
     44 C         -12.2190   11.8200  -18.3610 C.2       1 ARG         0.2064
     45 O         -13.4140   12.0480  -18.1770 O.2       1 ARG        -0.3942
     46 CB        -11.1430    9.5490  -18.6620 C.3       1 ARG        -0.0092
     47 CG        -12.3130    8.9840  -19.4430 C.3       1 ARG        -0.0156
     48 CD        -11.8520    8.4630  -20.7810 C.3       1 ARG         0.0627
     49 NE        -13.0120    7.9140  -21.4730 N.pl3     1 ARG        -0.2723
     50 CZ        -13.0310    7.5010  -22.7310 C.cat     1 ARG         0.2882
     51 NH1       -11.9410    7.5520  -23.4780 N.pl3     1 ARG        -0.2849
     52 NH2       -14.1540    7.0240  -23.2350 N.pl3     1 ARG        -0.2849
     53 N         -11.4260   12.6010  -19.1130 N.am      1 PRO        -0.2498
     54 CA        -11.9700   13.6470  -19.9920 C.3       1 PRO         0.1337
     55 C         -12.9120   13.0430  -21.0430 C.2       1 PRO         0.2035
     56 O         -12.6110   11.9680  -21.5760 O.2       1 PRO        -0.3944
     57 CB        -10.7040   14.2500  -20.6330 C.3       1 PRO        -0.0104
     58 CG         -9.6660   14.0970  -19.5430 C.3       1 PRO        -0.0281
     59 CD         -9.9790   12.7680  -18.8950 C.3       1 PRO         0.0369
     60 N         -14.0490   13.7050  -21.3070 N.am      1 ARG        -0.2695
     61 CA        -15.0630   13.1770  -22.2380 C.3       1 ARG         0.0945
     62 C         -14.5120   13.0130  -23.6560 C.2       1 ARG         0.0601
     63 O         -13.9880   13.9990  -24.2398 O.co2     1 ARG        -0.5666
     64 CB        -16.3000   14.0810  -22.2840 C.3       1 ARG        -0.0148
     65 CG        -17.4110   13.7040  -21.3240 C.3       1 ARG        -0.0162
     66 CD        -18.2450   14.9340  -21.0250 C.3       1 ARG         0.0627
     67 NE        -19.2670   14.7270  -19.9970 N.pl3     1 ARG        -0.2723
     68 CZ        -19.1460   15.0710  -18.7130 C.cat     1 ARG         0.2882
     69 NH1       -18.0280   15.6270  -18.2720 N.pl3     1 ARG        -0.2849
     70 NH2       -20.1450   14.8540  -17.8620 N.pl3     1 ARG        -0.2849
     71 O         -14.5819   11.8972  -24.2371 O.co2     1 ARG        -0.5666
     72 H1         -9.8628    4.3912   -2.2309 H         1 PRO         0.2035
     73 H2         -9.3561    5.3277   -0.9756 H         1 PRO         0.2035
     74 H3         -9.5552    7.1746   -2.0964 H         1 PRO         0.1099
     75 H4         -7.4702    7.1854   -3.1559 H         1 PRO         0.0347
     76 H5         -8.3639    6.6675   -4.6254 H         1 PRO         0.0347
     77 H6         -6.4037    5.1471   -3.6181 H         1 PRO         0.0320
     78 H7         -7.9038    4.3946   -4.2585 H         1 PRO         0.0320
     79 H8         -7.8165    3.4918   -2.0583 H         1 PRO         0.0814
     80 H9         -7.1599    5.0121   -1.3624 H         1 PRO         0.0814
     81 H10       -13.2296    6.5235   -4.7204 H         1 PRO         0.0802
     82 H11       -14.3705    8.4931   -4.2743 H         1 PRO         0.0313
     83 H12       -13.0525    9.4807   -4.9913 H         1 PRO         0.0313
     84 H13       -13.5492    8.7081   -2.1647 H         1 PRO         0.0287
     85 H14       -12.6880   10.1309   -2.8435 H         1 PRO         0.0287
     86 H15       -10.6584    9.0219   -2.9187 H         1 PRO         0.0524
     87 H16       -11.4131    7.9853   -1.6607 H         1 PRO         0.0524
     88 H17       -13.6602    7.1268   -6.9603 H         1 TYR         0.1885
     89 H18       -11.0565    7.3647   -8.3938 H         1 TYR         0.0821
     90 H19       -12.1445    6.1015  -10.1519 H         1 TYR         0.0453
     91 H20       -13.7337    6.2571   -9.3291 H         1 TYR         0.0453
     92 H21       -10.3644    5.3108   -8.0159 H         1 TYR         0.0530
     93 H22       -14.4091    4.1615   -8.7804 H         1 TYR         0.0530
     94 H23        -9.9524    3.1635   -6.8493 H         1 TYR         0.0525
     95 H24       -14.0363    2.0196   -7.6266 H         1 TYR         0.0525
     96 H25       -10.8973    1.1969   -6.2083 H         1 TYR         0.2458
     97 H26       -10.9643    8.3373  -10.4059 H         1 LEU         0.1883
     98 H27       -12.8525   10.6535  -10.6152 H         1 LEU         0.0800
     99 H28       -10.8143   11.6568  -11.8130 H         1 LEU         0.0315
    100 H29        -9.9001   10.2261  -11.2266 H         1 LEU         0.0315
    101 H30       -10.5114   10.8692   -8.8667 H         1 LEU         0.0298
    102 H31        -8.9611   12.8272   -8.8572 H         1 LEU         0.0232
    103 H32        -9.2099   13.0409  -10.6233 H         1 LEU         0.0232
    104 H33        -8.3752   11.5755  -10.0046 H         1 LEU         0.0232
    105 H34       -12.6042   12.0670   -9.4727 H         1 LEU         0.0232
    106 H35       -11.6584   13.2669  -10.4173 H         1 LEU         0.0232
    107 H36       -11.4806   13.1880   -8.6316 H         1 LEU         0.0232
    108 H37       -13.8372    9.0806  -14.7123 H         1 PRO         0.0802
    109 H38       -15.8253   10.3824  -14.4184 H         1 PRO         0.0313
    110 H39       -15.0306   11.3240  -15.7255 H         1 PRO         0.0313
    111 H40       -15.7153   12.5973  -13.5233 H         1 PRO         0.0287
    112 H41       -14.0604   12.8614  -14.1699 H         1 PRO         0.0287
    113 H42       -13.5443   12.1727  -11.9715 H         1 PRO         0.0524
    114 H43       -14.9672   11.0805  -11.8769 H         1 PRO         0.0524
    115 H44       -13.0989    9.3563  -16.9031 H         1 ARG         0.1883
    116 H45       -10.6585   10.9825  -17.1474 H         1 ARG         0.0800
    117 H46       -10.6617    8.7296  -18.1081 H         1 ARG         0.0313
    118 H47       -10.4239    9.9839  -19.3717 H         1 ARG         0.0313
    119 H48       -13.0595    9.7763  -19.6007 H         1 ARG         0.0301
    120 H49       -12.7667    8.1613  -18.8709 H         1 ARG         0.0301
    121 H50       -11.0969    7.6764  -20.6356 H         1 ARG         0.0689
    122 H51       -11.4181    9.2831  -21.3719 H         1 ARG         0.0689
    123 H52       -13.8897    7.8414  -20.9389 H         1 ARG         0.2642
    124 H53       -11.9706    7.2273  -24.4550 H         1 ARG         0.2615
    125 H54       -11.0624    7.9165  -23.0828 H         1 ARG         0.2615
    126 H55       -15.0033    6.9840  -22.6537 H         1 ARG         0.2615
    127 H56       -14.1809    6.6918  -24.2096 H         1 ARG         0.2615
    128 H57       -12.5139   14.4068  -19.4116 H         1 PRO         0.0802
    129 H58       -10.8561   15.3091  -20.8885 H         1 PRO         0.0313
    130 H59       -10.4142   13.6929  -21.5361 H         1 PRO         0.0313
    131 H60        -9.7494   14.9140  -18.8112 H         1 PRO         0.0287
    132 H61        -8.6528   14.0901  -19.9711 H         1 PRO         0.0287
    133 H62        -9.4143   11.9555  -19.3755 H         1 PRO         0.0524
    134 H63        -9.7450   12.7916  -17.8204 H         1 PRO         0.0524
    135 H64       -14.2136   14.5835  -20.8585 H         1 ARG         0.1875
    136 H65       -15.3711   12.1864  -21.8723 H         1 ARG         0.0726
    137 H66       -16.7073   14.0488  -23.3053 H         1 ARG         0.0307
    138 H67       -15.9807   15.1070  -22.0488 H         1 ARG         0.0307
    139 H68       -16.9761   13.3177  -20.3904 H         1 ARG         0.0301
    140 H69       -18.0458   12.9303  -21.7805 H         1 ARG         0.0301
    141 H70       -18.7466   15.2455  -21.9531 H         1 ARG         0.0689
    142 H71       -17.5710   15.7345  -20.6860 H         1 ARG         0.0689
    143 H72       -20.1487   14.2808  -20.2876 H         1 ARG         0.2642
    144 H73       -17.9403   15.8904  -17.2801 H         1 ARG         0.2615
    145 H74       -17.2461   15.7961  -18.9209 H         1 ARG         0.2615
    146 H75       -21.0193   14.4222  -18.1936 H         1 ARG         0.2615
    147 H76       -20.0442   15.1178  -16.8715 H         1 ARG         0.2615
@<TRIPOS>BOND
     1    1    2 1  
     2    1    7 1  
     3    2    3 1  
     4    2    5 1  
     5    3    4 2  
     6    3    8 am 
     7    5    6 1  
     8    6    7 1  
     9    8    9 1  
    10    8   14 1  
    11    9   10 1  
    12    9   12 1  
    13   10   11 2  
    14   10   15 am 
    15   12   13 1  
    16   13   14 1  
    17   15   16 1  
    18   16   17 1  
    19   16   19 1  
    20   17   18 2  
    21   17   27 am 
    22   19   20 1  
    23   20   21 ar 
    24   20   22 ar 
    25   21   23 ar 
    26   22   24 ar 
    27   23   25 ar 
    28   24   25 ar 
    29   25   26 1  
    30   27   28 1  
    31   28   29 1  
    32   28   31 1  
    33   29   30 2  
    34   29   35 am 
    35   31   32 1  
    36   32   33 1  
    37   32   34 1  
    38   35   36 1  
    39   35   41 1  
    40   36   37 1  
    41   36   39 1  
    42   37   38 2  
    43   37   42 am 
    44   39   40 1  
    45   40   41 1  
    46   42   43 1  
    47   43   44 1  
    48   43   46 1  
    49   44   45 2  
    50   44   53 am 
    51   46   47 1  
    52   47   48 1  
    53   48   49 1  
    54   49   50 ar 
    55   50   51 ar 
    56   50   52 ar 
    57   53   54 1  
    58   53   59 1  
    59   54   55 1  
    60   54   57 1  
    61   55   56 2  
    62   55   60 am 
    63   57   58 1  
    64   58   59 1  
    65   60   61 1  
    66   61   62 1  
    67   61   64 1  
    68   62   63 ar 
    69   64   65 1  
    70   65   66 1  
    71   66   67 1  
    72   67   68 ar 
    73   68   69 ar 
    74   68   70 ar 
    75   62   71 ar 
    76    1   72 1  
    77    1   73 1  
    78    2   74 1  
    79    5   75 1  
    80    5   76 1  
    81    6   77 1  
    82    6   78 1  
    83    7   79 1  
    84    7   80 1  
    85    9   81 1  
    86   12   82 1  
    87   12   83 1  
    88   13   84 1  
    89   13   85 1  
    90   14   86 1  
    91   14   87 1  
    92   15   88 1  
    93   16   89 1  
    94   19   90 1  
    95   19   91 1  
    96   21   92 1  
    97   22   93 1  
    98   23   94 1  
    99   24   95 1  
   100   26   96 1  
   101   27   97 1  
   102   28   98 1  
   103   31   99 1  
   104   31  100 1  
   105   32  101 1  
   106   33  102 1  
   107   33  103 1  
   108   33  104 1  
   109   34  105 1  
   110   34  106 1  
   111   34  107 1  
   112   36  108 1  
   113   39  109 1  
   114   39  110 1  
   115   40  111 1  
   116   40  112 1  
   117   41  113 1  
   118   41  114 1  
   119   42  115 1  
   120   43  116 1  
   121   46  117 1  
   122   46  118 1  
   123   47  119 1  
   124   47  120 1  
   125   48  121 1  
   126   48  122 1  
   127   49  123 1  
   128   51  124 1  
   129   51  125 1  
   130   52  126 1  
   131   52  127 1  
   132   54  128 1  
   133   57  129 1  
   134   57  130 1  
   135   58  131 1  
   136   58  132 1  
   137   59  133 1  
   138   59  134 1  
   139   60  135 1  
   140   61  136 1  
   141   64  137 1  
   142   64  138 1  
   143   65  139 1  
   144   65  140 1  
   145   66  141 1  
   146   66  142 1  
   147   67  143 1  
   148   69  144 1  
   149   69  145 1  
   150   70  146 1  
   151   70  147 1  
@<TRIPOS>SUBSTRUCTURE
     1 PRO         1

