4ezo_ligand
  -I-interpret- 

146150  0  0  0  0  0  0  0  0999 V2000
   -9.2080    5.1030   -1.9470 N   0  3  0  0  0
   -9.4300    6.2980   -2.7490 C   0  0  0  0  0
  -10.6580    6.1900   -3.6750 C   0  0  0  0  0
  -10.7810    5.2040   -4.4120 O   0  0  0  0  0
   -8.1320    6.4160   -3.5800 C   0  0  0  0  0
   -7.4940    5.0710   -3.4940 C   0  0  0  0  0
   -7.8410    4.5900   -2.1160 C   0  0  0  0  0
  -11.5320    7.2140   -3.6500 N   0  0  0  0  0
  -12.5460    7.3850   -4.6970 C   0  0  0  0  0
  -11.9140    7.5780   -6.0850 C   0  0  0  0  0
  -10.7650    7.9910   -6.2430 O   0  0  0  0  0
  -13.2850    8.6710   -4.2840 C   0  0  0  0  0
  -12.8180    9.0410   -2.9160 C   0  0  0  0  0
  -11.4980    8.3470   -2.6960 C   0  0  0  0  0
  -12.6930    7.3340   -7.1070 N   0  0  0  0  0
  -12.1550    7.3640   -8.4500 C   0  0  0  0  0
  -12.6150    8.5330   -9.2800 C   0  0  0  0  0
  -13.7300    9.0260   -9.1520 O   0  0  0  0  0
  -12.6500    6.1470   -9.1760 C   0  0  0  0  0
  -12.4130    4.8710   -8.4770 C   0  0  0  0  0
  -11.1640    4.5840   -7.9290 C   0  0  0  0  0
  -13.4350    3.9410   -8.3590 C   0  0  0  0  0
  -10.9260    3.3820   -7.2730 C   0  0  0  0  0
  -13.2300    2.7390   -7.7130 C   0  0  0  0  0
  -11.9770    2.4590   -7.1730 C   0  0  0  0  0
  -11.7920    1.2520   -6.5230 O   0  0  0  0  0
  -11.7800    8.8900  -10.2350 N   0  0  0  0  0
  -12.0230   10.0720  -11.0440 C   0  0  0  0  0
  -12.3700    9.6830  -12.4800 C   0  0  0  0  0
  -11.6960    8.8340  -13.0490 O   0  0  0  0  0
  -10.7510   10.8930  -11.0240 C   0  0  0  0  0
  -10.5160   11.5850   -9.7020 C   0  0  0  0  0
   -9.1710   12.3080   -9.8040 C   0  0  0  0  0
  -11.6430   12.5970   -9.5450 C   0  0  0  0  0
  -13.3580   10.3560  -13.0900 N   0  0  0  0  0
  -13.6620   10.1470  -14.5070 C   0  0  0  0  0
  -12.5650   10.6810  -15.4710 C   0  0  0  0  0
  -11.7920   11.5650  -15.1120 O   0  0  0  0  0
  -14.9360   10.9710  -14.6880 C   0  0  0  0  0
  -14.7530   12.1160  -13.7520 C   0  0  0  0  0
  -14.1730   11.4660  -12.5330 C   0  0  0  0  0
  -12.5010   10.1250  -16.6760 N   0  0  0  0  0
  -11.5630   10.6320  -17.6660 C   0  0  0  0  0
  -12.2190   11.8200  -18.3610 C   0  0  0  0  0
  -13.4140   12.0480  -18.1770 O   0  0  0  0  0
  -11.1430    9.5490  -18.6620 C   0  0  0  0  0
  -12.3130    8.9840  -19.4430 C   0  0  0  0  0
  -11.8520    8.4630  -20.7810 C   0  0  0  0  0
  -13.0120    7.9140  -21.4730 N   0  0  0  0  0
  -13.0310    7.5010  -22.7310 C   0  0  0  0  0
  -11.9410    7.5520  -23.4780 N   0  0  0  0  0
  -14.1540    7.0240  -23.2350 N   0  0  0  0  0
  -11.4260   12.6010  -19.1130 N   0  0  0  0  0
  -11.9700   13.6470  -19.9920 C   0  0  0  0  0
  -12.9120   13.0430  -21.0430 C   0  0  0  0  0
  -12.6110   11.9680  -21.5760 O   0  0  0  0  0
  -10.7040   14.2500  -20.6330 C   0  0  0  0  0
   -9.6660   14.0970  -19.5430 C   0  0  0  0  0
   -9.9790   12.7680  -18.8950 C   0  0  0  0  0
  -14.0490   13.7050  -21.3070 N   0  0  0  0  0
  -15.0630   13.1770  -22.2380 C   0  0  0  0  0
  -14.5120   13.0130  -23.6560 C   0  0  0  0  0
  -13.9880   13.9990  -24.2398 O   0  0  0  0  0
  -16.3000   14.0810  -22.2840 C   0  0  0  0  0
  -17.4110   13.7040  -21.3240 C   0  0  0  0  0
  -18.2450   14.9340  -21.0250 C   0  0  0  0  0
  -19.2670   14.7270  -19.9970 N   0  0  0  0  0
  -19.1460   15.0710  -18.7130 C   0  0  0  0  0
  -18.0280   15.6270  -18.2720 N   0  0  0  0  0
  -20.1450   14.8540  -17.8620 N   0  0  0  0  0
  -14.5819   11.8972  -24.2371 O   0  0  0  0  0
   -9.8639    4.3831   -2.2500 H   0  0  0  0  0
   -9.3452    5.3419   -0.9649 H   0  0  0  0  0
   -9.6385    7.1657   -2.1231 H   0  0  0  0  0
   -7.4772    7.1986   -3.1968 H   0  0  0  0  0
   -8.3379    6.6998   -4.6121 H   0  0  0  0  0
   -6.4171    5.1142   -3.6568 H   0  0  0  0  0
   -7.8524    4.3941   -4.2696 H   0  0  0  0  0
   -7.7699    3.5079   -2.0064 H   0  0  0  0  0
   -7.1505    4.9422   -1.3497 H   0  0  0  0  0
  -13.1908    6.5099   -4.7787 H   0  0  0  0  0
  -14.3626    8.5074   -4.2863 H   0  0  0  0  0
  -13.0717    9.4748   -4.9887 H   0  0  0  0  0
  -13.5449    8.7327   -2.1646 H   0  0  0  0  0
  -12.7044   10.1214   -2.8271 H   0  0  0  0  0
  -10.6480    9.0078   -2.8661 H   0  0  0  0  0
  -11.3686    8.0180   -1.6649 H   0  0  0  0  0
  -13.6796    7.1226   -6.9573 H   0  0  0  0  0
  -11.0727    7.4232   -8.3352 H   0  0  0  0  0
  -12.1050    6.0974  -10.1186 H   0  0  0  0  0
  -13.7297    6.2564   -9.2774 H   0  0  0  0  0
  -10.3600    5.3148   -8.0164 H   0  0  0  0  0
  -14.4145    4.1628   -8.7827 H   0  0  0  0  0
   -9.9471    3.1623   -6.8470 H   0  0  0  0  0
  -14.0408    2.0157   -7.6262 H   0  0  0  0  0
  -12.6083    0.7475   -6.5489 H   0  0  0  0  0
  -10.9480    8.3262  -10.4093 H   0  0  0  0  0
  -12.8641   10.6390  -10.6452 H   0  0  0  0  0
  -10.8405   11.6628  -11.7905 H   0  0  0  0  0
   -9.9153   10.2149  -11.1971 H   0  0  0  0  0
  -10.4990   10.8993   -8.8549 H   0  0  0  0  0
   -8.3834   11.5812  -10.0029 H   0  0  0  0  0
   -9.2108   13.0339  -10.6162 H   0  0  0  0  0
   -8.9642   12.8221   -8.8654 H   0  0  0  0  0
  -11.6095   13.3073  -10.3711 H   0  0  0  0  0
  -12.6006   12.0763   -9.5505 H   0  0  0  0  0
  -11.5228   13.1292   -8.6014 H   0  0  0  0  0
  -13.7441    9.0863  -14.7442 H   0  0  0  0  0
  -15.8367   10.3967  -14.4709 H   0  0  0  0  0
  -15.0780   11.2956  -15.7188 H   0  0  0  0  0
  -15.6831   12.6458  -13.5460 H   0  0  0  0  0
  -14.1110   12.8966  -14.1602 H   0  0  0  0  0
  -13.5835   12.1569  -11.9303 H   0  0  0  0  0
  -14.9386   11.1167  -11.8402 H   0  0  0  0  0
  -13.1109    9.3409  -16.9076 H   0  0  0  0  0
  -10.6429   10.9505  -17.1759 H   0  0  0  0  0
  -10.6929    8.7325  -18.0974 H   0  0  0  0  0
  -10.4526   10.0003  -19.3746 H   0  0  0  0  0
  -13.0462    9.7743  -19.6040 H   0  0  0  0  0
  -12.7543    8.1640  -18.8764 H   0  0  0  0  0
  -11.0942    7.6915  -20.6446 H   0  0  0  0  0
  -11.4094    9.2684  -21.3672 H   0  0  0  0  0
  -13.8812    7.8421  -20.9441 H   0  0  0  0  0
  -11.9682    7.2229  -24.4431 H   0  0  0  0  0
  -11.0730    7.9205  -23.0891 H   0  0  0  0  0
  -14.9930    6.9770  -22.6569 H   0  0  0  0  0
  -12.5714   14.3902  -19.4685 H   0  0  0  0  0
  -10.8402   15.2855  -20.9448 H   0  0  0  0  0
  -10.4206   13.7510  -21.5597 H   0  0  0  0  0
   -9.7065   14.9173  -18.8263 H   0  0  0  0  0
   -8.6519   14.1250  -19.9417 H   0  0  0  0  0
   -9.3984   11.9511  -19.3236 H   0  0  0  0  0
   -9.7145   12.7500  -17.8377 H   0  0  0  0  0
  -14.2169   14.6010  -20.8495 H   0  0  0  0  0
  -15.3444   12.1949  -21.8580 H   0  0  0  0  0
  -14.0161   14.7642  -23.6608 H   0  0  0  0  0
  -16.7127   13.9958  -23.2892 H   0  0  0  0  0
  -15.9681   15.0801  -22.0017 H   0  0  0  0  0
  -16.9820   13.3177  -20.3995 H   0  0  0  0  0
  -18.0392   12.9348  -21.7733 H   0  0  0  0  0
  -18.7629   15.2043  -21.9452 H   0  0  0  0  0
  -17.5660   15.7022  -20.6550 H   0  0  0  0  0
  -20.1401   14.2851  -20.2848 H   0  0  0  0  0
  -17.2537   15.7944  -18.9146 H   0  0  0  0  0
  -20.0452   15.1152  -16.8811 H   0  0  0  0  0
  -21.0109   14.4264  -18.1903 H   0  0  0  0  0
  1  2  1  0  0  0
  1  7  1  0  0  0
  2  3  1  0  0  0
  2  5  1  0  0  0
  3  4  2  0  0  0
  3  8  1  0  0  0
  5  6  1  0  0  0
  6  7  1  0  0  0
  8  9  1  0  0  0
  8 14  1  0  0  0
  9 10  1  0  0  0
  9 12  1  0  0  0
 10 11  2  0  0  0
 10 15  1  0  0  0
 12 13  1  0  0  0
 13 14  1  0  0  0
 15 16  1  0  0  0
 16 17  1  0  0  0
 16 19  1  0  0  0
 17 18  2  0  0  0
 17 27  1  0  0  0
 19 20  1  0  0  0
 20 21  4  0  0  0
 20 22  4  0  0  0
 21 23  4  0  0  0
 22 24  4  0  0  0
 23 25  4  0  0  0
 24 25  4  0  0  0
 25 26  1  0  0  0
 27 28  1  0  0  0
 28 29  1  0  0  0
 28 31  1  0  0  0
 29 30  2  0  0  0
 29 35  1  0  0  0
 31 32  1  0  0  0
 32 33  1  0  0  0
 32 34  1  0  0  0
 35 36  1  0  0  0
 35 41  1  0  0  0
 36 37  1  0  0  0
 36 39  1  0  0  0
 37 38  2  0  0  0
 37 42  1  0  0  0
 39 40  1  0  0  0
 40 41  1  0  0  0
 42 43  1  0  0  0
 43 44  1  0  0  0
 43 46  1  0  0  0
 44 45  2  0  0  0
 44 53  1  0  0  0
 46 47  1  0  0  0
 47 48  1  0  0  0
 48 49  1  0  0  0
 49 50  1  0  0  0
 50 51  1  0  0  0
 50 52  2  0  0  0
 53 54  1  0  0  0
 53 59  1  0  0  0
 54 55  1  0  0  0
 54 57  1  0  0  0
 55 56  2  0  0  0
 55 60  1  0  0  0
 57 58  1  0  0  0
 58 59  1  0  0  0
 60 61  1  0  0  0
 61 62  1  0  0  0
 61 64  1  0  0  0
 62 63  1  0  0  0
 64 65  1  0  0  0
 65 66  1  0  0  0
 66 67  1  0  0  0
 67 68  1  0  0  0
 68 69  2  0  0  0
 68 70  1  0  0  0
 62 71  2  0  0  0
  1 72  1  0  0  0
  1 73  1  0  0  0
  2 74  1  0  0  0
  5 75  1  0  0  0
  5 76  1  0  0  0
  6 77  1  0  0  0
  6 78  1  0  0  0
  7 79  1  0  0  0
  7 80  1  0  0  0
  9 81  1  0  0  0
 12 82  1  0  0  0
 12 83  1  0  0  0
 13 84  1  0  0  0
 13 85  1  0  0  0
 14 86  1  0  0  0
 14 87  1  0  0  0
 15 88  1  0  0  0
 16 89  1  0  0  0
 19 90  1  0  0  0
 19 91  1  0  0  0
 21 92  1  0  0  0
 22 93  1  0  0  0
 23 94  1  0  0  0
 24 95  1  0  0  0
 26 96  1  0  0  0
 27 97  1  0  0  0
 28 98  1  0  0  0
 31 99  1  0  0  0
 31100  1  0  0  0
 32101  1  0  0  0
 33102  1  0  0  0
 33103  1  0  0  0
 33104  1  0  0  0
 34105  1  0  0  0
 34106  1  0  0  0
 34107  1  0  0  0
 36108  1  0  0  0
 39109  1  0  0  0
 39110  1  0  0  0
 40111  1  0  0  0
 40112  1  0  0  0
 41113  1  0  0  0
 41114  1  0  0  0
 42115  1  0  0  0
 43116  1  0  0  0
 46117  1  0  0  0
 46118  1  0  0  0
 47119  1  0  0  0
 47120  1  0  0  0
 48121  1  0  0  0
 48122  1  0  0  0
 49123  1  0  0  0
 51124  1  0  0  0
 51125  1  0  0  0
 52126  1  0  0  0
 54127  1  0  0  0
 57128  1  0  0  0
 57129  1  0  0  0
 58130  1  0  0  0
 58131  1  0  0  0
 59132  1  0  0  0
 59133  1  0  0  0
 60134  1  0  0  0
 61135  1  0  0  0
 63136  1  0  0  0
 64137  1  0  0  0
 64138  1  0  0  0
 65139  1  0  0  0
 65140  1  0  0  0
 66141  1  0  0  0
 66142  1  0  0  0
 67143  1  0  0  0
 69144  1  0  0  0
 70145  1  0  0  0
 70146  1  0  0  0
M  END
$$$$
