4rce_ligand
  -I-interpret- 

 55 59  0  0  0  0  0  0  0  0999 V2000
   71.2230   50.2230    8.7880 C   0  0  0  0  0
   67.1770   50.5960    9.9640 C   0  0  0  0  0
   70.3380   49.3650    8.1350 C   0  0  0  0  0
   70.8260   48.5420    7.1230 C   0  0  0  0  0
   69.2170   52.1190   11.0550 C   0  0  0  0  0
   69.5180   51.1640   10.1040 C   0  0  0  0  0
   68.4980   50.3920    9.5560 C   0  0  0  0  0
   68.8310   49.3460    8.5000 C   0  0  0  0  0
   67.9210   52.3240   11.4700 C   0  0  0  0  0
   66.8910   51.5690   10.9430 C   0  0  0  0  0
   72.5640   50.2390    8.4410 C   0  0  0  0  0
   73.7690   46.9020    6.0200 C   0  0  0  0  0
   74.1880   46.0560    5.0980 N   0  0  0  0  0
   73.5650   45.9520    3.9370 C   0  0  0  0  0
   72.4940   46.6900    3.6700 N   0  0  0  0  0
   72.0050   47.5560    4.5500 C   0  0  0  0  0
   72.6490   47.7010    5.7740 C   0  0  0  0  0
   72.1770   48.5610    6.7650 C   0  0  0  0  0
   73.0500   49.4050    7.4350 C   0  0  0  0  0
   70.8380   51.0610    9.7830 O   0  0  0  0  0
   65.6450   51.8950   11.4160 O   0  0  0  0  0
   64.6850   50.8950   11.4310 C   0  0  0  0  0
   63.4980   51.4220   12.2390 C   0  0  0  0  0
   62.4750   51.9380   11.2340 C   0  0  0  0  0
   62.9780   50.2420   13.0670 C   0  0  0  0  0
   63.8840   52.5590   13.2000 C   0  0  0  0  0
   68.3730   47.9530    8.9400 C   0  0  0  0  0
   67.4470   47.5160    7.9040 O   0  0  0  0  0
   67.2290   48.5610    7.0590 C   0  0  0  0  0
   66.3440   48.5000    6.0770 N   0  0  0  0  0
   67.9870   49.6250    7.3150 N   0  0  0  0  0
   66.3716   50.0055    9.5272 H   0  0  0  0  0
   70.1429   47.8717    6.6013 H   0  0  0  0  0
   70.0188   52.7201   11.4838 H   0  0  0  0  0
   67.7059   53.0864   12.2187 H   0  0  0  0  0
   73.2470   50.9113    8.9604 H   0  0  0  0  0
   74.2953   46.9775    6.9715 H   0  0  0  0  0
   73.9353   45.2511    3.1888 H   0  0  0  0  0
   71.1158   48.1420    4.3174 H   0  0  0  0  0
   74.1089   49.4162    7.1768 H   0  0  0  0  0
   65.0836   49.9861   11.8817 H   0  0  0  0  0
   64.3774   50.6421   10.4163 H   0  0  0  0  0
   62.9221   52.7339   10.6384 H   0  0  0  0  0
   62.1668   51.1224   10.5799 H   0  0  0  0  0
   61.6070   52.3255   11.7674 H   0  0  0  0  0
   62.6691   49.4386   12.3982 H   0  0  0  0  0
   63.7701   49.8844   13.7249 H   0  0  0  0  0
   62.1263   50.5666   13.6648 H   0  0  0  0  0
   64.6322   52.1982   13.9058 H   0  0  0  0  0
   64.2933   53.3924   12.6290 H   0  0  0  0  0
   62.9991   52.8894   13.7439 H   0  0  0  0  0
   67.8999   47.9747    9.9217 H   0  0  0  0  0
   69.2130   47.2666    9.0468 H   0  0  0  0  0
   65.7986   47.6500    5.9340 H   0  0  0  0  0
   67.9867   50.4937    6.7805 H   0  0  0  0  0
  3  1  4  0  0  0
  1 11  4  0  0  0
  1 20  1  0  0  0
  7  2  4  0  0  0
  2 10  4  0  0  0
  4  3  4  0  0  0
  3  8  1  0  0  0
 18  4  4  0  0  0
  6  5  4  0  0  0
  5  9  4  0  0  0
  7  6  4  0  0  0
 20  6  1  0  0  0
  8  7  1  0  0  0
  8 27  1  0  0  0
  8 31  1  0  0  0
 10  9  4  0  0  0
 10 21  1  0  0  0
 11 19  4  0  0  0
 12 13  4  0  0  0
 17 12  4  0  0  0
 13 14  4  0  0  0
 15 14  4  0  0  0
 16 15  4  0  0  0
 17 16  4  0  0  0
 17 18  1  0  0  0
 18 19  4  0  0  0
 21 22  1  0  0  0
 22 23  1  0  0  0
 23 24  1  0  0  0
 23 25  1  0  0  0
 23 26  1  0  0  0
 27 28  1  0  0  0
 28 29  1  0  0  0
 29 30  2  0  0  0
 29 31  1  0  0  0
  2 32  1  0  0  0
  4 33  1  0  0  0
  5 34  1  0  0  0
  9 35  1  0  0  0
 11 36  1  0  0  0
 12 37  1  0  0  0
 14 38  1  0  0  0
 16 39  1  0  0  0
 19 40  1  0  0  0
 22 41  1  0  0  0
 22 42  1  0  0  0
 24 43  1  0  0  0
 24 44  1  0  0  0
 24 45  1  0  0  0
 25 46  1  0  0  0
 25 47  1  0  0  0
 25 48  1  0  0  0
 26 49  1  0  0  0
 26 50  1  0  0  0
 26 51  1  0  0  0
 27 52  1  0  0  0
 27 53  1  0  0  0
 30 54  1  0  0  0
 31 55  1  0  0  0
M  END
$$$$
