2oji_ligand
  -I-interpret- 

 42 45  0  0  0  0  0  0  0  0999 V2000
  -15.0190   16.5280   41.7210 C   0  0  0  0  0
  -15.1330   16.9420   43.0660 C   0  0  0  0  0
  -15.8810   16.1680   43.9790 C   0  0  0  0  0
  -16.5060   14.9910   43.5450 C   0  0  0  0  0
  -16.3990   14.5670   42.1920 C   0  0  0  0  0
  -15.6460   15.3510   41.2780 C   0  0  0  0  0
  -17.1040   13.3000   41.7970 C   0  0  0  0  0
  -14.0950   17.4800   40.6190 Cl  0  0  0  0  0
  -18.3780   13.0100   42.1990 C   0  0  0  0  0
  -18.7230   11.8160   41.7000 N   0  0  0  0  0
  -17.6560   11.3130   40.9530 N   0  0  0  0  0
  -16.6530   12.1800   40.9800 C   0  0  0  0  0
  -15.3240   11.9530   40.2680 C   0  0  0  0  0
  -15.1460   11.2170   39.1160 C   0  0  0  0  0
  -13.8340   11.2270   38.7860 N   0  0  0  0  0
  -13.1400   11.9770   39.7230 C   0  0  0  0  0
  -14.0460   12.4250   40.6380 C   0  0  0  0  0
  -11.6870   12.2440   39.7410 C   0  0  0  0  0
  -10.9670   11.6280   38.9740 O   0  0  0  0  0
  -11.1610   13.1890   40.6010 N   0  0  0  0  0
   -9.7020   13.5030   40.6460 C   0  0  0  0  0
   -9.3670   14.6840   39.7390 C   0  0  0  0  0
   -8.0520   14.8510   39.2360 C   0  0  0  0  0
   -7.7490   15.9470   38.3900 C   0  0  0  0  0
   -8.7530   16.8810   38.0400 C   0  0  0  0  0
  -10.0600   16.7300   38.5320 C   0  0  0  0  0
  -10.3690   15.6310   39.3840 C   0  0  0  0  0
  -14.6442   17.8577   43.3987 H   0  0  0  0  0
  -15.9723   16.4845   45.0180 H   0  0  0  0  0
  -17.0808   14.3937   44.2528 H   0  0  0  0  0
  -15.5548   15.0410   40.2370 H   0  0  0  0  0
  -19.0081   13.6448   42.8219 H   0  0  0  0  0
  -15.9347   10.7092   38.5609 H   0  0  0  0  0
  -13.8217   13.0427   41.5076 H   0  0  0  0  0
  -11.7916   13.6897   41.2271 H   0  0  0  0  0
   -9.1463   12.6304   40.3027 H   0  0  0  0  0
   -9.4318   13.7614   41.6699 H   0  0  0  0  0
   -7.2732   14.1357   39.5002 H   0  0  0  0  0
   -6.7363   16.0713   38.0065 H   0  0  0  0  0
   -8.5115   17.7197   37.3870 H   0  0  0  0  0
  -10.8333   17.4496   38.2634 H   0  0  0  0  0
  -11.3824   15.5140   39.7679 H   0  0  0  0  0
  1  2  4  0  0  0
  1  6  4  0  0  0
  1  8  1  0  0  0
  2  3  4  0  0  0
  3  4  4  0  0  0
  4  5  4  0  0  0
  5  6  4  0  0  0
  5  7  1  0  0  0
  7  9  4  0  0  0
  7 12  4  0  0  0
  9 10  4  0  0  0
 10 11  4  0  0  0
 11 12  4  0  0  0
 12 13  1  0  0  0
 13 14  4  0  0  0
 13 17  4  0  0  0
 14 15  4  0  0  0
 15 16  4  0  0  0
 16 17  4  0  0  0
 16 18  1  0  0  0
 18 19  2  0  0  0
 18 20  1  0  0  0
 20 21  1  0  0  0
 21 22  1  0  0  0
 22 23  4  0  0  0
 22 27  4  0  0  0
 23 24  4  0  0  0
 24 25  4  0  0  0
 25 26  4  0  0  0
 26 27  4  0  0  0
  2 28  1  0  0  0
  3 29  1  0  0  0
  4 30  1  0  0  0
  6 31  1  0  0  0
  9 32  1  0  0  0
 14 33  1  0  0  0
 17 34  1  0  0  0
 20 35  1  0  0  0
 21 36  1  0  0  0
 21 37  1  0  0  0
 23 38  1  0  0  0
 24 39  1  0  0  0
 25 40  1  0  0  0
 26 41  1  0  0  0
 27 42  1  0  0  0
M  END
$$$$
