5i58_ligand
  -I-interpret- 

 44 46  0  0  0  0  0  0  0  0999 V2000
  -17.9950  -13.7650   28.0420 C   0  0  0  0  0
  -17.7610  -12.9400   26.9900 C   0  0  0  0  0
  -16.7760  -12.0020   27.0320 C   0  0  0  0  0
  -16.0490  -11.8930   28.1350 C   0  0  0  0  0
  -16.3040  -12.6980   29.1810 C   0  0  0  0  0
  -17.2790  -13.6550   29.1340 C   0  0  0  0  0
  -16.3230   -8.6970   28.6700 C   0  0  0  0  0
  -17.6950   -9.3610   28.6970 C   0  0  0  0  0
  -18.4540   -9.3500   27.5680 C   0  0  0  0  0
  -20.0890  -10.4930   28.5800 C   0  0  0  0  0
  -19.3440  -10.5180   29.7330 C   0  0  0  0  0
  -21.4850  -11.1330   28.4880 C   0  0  0  0  0
  -23.6810  -11.1960   27.3430 C   0  0  0  0  0
  -23.5860  -12.5890   26.7730 C   0  0  0  0  0
  -22.4530  -13.4360   26.7830 C   0  0  0  0  0
  -23.8570  -14.8710   25.7100 C   0  0  0  0  0
  -24.2670  -16.1200   25.0440 C   0  0  0  0  0
  -15.3130   -9.5130   29.2500 N   0  0  0  0  0
  -19.6050   -9.8830   27.5050 N   0  0  0  0  0
  -18.2010   -9.9730   29.7960 N   0  0  0  0  0
  -21.8010  -12.0040   29.2570 O   0  0  0  0  0
  -22.4360  -10.6720   27.4630 N   0  0  0  0  0
  -24.7640  -13.5190   25.9820 S   0  0  0  0  0
  -22.6210  -14.6330   26.1900 N   0  0  0  0  0
  -14.7740  -10.6860   28.3080 S   0  0  0  0  0
  -13.6230  -11.3520   29.0510 O   0  0  0  0  0
  -14.2870  -10.1750   27.0870 O   0  0  0  0  0
  -18.7200  -13.1520   25.6190 Cl  0  0  0  0  0
  -18.9340  -14.6530   27.9540 F   0  0  0  0  0
  -16.5887  -11.3536   26.1761 H   0  0  0  0  0
  -15.7168  -12.5844   30.0923 H   0  0  0  0  0
  -17.4568  -14.3117   29.9856 H   0  0  0  0  0
  -16.3838   -7.7747   29.2477 H   0  0  0  0  0
  -16.0554   -8.5191   27.6284 H   0  0  0  0  0
  -18.0566   -8.8621   26.6780 H   0  0  0  0  0
  -19.7446  -11.0181   30.6148 H   0  0  0  0  0
  -24.1550  -11.2358   28.3237 H   0  0  0  0  0
  -24.2764  -10.5706   26.6778 H   0  0  0  0  0
  -21.5086  -13.1398   27.2396 H   0  0  0  0  0
  -25.0985  -16.5654   25.5901 H   0  0  0  0  0
  -24.5775  -15.9005   24.0225 H   0  0  0  0  0
  -23.4271  -16.8146   25.0285 H   0  0  0  0  0
  -14.9597   -9.3612   30.1948 H   0  0  0  0  0
  -22.1486   -9.9332   26.8212 H   0  0  0  0  0
  2  1  4  0  0  0
  6  1  4  0  0  0
  1 29  1  0  0  0
  3  2  4  0  0  0
  2 28  1  0  0  0
  4  3  4  0  0  0
  4  5  4  0  0  0
 25  4  1  0  0  0
  5  6  4  0  0  0
  7  8  1  0  0  0
 18  7  1  0  0  0
  8  9  4  0  0  0
  8 20  4  0  0  0
  9 19  4  0  0  0
 11 10  4  0  0  0
 10 12  1  0  0  0
 19 10  4  0  0  0
 20 11  4  0  0  0
 12 21  2  0  0  0
 12 22  1  0  0  0
 13 14  1  0  0  0
 22 13  1  0  0  0
 14 15  4  0  0  0
 14 23  4  0  0  0
 15 24  4  0  0  0
 16 17  1  0  0  0
 23 16  4  0  0  0
 16 24  4  0  0  0
 18 25  1  0  0  0
 25 26  2  0  0  0
 25 27  2  0  0  0
  3 30  1  0  0  0
  5 31  1  0  0  0
  6 32  1  0  0  0
  7 33  1  0  0  0
  7 34  1  0  0  0
  9 35  1  0  0  0
 11 36  1  0  0  0
 13 37  1  0  0  0
 13 38  1  0  0  0
 15 39  1  0  0  0
 17 40  1  0  0  0
 17 41  1  0  0  0
 17 42  1  0  0  0
 18 43  1  0  0  0
 22 44  1  0  0  0
M  END
$$$$
