1fd0_ligand
  -I-interpret- 

 57 60  0  0  0  0  0  0  0  0999 V2000
   34.5290   18.2070   88.4740 C   0  0  0  0  0
   35.5050   17.2840   87.8740 C   0  0  0  0  0
   35.5970   15.9690   88.4400 C   0  0  0  0  0
   36.5130   15.0790   87.8920 C   0  0  0  0  0
   37.3450   15.4230   86.8080 C   0  0  0  0  0
   37.2450   16.7270   86.2600 C   0  0  0  0  0
   36.3270   17.6400   86.8010 C   0  0  0  0  0
   42.8340   14.1030   82.0500 C   0  0  0  0  0
   43.2380   13.3710   80.7710 C   0  0  0  0  0
   44.6680   13.7450   80.3470 C   0  0  0  0  0
   44.9870   15.1890   80.4830 C   0  0  0  0  0
   44.8750   15.6980   81.9340 C   0  0  0  0  0
   43.6020   15.1700   82.5710 C   0  0  0  0  0
   42.2530   13.7000   79.6710 C   0  0  0  0  0
   43.2180   11.8570   81.0480 C   0  0  0  0  0
   44.7610   17.2230   81.7530 C   0  0  0  0  0
   46.0920   15.3970   82.8230 C   0  0  0  0  0
   33.9460   17.8990   89.4960 O   0  0  0  0  0
   34.3440   19.3010   87.8490 O   0  0  0  0  0
   38.2610   14.4850   86.2710 C   0  0  0  0  0
   39.0980   14.7970   85.2080 C   0  0  0  0  0
   38.9400   16.1130   84.7060 C   0  0  0  0  0
   38.0800   17.0570   85.1760 C   0  0  0  0  0
   41.3030   14.3980   83.9430 C   0  0  0  0  0
   41.6950   13.7340   82.7510 C   0  0  0  0  0
   43.1920   15.8040   83.7470 C   0  0  0  0  0
   42.0870   15.4270   84.4090 C   0  0  0  0  0
   40.0980   13.8980   84.5460 C   0  0  0  0  0
   39.9290   12.5750   84.4770 N   0  0  0  0  0
   38.8160   12.0060   85.0150 O   0  0  0  0  0
   34.9649   15.6755   89.2781 H   0  0  0  0  0
   36.5907   14.0780   88.3163 H   0  0  0  0  0
   36.2538   18.6420   86.3781 H   0  0  0  0  0
   44.7661   13.4926   79.2912 H   0  0  0  0  0
   45.3494   13.2026   81.0025 H   0  0  0  0  0
   44.2693   15.7453   79.8801 H   0  0  0  0  0
   46.0180   15.3327   80.1599 H   0  0  0  0  0
   41.2545   13.3832   79.9724 H   0  0  0  0  0
   42.2559   14.7752   79.4921 H   0  0  0  0  0
   42.5413   13.1778   78.7587 H   0  0  0  0  0
   43.9216   11.6259   81.8478 H   0  0  0  0  0
   42.2139   11.5570   81.3478 H   0  0  0  0  0
   43.5044   11.3197   80.1439 H   0  0  0  0  0
   45.6503   17.5947   81.2439 H   0  0  0  0  0
   43.8774   17.4518   81.1572 H   0  0  0  0  0
   44.6749   17.6981   82.7302 H   0  0  0  0  0
   46.2409   14.3187   82.8800 H   0  0  0  0  0
   46.9781   15.8652   82.3944 H   0  0  0  0  0
   45.9171   15.7943   83.8228 H   0  0  0  0  0
   34.9107   19.3255   87.0745 H   0  0  0  0  0
   38.3102   13.4868   86.7061 H   0  0  0  0  0
   39.5683   16.3964   83.8616 H   0  0  0  0  0
   38.0386   18.0474   84.7228 H   0  0  0  0  0
   41.0847   12.9122   82.3765 H   0  0  0  0  0
   43.7872   16.6291   84.1382 H   0  0  0  0  0
   41.8076   15.9430   85.3276 H   0  0  0  0  0
   38.8476   11.0558   84.8820 H   0  0  0  0  0
  1 19  1  0  0  0
  1 18  2  0  0  0
  1  2  1  0  0  0
  2  7  4  0  0  0
  2  3  4  0  0  0
  3  4  4  0  0  0
  4  5  4  0  0  0
  5 20  4  0  0  0
  5  6  4  0  0  0
  6 23  4  0  0  0
  6  7  4  0  0  0
 23 22  4  0  0  0
 22 21  4  0  0  0
 21 28  1  0  0  0
 21 20  4  0  0  0
 28 29  2  0  0  0
 28 24  1  0  0  0
 24 27  4  0  0  0
 24 25  4  0  0  0
 25  8  4  0  0  0
  8 13  4  0  0  0
  8  9  1  0  0  0
  9 15  1  0  0  0
  9 14  1  0  0  0
  9 10  1  0  0  0
 10 11  1  0  0  0
 11 12  1  0  0  0
 12 17  1  0  0  0
 12 16  1  0  0  0
 12 13  1  0  0  0
 13 26  4  0  0  0
 26 27  4  0  0  0
 29 30  1  0  0  0
  3 31  1  0  0  0
  4 32  1  0  0  0
  7 33  1  0  0  0
 10 34  1  0  0  0
 10 35  1  0  0  0
 11 36  1  0  0  0
 11 37  1  0  0  0
 14 38  1  0  0  0
 14 39  1  0  0  0
 14 40  1  0  0  0
 15 41  1  0  0  0
 15 42  1  0  0  0
 15 43  1  0  0  0
 16 44  1  0  0  0
 16 45  1  0  0  0
 16 46  1  0  0  0
 17 47  1  0  0  0
 17 48  1  0  0  0
 17 49  1  0  0  0
 19 50  1  0  0  0
 20 51  1  0  0  0
 22 52  1  0  0  0
 23 53  1  0  0  0
 25 54  1  0  0  0
 26 55  1  0  0  0
 27 56  1  0  0  0
 30 57  1  0  0  0
M  END
$$$$
