6htc_ligand
  -I-interpret- 

 87 89  0  0  0  0  0  0  0  0999 V2000
   65.9630 -132.2730   40.3870 C   0  0  0  0  0
   65.4360 -133.3930   41.0480 C   0  0  0  0  0
   64.7400 -133.2570   42.2710 C   0  0  0  0  0
   64.1510 -134.3130   43.0560 C   0  0  0  0  0
   64.1000 -135.6750   42.3610 C   0  0  0  0  0
   64.0040 -138.2840   42.7930 C   0  0  0  0  0
   61.7930 -135.9540   39.2680 C   0  0  0  0  0
   61.5160 -134.7400   37.1040 C   0  0  0  0  0
   56.4410 -134.8740   33.3100 C   0  0  0  0  0
   55.1220 -135.1570   33.9430 C   0  0  0  0  0
   54.9710 -134.2520   35.0890 O   0  0  0  0  0
   56.0590 -134.2980   36.0260 C   0  0  0  0  0
   57.3240 -133.9150   35.3490 C   0  0  0  0  0
   57.5580 -134.9260   34.2790 N   0  3  0  0  0
   58.7850 -134.7070   33.5070 C   0  0  0  0  0
   59.9480 -135.2060   34.3810 C   0  0  0  0  0
   60.0020 -136.3960   34.6920 O   0  0  0  0  0
   60.8470 -134.2840   34.7760 N   0  0  0  0  0
   61.9870 -134.6610   35.6340 C   0  0  0  0  0
   63.1350 -133.6530   35.4930 C   0  0  0  0  0
   60.6780 -133.9440   37.5330 O   0  0  0  0  0
   62.0890 -135.7220   37.8370 N   0  0  0  0  0
   61.1280 -137.3260   39.4430 C   0  0  0  0  0
   59.7790 -137.3070   39.0830 C   0  0  0  0  0
   59.4000 -137.6360   37.7850 C   0  0  0  0  0
   58.0530 -137.6340   37.4140 C   0  0  0  0  0
   57.0520 -137.3090   38.3480 C   0  0  0  0  0
   55.7010 -137.2700   38.0890 O   0  0  0  0  0
   54.6980 -136.9800   39.0890 C   0  0  0  0  0
   57.4460 -136.9800   39.6500 C   0  0  0  0  0
   58.7940 -136.9850   40.0210 C   0  0  0  0  0
   63.1080 -135.9450   40.0780 C   0  0  0  0  0
   64.1800 -136.1760   39.5140 O   0  0  0  0  0
   62.9670 -135.7050   41.4060 N   0  0  0  0  0
   65.8300 -130.9870   40.9110 C   0  0  0  0  0
   65.1440 -130.8350   42.1140 C   0  0  0  0  0
   64.6170 -131.9530   42.7790 C   0  0  0  0  0
   63.9690 -136.8260   43.4290 C   0  0  0  0  0
   62.6880 -136.6340   44.0670 O   0  0  0  0  0
   64.3200 -139.5600   43.7510 C   0  0  0  0  0
   64.9990 -138.3970   41.5900 C   0  0  0  0  0
   62.6560 -138.5060   42.2640 O   0  0  0  0  0
   66.4885 -132.4110   39.4421 H   0  0  0  0  0
   65.5653 -134.3834   40.6116 H   0  0  0  0  0
   63.1203 -134.0211   43.2574 H   0  0  0  0  0
   64.7727 -134.4330   43.9432 H   0  0  0  0  0
   65.0251 -135.8335   41.8068 H   0  0  0  0  0
   61.1275 -135.1666   39.6219 H   0  0  0  0  0
   56.4046 -133.8677   32.8928 H   0  0  0  0  0
   56.6194 -135.6350   32.5503 H   0  0  0  0  0
   55.0750 -136.1952   34.2718 H   0  0  0  0  0
   54.3163 -134.9978   33.2263 H   0  0  0  0  0
   56.1532 -135.3104   36.4188 H   0  0  0  0  0
   55.8618 -133.6016   36.8410 H   0  0  0  0  0
   58.1536 -133.8973   36.0557 H   0  0  0  0  0
   57.2518 -132.9123   34.9278 H   0  0  0  0  0
   57.6359 -135.8219   34.7604 H   0  0  0  0  0
   58.9074 -133.6522   33.2608 H   0  0  0  0  0
   58.7506 -135.2453   32.5598 H   0  0  0  0  0
   60.7386 -133.3143   34.4787 H   0  0  0  0  0
   62.3593 -135.6360   35.3196 H   0  0  0  0  0
   62.7928 -132.6678   35.8100 H   0  0  0  0  0
   63.9712 -133.9669   36.1177 H   0  0  0  0  0
   63.4537 -133.6106   34.4515 H   0  0  0  0  0
   62.7619 -136.3361   37.3781 H   0  0  0  0  0
   61.1948 -137.6040   40.4948 H   0  0  0  0  0
   61.6419 -138.0373   38.7965 H   0  0  0  0  0
   60.1616 -137.8979   37.0505 H   0  0  0  0  0
   57.7748 -137.8867   36.3909 H   0  0  0  0  0
   54.7539 -137.7235   39.8841 H   0  0  0  0  0
   54.8768 -135.9881   39.5041 H   0  0  0  0  0
   53.7098 -137.0105   38.6301 H   0  0  0  0  0
   56.6886 -136.7152   40.3878 H   0  0  0  0  0
   59.0774 -136.7373   41.0439 H   0  0  0  0  0
   62.0283 -135.5357   41.7674 H   0  0  0  0  0
   66.2511 -130.1250   40.3936 H   0  0  0  0  0
   65.0156 -129.8407   42.5418 H   0  0  0  0  0
   64.0935 -131.8042   43.7234 H   0  0  0  0  0
   64.8136 -136.7689   44.1156 H   0  0  0  0  0
   62.6535 -135.7568   44.4555 H   0  0  0  0  0
   65.3034 -139.4373   44.2048 H   0  0  0  0  0
   63.5629 -139.6221   44.5327 H   0  0  0  0  0
   64.3047 -140.4726   43.1552 H   0  0  0  0  0
   64.7019 -137.6987   40.8076 H   0  0  0  0  0
   66.0065 -138.1569   41.9297 H   0  0  0  0  0
   64.9791 -139.4139   41.1980 H   0  0  0  0  0
   62.6103 -139.3770   41.8628 H   0  0  0  0  0
  2  1  4  0  0  0
  1 35  4  0  0  0
  3  2  4  0  0  0
  4  3  1  0  0  0
  3 37  4  0  0  0
  5  4  1  0  0  0
 34  5  1  0  0  0
  5 38  1  0  0  0
 38  6  1  0  0  0
  6 40  1  0  0  0
  6 41  1  0  0  0
  6 42  1  0  0  0
  7 22  1  0  0  0
  7 23  1  0  0  0
 32  7  1  0  0  0
  8 19  1  0  0  0
  8 21  2  0  0  0
 22  8  1  0  0  0
  9 10  1  0  0  0
 14  9  1  0  0  0
 10 11  1  0  0  0
 12 11  1  0  0  0
 13 12  1  0  0  0
 14 13  1  0  0  0
 15 14  1  0  0  0
 16 15  1  0  0  0
 16 17  2  0  0  0
 18 16  1  0  0  0
 19 18  1  0  0  0
 19 20  1  0  0  0
 23 24  1  0  0  0
 24 25  4  0  0  0
 24 31  4  0  0  0
 25 26  4  0  0  0
 26 27  4  0  0  0
 27 28  1  0  0  0
 30 27  4  0  0  0
 28 29  1  0  0  0
 31 30  4  0  0  0
 32 33  2  0  0  0
 32 34  1  0  0  0
 35 36  4  0  0  0
 36 37  4  0  0  0
 38 39  1  0  0  0
  1 43  1  0  0  0
  2 44  1  0  0  0
  4 45  1  0  0  0
  4 46  1  0  0  0
  5 47  1  0  0  0
  7 48  1  0  0  0
  9 49  1  0  0  0
  9 50  1  0  0  0
 10 51  1  0  0  0
 10 52  1  0  0  0
 12 53  1  0  0  0
 12 54  1  0  0  0
 13 55  1  0  0  0
 13 56  1  0  0  0
 14 57  1  0  0  0
 15 58  1  0  0  0
 15 59  1  0  0  0
 18 60  1  0  0  0
 19 61  1  0  0  0
 20 62  1  0  0  0
 20 63  1  0  0  0
 20 64  1  0  0  0
 22 65  1  0  0  0
 23 66  1  0  0  0
 23 67  1  0  0  0
 25 68  1  0  0  0
 26 69  1  0  0  0
 29 70  1  0  0  0
 29 71  1  0  0  0
 29 72  1  0  0  0
 30 73  1  0  0  0
 31 74  1  0  0  0
 34 75  1  0  0  0
 35 76  1  0  0  0
 36 77  1  0  0  0
 37 78  1  0  0  0
 38 79  1  0  0  0
 39 80  1  0  0  0
 40 81  1  0  0  0
 40 82  1  0  0  0
 40 83  1  0  0  0
 41 84  1  0  0  0
 41 85  1  0  0  0
 41 86  1  0  0  0
 42 87  1  0  0  0
M  END
$$$$
