2q93_ligand
  -I-interpret- 

 26 27  0  0  0  0  0  0  0  0999 V2000
   -6.7130    0.5580   10.3940 C   0  0  0  0  0
   -5.5430   -0.2640   10.3320 O   0  0  0  0  0
   -5.5330   -0.9980    9.1910 C   0  0  0  0  0
   -6.7030   -1.5420    8.6880 C   0  0  0  0  0
   -6.6890   -2.3080    7.5280 C   0  0  0  0  0
   -5.4820   -2.5300    6.8590 C   0  0  0  0  0
   -4.3140   -1.9880    7.3590 C   0  0  0  0  0
   -4.3260   -1.2260    8.5200 C   0  0  0  0  0
   -3.1240   -0.7230    9.0120 C   0  0  0  0  0
   -2.0230   -0.6610    8.2080 O   0  0  0  0  0
   -2.7990   -0.3240   10.2330 C   0  0  0  0  0
   -1.5040   -0.0070   10.2550 C   0  0  0  0  0
   -1.0270   -0.2130    9.0240 C   0  0  0  0  0
    0.4210   -0.0290    8.5760 C   0  0  0  0  0
    0.6760   -0.2470    7.3690 O   0  0  0  0  0
    1.2720    0.3200    9.4250 O   0  0  0  0  0
   -6.7262    1.2341    9.5391 H   0  0  0  0  0
   -7.6009   -0.0739   10.3729 H   0  0  0  0  0
   -6.6998    1.1376   11.3171 H   0  0  0  0  0
   -7.6453   -1.3676    9.2074 H   0  0  0  0  0
   -7.6152   -2.7336    7.1419 H   0  0  0  0  0
   -5.4625   -3.1276    5.9476 H   0  0  0  0  0
   -3.3729   -2.1602    6.8368 H   0  0  0  0  0
   -3.4800   -0.2645   11.0820 H   0  0  0  0  0
   -0.9403    0.3527   11.1158 H   0  0  0  0  0
   -0.1301   -0.5006    6.9135 H   0  0  0  0  0
  1  2  1  0  0  0
  2  3  1  0  0  0
  3  4  4  0  0  0
  3  8  4  0  0  0
  4  5  4  0  0  0
  5  6  4  0  0  0
  6  7  4  0  0  0
  7  8  4  0  0  0
  8  9  1  0  0  0
  9 10  4  0  0  0
  9 11  4  0  0  0
 10 13  4  0  0  0
 11 12  4  0  0  0
 12 13  4  0  0  0
 13 14  1  0  0  0
 14 15  1  0  0  0
 14 16  2  0  0  0
  1 17  1  0  0  0
  1 18  1  0  0  0
  1 19  1  0  0  0
  4 20  1  0  0  0
  5 21  1  0  0  0
  6 22  1  0  0  0
  7 23  1  0  0  0
 11 24  1  0  0  0
 12 25  1  0  0  0
 15 26  1  0  0  0
M  END
$$$$
