6njh_ligand
  -I-interpret- 

 44 46  0  0  0  0  0  0  0  0999 V2000
    1.4200  -17.6370   52.7150 Cl  0  0  0  0  0
    2.3270  -16.1420   52.9450 C   0  0  0  0  0
    2.1820  -15.4450   54.0970 C   0  0  0  0  0
    2.9230  -14.2960   54.2720 C   0  0  0  0  0
    3.8040  -13.8580   53.3150 C   0  0  0  0  0
    3.1870  -15.6830   51.9550 C   0  0  0  0  0
    3.8990  -14.5290   52.1520 C   0  0  0  0  0
    4.8710  -14.0990   51.1350 C   0  0  0  0  0
    6.2160  -13.9360   51.5180 N   0  0  0  0  0
    4.4620  -13.9770   49.8540 N   0  0  0  0  0
    5.3990  -13.6740   48.9490 C   0  0  0  0  0
    6.6480  -13.4740   49.3220 N   0  0  0  0  0
    7.0880  -13.5820   50.5720 C   0  0  0  0  0
    8.5920  -13.4230   50.8110 C   0  0  0  0  0
    8.9420  -12.8550   52.1380 C   0  0  0  0  0
    5.1050  -13.4460   47.6650 N   0  0  0  0  0
    3.8800  -13.1030   47.2490 C   0  0  0  0  0
    2.7200  -13.7240   47.7050 C   0  0  0  0  0
    1.4900  -13.2320   47.2950 C   0  0  0  0  0
    1.4150  -12.1710   46.4270 C   0  0  0  0  0
    2.5510  -11.5930   45.9740 C   0  0  0  0  0
    3.7910  -12.0510   46.3970 C   0  0  0  0  0
    0.0730  -11.6790   45.9420 C   0  0  0  0  0
   -0.2770  -10.3950   46.6350 C   0  0  0  0  0
    0.1760   -9.3160   46.2160 O   0  0  0  0  0
   -1.0930  -10.5300   47.7160 N   0  0  0  0  0
    1.4933  -15.7857   54.8701 H   0  0  0  0  0
    2.8067  -13.7221   55.1914 H   0  0  0  0  0
    4.4198  -12.9767   53.4947 H   0  0  0  0  0
    3.2950  -16.2395   51.0240 H   0  0  0  0  0
    8.9657  -12.7307   50.0566 H   0  0  0  0  0
    9.0321  -14.4190   50.7617 H   0  0  0  0  0
    8.4958  -11.8655   52.2374 H   0  0  0  0  0
    8.5604  -13.5076   52.9232 H   0  0  0  0  0
   10.0258  -12.7765   52.2238 H   0  0  0  0  0
    5.8473  -13.5375   46.9714 H   0  0  0  0  0
    2.7779  -14.5830   48.3735 H   0  0  0  0  0
    0.5739  -13.6921   47.6655 H   0  0  0  0  0
    2.4921  -10.7615   45.2717 H   0  0  0  0  0
    4.6987  -11.5626   46.0426 H   0  0  0  0  0
   -0.6875  -12.4277   46.1638 H   0  0  0  0  0
    0.1186  -11.5078   44.8665 H   0  0  0  0  0
   -1.3758   -9.7066   48.2475 H   0  0  0  0  0
   -1.4217  -11.4545   47.9945 H   0  0  0  0  0
  1  2  1  0  0  0
  2  3  4  0  0  0
  2  6  4  0  0  0
  3  4  4  0  0  0
  4  5  4  0  0  0
  5  7  4  0  0  0
  6  7  4  0  0  0
  7  8  1  0  0  0
  8  9  4  0  0  0
  8 10  4  0  0  0
  9 13  4  0  0  0
 10 11  4  0  0  0
 11 12  4  0  0  0
 11 16  1  0  0  0
 12 13  4  0  0  0
 13 14  1  0  0  0
 14 15  1  0  0  0
 16 17  1  0  0  0
 17 18  4  0  0  0
 17 22  4  0  0  0
 18 19  4  0  0  0
 19 20  4  0  0  0
 20 21  4  0  0  0
 20 23  1  0  0  0
 21 22  4  0  0  0
 23 24  1  0  0  0
 24 25  2  0  0  0
 24 26  1  0  0  0
  3 27  1  0  0  0
  4 28  1  0  0  0
  5 29  1  0  0  0
  6 30  1  0  0  0
 14 31  1  0  0  0
 14 32  1  0  0  0
 15 33  1  0  0  0
 15 34  1  0  0  0
 15 35  1  0  0  0
 16 36  1  0  0  0
 18 37  1  0  0  0
 19 38  1  0  0  0
 21 39  1  0  0  0
 22 40  1  0  0  0
 23 41  1  0  0  0
 23 42  1  0  0  0
 26 43  1  0  0  0
 26 44  1  0  0  0
M  END
$$$$
