5vcz_ligand
  -I-interpret- 

 67 70  0  0  0  0  0  0  0  0999 V2000
    8.7300   -5.7280   -1.4580 C   0  0  0  0  0
    0.7660   -0.4320   -4.7380 O   0  0  0  0  0
   14.1400   -4.2100   -2.1030 C   0  0  0  0  0
    4.0190    1.1640   -1.5230 N   0  0  0  0  0
    0.3080   -2.1490   -2.4080 Cl  0  0  0  0  0
    3.2700    0.5410   -5.9620 Cl  0  0  0  0  0
    5.0870    0.7690   -1.6250 C   0  0  0  0  0
    7.3650    1.1080   -1.6690 C   0  0  0  0  0
   10.1790   -1.1520   -1.5830 C   0  0  0  0  0
    8.0830   -3.0220   -1.7740 C   0  0  0  0  0
   13.9810   -3.0590   -1.0970 C   0  0  0  0  0
   12.7590   -2.1830   -1.4340 C   0  0  0  0  0
   17.6880   -8.6770   -1.6580 C   0  0  0  0  0
   15.5610   -5.6960   -0.5280 C   0  0  0  0  0
   15.0900   -6.2650   -2.7870 C   0  0  0  0  0
   16.8220   -6.5940   -0.5990 C   0  0  0  0  0
   16.3820   -7.0530   -2.9020 C   0  0  0  0  0
    8.6110    0.6360   -1.6400 N   0  0  0  0  0
    5.3740   -2.0010   -1.9980 N   0  0  0  0  0
    9.7670   -4.7570   -1.6520 O   0  0  0  0  0
   11.6370   -3.0630   -1.4660 O   0  0  0  0  0
    1.8910   -0.8170   -4.0880 C   0  0  0  0  0
    1.8190   -1.6220   -2.9690 C   0  0  0  0  0
    4.2890   -0.8270   -3.9080 C   0  0  0  0  0
    6.2750    0.2420   -1.7330 C   0  0  0  0  0
    4.2520   -1.6510   -2.7590 C   0  0  0  0  0
    9.3970   -3.4490   -1.6960 C   0  0  0  0  0
   10.4110   -2.5320   -1.5840 C   0  0  0  0  0
    6.4580   -1.1540   -1.8250 C   0  0  0  0  0
    8.8560   -0.7020   -1.6550 C   0  0  0  0  0
    7.7820   -1.6320   -1.7690 C   0  0  0  0  0
   15.3210   -5.1160   -1.8790 N   0  3  0  0  0
    2.9800   -2.0300   -2.3250 C   0  0  0  0  0
   16.5850   -7.6740   -1.5950 N   0  3  0  0  0
    0.2490    0.8360   -4.2420 C   0  0  0  0  0
    3.1330   -0.4120   -4.5570 C   0  0  0  0  0
    8.2272   -5.5362   -0.5101 H   0  0  0  0  0
    8.0103   -5.6569   -2.2735 H   0  0  0  0  0
    9.1670   -6.7264   -1.4434 H   0  0  0  0  0
   14.2868   -3.7480   -3.0793 H   0  0  0  0  0
   13.2508   -4.8323   -2.0024 H   0  0  0  0  0
    7.1964    2.1846   -1.6423 H   0  0  0  0  0
   11.0075   -0.4458   -1.5276 H   0  0  0  0  0
    7.2768   -3.7527   -1.8394 H   0  0  0  0  0
   14.8750   -2.4369   -1.1385 H   0  0  0  0  0
   13.8386   -3.4845   -0.1036 H   0  0  0  0  0
   12.8895   -1.6768   -2.3905 H   0  0  0  0  0
   12.6215   -1.3970   -0.6915 H   0  0  0  0  0
   18.6169   -8.1769   -1.9323 H   0  0  0  0  0
   17.8030   -9.1505   -0.6830 H   0  0  0  0  0
   17.4471   -9.4337   -2.4046 H   0  0  0  0  0
   15.7114   -4.8982    0.1993 H   0  0  0  0  0
   14.6993   -6.2865   -0.2169 H   0  0  0  0  0
   14.2995   -6.9013   -2.3892 H   0  0  0  0  0
   14.7828   -5.9075   -3.7698 H   0  0  0  0  0
   17.0205   -7.0307    0.3798 H   0  0  0  0  0
   17.6841   -5.9978   -0.8982 H   0  0  0  0  0
   17.2186   -6.4074   -3.1693 H   0  0  0  0  0
   16.3219   -7.8013   -3.6923 H   0  0  0  0  0
    5.3948   -2.9181   -1.5519 H   0  0  0  0  0
    5.2558   -0.5073   -4.2968 H   0  0  0  0  0
   16.1387   -4.5258   -2.0318 H   0  0  0  0  0
    2.8950   -2.6706   -1.4472 H   0  0  0  0  0
   15.7579   -8.1951   -1.3038 H   0  0  0  0  0
    0.0121    0.7407   -3.1823 H   0  0  0  0  0
    1.0017    1.6123   -4.3790 H   0  0  0  0  0
   -0.6524    1.1006   -4.7948 H   0  0  0  0  0
 20  1  1  0  0  0
 22  2  1  0  0  0
  2 35  1  0  0  0
 11  3  1  0  0  0
  3 32  1  0  0  0
  7  4  3  0  0  0
 23  5  1  0  0  0
 36  6  1  0  0  0
 25  7  1  0  0  0
 18  8  4  0  0  0
  8 25  4  0  0  0
 28  9  4  0  0  0
  9 30  4  0  0  0
 27 10  4  0  0  0
 10 31  4  0  0  0
 12 11  1  0  0  0
 21 12  1  0  0  0
 34 13  1  0  0  0
 14 16  1  0  0  0
 32 14  1  0  0  0
 15 17  1  0  0  0
 32 15  1  0  0  0
 16 34  1  0  0  0
 17 34  1  0  0  0
 30 18  4  0  0  0
 19 26  1  0  0  0
 29 19  1  0  0  0
 27 20  1  0  0  0
 28 21  1  0  0  0
 23 22  4  0  0  0
 36 22  4  0  0  0
 33 23  4  0  0  0
 26 24  4  0  0  0
 24 36  4  0  0  0
 25 29  4  0  0  0
 26 33  4  0  0  0
 27 28  4  0  0  0
 29 31  4  0  0  0
 30 31  4  0  0  0
  1 37  1  0  0  0
  1 38  1  0  0  0
  1 39  1  0  0  0
  3 40  1  0  0  0
  3 41  1  0  0  0
  8 42  1  0  0  0
  9 43  1  0  0  0
 10 44  1  0  0  0
 11 45  1  0  0  0
 11 46  1  0  0  0
 12 47  1  0  0  0
 12 48  1  0  0  0
 13 49  1  0  0  0
 13 50  1  0  0  0
 13 51  1  0  0  0
 14 52  1  0  0  0
 14 53  1  0  0  0
 15 54  1  0  0  0
 15 55  1  0  0  0
 16 56  1  0  0  0
 16 57  1  0  0  0
 17 58  1  0  0  0
 17 59  1  0  0  0
 19 60  1  0  0  0
 24 61  1  0  0  0
 32 62  1  0  0  0
 33 63  1  0  0  0
 34 64  1  0  0  0
 35 65  1  0  0  0
 35 66  1  0  0  0
 35 67  1  0  0  0
M  END
$$$$
