6i0k_ligand
  -I-interpret- 

 19 19  0  0  0  0  0  0  0  0999 V2000
    9.3470    3.0550   10.6770 O   0  0  0  0  0
   10.3740    2.5610   10.1690 C   0  0  0  0  0
   10.5910    2.8970    9.0060 O   0  0  0  0  0
   11.0200    1.4200   10.8980 C   0  0  0  0  0
   10.9010    1.2850   12.2930 C   0  0  0  0  0
   10.3150    2.3190   13.1960 C   0  0  0  0  0
    9.4750    2.0120   14.0170 O   0  0  0  0  0
   10.7400    3.5050   13.1530 O   0  0  0  0  0
   11.6150    0.3780   10.1960 C   0  0  0  0  0
   12.0980   -0.7450   10.8420 C   0  0  0  0  0
   11.9630   -0.8470   12.2120 C   0  0  0  0  0
   11.3780    0.1710   12.9240 C   0  0  0  0  0
   12.4120   -2.2080   13.1100 S   0  0  0  0  0
    9.2553    2.7415   11.5797 H   0  0  0  0  0
   11.3946    3.5840   12.4553 H   0  0  0  0  0
   11.7027    0.4479    9.1118 H   0  0  0  0  0
   12.5803   -1.5415   10.2754 H   0  0  0  0  0
   11.2930    0.0892   14.0076 H   0  0  0  0  0
   12.1558   -1.9922   14.3971 H   0  0  0  0  0
  1  2  1  0  0  0
  2  3  2  0  0  0
  2  4  1  0  0  0
  4  5  4  0  0  0
  4  9  4  0  0  0
  5  6  1  0  0  0
  5 12  4  0  0  0
  6  7  2  0  0  0
  6  8  1  0  0  0
  9 10  4  0  0  0
 10 11  4  0  0  0
 11 12  4  0  0  0
 11 13  1  0  0  0
  1 14  1  0  0  0
  8 15  1  0  0  0
  9 16  1  0  0  0
 10 17  1  0  0  0
 12 18  1  0  0  0
 13 19  1  0  0  0
M  END
$$$$
