4gv1_ligand
  -I-interpret- 

 55 58  0  0  0  0  0  0  0  0999 V2000
  -16.1850   -0.4780    9.5900 Cl  0  0  0  0  0
  -16.7230    0.6360   10.7890 C   0  0  0  0  0
  -18.0150    0.5540   11.2850 C   0  0  0  0  0
  -18.4180    1.4630   12.2500 C   0  0  0  0  0
  -15.8340    1.6050   11.2380 C   0  0  0  0  0
  -16.2390    2.5110   12.2170 C   0  0  0  0  0
  -17.5340    2.4390   12.7240 C   0  0  0  0  0
  -18.0120    3.4110   13.7970 C   0  0  0  0  0
  -18.3850    2.6590   15.0960 C   0  0  0  0  0
  -18.7820    3.5840   16.2550 C   0  0  0  0  0
  -17.7080    4.4200   16.6410 O   0  0  0  0  0
  -19.1830    4.1310   13.2710 N   0  0  0  0  0
  -19.0740    5.1350   12.3450 C   0  0  0  0  0
  -17.9650    5.4540   11.9130 O   0  0  0  0  0
  -20.3800    5.7800   11.8600 C   0  0  0  0  0
  -20.0940    6.9710   10.9410 C   0  0  0  0  0
  -19.5770    6.5580    9.5390 C   0  0  0  0  0
  -21.1720    6.2410   13.0230 N   0  3  0  0  0
  -21.1950    4.6930   11.0970 C   0  0  0  0  0
  -20.5100    4.3260    9.7760 C   0  0  0  0  0
  -20.5900    5.5900    9.0610 N   0  0  0  0  0
  -21.6660    6.0240    8.2730 C   0  0  0  0  0
  -21.6200    7.3640    7.9470 N   0  0  0  0  0
  -22.6390    7.9730    7.2530 C   0  0  0  0  0
  -23.7110    7.2450    6.8310 N   0  0  0  0  0
  -22.7820    5.2800    7.8780 C   0  0  0  0  0
  -23.2330    3.9630    7.9850 C   0  0  0  0  0
  -24.4320    3.8200    7.3100 C   0  0  0  0  0
  -24.7380    5.0480    6.8510 N   0  0  0  0  0
  -23.7630    5.9140    7.1610 C   0  0  0  0  0
  -18.7011   -0.2114   10.9225 H   0  0  0  0  0
  -19.4334    1.4175   12.6438 H   0  0  0  0  0
  -14.8257    1.6564   10.8271 H   0  0  0  0  0
  -15.5474    3.2699   12.5828 H   0  0  0  0  0
  -17.2135    4.1116   14.0413 H   0  0  0  0  0
  -17.5041    2.1007   15.4128 H   0  0  0  0  0
  -19.2469    2.0306   14.8718 H   0  0  0  0  0
  -19.0640    2.9673   17.1084 H   0  0  0  0  0
  -19.6094    4.2133   15.9271 H   0  0  0  0  0
  -17.9877    4.9844   17.3655 H   0  0  0  0  0
  -20.1103    3.8729   13.6084 H   0  0  0  0  0
  -19.3166    7.5711   11.4138 H   0  0  0  0  0
  -21.0314    7.5091   10.7997 H   0  0  0  0  0
  -18.5762    6.1277    9.5756 H   0  0  0  0  0
  -19.4685    7.4106    8.8686 H   0  0  0  0  0
  -22.0381    6.6685   12.6951 H   0  0  0  0  0
  -21.3900    5.4444   13.6217 H   0  0  0  0  0
  -20.6316    6.9266   13.5506 H   0  0  0  0  0
  -22.1883    5.0862   10.8803 H   0  0  0  0  0
  -21.2590    3.8005   11.7194 H   0  0  0  0  0
  -20.9792    3.4929    9.2526 H   0  0  0  0  0
  -19.4937    3.9508    9.8958 H   0  0  0  0  0
  -22.5892    9.0408    7.0399 H   0  0  0  0  0
  -22.7171    3.1661    8.5207 H   0  0  0  0  0
  -25.0085    2.9044    7.1775 H   0  0  0  0  0
  1  2  1  0  0  0
  2  3  4  0  0  0
  2  5  4  0  0  0
  3  4  4  0  0  0
  4  7  4  0  0  0
  5  6  4  0  0  0
  6  7  4  0  0  0
  7  8  1  0  0  0
  8  9  1  0  0  0
  8 12  1  0  0  0
  9 10  1  0  0  0
 10 11  1  0  0  0
 12 13  1  0  0  0
 13 14  2  0  0  0
 13 15  1  0  0  0
 15 16  1  0  0  0
 15 18  1  0  0  0
 15 19  1  0  0  0
 16 17  1  0  0  0
 17 21  1  0  0  0
 19 20  1  0  0  0
 20 21  1  0  0  0
 21 22  1  0  0  0
 22 23  4  0  0  0
 22 26  4  0  0  0
 23 24  4  0  0  0
 24 25  4  0  0  0
 25 30  4  0  0  0
 26 27  4  0  0  0
 26 30  4  0  0  0
 27 28  4  0  0  0
 28 29  4  0  0  0
 29 30  4  0  0  0
  3 31  1  0  0  0
  4 32  1  0  0  0
  5 33  1  0  0  0
  6 34  1  0  0  0
  8 35  1  0  0  0
  9 36  1  0  0  0
  9 37  1  0  0  0
 10 38  1  0  0  0
 10 39  1  0  0  0
 11 40  1  0  0  0
 12 41  1  0  0  0
 16 42  1  0  0  0
 16 43  1  0  0  0
 17 44  1  0  0  0
 17 45  1  0  0  0
 18 46  1  0  0  0
 18 47  1  0  0  0
 18 48  1  0  0  0
 19 49  1  0  0  0
 19 50  1  0  0  0
 20 51  1  0  0  0
 20 52  1  0  0  0
 24 53  1  0  0  0
 27 54  1  0  0  0
 28 55  1  0  0  0
M  END
$$$$
