4yc0_ligand
  -I-interpret- 

 23 24  0  0  0  0  0  0  0  0999 V2000
    1.7390  -15.9100   -5.9550 C   0  0  0  0  0
    3.1210  -18.1750   -5.1750 C   0  0  0  0  0
    3.0150  -15.7520   -5.4550 C   0  0  0  0  0
    5.8690  -12.7250   -6.5940 O   0  0  0  0  0
    5.5360  -12.8390   -5.3650 C   0  0  0  0  0
    5.6490  -11.8450   -4.5940 O   0  0  0  0  0
    4.9730  -14.1570   -4.8410 C   0  0  0  0  0
    3.5600  -14.4150   -5.3830 C   0  0  0  0  0
    2.8750  -13.3480   -5.7090 N   0  0  0  0  0
    1.6040  -13.5510   -6.2090 N   0  0  0  0  0
    0.9940  -14.7170   -6.3400 C   0  0  0  0  0
   -0.1650  -14.7610   -6.7510 O   0  0  0  0  0
    1.1750  -17.1570   -6.0660 C   0  0  0  0  0
    1.8370  -18.3010   -5.6870 C   0  0  0  0  0
    3.7040  -16.9150   -5.0690 C   0  0  0  0  0
    3.6716  -19.0603   -4.8567 H   0  0  0  0  0
    5.7251  -13.5616   -7.0423 H   0  0  0  0  0
    4.9232  -14.1050   -3.7534 H   0  0  0  0  0
    5.6239  -14.9673   -5.1695 H   0  0  0  0  0
    1.0867  -12.7234   -6.5053 H   0  0  0  0  0
    0.1660  -17.2431   -6.4692 H   0  0  0  0  0
    1.3667  -19.2793   -5.7858 H   0  0  0  0  0
    4.7177  -16.8284   -4.6778 H   0  0  0  0  0
  3  1  4  0  0  0
  1 11  1  0  0  0
  1 13  4  0  0  0
  2 14  4  0  0  0
 15  2  4  0  0  0
  8  3  1  0  0  0
  3 15  4  0  0  0
  5  4  1  0  0  0
  5  6  2  0  0  0
  7  5  1  0  0  0
  7  8  1  0  0  0
  8  9  2  0  0  0
  9 10  1  0  0  0
 10 11  1  0  0  0
 11 12  2  0  0  0
 13 14  4  0  0  0
  2 16  1  0  0  0
  4 17  1  0  0  0
  7 18  1  0  0  0
  7 19  1  0  0  0
 10 20  1  0  0  0
 13 21  1  0  0  0
 14 22  1  0  0  0
 15 23  1  0  0  0
M  END
$$$$
