4a4x_ligand
  -I-interpret- 

 66 69  0  0  0  0  0  0  0  0999 V2000
    1.2240  -11.2850   16.2510 C   0  0  0  0  0
    1.8890  -10.7920   14.9790 C   0  0  0  0  0
    2.9760   -9.9420   15.2640 O   0  0  0  0  0
    3.5980   -9.1700   14.2160 C   0  0  0  0  0
    2.8980   -8.8900   13.0130 C   0  0  0  0  0
    3.5500   -8.1440   11.9820 C   0  0  0  0  0
    2.8640   -7.8730   10.7770 C   0  0  0  0  0
    2.2650   -8.9380   10.0870 C   0  0  0  0  0
    1.5690   -8.6450    8.8940 C   0  0  0  0  0
    0.9680   -9.6480    8.1500 C   0  0  0  0  0
    0.4320   -9.6100    6.8680 C   0  0  0  0  0
   -0.1010  -10.7660    6.3910 C   0  0  0  0  0
   -0.7060  -10.9090    4.9660 C   0  0  0  0  0
   -2.1260  -10.4630    4.8300 N   0  3  0  0  0
   -2.1770   -9.4200    3.8330 C   0  0  0  0  0
   -2.9190  -11.6100    4.3570 C   0  0  0  0  0
   -0.0600  -11.8900    7.2330 C   0  0  0  0  0
    0.7490  -11.2700    8.6110 S   0  0  0  0  0
    1.5100   -7.2860    8.4460 C   0  0  0  0  0
    2.0900   -6.2920    9.1310 N   0  0  0  0  0
    2.7650   -6.5400   10.2860 C   0  0  0  0  0
    3.3890   -5.4350   10.9960 N   0  0  0  0  0
    4.8640   -7.6810   12.1690 C   0  0  0  0  0
    5.5420   -7.9430   13.3750 C   0  0  0  0  0
    4.9140   -8.6910   14.3890 C   0  0  0  0  0
    5.6360   -8.9640   15.6410 C   0  0  0  0  0
    5.0290   -9.8180   16.6440 N   0  0  0  0  0
    6.7150   -8.4760   15.8100 O   0  0  0  0  0
    2.1380  -11.9040   13.9750 C   0  0  0  0  0
    3.3500  -12.6220   14.0180 C   0  0  0  0  0
    3.6150  -13.6560   13.0940 C   0  0  0  0  0
    2.6380  -13.9780   12.1330 C   0  0  0  0  0
    1.3850  -13.2650   12.1100 C   0  0  0  0  0
    1.1370  -12.2410   13.0240 C   0  0  0  0  0
   -0.1850  -11.4830   12.9270 C   0  0  0  0  0
   -0.8750  -11.4330   14.0880 F   0  0  0  0  0
    0.0310  -10.1920   12.5510 F   0  0  0  0  0
   -0.9080  -12.1140   12.0240 F   0  0  0  0  0
    0.2616  -11.7342   16.0057 H   0  0  0  0  0
    1.8623  -12.0284   16.7285 H   0  0  0  0  0
    1.0721  -10.4452   16.9291 H   0  0  0  0  0
    1.1876  -10.1519   14.4439 H   0  0  0  0  0
    1.8747   -9.2399   12.8768 H   0  0  0  0  0
    2.3349   -9.9597   10.4604 H   0  0  0  0  0
    0.4388   -8.6965    6.2733 H   0  0  0  0  0
   -0.6870  -11.9714    4.7230 H   0  0  0  0  0
   -0.1136  -10.2721    4.3091 H   0  0  0  0  0
   -2.4894  -10.1202    5.7193 H   0  0  0  0  0
   -1.5502   -8.5861    4.1490 H   0  0  0  0  0
   -1.8132   -9.8098    2.8823 H   0  0  0  0  0
   -3.2060   -9.0794    3.7176 H   0  0  0  0  0
   -2.5343  -11.9433    3.3932 H   0  0  0  0  0
   -2.8464  -12.4229    5.0795 H   0  0  0  0  0
   -3.9613  -11.3098    4.2494 H   0  0  0  0  0
   -0.4431  -12.8950    7.0559 H   0  0  0  0  0
    0.9788   -7.0545    7.5228 H   0  0  0  0  0
    3.9060   -5.6095   11.8577 H   0  0  0  0  0
    3.3097   -4.4854   10.6323 H   0  0  0  0  0
    5.3594   -7.1176   11.3783 H   0  0  0  0  0
    6.5540   -7.5663   13.5236 H   0  0  0  0  0
    5.5233  -10.0130   17.5146 H   0  0  0  0  0
    4.1078  -10.2235   16.4787 H   0  0  0  0  0
    4.0937  -12.3754   14.7758 H   0  0  0  0  0
    4.5611  -14.1964   13.1242 H   0  0  0  0  0
    2.8289  -14.7670   11.4056 H   0  0  0  0  0
    0.6262  -13.5281   11.3731 H   0  0  0  0  0
  1  2  1  0  0  0
  2  3  1  0  0  0
  2 29  1  0  0  0
  3  4  1  0  0  0
  4  5  4  0  0  0
  4 25  4  0  0  0
  5  6  4  0  0  0
  6  7  1  0  0  0
  6 23  4  0  0  0
  7  8  4  0  0  0
  7 21  4  0  0  0
  8  9  4  0  0  0
  9 10  1  0  0  0
  9 19  4  0  0  0
 10 11  4  0  0  0
 10 18  4  0  0  0
 11 12  4  0  0  0
 12 13  1  0  0  0
 12 17  4  0  0  0
 13 14  1  0  0  0
 14 15  1  0  0  0
 14 16  1  0  0  0
 17 18  4  0  0  0
 19 20  4  0  0  0
 20 21  4  0  0  0
 21 22  1  0  0  0
 23 24  4  0  0  0
 24 25  4  0  0  0
 25 26  1  0  0  0
 26 27  1  0  0  0
 26 28  2  0  0  0
 29 30  4  0  0  0
 29 34  4  0  0  0
 30 31  4  0  0  0
 31 32  4  0  0  0
 32 33  4  0  0  0
 33 34  4  0  0  0
 34 35  1  0  0  0
 35 36  1  0  0  0
 35 37  1  0  0  0
 35 38  1  0  0  0
  1 39  1  0  0  0
  1 40  1  0  0  0
  1 41  1  0  0  0
  2 42  1  0  0  0
  5 43  1  0  0  0
  8 44  1  0  0  0
 11 45  1  0  0  0
 13 46  1  0  0  0
 13 47  1  0  0  0
 14 48  1  0  0  0
 15 49  1  0  0  0
 15 50  1  0  0  0
 15 51  1  0  0  0
 16 52  1  0  0  0
 16 53  1  0  0  0
 16 54  1  0  0  0
 17 55  1  0  0  0
 19 56  1  0  0  0
 22 57  1  0  0  0
 22 58  1  0  0  0
 23 59  1  0  0  0
 24 60  1  0  0  0
 27 61  1  0  0  0
 27 62  1  0  0  0
 30 63  1  0  0  0
 31 64  1  0  0  0
 32 65  1  0  0  0
 33 66  1  0  0  0
M  END
$$$$
