5wyz_ligand
  -I-interpret- 

 32 34  0  0  0  0  0  0  0  0999 V2000
   57.5340  -26.8020   30.9860 O   0  0  0  0  0
   58.4220  -27.4820   31.7230 C   0  0  0  0  0
   59.1900  -28.5380   31.0790 C   0  0  0  0  0
   58.8950  -28.8680   29.6390 C   0  0  0  0  0
   60.1290  -29.2510   31.8450 C   0  0  0  0  0
   58.7080  -27.1360   33.0660 C   0  0  0  0  0
   59.6730  -27.8540   33.7850 C   0  0  0  0  0
   60.3710  -28.9120   33.1880 C   0  0  0  0  0
   61.3890  -29.6480   34.0000 C   0  0  0  0  0
   62.6750  -29.8640   33.5440 C   0  0  0  0  0
   63.6020  -30.6010   34.3280 C   0  0  0  0  0
   63.3210  -31.1350   35.5220 N   0  0  0  0  0
   61.0580  -30.2360   35.3160 C   0  0  0  0  0
   59.7930  -30.1250   35.8630 C   0  0  0  0  0
   59.4970  -30.6630   37.0870 C   0  0  0  0  0
   60.4900  -31.3260   37.7970 C   0  0  0  0  0
   60.0910  -31.7740   38.9970 O   0  0  0  0  0
   61.7710  -31.4860   37.3180 C   0  0  0  0  0
   62.0960  -30.9700   36.0700 C   0  0  0  0  0
   57.1036  -26.1418   31.5342 H   0  0  0  0  0
   57.8558  -29.1831   29.5453 H   0  0  0  0  0
   59.0652  -27.9850   29.0230 H   0  0  0  0  0
   59.5514  -29.6738   29.3104 H   0  0  0  0  0
   60.6765  -30.0774   31.3918 H   0  0  0  0  0
   58.1773  -26.3108   33.5408 H   0  0  0  0  0
   59.8830  -27.5863   34.8205 H   0  0  0  0  0
   62.9803  -29.4662   32.5762 H   0  0  0  0  0
   64.6075  -30.7406   33.9311 H   0  0  0  0  0
   59.0158  -29.5987   35.3088 H   0  0  0  0  0
   58.4924  -30.5719   37.5000 H   0  0  0  0  0
   60.8226  -32.2194   39.4305 H   0  0  0  0  0
   62.5204  -32.0108   37.9105 H   0  0  0  0  0
  1  2  1  0  0  0
  2  3  4  0  0  0
  2  6  4  0  0  0
  3  4  1  0  0  0
  3  5  4  0  0  0
  5  8  4  0  0  0
  6  7  4  0  0  0
  7  8  4  0  0  0
  8  9  1  0  0  0
  9 10  4  0  0  0
  9 13  4  0  0  0
 10 11  4  0  0  0
 11 12  4  0  0  0
 12 19  4  0  0  0
 13 14  4  0  0  0
 13 19  4  0  0  0
 14 15  4  0  0  0
 15 16  4  0  0  0
 16 17  1  0  0  0
 16 18  4  0  0  0
 18 19  4  0  0  0
  1 20  1  0  0  0
  4 21  1  0  0  0
  4 22  1  0  0  0
  4 23  1  0  0  0
  5 24  1  0  0  0
  6 25  1  0  0  0
  7 26  1  0  0  0
 10 27  1  0  0  0
 11 28  1  0  0  0
 14 29  1  0  0  0
 15 30  1  0  0  0
 17 31  1  0  0  0
 18 32  1  0  0  0
M  END
$$$$
