1c70_ligand
  -I-interpret- 

 98103  0  0  0  0  0  0  0  0999 V2000
    9.2130   23.9200    2.6960 N   0  3  0  0  0
    9.2320   23.8990    4.1620 C   0  0  0  0  0
   10.3950   24.7820    4.6440 C   0  0  0  0  0
   10.3890   24.8560    6.1620 C   0  0  0  0  0
   10.7510   23.8540    6.8230 O   0  0  0  0  0
   10.0480   26.0520    6.6740 N   0  0  0  0  0
   10.0400   26.3380    8.1330 C   0  0  0  0  0
    9.5350   27.7760    8.3410 C   0  0  0  0  0
   11.4640   26.2560    8.6960 C   0  0  0  0  0
    9.0790   25.3510    8.8630 C   0  0  0  0  0
   11.6710   24.2400    4.1300 N   0  3  0  0  0
   11.6610   24.1760    2.6430 C   0  0  0  0  0
   10.4460   23.3390    2.1640 C   0  0  0  0  0
   12.7950   25.0880    4.5620 C   0  0  0  0  0
   13.9980   24.2240    4.8280 C   0  0  0  0  0
   15.1190   24.9000    4.3380 O   0  0  0  0  0
   14.2440   23.9660    6.2840 C   0  0  0  0  0
   15.4490   23.1300    6.7380 C   0  0  0  0  0
   15.5560   23.1740    8.2650 C   0  0  0  0  0
   16.5840   22.1750    8.8200 C   0  0  0  0  0
   17.9720   22.3160    8.5250 C   0  0  0  0  0
   18.8750   21.4040    9.0630 C   0  0  0  0  0
   18.4030   20.3540    9.8720 C   0  0  0  0  0
   17.0430   20.1910   10.1550 C   0  0  0  0  0
   16.1260   21.1030    9.6350 C   0  0  0  0  0
   15.3170   21.6910    6.2250 C   0  0  0  0  0
   14.2920   21.0510    6.4710 O   0  0  0  0  0
   16.3950   21.2200    5.5770 N   0  0  0  0  0
   16.5420   19.7620    5.4030 C   0  0  0  0  0
   17.9850   19.3260    5.8830 C   0  0  0  0  0
   18.9080   20.2670    5.3540 O   0  0  0  0  0
   18.1730   18.0050    5.0670 C   0  0  0  0  0
   17.3740   18.2930    3.8190 C   0  0  0  0  0
   17.6360   17.7740    2.5530 C   0  0  0  0  0
   16.9120   18.2950    1.4880 C   0  0  0  0  0
   15.9700   19.3330    1.7130 C   0  0  0  0  0
   15.7440   19.8340    2.9960 C   0  0  0  0  0
   16.5100   19.3110    4.0150 C   0  0  0  0  0
    8.0010   23.2110    2.1710 C   0  0  0  0  0
    8.9420   17.2010    2.1820 C   0  0  0  0  0
    9.5700   18.4780    1.9380 C   0  0  0  0  0
    8.7650   19.6210    2.1370 C   0  0  0  0  0
    7.4530   19.5700    2.5920 C   0  0  0  0  0
    6.7990   18.3310    2.7810 C   0  0  0  0  0
    7.5540   17.1370    2.5700 C   0  0  0  0  0
    9.1560   20.8990    1.9530 O   0  0  0  0  0
    8.0760   21.6860    2.3730 C   0  0  0  0  0
    6.9360   20.8970    2.8340 C   0  0  0  0  0
    9.1613   24.8893    2.3825 H   0  0  0  0  0
    9.3657   22.8779    4.5191 H   0  0  0  0  0
    8.2881   24.2786    4.5531 H   0  0  0  0  0
   10.2783   25.7955    4.2603 H   0  0  0  0  0
    9.7824   26.7980    6.0311 H   0  0  0  0  0
    8.5298   27.8697    7.9301 H   0  0  0  0  0
    9.5156   28.0023    9.4071 H   0  0  0  0  0
   10.2030   28.4714    7.8327 H   0  0  0  0  0
   11.4493   26.5087    9.7562 H   0  0  0  0  0
   11.8462   25.2433    8.5678 H   0  0  0  0  0
   12.1051   26.9579    8.1627 H   0  0  0  0  0
    9.4425   24.3313    8.7361 H   0  0  0  0  0
    9.0456   25.5967    9.9244 H   0  0  0  0  0
    8.0794   25.4374    8.4371 H   0  0  0  0  0
   11.7826   23.2980    4.5051 H   0  0  0  0  0
   12.5819   23.7079    2.2953 H   0  0  0  0  0
   11.5865   25.1854    2.2384 H   0  0  0  0  0
   10.4089   23.3431    1.0746 H   0  0  0  0  0
   10.5478   22.3140    2.5205 H   0  0  0  0  0
   12.5206   25.6208    5.4724 H   0  0  0  0  0
   13.0299   25.8086    3.7786 H   0  0  0  0  0
   13.8172   23.2631    4.3463 H   0  0  0  0  0
   15.9043   24.3705    4.4945 H   0  0  0  0  0
   13.3795   23.3832    6.6019 H   0  0  0  0  0
   14.4319   24.9548    6.7025 H   0  0  0  0  0
   16.3645   23.5473    6.3187 H   0  0  0  0  0
   14.5809   22.9117    8.6753 H   0  0  0  0  0
   15.8783   24.1761    8.5480 H   0  0  0  0  0
   18.3211   23.1275    7.8865 H   0  0  0  0  0
   19.9412   21.5025    8.8590 H   0  0  0  0  0
   19.1186   19.6464   10.2907 H   0  0  0  0  0
   16.7043   19.3608   10.7747 H   0  0  0  0  0
   15.0632   20.9952    9.8519 H   0  0  0  0  0
   17.1004   21.8595    5.2112 H   0  0  0  0  0
   15.7082   19.3365    5.9614 H   0  0  0  0  0
   18.1130   19.2417    6.9622 H   0  0  0  0  0
   19.7971   20.0302    5.6279 H   0  0  0  0  0
   17.8367   17.1158    5.6002 H   0  0  0  0  0
   19.2173   17.7656    4.8663 H   0  0  0  0  0
   18.3792   16.9907    2.4041 H   0  0  0  0  0
   17.0670   17.9074    0.4811 H   0  0  0  0  0
   15.4145   19.7452    0.8706 H   0  0  0  0  0
   14.9956   20.6040    3.1833 H   0  0  0  0  0
    7.9350   23.4056    1.1005 H   0  0  0  0  0
    7.1327   23.5802    2.7168 H   0  0  0  0  0
    9.5185   16.2824    2.0727 H   0  0  0  0  0
   10.6090   18.5556    1.6176 H   0  0  0  0  0
    5.7513   18.2882    3.0785 H   0  0  0  0  0
    7.0760   16.1665    2.7036 H   0  0  0  0  0
    5.9766   21.2161    3.2412 H   0  0  0  0  0
  1 39  1  0  0  0
  1 13  1  0  0  0
  1  2  1  0  0  0
  2  3  1  0  0  0
  3 11  1  0  0  0
  3  4  1  0  0  0
  4  6  1  0  0  0
  4  5  2  0  0  0
  6  7  1  0  0  0
  7 10  1  0  0  0
  7  9  1  0  0  0
  7  8  1  0  0  0
 11 14  1  0  0  0
 11 12  1  0  0  0
 12 13  1  0  0  0
 14 15  1  0  0  0
 15 17  1  0  0  0
 15 16  1  0  0  0
 17 18  1  0  0  0
 18 26  1  0  0  0
 18 19  1  0  0  0
 19 20  1  0  0  0
 20 25  4  0  0  0
 20 21  4  0  0  0
 21 22  4  0  0  0
 22 23  4  0  0  0
 23 24  4  0  0  0
 24 25  4  0  0  0
 26 28  1  0  0  0
 26 27  2  0  0  0
 28 29  1  0  0  0
 29 38  1  0  0  0
 29 30  1  0  0  0
 30 32  1  0  0  0
 30 31  1  0  0  0
 32 33  1  0  0  0
 33 38  4  0  0  0
 33 34  4  0  0  0
 34 35  4  0  0  0
 35 36  4  0  0  0
 36 37  4  0  0  0
 37 38  4  0  0  0
 39 47  1  0  0  0
 47 48  4  0  0  0
 47 46  4  0  0  0
 46 42  4  0  0  0
 42 43  4  0  0  0
 42 41  4  0  0  0
 41 40  4  0  0  0
 40 45  4  0  0  0
 45 44  4  0  0  0
 44 43  4  0  0  0
 43 48  4  0  0  0
  1 49  1  0  0  0
  2 50  1  0  0  0
  2 51  1  0  0  0
  3 52  1  0  0  0
  6 53  1  0  0  0
  8 54  1  0  0  0
  8 55  1  0  0  0
  8 56  1  0  0  0
  9 57  1  0  0  0
  9 58  1  0  0  0
  9 59  1  0  0  0
 10 60  1  0  0  0
 10 61  1  0  0  0
 10 62  1  0  0  0
 11 63  1  0  0  0
 12 64  1  0  0  0
 12 65  1  0  0  0
 13 66  1  0  0  0
 13 67  1  0  0  0
 14 68  1  0  0  0
 14 69  1  0  0  0
 15 70  1  0  0  0
 16 71  1  0  0  0
 17 72  1  0  0  0
 17 73  1  0  0  0
 18 74  1  0  0  0
 19 75  1  0  0  0
 19 76  1  0  0  0
 21 77  1  0  0  0
 22 78  1  0  0  0
 23 79  1  0  0  0
 24 80  1  0  0  0
 25 81  1  0  0  0
 28 82  1  0  0  0
 29 83  1  0  0  0
 30 84  1  0  0  0
 31 85  1  0  0  0
 32 86  1  0  0  0
 32 87  1  0  0  0
 34 88  1  0  0  0
 35 89  1  0  0  0
 36 90  1  0  0  0
 37 91  1  0  0  0
 39 92  1  0  0  0
 39 93  1  0  0  0
 40 94  1  0  0  0
 41 95  1  0  0  0
 44 96  1  0  0  0
 45 97  1  0  0  0
 48 98  1  0  0  0
M  END
$$$$
