1eb2_ligand
  -I-interpret- 

 63 66  0  0  0  0  0  0  0  0999 V2000
   12.5690  -12.7510   24.1120 C   0  0  0  0  0
   12.8710   -3.7820   24.2480 C   0  0  0  0  0
   12.1740   -2.9340   29.2690 N   0  0  0  0  0
   13.1970   -3.0100   26.5470 C   0  0  0  0  0
    8.7610   -6.3070   23.0030 C   0  0  0  0  0
    8.0310   -7.6200   23.4610 C   0  0  0  0  0
   11.5950   -4.2710   24.6230 C   0  0  0  0  0
   11.1310   -4.1530   25.9410 C   0  0  0  0  0
   11.9420   -3.5110   26.9100 C   0  0  0  0  0
    7.4290   -4.1700   23.1940 C   0  0  0  0  0
    7.6680   -5.3640   22.5020 C   0  0  0  0  0
   11.3810   -3.4090   28.2850 C   0  0  0  0  0
   10.7130   -4.9350   23.5830 C   0  0  0  0  0
    6.4390   -3.2870   22.7710 C   0  0  0  0  0
    9.5540  -11.0470   24.2180 C   0  0  0  0  0
    8.5510   -9.9030   24.1580 C   0  0  0  0  0
    5.8950   -4.8230   20.9640 C   0  0  0  0  0
    5.6670   -3.6330   21.6510 C   0  0  0  0  0
    6.8930   -5.7200   21.3800 C   0  0  0  0  0
   10.9980  -10.6760   23.8290 C   0  0  0  0  0
   11.6300  -11.9640   23.2460 C   0  0  0  0  0
   11.0150   -9.7630   22.5630 C   0  0  0  0  0
   13.6590   -3.1610   25.2330 C   0  0  0  0  0
    6.8780   -7.6790   23.8250 O   0  0  0  0  0
   11.0060   -4.7500   22.4000 O   0  0  0  0  0
    9.5970   -5.6890   24.0250 N   0  0  0  0  0
   10.0410   -3.5030   28.3310 N   0  0  0  0  0
    8.8270   -8.7720   23.2810 N   0  0  0  0  0
   11.3480  -12.2870   22.1100 O   0  0  0  0  0
   10.2140   -8.4980   22.8570 C   0  0  0  0  0
   13.3920  -13.7170   23.4900 C   0  0  0  0  0
   14.2490  -14.4420   24.3040 C   0  0  0  0  0
   14.3430  -14.2730   25.6880 C   0  0  0  0  0
   13.5370  -13.3150   26.2830 C   0  0  0  0  0
   12.6610  -12.5670   25.4920 C   0  0  0  0  0
   13.2316   -3.8844   23.2245 H   0  0  0  0  0
   11.7620   -2.6064   30.1427 H   0  0  0  0  0
   13.1852   -2.9027   29.1387 H   0  0  0  0  0
   13.8155   -2.5020   27.2869 H   0  0  0  0  0
    9.4774   -6.5491   22.2180 H   0  0  0  0  0
   10.1550   -4.5516   26.2179 H   0  0  0  0  0
    8.0251   -3.9291   24.0742 H   0  0  0  0  0
    6.2674   -2.3483   23.2977 H   0  0  0  0  0
    9.2189  -11.7946   23.4990 H   0  0  0  0  0
    9.5857  -11.3809   25.2551 H   0  0  0  0  0
    8.5402   -9.4840   25.1642 H   0  0  0  0  0
    7.6374  -10.3489   23.7647 H   0  0  0  0  0
    5.2895   -5.0621   20.0898 H   0  0  0  0  0
    4.8778   -2.9609   21.3141 H   0  0  0  0  0
    7.0621   -6.6591   20.8531 H   0  0  0  0  0
   11.4787  -10.2237   24.6964 H   0  0  0  0  0
   12.0424   -9.4992   22.3120 H   0  0  0  0  0
   10.5717  -10.2929   21.7199 H   0  0  0  0  0
   14.6492   -2.7896   24.9690 H   0  0  0  0  0
    9.3874   -5.7948   25.0176 H   0  0  0  0  0
    9.5089   -3.6320   27.4704 H   0  0  0  0  0
   10.7114   -7.9750   23.6738 H   0  0  0  0  0
   10.1687   -7.9150   21.9371 H   0  0  0  0  0
   13.3546  -13.8853   22.4137 H   0  0  0  0  0
   14.8888  -15.1898   23.8355 H   0  0  0  0  0
   15.0295  -14.8764   26.2818 H   0  0  0  0  0
   13.5861  -13.1466   27.3588 H   0  0  0  0  0
   12.0299  -11.8164   25.9679 H   0  0  0  0  0
 21  1  1  0  0  0
  1 31  4  0  0  0
  1 35  4  0  0  0
  7  2  4  0  0  0
  5  6  1  0  0  0
  7  8  4  0  0  0
 13  7  1  0  0  0
  8  9  4  0  0  0
  9 12  1  0  0  0
 11 10  4  0  0  0
 11  5  1  0  0  0
 18 14  4  0  0  0
 16 15  1  0  0  0
 21 29  2  0  0  0
 31 32  4  0  0  0
 32 33  4  0  0  0
 34 33  4  0  0  0
 35 34  4  0  0  0
 28 30  1  0  0  0
 30 22  1  0  0  0
 28 16  1  0  0  0
  6 28  1  0  0  0
 12 27  2  0  0  0
 26 13  1  0  0  0
  5 26  1  0  0  0
 13 25  2  0  0  0
  6 24  2  0  0  0
 23  4  4  0  0  0
  2 23  4  0  0  0
 22 20  1  0  0  0
 20 21  1  0  0  0
 15 20  1  0  0  0
 17 19  4  0  0  0
 19 11  4  0  0  0
 17 18  4  0  0  0
 14 10  4  0  0  0
 12  3  1  0  0  0
  9  4  4  0  0  0
  2 36  1  0  0  0
  3 37  1  0  0  0
  3 38  1  0  0  0
  4 39  1  0  0  0
  5 40  1  0  0  0
  8 41  1  0  0  0
 10 42  1  0  0  0
 14 43  1  0  0  0
 15 44  1  0  0  0
 15 45  1  0  0  0
 16 46  1  0  0  0
 16 47  1  0  0  0
 17 48  1  0  0  0
 18 49  1  0  0  0
 19 50  1  0  0  0
 20 51  1  0  0  0
 22 52  1  0  0  0
 22 53  1  0  0  0
 23 54  1  0  0  0
 26 55  1  0  0  0
 27 56  1  0  0  0
 30 57  1  0  0  0
 30 58  1  0  0  0
 31 59  1  0  0  0
 32 60  1  0  0  0
 33 61  1  0  0  0
 34 62  1  0  0  0
 35 63  1  0  0  0
M  END
$$$$
