### 
### Created by X-TOOL on Mon Sep 10 21:13:33 2018
### 

@<TRIPOS>MOLECULE
5vdr_ligand
   64    70     1     0     0
SMALL
GAST_HUCK


@<TRIPOS>ATOM
      1 C11       -29.4230   -1.2270   25.3110 C.3       1 9B7         0.2031
      2 C13       -29.2380   -0.2660   27.3480 C.3       1 9B7         0.1243
      3 C14       -28.9280    1.0400   28.0300 C.3       1 9B7         0.1128
      4 O17       -28.5450    4.2760   25.9410 O.co2     1 9B7        -0.6177
      5 C19       -27.8320   -1.0290   26.8780 C.3       1 9B7         0.1540
      6 O22       -25.0560    0.1790   27.7280 O.3       1 9B7        -0.2514
      7 C23       -25.2350    1.2280   28.6750 C.3       1 9B7         0.1128
      8 C24       -24.9590    2.5550   27.9970 C.3       1 9B7         0.1243
      9 C25       -25.9450    2.8980   27.2350 C.3       1 9B7         0.1540
     10 C27       -25.2850    3.9470   26.3560 C.3       1 9B7         0.1443
     11 C29       -23.9590    3.2340   25.9830 C.3       1 9B7         0.2031
     12 C31       -24.4630    2.9610   23.5210 C.2       1 9B7         0.2141
     13 C35       -24.9340    2.1400   21.1770 C.2       1 9B7         0.1461
     14 C37       -24.6200    1.8890   22.6560 C.2       1 9B7         0.1016
     15 C39       -24.1910    1.1240   24.6310 C.2       1 9B7         0.0991
     16 O01       -27.6880   -0.3610   19.8220 O.2       1 9B7        -0.4217
     17 C02       -28.0640   -1.1120   20.6550 C.2       1 9B7         0.1461
     18 N03       -28.2280   -2.5060   20.3460 N.2       1 9B7        -0.2575
     19 C04       -28.6910   -3.4220   21.3750 C.2       1 9B7         0.1280
     20 N05       -28.9880   -2.9210   22.7230 N.pl3     1 9B7        -0.2068
     21 C06       -28.8150   -1.4750   23.0400 C.2       1 9B7         0.2141
     22 C07       -28.3750   -0.5990   22.0640 C.2       1 9B7         0.1016
     23 N08       -28.3190    0.6130   22.6320 N.2       1 9B7        -0.3232
     24 C09       -28.7020    0.5060   23.8950 C.2       1 9B7         0.0991
     25 N10       -29.0060   -0.7560   24.1550 N.pl3     1 9B7        -0.1837
     26 O12       -29.8720   -0.0660   26.2490 O.3       1 9B7        -0.3356
     27 O15       -29.3560    2.0820   27.1920 O.3       1 9B7        -0.2514
     28 P16       -28.5720    3.5450   27.2620 P.3       1 9B7         0.2557
     29 O18       -29.4310    4.4010   28.1590 O.co2     1 9B7        -0.6177
     30 O20       -27.1560   -1.6280   28.0180 O.3       1 9B7        -0.2453
     31 P21       -25.5220   -1.3590   28.1730 P.3       1 9B7         0.2557
     32 O26       -27.0930    3.4860   28.0170 O.3       1 9B7        -0.2453
     33 O28       -25.0330    5.0740   27.0710 O.3       1 9B7        -0.3831
     34 N30       -24.1950    2.4450   24.7330 N.pl3     1 9B7        -0.1837
     35 N32       -24.6000    4.3580   23.0170 N.pl3     1 9B7        -0.2068
     36 C33       -24.9020    4.6020   21.5990 C.2       1 9B7         0.1280
     37 N34       -25.0670    3.4850   20.6880 N.2       1 9B7        -0.2575
     38 O36       -25.0680    1.2260   20.4380 O.2       1 9B7        -0.4217
     39 N38       -24.4450    0.7720   23.3750 N.2       1 9B7        -0.3232
     40 O40       -23.7000    2.4510   26.9690 O.3       1 9B7        -0.3356
     41 O41       -24.9520   -1.8130   29.4950 O.co2     1 9B7        -0.6177
     42 O42       -24.8850   -2.2640   27.1490 O.co2     1 9B7        -0.6177
     43 C43       -28.2370   -1.9220   26.0740 C.3       1 9B7         0.1443
     44 O44       -28.7390   -3.1110   26.8360 O.3       1 9B7        -0.3831
     45 H1        -30.2488   -1.9345   25.1453 H         1 9B7         0.1003
     46 H2        -29.8228   -0.9056   28.0255 H         1 9B7         0.0655
     47 H3        -27.8449    1.1221   28.2036 H         1 9B7         0.0647
     48 H4        -29.4586    1.0934   28.9921 H         1 9B7         0.0647
     49 H5        -27.1516   -0.3256   26.3758 H         1 9B7         0.0712
     50 H6        -24.5376    1.0904   29.5145 H         1 9B7         0.0647
     51 H7        -26.2687    1.2136   29.0508 H         1 9B7         0.0647
     52 H8        -24.7723    3.3216   28.7634 H         1 9B7         0.0655
     53 H9        -26.3074    2.0451   26.6424 H         1 9B7         0.0712
     54 H10       -25.8908    4.1855   25.4694 H         1 9B7         0.0681
     55 H11       -23.1435    3.9565   25.8318 H         1 9B7         0.1003
     56 H12       -24.0075    0.4320   25.4516 H         1 9B7         0.1177
     57 H13       -28.8176   -4.4792   21.1465 H         1 9B7         0.1570
     58 H14       -29.3168   -3.5707   23.4515 H         1 9B7         0.2411
     59 H15       -28.7581    1.3272   24.6080 H         1 9B7         0.1177
     60 H16       -25.8540    5.4982   27.2912 H         1 9B7         0.2102
     61 H17       -24.4830    5.1520   23.6625 H         1 9B7         0.2411
     62 H18       -25.0020    5.6224   21.2320 H         1 9B7         0.1570
     63 H19       -27.4397   -2.2276   25.3805 H         1 9B7         0.0681
     64 H20       -28.0358   -3.4649   27.3677 H         1 9B7         0.2102
@<TRIPOS>BOND
     1    1   25 1  
     2   26    1 1  
     3    1   43 1  
     4    3    2 1  
     5    2    5 1  
     6    2   26 1  
     7   27    3 1  
     8   28    4 ar 
     9    5   30 1  
    10    5   43 1  
    11    7    6 1  
    12    6   31 1  
    13    8    7 1  
    14    9    8 1  
    15    8   40 1  
    16    9   10 1  
    17   32    9 1  
    18   10   11 1  
    19   10   33 1  
    20   11   34 1  
    21   11   40 1  
    22   12   14 2  
    23   34   12 1  
    24   12   35 1  
    25   14   13 1  
    26   13   37 1  
    27   13   38 2  
    28   39   14 1  
    29   34   15 1  
    30   15   39 2  
    31   17   16 2  
    32   17   18 1  
    33   22   17 1  
    34   19   18 2  
    35   20   19 1  
    36   21   20 1  
    37   21   22 2  
    38   25   21 1  
    39   23   22 1  
    40   24   23 2  
    41   25   24 1  
    42   28   27 1  
    43   28   29 ar 
    44   28   32 1  
    45   30   31 1  
    46   31   41 ar 
    47   31   42 ar 
    48   35   36 1  
    49   36   37 2  
    50   43   44 1  
    51    1   45 1  
    52    2   46 1  
    53    3   47 1  
    54    3   48 1  
    55    5   49 1  
    56    7   50 1  
    57    7   51 1  
    58    8   52 1  
    59    9   53 1  
    60   10   54 1  
    61   11   55 1  
    62   15   56 1  
    63   19   57 1  
    64   20   58 1  
    65   24   59 1  
    66   33   60 1  
    67   35   61 1  
    68   36   62 1  
    69   43   63 1  
    70   44   64 1  
@<TRIPOS>SUBSTRUCTURE
     1 9B7         1

