5vdr_ligand
  -I-interpret- 

 66 72  0  0  0  0  0  0  0  0999 V2000
  -29.4230   -1.2270   25.3110 C   0  0  0  0  0
  -29.2380   -0.2660   27.3480 C   0  0  0  0  0
  -28.9280    1.0400   28.0300 C   0  0  0  0  0
  -28.5450    4.2760   25.9410 O   0  0  0  0  0
  -27.8320   -1.0290   26.8780 C   0  0  0  0  0
  -25.0560    0.1790   27.7280 O   0  0  0  0  0
  -25.2350    1.2280   28.6750 C   0  0  0  0  0
  -24.9590    2.5550   27.9970 C   0  0  0  0  0
  -25.9450    2.8980   27.2350 C   0  0  0  0  0
  -25.2850    3.9470   26.3560 C   0  0  0  0  0
  -23.9590    3.2340   25.9830 C   0  0  0  0  0
  -24.4630    2.9610   23.5210 C   0  0  0  0  0
  -24.9340    2.1400   21.1770 C   0  0  0  0  0
  -24.6200    1.8890   22.6560 C   0  0  0  0  0
  -24.1910    1.1240   24.6310 C   0  0  0  0  0
  -27.6880   -0.3610   19.8220 O   0  0  0  0  0
  -28.0640   -1.1120   20.6550 C   0  0  0  0  0
  -28.2280   -2.5060   20.3460 N   0  0  0  0  0
  -28.6910   -3.4220   21.3750 C   0  0  0  0  0
  -28.9880   -2.9210   22.7230 N   0  0  0  0  0
  -28.8150   -1.4750   23.0400 C   0  0  0  0  0
  -28.3750   -0.5990   22.0640 C   0  0  0  0  0
  -28.3190    0.6130   22.6320 N   0  0  0  0  0
  -28.7020    0.5060   23.8950 C   0  0  0  0  0
  -29.0060   -0.7560   24.1550 N   0  0  0  0  0
  -29.8720   -0.0660   26.2490 O   0  0  0  0  0
  -29.3560    2.0820   27.1920 O   0  0  0  0  0
  -28.5720    3.5450   27.2620 P   0  0  0  0  0
  -29.4310    4.4010   28.1590 O   0  0  0  0  0
  -27.1560   -1.6280   28.0180 O   0  0  0  0  0
  -25.5220   -1.3590   28.1730 P   0  0  0  0  0
  -27.0930    3.4860   28.0170 O   0  0  0  0  0
  -25.0330    5.0740   27.0710 O   0  0  0  0  0
  -24.1950    2.4450   24.7330 N   0  0  0  0  0
  -24.6000    4.3580   23.0170 N   0  0  0  0  0
  -24.9020    4.6020   21.5990 C   0  0  0  0  0
  -25.0670    3.4850   20.6880 N   0  0  0  0  0
  -25.0680    1.2260   20.4380 O   0  0  0  0  0
  -24.4450    0.7720   23.3750 N   0  0  0  0  0
  -23.7000    2.4510   26.9690 O   0  0  0  0  0
  -24.9520   -1.8130   29.4950 O   0  0  0  0  0
  -24.8850   -2.2640   27.1490 O   0  0  0  0  0
  -28.2370   -1.9220   26.0740 C   0  0  0  0  0
  -28.7390   -3.1110   26.8360 O   0  0  0  0  0
  -30.2393   -1.9157   25.0934 H   0  0  0  0  0
  -29.8162   -0.8545   28.0604 H   0  0  0  0  0
  -27.8569    1.1224   28.2148 H   0  0  0  0  0
  -29.4423    1.0942   28.9895 H   0  0  0  0  0
  -28.0102    3.7829   25.3146 H   0  0  0  0  0
  -27.1090   -0.3468   26.4308 H   0  0  0  0  0
  -24.5479    1.0913   29.5101 H   0  0  0  0  0
  -26.2575    1.2129   29.0522 H   0  0  0  0  0
  -24.7788    3.2613   28.8074 H   0  0  0  0  0
  -26.3913    2.0642   26.6932 H   0  0  0  0  0
  -25.8838    4.2635   25.5019 H   0  0  0  0  0
  -23.1329    3.9231   25.8073 H   0  0  0  0  0
  -24.0073    0.4313   25.4523 H   0  0  0  0  0
  -28.8177   -4.4802   21.1463 H   0  0  0  0  0
  -29.3136   -3.5644   23.4444 H   0  0  0  0  0
  -28.7582    1.3280   24.6086 H   0  0  0  0  0
  -24.6167    5.7259   26.5024 H   0  0  0  0  0
  -24.4841    5.1443   23.6563 H   0  0  0  0  0
  -25.0021    5.6234   21.2317 H   0  0  0  0  0
  -25.3173   -1.2751   30.2013 H   0  0  0  0  0
  -27.4542   -2.2809   25.4058 H   0  0  0  0  0
  -29.0429   -3.7804   26.2186 H   0  0  0  0  0
  1 25  1  0  0  0
 26  1  1  0  0  0
  1 43  1  0  0  0
  3  2  1  0  0  0
  2  5  1  0  0  0
  2 26  1  0  0  0
 27  3  1  0  0  0
 28  4  1  0  0  0
  5 30  1  0  0  0
  5 43  1  0  0  0
  7  6  1  0  0  0
  6 31  1  0  0  0
  8  7  1  0  0  0
  9  8  1  0  0  0
  8 40  1  0  0  0
  9 10  1  0  0  0
 32  9  1  0  0  0
 10 11  1  0  0  0
 10 33  1  0  0  0
 11 34  1  0  0  0
 11 40  1  0  0  0
 12 14  4  0  0  0
 34 12  4  0  0  0
 12 35  1  0  0  0
 14 13  1  0  0  0
 13 37  1  0  0  0
 13 38  2  0  0  0
 39 14  4  0  0  0
 34 15  4  0  0  0
 15 39  4  0  0  0
 17 16  2  0  0  0
 17 18  1  0  0  0
 22 17  1  0  0  0
 19 18  2  0  0  0
 20 19  1  0  0  0
 21 20  1  0  0  0
 21 22  4  0  0  0
 25 21  4  0  0  0
 23 22  4  0  0  0
 24 23  4  0  0  0
 25 24  4  0  0  0
 28 27  1  0  0  0
 28 29  2  0  0  0
 28 32  1  0  0  0
 30 31  1  0  0  0
 31 41  1  0  0  0
 31 42  2  0  0  0
 35 36  1  0  0  0
 36 37  2  0  0  0
 43 44  1  0  0  0
  1 45  1  0  0  0
  2 46  1  0  0  0
  3 47  1  0  0  0
  3 48  1  0  0  0
  4 49  1  0  0  0
  5 50  1  0  0  0
  7 51  1  0  0  0
  7 52  1  0  0  0
  8 53  1  0  0  0
  9 54  1  0  0  0
 10 55  1  0  0  0
 11 56  1  0  0  0
 15 57  1  0  0  0
 19 58  1  0  0  0
 20 59  1  0  0  0
 24 60  1  0  0  0
 33 61  1  0  0  0
 35 62  1  0  0  0
 36 63  1  0  0  0
 41 64  1  0  0  0
 43 65  1  0  0  0
 44 66  1  0  0  0
M  END
$$$$
