3ry8_ligand
  -I-interpret- 

 21 20  0  0  0  0  0  0  0  0999 V2000
    4.5180   13.5750   39.7130 C   0  0  0  0  0
    4.8140   12.4740   40.6540 C   0  0  0  0  0
    4.8420   11.0960   40.0410 C   0  0  0  0  0
    3.5000   10.7540   39.4830 C   0  0  0  0  0
    5.2210   10.1660   41.1570 C   0  0  0  0  0
    5.3320    8.7300   40.7660 C   0  0  0  0  0
    3.6220   13.4510   38.8500 O   0  0  0  0  0
    5.1710   14.6450   39.8240 O   0  0  0  0  0
    2.4820   10.6640   40.2360 O   0  0  0  0  0
    3.3370   10.5520   38.2400 O   0  0  0  0  0
    5.2620    8.3480   39.5680 O   0  0  0  0  0
    5.5110    7.8470   41.6490 O   0  0  0  0  0
    5.8150   11.0420   39.0390 O   0  0  0  0  0
    4.0140   12.4712   41.3943 H   0  0  0  0  0
    5.8120   12.6607   41.0505 H   0  0  0  0  0
    4.4299   10.2299   41.9041 H   0  0  0  0  0
    6.2062   10.4757   41.5057 H   0  0  0  0  0
    5.8108   14.5559   40.5342 H   0  0  0  0  0
    4.1783   10.6498   37.7880 H   0  0  0  0  0
    5.5462    8.2630   42.5135 H   0  0  0  0  0
    5.5718   11.6370   38.3259 H   0  0  0  0  0
  1  2  1  0  0  0
  1  7  2  0  0  0
  1  8  1  0  0  0
  2  3  1  0  0  0
  3  4  1  0  0  0
  3  5  1  0  0  0
  3 13  1  0  0  0
  4  9  2  0  0  0
  4 10  1  0  0  0
  5  6  1  0  0  0
  6 11  2  0  0  0
  6 12  1  0  0  0
  2 14  1  0  0  0
  2 15  1  0  0  0
  5 16  1  0  0  0
  5 17  1  0  0  0
  8 18  1  0  0  0
 10 19  1  0  0  0
 12 20  1  0  0  0
 13 21  1  0  0  0
M  END
$$$$
