4uyn_ligand
  -I-interpret- 

 54 59  0  0  0  0  0  0  0  0999 V2000
   25.4110   -9.6610   10.6710 O   0  0  0  0  0
   25.9580   -8.5840   10.8560 C   0  0  0  0  0
   26.4170   -7.8300    9.7000 O   0  0  0  0  0
   26.2070   -8.3370    8.3840 C   0  0  0  0  0
   24.9280   -7.7550    7.8170 C   0  0  0  0  0
   26.1730   -8.0290   12.2290 C   0  0  0  0  0
   26.8620   -6.7120   12.3820 C   0  0  0  0  0
   25.8380   -8.5320   13.4480 N   0  0  0  0  0
   26.2500   -7.6750   14.4320 C   0  0  0  0  0
   26.8890   -6.5600   13.8250 C   0  0  0  0  0
   27.4950   -5.4250   14.4970 C   0  0  0  0  0
   28.0630   -4.4790   13.5240 C   0  0  0  0  0
   28.7410   -3.2480   14.0530 C   0  0  0  0  0
   28.7940   -3.0500   15.2560 O   0  0  0  0  0
   29.3300   -2.2580   13.0900 C   0  0  0  0  0
   29.7560   -2.9510   11.7940 C   0  0  0  0  0
   28.5790   -3.6740   11.1070 C   0  0  0  0  0
   27.9780   -4.7060   12.0460 C   0  0  0  0  0
   27.3880   -5.8080   11.5340 N   0  0  0  0  0
   26.4440   -4.8210   15.3340 C   0  0  0  0  0
   26.0710   -5.4190   16.4910 O   0  0  0  0  0
   25.0660   -4.6130   16.8840 C   0  0  0  0  0
   24.8140   -3.5230   16.0440 C   0  0  0  0  0
   25.7340   -3.6670   15.0070 C   0  0  0  0  0
   24.2070   -5.0090   18.3470 S   0  0  0  0  0
   25.0490   -4.4760   19.7740 C   0  0  0  0  0
   24.6620   -4.7490   21.0210 N   0  0  0  0  0
   25.5660   -4.0870   21.7780 C   0  0  0  0  0
   25.6930   -3.9470   23.1530 C   0  0  0  0  0
   26.7150   -3.1530   23.6690 C   0  0  0  0  0
   27.6210   -2.5160   22.8220 C   0  0  0  0  0
   27.5180   -2.6720   21.4510 C   0  0  0  0  0
   26.4810   -3.4460   20.9280 C   0  0  0  0  0
   26.1360   -3.7110   19.6590 N   0  0  0  0  0
   26.1266   -9.4234    8.4216 H   0  0  0  0  0
   27.0469   -8.0569    7.7483 H   0  0  0  0  0
   24.0890   -8.0359    8.4536 H   0  0  0  0  0
   25.0098   -6.6687    7.7799 H   0  0  0  0  0
   24.7684   -8.1432    6.8110 H   0  0  0  0  0
   26.1112   -7.8228   15.5030 H   0  0  0  0  0
   28.3335   -5.7302   15.1230 H   0  0  0  0  0
   27.8133   -5.2047   12.7500 H   0  0  0  0  0
   30.2060   -1.7992   13.5484 H   0  0  0  0  0
   28.5781   -1.5045   12.8557 H   0  0  0  0  0
   30.5142   -3.6945   12.0399 H   0  0  0  0  0
   30.1329   -2.1903   11.1103 H   0  0  0  0  0
   28.9427   -4.1760   10.2105 H   0  0  0  0  0
   27.8149   -2.9424   10.8444 H   0  0  0  0  0
   24.0675   -2.7390   16.1716 H   0  0  0  0  0
   25.8679   -3.0233   14.1376 H   0  0  0  0  0
   24.9991   -4.4539   23.8235 H   0  0  0  0  0
   26.8074   -3.0283   24.7479 H   0  0  0  0  0
   28.4120   -1.8939   23.2407 H   0  0  0  0  0
   28.2389   -2.1956   20.7866 H   0  0  0  0  0
  1  2  2  0  0  0
  2  3  1  0  0  0
  2  6  1  0  0  0
  3  4  1  0  0  0
  4  5  1  0  0  0
  6  7  4  0  0  0
  6  8  4  0  0  0
  7 10  4  0  0  0
  7 19  1  0  0  0
  8  9  4  0  0  0
  9 10  4  0  0  0
 10 11  1  0  0  0
 11 12  1  0  0  0
 11 20  1  0  0  0
 12 13  1  0  0  0
 12 18  1  0  0  0
 13 14  2  0  0  0
 13 15  1  0  0  0
 15 16  1  0  0  0
 16 17  1  0  0  0
 17 18  1  0  0  0
 18 19  2  0  0  0
 20 21  4  0  0  0
 20 24  4  0  0  0
 21 22  4  0  0  0
 22 23  4  0  0  0
 22 25  1  0  0  0
 23 24  4  0  0  0
 25 26  1  0  0  0
 26 27  4  0  0  0
 26 34  4  0  0  0
 27 28  4  0  0  0
 28 29  4  0  0  0
 28 33  4  0  0  0
 29 30  4  0  0  0
 30 31  4  0  0  0
 31 32  4  0  0  0
 32 33  4  0  0  0
 33 34  4  0  0  0
  4 35  1  0  0  0
  4 36  1  0  0  0
  5 37  1  0  0  0
  5 38  1  0  0  0
  5 39  1  0  0  0
  9 40  1  0  0  0
 11 41  1  0  0  0
 12 42  1  0  0  0
 15 43  1  0  0  0
 15 44  1  0  0  0
 16 45  1  0  0  0
 16 46  1  0  0  0
 17 47  1  0  0  0
 17 48  1  0  0  0
 23 49  1  0  0  0
 24 50  1  0  0  0
 29 51  1  0  0  0
 30 52  1  0  0  0
 31 53  1  0  0  0
 32 54  1  0  0  0
M  END
$$$$
