2igv_ligand
  -I-interpret- 

 29 29  0  0  0  0  0  0  0  0999 V2000
   45.6370   17.5020   12.0580 N   0  3  0  0  0
   46.6780   16.5900   12.6170 C   0  0  0  0  0
   47.8990   17.4170   13.0230 C   0  0  0  0  0
   48.2280   18.3890   12.3380 O   0  0  0  0  0
   47.1200   15.5670   11.5660 C   0  0  0  0  0
   46.0620   14.6820   11.2470 O   0  0  0  0  0
   48.5970   17.0210   14.1080 N   0  0  0  0  0
   48.3440   15.8990   15.0100 C   0  0  0  0  0
   47.3070   16.2380   16.0790 C   0  0  0  0  0
   46.7800   17.3540   16.1560 O   0  0  0  0  0
   49.7030   15.6790   15.6620 C   0  0  0  0  0
   50.3150   17.0620   15.7300 C   0  0  0  0  0
   49.7970   17.7830   14.5060 C   0  0  0  0  0
   46.9900   15.3800   16.9180 O   0  0  0  0  0
   45.3567   18.1742   12.7721 H   0  0  0  0  0
   46.0186   17.9986   11.2529 H   0  0  0  0  0
   44.8268   16.9542   11.7683 H   0  0  0  0  0
   46.2574   16.0673   13.4760 H   0  0  0  0  0
   47.9520   14.9886   11.9677 H   0  0  0  0  0
   47.4170   16.0988   10.6621 H   0  0  0  0  0
   46.3615   14.0514   10.5880 H   0  0  0  0  0
   47.9469   15.0303   14.4849 H   0  0  0  0  0
   50.3222   14.9842   15.0945 H   0  0  0  0  0
   49.6156   15.2206   16.6470 H   0  0  0  0  0
   51.4041   17.0205   15.7423 H   0  0  0  0  0
   50.0399   17.5796   16.6490 H   0  0  0  0  0
   49.5668   18.8279   14.7143 H   0  0  0  0  0
   50.5398   17.8206   13.7092 H   0  0  0  0  0
   47.4707   14.5681   16.7410 H   0  0  0  0  0
  1  2  1  0  0  0
  2  3  1  0  0  0
  2  5  1  0  0  0
  3  4  2  0  0  0
  3  7  1  0  0  0
  5  6  1  0  0  0
  7  8  1  0  0  0
  7 13  1  0  0  0
  8  9  1  0  0  0
  8 11  1  0  0  0
  9 10  2  0  0  0
  9 14  1  0  0  0
 11 12  1  0  0  0
 12 13  1  0  0  0
  1 15  1  0  0  0
  1 16  1  0  0  0
  1 17  1  0  0  0
  2 18  1  0  0  0
  5 19  1  0  0  0
  5 20  1  0  0  0
  6 21  1  0  0  0
  8 22  1  0  0  0
 11 23  1  0  0  0
 11 24  1  0  0  0
 12 25  1  0  0  0
 12 26  1  0  0  0
 13 27  1  0  0  0
 13 28  1  0  0  0
 14 29  1  0  0  0
M  END
$$$$
