2fl6_ligand
  -I-interpret- 

 44 46  0  0  0  0  0  0  0  0999 V2000
   21.6820   16.3430  105.4500 C   0  0  0  0  0
   20.5380   16.2120  106.2720 C   0  0  0  0  0
   20.5230   15.0760  107.1180 C   0  0  0  0  0
   21.6600   14.1780  107.0750 C   0  0  0  0  0
   22.8030   14.2970  106.2080 C   0  0  0  0  0
   22.7780   15.4260  105.3670 C   0  0  0  0  0
   19.3570   14.9230  108.0400 C   0  0  0  0  0
   18.5730   16.1430  108.4480 C   0  0  0  0  0
   17.5170   15.6370  109.3240 N   0  0  0  0  0
   17.8590   14.2860  109.7570 C   0  0  0  0  0
   18.8190   13.7490  108.7290 C   0  0  0  0  0
   17.8080   13.7510  111.1360 C   0  0  0  0  0
   16.8390   12.7170  111.5020 C   0  0  0  0  0
   16.8290   12.2250  112.8750 C   0  0  0  0  0
   17.7620   12.7970  113.8340 C   0  0  0  0  0
   18.7250   13.8080  113.4710 C   0  0  0  0  0
   18.7650   14.2730  112.0990 C   0  0  0  0  0
   16.5500   16.5720  109.5430 C   0  0  0  0  0
   15.3110   16.1700  109.5490 N   0  0  0  0  0
   14.4880   17.4000  109.5140 C   0  0  0  0  0
   14.8410   14.7880  109.4530 C   0  0  0  0  0
   16.7850   17.7760  109.7060 O   0  0  0  0  0
   21.6920   13.1900  107.9510 F   0  0  0  0  0
   21.7200   17.4120  104.7210 F   0  0  0  0  0
   19.7234   16.9361  106.2554 H   0  0  0  0  0
   23.6189   13.5742  106.2030 H   0  0  0  0  0
   23.5873   15.6004  104.6580 H   0  0  0  0  0
   19.9496   14.3170  107.3547 H   0  0  0  0  0
   18.1651   16.6690  107.5848 H   0  0  0  0  0
   19.2008   16.8769  108.9534 H   0  0  0  0  0
   16.9151   13.7547  109.8792 H   0  0  0  0  0
   19.6115   13.1618  109.1929 H   0  0  0  0  0
   18.3208   13.0731  108.0339 H   0  0  0  0  0
   16.1398   12.3231  110.7644 H   0  0  0  0  0
   16.1341   11.4417  113.1777 H   0  0  0  0  0
   17.7322   12.4482  114.8663 H   0  0  0  0  0
   19.4100   14.2147  114.2150 H   0  0  0  0  0
   19.5074   15.0091  111.7907 H   0  0  0  0  0
   14.7108   18.0097  110.3896 H   0  0  0  0  0
   14.7172   17.9634  108.6095 H   0  0  0  0  0
   13.4321   17.1294  109.5172 H   0  0  0  0  0
   15.1839   14.3534  108.5141 H   0  0  0  0  0
   15.2385   14.2115  110.2883 H   0  0  0  0  0
   13.7516   14.7730  109.4853 H   0  0  0  0  0
  1  2  4  0  0  0
  1  6  4  0  0  0
  1 24  1  0  0  0
  2  3  4  0  0  0
  3  4  4  0  0  0
  3  7  1  0  0  0
  4  5  4  0  0  0
  4 23  1  0  0  0
  5  6  4  0  0  0
  7  8  1  0  0  0
  7 11  1  0  0  0
  8  9  1  0  0  0
  9 10  1  0  0  0
  9 18  1  0  0  0
 10 11  1  0  0  0
 10 12  1  0  0  0
 12 13  4  0  0  0
 12 17  4  0  0  0
 13 14  4  0  0  0
 14 15  4  0  0  0
 15 16  4  0  0  0
 16 17  4  0  0  0
 18 19  1  0  0  0
 18 22  2  0  0  0
 19 20  1  0  0  0
 19 21  1  0  0  0
  2 25  1  0  0  0
  5 26  1  0  0  0
  6 27  1  0  0  0
  7 28  1  0  0  0
  8 29  1  0  0  0
  8 30  1  0  0  0
 10 31  1  0  0  0
 11 32  1  0  0  0
 11 33  1  0  0  0
 13 34  1  0  0  0
 14 35  1  0  0  0
 15 36  1  0  0  0
 16 37  1  0  0  0
 17 38  1  0  0  0
 20 39  1  0  0  0
 20 40  1  0  0  0
 20 41  1  0  0  0
 21 42  1  0  0  0
 21 43  1  0  0  0
 21 44  1  0  0  0
M  END
$$$$
