### 
### Created by X-TOOL on Mon Sep 10 21:13:03 2018
### 

@<TRIPOS>MOLECULE
3o6l_ligand
  239   245     1     0     0
SMALL
GAST_HUCK


@<TRIPOS>ATOM
      1 N          57.4660   12.9520   -5.1790 N.4       1 GLU         0.2380
      2 CA         58.2910   14.1290   -4.7070 C.3       1 GLU         0.0667
      3 C          57.4210   15.4030   -4.8780 C.2       1 GLU         0.2293
      4 O          56.2440   15.3560   -4.4690 O.2       1 GLU        -0.3905
      5 CB         59.6630   14.1940   -5.4350 C.3       1 GLU         0.0194
      6 CG         60.2510   12.8440   -5.9960 C.3       1 GLU         0.0075
      7 CD         60.0120   11.6240   -5.0950 C.2       1 GLU         0.0351
      8 OE1        59.2220   10.7350   -5.4970 O.co2     1 GLU        -0.5690
      9 OE2        60.6010   11.5700   -3.9840 O.co2     1 GLU        -0.5690
     10 N          57.9610   16.5330   -5.4520 N.am      1 PRO        -0.2471
     11 CA         56.9580   17.5430   -5.8770 C.3       1 PRO         0.1339
     12 C          55.6720   17.0060   -6.6810 C.2       1 PRO         0.2041
     13 O          54.5690   17.1890   -6.1370 O.2       1 PRO        -0.3944
     14 CB         57.8030   18.6230   -6.5800 C.3       1 PRO        -0.0104
     15 CG         59.1430   18.5400   -5.9010 C.3       1 PRO        -0.0281
     16 CD         59.3310   17.1170   -5.4240 C.3       1 PRO         0.0371
     17 N          55.6950   16.3730   -7.8820 N.am      1 VAL        -0.2635
     18 CA         56.7010   16.2460   -8.9750 C.3       1 VAL         0.1333
     19 C          56.0810   15.2590  -10.0000 C.2       1 VAL         0.2042
     20 O          55.8390   15.6440  -11.1460 O.2       1 VAL        -0.3944
     21 CB         58.1650   15.8260   -8.5420 C.3       1 VAL        -0.0063
     22 CG1        58.4660   14.3330   -8.7730 C.3       1 VAL        -0.0584
     23 CG2        59.1930   16.6820   -9.2500 C.3       1 VAL        -0.0584
     24 N          55.7500   14.0380   -9.5410 N.am      1 ASP        -0.2622
     25 CA         55.4140   12.8610  -10.4030 C.3       1 ASP         0.1425
     26 C          53.8850   12.6170  -10.6130 C.2       1 ASP         0.2081
     27 O          53.0830   13.4340  -10.1260 O.2       1 ASP        -0.3941
     28 CB         56.1380   11.5750   -9.9000 C.3       1 ASP         0.0406
     29 CG         55.6960   11.1300   -8.4850 C.2       1 ASP         0.0393
     30 OD1        54.7840   10.2640   -8.3920 O.co2     1 ASP        -0.5688
     31 OD2        56.2720   11.6250   -7.4750 O.co2     1 ASP        -0.5688
     32 N          53.4740   11.5040  -11.3310 N.am      1 PRO        -0.2497
     33 CA         52.0000   11.2930  -11.5050 C.3       1 PRO         0.1338
     34 C          51.3190   10.7600  -10.2440 C.2       1 PRO         0.2041
     35 O          50.0840   10.8250  -10.1600 O.2       1 PRO        -0.3944
     36 CB         51.8880   10.3080  -12.6830 C.3       1 PRO        -0.0104
     37 CG         53.3140   10.0540  -13.1610 C.3       1 PRO        -0.0281
     38 CD         54.2360   10.4260  -12.0010 C.3       1 PRO         0.0369
     39 N          52.1270   10.2720   -9.2810 N.am      1 LYS        -0.2637
     40 CA         51.6460    9.9120   -7.9420 C.3       1 LYS         0.1310
     41 C          50.6960    8.7110   -8.0010 C.2       1 LYS         0.2039
     42 O          49.6880    8.6720   -7.2930 O.2       1 LYS        -0.3944
     43 CB         50.9260   11.1120   -7.3380 C.3       1 LYS        -0.0122
     44 CG         51.8730   12.2510   -6.8500 C.3       1 LYS        -0.0440
     45 CD         51.0720   13.3930   -6.2470 C.3       1 LYS        -0.0124
     46 CE         51.9560   14.6360   -6.1260 C.3       1 LYS        -0.0354
     47 NZ         51.1230   15.8010   -6.5190 N.4       1 LYS         0.2185
     48 N          51.0140    7.7580   -8.8850 N.am      1 LEU        -0.2637
     49 CA         50.1780    6.6060   -9.1430 C.3       1 LEU         0.1312
     50 C          50.7660    5.4180   -8.4100 C.2       1 LEU         0.2039
     51 O          51.9500    5.4190   -8.0390 O.2       1 LEU        -0.3944
     52 CB         50.1450    6.3110  -10.6360 C.3       1 LEU        -0.0101
     53 CG         49.3640    7.2530  -11.5420 C.3       1 LEU        -0.0425
     54 CD1        49.8500    7.0550  -12.9970 C.3       1 LEU        -0.0625
     55 CD2        47.8920    6.9880  -11.4410 C.3       1 LEU        -0.0625
     56 N          49.9370    4.3960   -8.2130 N.am      1 GLU        -0.2636
     57 CA         50.3520    3.1700   -7.5490 C.3       1 GLU         0.1327
     58 C          51.1960    2.3320   -8.5190 C.2       1 GLU         0.2065
     59 O          51.0940    2.5260   -9.7240 O.2       1 GLU        -0.3942
     60 CB         49.1050    2.4040   -7.1370 C.3       1 GLU        -0.0008
     61 CG         48.3350    3.0050   -5.8820 C.3       1 GLU         0.0044
     62 CD         46.8160    2.8110   -6.0200 C.2       1 GLU         0.0350
     63 OE1        46.2510    2.2040   -5.1200 O.co2     1 GLU        -0.5690
     64 OE2        46.2130    3.2450   -7.0430 O.co2     1 GLU        -0.5690
     65 N          52.0150    1.4120   -7.9940 N.am      1 PRO        -0.2498
     66 CA         53.0040    0.6750   -8.7800 C.3       1 PRO         0.1338
     67 C          52.4410   -0.1200   -9.9460 C.2       1 PRO         0.2042
     68 O          53.1980   -0.3920  -10.8720 O.2       1 PRO        -0.3944
     69 CB         53.6090   -0.2970   -7.7540 C.3       1 PRO        -0.0104
     70 CG         53.4930    0.4370   -6.4760 C.3       1 PRO        -0.0281
     71 CD         52.1380    1.0630   -6.5580 C.3       1 PRO         0.0369
     72 N          51.1540   -0.4490   -9.9500 N.am      1 TRP        -0.2627
     73 CA         50.6270   -1.3630  -10.9840 C.3       1 TRP         0.1352
     74 C          49.9290   -0.5970  -12.0350 C.2       1 TRP         0.2052
     75 O          49.4150   -1.1570  -12.9920 O.2       1 TRP        -0.3942
     76 CB         49.6910   -2.4310  -10.3630 C.3       1 TRP         0.0042
     77 CG         48.7520   -1.8130   -9.3300 C.2       1 TRP        -0.0418
     78 CD1        48.9910   -1.6560   -7.9720 C.2       1 TRP         0.0167
     79 CD2        47.4550   -1.2400   -9.5820 C.ar      1 TRP        -0.0214
     80 NE1        47.9060   -1.0420   -7.3900 N.pl3     1 TRP        -0.2890
     81 CE2        46.9720   -0.7400   -8.3490 C.ar      1 TRP         0.0603
     82 CE3        46.6450   -1.1090  -10.7360 C.ar      1 TRP        -0.0747
     83 CZ2        45.6920   -0.1660   -8.2180 C.ar      1 TRP        -0.0443
     84 CZ3        45.3820   -0.4860  -10.6190 C.ar      1 TRP        -0.0792
     85 CH2        44.9290   -0.0210   -9.3380 C.ar      1 TRP        -0.0768
     86 N          49.9070    0.7210  -11.8850 N.am      1 LYS        -0.2636
     87 CA         49.3310    1.5700  -12.9000 C.3       1 LYS         0.1310
     88 C          50.3540    1.8110  -14.0130 C.2       1 LYS         0.2040
     89 O          51.5330    1.9420  -13.7370 O.2       1 LYS        -0.3944
     90 CB         48.9390    2.9160  -12.3210 C.3       1 LYS        -0.0122
     91 CG         47.7950    2.8620  -11.2960 C.3       1 LYS        -0.0440
     92 CD         46.4710    2.7970  -12.0310 C.3       1 LYS        -0.0124
     93 CE         45.3040    3.0320  -10.9830 C.3       1 LYS        -0.0354
     94 NZ         45.0560    4.4870  -10.6860 N.4       1 LYS         0.2185
     95 N          49.8620    1.8890  -15.2430 N.am      1 HIS        -0.2625
     96 CA         50.6550    2.3160  -16.3730 C.3       1 HIS         0.1371
     97 C          50.3330    3.7910  -16.5580 C.2       1 HIS         0.2079
     98 O          49.1510    4.1400  -16.6530 O.2       1 HIS        -0.3940
     99 CB         50.3180    1.4510  -17.5940 C.3       1 HIS         0.0145
    100 CG         50.6370   -0.0070  -17.3680 C.2       1 HIS        -0.0027
    101 ND1        49.6740   -0.9510  -17.0490 N.2       1 HIS        -0.3252
    102 CD2        51.8240   -0.6590  -17.3100 C.2       1 HIS         0.0291
    103 CE1        50.2480   -2.1250  -16.8460 C.2       1 HIS         0.0907
    104 NE2        51.5530   -1.9720  -16.9860 N.pl3     1 HIS        -0.2752
    105 N          51.3580    4.6690  -16.5850 N.am      1 PRO        -0.2497
    106 CA         51.0320    6.1240  -16.6240 C.3       1 PRO         0.1338
    107 C          50.2030    6.4360  -17.8720 C.2       1 PRO         0.2039
    108 O          50.5340    5.9290  -18.9550 O.2       1 PRO        -0.3944
    109 CB         52.3890    6.8330  -16.6420 C.3       1 PRO        -0.0104
    110 CG         53.4730    5.7100  -16.6220 C.3       1 PRO        -0.0281
    111 CD         52.7950    4.3730  -16.7630 C.3       1 PRO         0.0369
    112 N          49.0940    7.1770  -17.6890 N.am      1 GLY        -0.2664
    113 CA         48.0550    7.4140  -18.7280 C.3       1 GLY         0.1201
    114 C          48.3900    8.5480  -19.7130 C.2       1 GLY         0.2003
    115 O          49.3750    9.2880  -19.5300 O.2       1 GLY        -0.3947
    116 N          47.5870    8.6760  -20.7720 N.am      1 SER        -0.2675
    117 CA         47.7840    9.7500  -21.7490 C.3       1 SER         0.1173
    118 C          46.7350   10.8790  -21.6000 C.2       1 SER         0.0623
    119 O          46.0700   10.9950  -20.5560 O.co2     1 SER        -0.5665
    120 CB         47.7990    9.1800  -23.1670 C.3       1 SER         0.0789
    121 OG         46.4960    9.2550  -23.7250 O.3       1 SER        -0.3910
    122 OXT        46.5390   11.6900  -22.5220 O.co2     1 SER        -0.5665
    123 H1         58.0030   12.1046   -5.0814 H         1 GLU         0.2015
    124 H2         57.2174   13.0826   -6.1471 H         1 GLU         0.2015
    125 H3         56.6279   12.8846   -4.6230 H         1 GLU         0.2015
    126 H4         58.4987   14.0015   -3.6344 H         1 GLU         0.1099
    127 H5         60.3954   14.6021   -4.7229 H         1 GLU         0.0363
    128 H6         59.5534   14.8843   -6.2844 H         1 GLU         0.0363
    129 H7         61.3363   12.9689   -6.1249 H         1 GLU         0.0434
    130 H8         59.7861   12.6462   -6.9731 H         1 GLU         0.0434
    131 H9         56.5465   17.9949   -4.9624 H         1 PRO         0.0802
    132 H10        57.3566   19.6189   -6.4425 H         1 PRO         0.0313
    133 H11        57.8959   18.4079   -7.6548 H         1 PRO         0.0313
    134 H12        59.1718   19.2290   -5.0440 H         1 PRO         0.0287
    135 H13        59.9398   18.8050   -6.6115 H         1 PRO         0.0287
    136 H14        60.0029   16.5660   -6.0984 H         1 PRO         0.0524
    137 H15        59.7408   17.0996   -4.4034 H         1 PRO         0.0524
    138 H16        54.8463   15.8814   -8.0773 H         1 VAL         0.1883
    139 H17        56.7937   17.2311   -9.4555 H         1 VAL         0.0802
    140 H18        58.2533   16.0150   -7.4620 H         1 VAL         0.0343
    141 H19        59.4947   14.1124   -8.4518 H         1 VAL         0.0234
    142 H20        58.3574   14.0982   -9.8421 H         1 VAL         0.0234
    143 H21        57.7609   13.7223   -8.1900 H         1 VAL         0.0234
    144 H22        58.9669   17.7446   -9.0773 H         1 VAL         0.0234
    145 H23        59.1645   16.4718  -10.3293 H         1 VAL         0.0234
    146 H24        60.1946   16.4518   -8.8579 H         1 VAL         0.0234
    147 H25        55.7267   13.9071   -8.5499 H         1 ASP         0.1884
    148 H26        55.8239   13.0856  -11.3987 H         1 ASP         0.0819
    149 H27        57.2204   11.7698   -9.8812 H         1 ASP         0.0478
    150 H28        55.9247   10.7575  -10.6043 H         1 ASP         0.0478
    151 H29        51.5218   12.2467  -11.7727 H         1 PRO         0.0802
    152 H30        51.2870   10.7480  -13.4924 H         1 PRO         0.0313
    153 H31        51.4237    9.3676  -12.3512 H         1 PRO         0.0313
    154 H32        53.5371   10.6787  -14.0385 H         1 PRO         0.0287
    155 H33        53.4431    8.9936  -13.4234 H         1 PRO         0.0287
    156 H34        54.3944    9.5711  -11.3272 H         1 PRO         0.0524
    157 H35        55.2078   10.7910  -12.3649 H         1 PRO         0.0524
    158 H36        53.0976   10.1499   -9.4886 H         1 LYS         0.1883
    159 H37        52.5080    9.6511   -7.3104 H         1 LYS         0.0800
    160 H38        50.3361   10.7625   -6.4778 H         1 LYS         0.0312
    161 H39        50.2513   11.5283   -8.1005 H         1 LYS         0.0312
    162 H40        52.4538   12.6288   -7.7044 H         1 LYS         0.0269
    163 H41        52.5587   11.8496   -6.0893 H         1 LYS         0.0269
    164 H42        50.7134   13.1010   -5.2490 H         1 LYS         0.0317
    165 H43        50.2117   13.6179   -6.8945 H         1 LYS         0.0317
    166 H44        52.8240   14.5490   -6.7961 H         1 LYS         0.0813
    167 H45        52.3036   14.7529   -5.0890 H         1 LYS         0.0813
    168 H46        51.6716   16.6440   -6.4525 H         1 LYS         0.1994
    169 H47        50.3276   15.8683   -5.9034 H         1 LYS         0.1994
    170 H48        50.8044   15.6815   -7.4678 H         1 LYS         0.1994
    171 H49        51.8714    7.8465   -9.3920 H         1 LEU         0.1883
    172 H50        49.1567    6.7996   -8.7834 H         1 LEU         0.0800
    173 H51        49.7124    5.3073  -10.7599 H         1 LEU         0.0315
    174 H52        51.1864    6.3078  -10.9902 H         1 LEU         0.0315
    175 H53        49.5580    8.2912  -11.2347 H         1 LEU         0.0298
    176 H54        49.2940    7.7299  -13.6643 H         1 LEU         0.0232
    177 H55        49.6770    6.0126  -13.3028 H         1 LEU         0.0232
    178 H56        50.9246    7.2817  -13.0587 H         1 LEU         0.0232
    179 H57        47.5638    7.1332  -10.4012 H         1 LEU         0.0232
    180 H58        47.6837    5.9531  -11.7501 H         1 LEU         0.0232
    181 H59        47.3483    7.6833  -12.0975 H         1 LEU         0.0232
    182 H60        48.9929    4.4737   -8.5335 H         1 GLU         0.1883
    183 H61        50.9493    3.4113   -6.6574 H         1 GLU         0.0801
    184 H62        49.4017    1.3730   -6.8943 H         1 GLU         0.0330
    185 H63        48.4118    2.3947   -7.9910 H         1 GLU         0.0330
    186 H64        48.5545    4.0802   -5.8069 H         1 GLU         0.0433
    187 H65        48.6809    2.4956   -4.9705 H         1 GLU         0.0433
    188 H66        53.7663    1.3690   -9.1638 H         1 PRO         0.0802
    189 H67        54.6615   -0.5130   -7.9896 H         1 PRO         0.0313
    190 H68        53.0402   -1.2379   -7.7204 H         1 PRO         0.0313
    191 H69        54.2765    1.2043   -6.3902 H         1 PRO         0.0287
    192 H70        53.5577   -0.2506   -5.6198 H         1 PRO         0.0287
    193 H71        51.3554    0.3514   -6.2561 H         1 PRO         0.0524
    194 H72        52.0795    1.9619   -5.9267 H         1 PRO         0.0524
    195 H73        50.5413   -0.0776   -9.2524 H         1 TRP         0.1884
    196 H74        51.4780   -1.8842  -11.4466 H         1 TRP         0.0815
    197 H75        50.3031   -3.2031   -9.8740 H         1 TRP         0.0397
    198 H76        49.0914   -2.8904  -11.1626 H         1 TRP         0.0397
    199 H77        49.8940   -1.9691   -7.4499 H         1 TRP         0.0795
    200 H78        47.8092   -0.8393   -6.3848 H         1 TRP         0.2216
    201 H79        46.9885   -1.4809  -11.6945 H         1 TRP         0.0540
    202 H80        45.3229    0.1526   -7.2498 H         1 TRP         0.0541
    203 H81        44.7560   -0.3593  -11.4949 H         1 TRP         0.0510
    204 H82        43.9587    0.4559   -9.2601 H         1 TRP         0.0530
    205 H83        50.2940    1.1309  -11.0591 H         1 LYS         0.1883
    206 H84        48.4398    1.0781  -13.3170 H         1 LYS         0.0800
    207 H85        48.6267    3.5684  -13.1498 H         1 LYS         0.0312
    208 H86        49.8221    3.3476  -11.8272 H         1 LYS         0.0312
    209 H87        47.8223    3.7633  -10.6661 H         1 LYS         0.0269
    210 H88        47.9091    1.9691  -10.6637 H         1 LYS         0.0269
    211 H89        46.3550    1.8091  -12.5007 H         1 LYS         0.0317
    212 H90        46.4374    3.5774  -12.8054 H         1 LYS         0.0317
    213 H91        45.5700    2.5242  -10.0442 H         1 LYS         0.0813
    214 H92        44.3787    2.5952  -11.3867 H         1 LYS         0.0813
    215 H93        44.3068    4.5703  -10.0168 H         1 LYS         0.1994
    216 H94        44.8017    4.9649  -11.5363 H         1 LYS         0.1994
    217 H95        45.8934    4.8999  -10.3060 H         1 LYS         0.1994
    218 H96        48.9047    1.6425  -15.3938 H         1 HIS         0.1885
    219 H97        51.7261    2.2025  -16.1497 H         1 HIS         0.0817
    220 H98        50.9006    1.8114  -18.4546 H         1 HIS         0.0420
    221 H99        49.2441    1.5487  -17.8113 H         1 HIS         0.0420
    222 H100       52.8079   -0.2268  -17.4863 H         1 HIS         0.0729
    223 H101       49.7350   -3.0550  -16.6056 H         1 HIS         0.1199
    224 H102       52.2565   -2.7155  -16.8713 H         1 HIS         0.2361
    225 H103       50.4633    6.4176  -15.7294 H         1 PRO         0.0802
    226 H104       52.4931    7.4780  -15.7571 H         1 PRO         0.0313
    227 H105       52.4883    7.4415  -17.5530 H         1 PRO         0.0313
    228 H106       54.0239    5.7458  -15.6706 H         1 PRO         0.0287
    229 H107       54.1734    5.8583  -17.4571 H         1 PRO         0.0287
    230 H108       52.9837    3.9439  -17.7581 H         1 PRO         0.0524
    231 H109       53.1473    3.6745  -15.9897 H         1 PRO         0.0524
    232 H110       48.9588    7.5977  -16.7919 H         1 GLY         0.1881
    233 H111       47.1120    7.6660  -18.2208 H         1 GLY         0.0763
    234 H112       47.9252    6.4855  -19.3033 H         1 GLY         0.0763
    235 H113       46.8373    8.0269  -20.9007 H         1 SER         0.1876
    236 H114       48.7717   10.1947  -21.5577 H         1 SER         0.0749
    237 H115       48.1237    8.1295  -23.1357 H         1 SER         0.0599
    238 H116       48.4968    9.7612  -23.7877 H         1 SER         0.0599
    239 H117       46.2161   10.1624  -23.7522 H         1 SER         0.2096
@<TRIPOS>BOND
     1    1    2 1  
     2    2    3 1  
     3    2    5 1  
     4    3    4 2  
     5    3   10 am 
     6    5    6 1  
     7    6    7 1  
     8    7    8 ar 
     9    7    9 ar 
    10   10   11 1  
    11   10   16 1  
    12   11   12 1  
    13   11   14 1  
    14   12   13 2  
    15   12   17 am 
    16   14   15 1  
    17   15   16 1  
    18   17   18 1  
    19   18   19 1  
    20   18   21 1  
    21   19   20 2  
    22   19   24 am 
    23   21   22 1  
    24   21   23 1  
    25   24   25 1  
    26   25   26 1  
    27   25   28 1  
    28   26   27 2  
    29   26   32 am 
    30   28   29 1  
    31   29   30 ar 
    32   29   31 ar 
    33   32   33 1  
    34   32   38 1  
    35   33   34 1  
    36   33   36 1  
    37   34   35 2  
    38   34   39 am 
    39   36   37 1  
    40   37   38 1  
    41   39   40 1  
    42   40   41 1  
    43   40   43 1  
    44   41   42 2  
    45   41   48 am 
    46   43   44 1  
    47   44   45 1  
    48   45   46 1  
    49   46   47 1  
    50   48   49 1  
    51   49   50 1  
    52   49   52 1  
    53   50   51 2  
    54   50   56 am 
    55   52   53 1  
    56   53   54 1  
    57   53   55 1  
    58   56   57 1  
    59   57   58 1  
    60   57   60 1  
    61   58   59 2  
    62   58   65 am 
    63   60   61 1  
    64   61   62 1  
    65   62   63 ar 
    66   62   64 ar 
    67   65   66 1  
    68   65   71 1  
    69   66   67 1  
    70   66   69 1  
    71   67   68 2  
    72   67   72 am 
    73   69   70 1  
    74   70   71 1  
    75   72   73 1  
    76   73   74 1  
    77   73   76 1  
    78   74   75 2  
    79   74   86 am 
    80   76   77 1  
    81   77   78 2  
    82   77   79 1  
    83   78   80 1  
    84   79   81 ar 
    85   79   82 ar 
    86   80   81 1  
    87   81   83 ar 
    88   82   84 ar 
    89   83   85 ar 
    90   84   85 ar 
    91   86   87 1  
    92   87   88 1  
    93   87   90 1  
    94   88   89 2  
    95   88   95 am 
    96   90   91 1  
    97   91   92 1  
    98   92   93 1  
    99   93   94 1  
   100   95   96 1  
   101   96   97 1  
   102   96   99 1  
   103   97   98 2  
   104   97  105 am 
   105   99  100 1  
   106  100  101 1  
   107  100  102 2  
   108  101  103 2  
   109  102  104 1  
   110  103  104 1  
   111  105  106 1  
   112  105  111 1  
   113  106  107 1  
   114  106  109 1  
   115  107  108 2  
   116  107  112 am 
   117  109  110 1  
   118  110  111 1  
   119  112  113 1  
   120  113  114 1  
   121  114  115 2  
   122  114  116 am 
   123  116  117 1  
   124  117  118 1  
   125  117  120 1  
   126  118  119 ar 
   127  118  122 ar 
   128  120  121 1  
   129    1  123 1  
   130    1  124 1  
   131    1  125 1  
   132    2  126 1  
   133    5  127 1  
   134    5  128 1  
   135    6  129 1  
   136    6  130 1  
   137   11  131 1  
   138   14  132 1  
   139   14  133 1  
   140   15  134 1  
   141   15  135 1  
   142   16  136 1  
   143   16  137 1  
   144   17  138 1  
   145   18  139 1  
   146   21  140 1  
   147   22  141 1  
   148   22  142 1  
   149   22  143 1  
   150   23  144 1  
   151   23  145 1  
   152   23  146 1  
   153   24  147 1  
   154   25  148 1  
   155   28  149 1  
   156   28  150 1  
   157   33  151 1  
   158   36  152 1  
   159   36  153 1  
   160   37  154 1  
   161   37  155 1  
   162   38  156 1  
   163   38  157 1  
   164   39  158 1  
   165   40  159 1  
   166   43  160 1  
   167   43  161 1  
   168   44  162 1  
   169   44  163 1  
   170   45  164 1  
   171   45  165 1  
   172   46  166 1  
   173   46  167 1  
   174   47  168 1  
   175   47  169 1  
   176   47  170 1  
   177   48  171 1  
   178   49  172 1  
   179   52  173 1  
   180   52  174 1  
   181   53  175 1  
   182   54  176 1  
   183   54  177 1  
   184   54  178 1  
   185   55  179 1  
   186   55  180 1  
   187   55  181 1  
   188   56  182 1  
   189   57  183 1  
   190   60  184 1  
   191   60  185 1  
   192   61  186 1  
   193   61  187 1  
   194   66  188 1  
   195   69  189 1  
   196   69  190 1  
   197   70  191 1  
   198   70  192 1  
   199   71  193 1  
   200   71  194 1  
   201   72  195 1  
   202   73  196 1  
   203   76  197 1  
   204   76  198 1  
   205   78  199 1  
   206   80  200 1  
   207   82  201 1  
   208   83  202 1  
   209   84  203 1  
   210   85  204 1  
   211   86  205 1  
   212   87  206 1  
   213   90  207 1  
   214   90  208 1  
   215   91  209 1  
   216   91  210 1  
   217   92  211 1  
   218   92  212 1  
   219   93  213 1  
   220   93  214 1  
   221   94  215 1  
   222   94  216 1  
   223   94  217 1  
   224   95  218 1  
   225   96  219 1  
   226   99  220 1  
   227   99  221 1  
   228  102  222 1  
   229  103  223 1  
   230  104  224 1  
   231  106  225 1  
   232  109  226 1  
   233  109  227 1  
   234  110  228 1  
   235  110  229 1  
   236  111  230 1  
   237  111  231 1  
   238  112  232 1  
   239  113  233 1  
   240  113  234 1  
   241  116  235 1  
   242  117  236 1  
   243  120  237 1  
   244  120  238 1  
   245  121  239 1  
@<TRIPOS>SUBSTRUCTURE
     1 GLU         1

