3o6l_ligand
  -I-interpret- 

241247  0  0  0  0  0  0  0  0999 V2000
   57.4660   12.9520   -5.1790 N   0  3  0  0  0
   58.2910   14.1290   -4.7070 C   0  0  0  0  0
   57.4210   15.4030   -4.8780 C   0  0  0  0  0
   56.2440   15.3560   -4.4690 O   0  0  0  0  0
   59.6630   14.1940   -5.4350 C   0  0  0  0  0
   60.2510   12.8440   -5.9960 C   0  0  0  0  0
   60.0120   11.6240   -5.0950 C   0  0  0  0  0
   59.2220   10.7350   -5.4970 O   0  0  0  0  0
   60.6010   11.5700   -3.9840 O   0  0  0  0  0
   57.9610   16.5330   -5.4520 N   0  0  0  0  0
   56.9580   17.5430   -5.8770 C   0  0  0  0  0
   55.6720   17.0060   -6.6810 C   0  0  0  0  0
   54.5690   17.1890   -6.1370 O   0  0  0  0  0
   57.8030   18.6230   -6.5800 C   0  0  0  0  0
   59.1430   18.5400   -5.9010 C   0  0  0  0  0
   59.3310   17.1170   -5.4240 C   0  0  0  0  0
   55.6950   16.3730   -7.8820 N   0  0  0  0  0
   56.7010   16.2460   -8.9750 C   0  0  0  0  0
   56.0810   15.2590  -10.0000 C   0  0  0  0  0
   55.8390   15.6440  -11.1460 O   0  0  0  0  0
   58.1650   15.8260   -8.5420 C   0  0  0  0  0
   58.4660   14.3330   -8.7730 C   0  0  0  0  0
   59.1930   16.6820   -9.2500 C   0  0  0  0  0
   55.7500   14.0380   -9.5410 N   0  0  0  0  0
   55.4140   12.8610  -10.4030 C   0  0  0  0  0
   53.8850   12.6170  -10.6130 C   0  0  0  0  0
   53.0830   13.4340  -10.1260 O   0  0  0  0  0
   56.1380   11.5750   -9.9000 C   0  0  0  0  0
   55.6960   11.1300   -8.4850 C   0  0  0  0  0
   54.7840   10.2640   -8.3920 O   0  0  0  0  0
   56.2720   11.6250   -7.4750 O   0  0  0  0  0
   53.4740   11.5040  -11.3310 N   0  0  0  0  0
   52.0000   11.2930  -11.5050 C   0  0  0  0  0
   51.3190   10.7600  -10.2440 C   0  0  0  0  0
   50.0840   10.8250  -10.1600 O   0  0  0  0  0
   51.8880   10.3080  -12.6830 C   0  0  0  0  0
   53.3140   10.0540  -13.1610 C   0  0  0  0  0
   54.2360   10.4260  -12.0010 C   0  0  0  0  0
   52.1270   10.2720   -9.2810 N   0  0  0  0  0
   51.6460    9.9120   -7.9420 C   0  0  0  0  0
   50.6960    8.7110   -8.0010 C   0  0  0  0  0
   49.6880    8.6720   -7.2930 O   0  0  0  0  0
   50.9260   11.1120   -7.3380 C   0  0  0  0  0
   51.8730   12.2510   -6.8500 C   0  0  0  0  0
   51.0720   13.3930   -6.2470 C   0  0  0  0  0
   51.9560   14.6360   -6.1260 C   0  0  0  0  0
   51.1230   15.8010   -6.5190 N   0  3  0  0  0
   51.0140    7.7580   -8.8850 N   0  0  0  0  0
   50.1780    6.6060   -9.1430 C   0  0  0  0  0
   50.7660    5.4180   -8.4100 C   0  0  0  0  0
   51.9500    5.4190   -8.0390 O   0  0  0  0  0
   50.1450    6.3110  -10.6360 C   0  0  0  0  0
   49.3640    7.2530  -11.5420 C   0  0  0  0  0
   49.8500    7.0550  -12.9970 C   0  0  0  0  0
   47.8920    6.9880  -11.4410 C   0  0  0  0  0
   49.9370    4.3960   -8.2130 N   0  0  0  0  0
   50.3520    3.1700   -7.5490 C   0  0  0  0  0
   51.1960    2.3320   -8.5190 C   0  0  0  0  0
   51.0940    2.5260   -9.7240 O   0  0  0  0  0
   49.1050    2.4040   -7.1370 C   0  0  0  0  0
   48.3350    3.0050   -5.8820 C   0  0  0  0  0
   46.8160    2.8110   -6.0200 C   0  0  0  0  0
   46.2510    2.2040   -5.1200 O   0  0  0  0  0
   46.2130    3.2450   -7.0430 O   0  0  0  0  0
   52.0150    1.4120   -7.9940 N   0  0  0  0  0
   53.0040    0.6750   -8.7800 C   0  0  0  0  0
   52.4410   -0.1200   -9.9460 C   0  0  0  0  0
   53.1980   -0.3920  -10.8720 O   0  0  0  0  0
   53.6090   -0.2970   -7.7540 C   0  0  0  0  0
   53.4930    0.4370   -6.4760 C   0  0  0  0  0
   52.1380    1.0630   -6.5580 C   0  0  0  0  0
   51.1540   -0.4490   -9.9500 N   0  0  0  0  0
   50.6270   -1.3630  -10.9840 C   0  0  0  0  0
   49.9290   -0.5970  -12.0350 C   0  0  0  0  0
   49.4150   -1.1570  -12.9920 O   0  0  0  0  0
   49.6910   -2.4310  -10.3630 C   0  0  0  0  0
   48.7520   -1.8130   -9.3300 C   0  0  0  0  0
   48.9910   -1.6560   -7.9720 C   0  0  0  0  0
   47.4550   -1.2400   -9.5820 C   0  0  0  0  0
   47.9060   -1.0420   -7.3900 N   0  0  0  0  0
   46.9720   -0.7400   -8.3490 C   0  0  0  0  0
   46.6450   -1.1090  -10.7360 C   0  0  0  0  0
   45.6920   -0.1660   -8.2180 C   0  0  0  0  0
   45.3820   -0.4860  -10.6190 C   0  0  0  0  0
   44.9290   -0.0210   -9.3380 C   0  0  0  0  0
   49.9070    0.7210  -11.8850 N   0  0  0  0  0
   49.3310    1.5700  -12.9000 C   0  0  0  0  0
   50.3540    1.8110  -14.0130 C   0  0  0  0  0
   51.5330    1.9420  -13.7370 O   0  0  0  0  0
   48.9390    2.9160  -12.3210 C   0  0  0  0  0
   47.7950    2.8620  -11.2960 C   0  0  0  0  0
   46.4710    2.7970  -12.0310 C   0  0  0  0  0
   45.3040    3.0320  -10.9830 C   0  0  0  0  0
   45.0560    4.4870  -10.6860 N   0  3  0  0  0
   49.8620    1.8890  -15.2430 N   0  0  0  0  0
   50.6550    2.3160  -16.3730 C   0  0  0  0  0
   50.3330    3.7910  -16.5580 C   0  0  0  0  0
   49.1510    4.1400  -16.6530 O   0  0  0  0  0
   50.3180    1.4510  -17.5940 C   0  0  0  0  0
   50.6370   -0.0070  -17.3680 C   0  0  0  0  0
   49.6740   -0.9510  -17.0490 N   0  0  0  0  0
   51.8240   -0.6590  -17.3100 C   0  0  0  0  0
   50.2480   -2.1250  -16.8460 C   0  0  0  0  0
   51.5530   -1.9720  -16.9860 N   0  0  0  0  0
   51.3580    4.6690  -16.5850 N   0  0  0  0  0
   51.0320    6.1240  -16.6240 C   0  0  0  0  0
   50.2030    6.4360  -17.8720 C   0  0  0  0  0
   50.5340    5.9290  -18.9550 O   0  0  0  0  0
   52.3890    6.8330  -16.6420 C   0  0  0  0  0
   53.4730    5.7100  -16.6220 C   0  0  0  0  0
   52.7950    4.3730  -16.7630 C   0  0  0  0  0
   49.0940    7.1770  -17.6890 N   0  0  0  0  0
   48.0550    7.4140  -18.7280 C   0  0  0  0  0
   48.3900    8.5480  -19.7130 C   0  0  0  0  0
   49.3750    9.2880  -19.5300 O   0  0  0  0  0
   47.5870    8.6760  -20.7720 N   0  0  0  0  0
   47.7840    9.7500  -21.7490 C   0  0  0  0  0
   46.7350   10.8790  -21.6000 C   0  0  0  0  0
   46.0700   10.9950  -20.5560 O   0  0  0  0  0
   47.7990    9.1800  -23.1670 C   0  0  0  0  0
   46.4960    9.2550  -23.7250 O   0  0  0  0  0
   46.5390   11.6900  -22.5220 O   0  0  0  0  0
   56.5756   12.9411   -4.6815 H   0  0  0  0  0
   57.2959   13.0376   -6.1811 H   0  0  0  0  0
   57.9722   12.0865   -4.9915 H   0  0  0  0  0
   58.5550   14.0290   -3.6542 H   0  0  0  0  0
   60.3772   14.5374   -4.6866 H   0  0  0  0  0
   59.5041   14.8300   -6.3058 H   0  0  0  0  0
   61.3301   12.9748   -6.0771 H   0  0  0  0  0
   59.7483   12.6455   -6.9426 H   0  0  0  0  0
   61.1541   12.3475   -3.8782 H   0  0  0  0  0
   56.4155   17.9430   -5.0204 H   0  0  0  0  0
   57.3584   19.6145   -6.4945 H   0  0  0  0  0
   57.8745   18.4555   -7.6547 H   0  0  0  0  0
   59.1842   19.2305   -5.0586 H   0  0  0  0  0
   59.9371   18.8149   -6.5952 H   0  0  0  0  0
   60.0257   16.5621   -6.0546 H   0  0  0  0  0
   59.7743   17.0738   -4.4292 H   0  0  0  0  0
   54.8294   15.8716   -8.0812 H   0  0  0  0  0
   56.8824   17.2354   -9.3948 H   0  0  0  0  0
   58.2253   15.9930   -7.4666 H   0  0  0  0  0
   57.7667   13.7290   -8.1948 H   0  0  0  0  0
   58.3580   14.1016   -9.8327 H   0  0  0  0  0
   59.4855   14.1157   -8.4544 H   0  0  0  0  0
   59.0911   16.5533  -10.3276 H   0  0  0  0  0
   59.0329   17.7286   -8.9910 H   0  0  0  0  0
   60.1927   16.3784   -8.9395 H   0  0  0  0  0
   55.7263   13.9045   -8.5301 H   0  0  0  0  0
   55.7900   13.1137  -11.3944 H   0  0  0  0  0
   57.2044   11.7960   -9.8554 H   0  0  0  0  0
   55.8890   10.7683  -10.5895 H   0  0  0  0  0
   56.9306   12.2611   -7.7634 H   0  0  0  0  0
   51.4841   12.2332  -11.6998 H   0  0  0  0  0
   51.2725   10.7198  -13.4828 H   0  0  0  0  0
   51.4051    9.3804  -12.3755 H   0  0  0  0  0
   53.5403   10.6504  -14.0449 H   0  0  0  0  0
   53.4489    9.0107  -13.4463 H   0  0  0  0  0
   54.4615    9.5860  -11.3440 H   0  0  0  0  0
   55.2294   10.7377  -12.3237 H   0  0  0  0  0
   53.1170   10.1475   -9.4927 H   0  0  0  0  0
   52.4992    9.6343   -7.3231 H   0  0  0  0  0
   50.3809   10.7526   -6.4652 H   0  0  0  0  0
   50.2943   11.5335   -8.1199 H   0  0  0  0  0
   52.4388   12.6284   -7.7018 H   0  0  0  0  0
   52.5436   11.8506   -6.0897 H   0  0  0  0  0
   50.7188   13.1033   -5.2573 H   0  0  0  0  0
   50.2209   13.6163   -6.8903 H   0  0  0  0  0
   52.8304   14.5518   -6.7714 H   0  0  0  0  0
   52.3228   14.7507   -5.1060 H   0  0  0  0  0
   51.6791   16.6534   -6.4513 H   0  0  0  0  0
   50.8012   15.6789   -7.4792 H   0  0  0  0  0
   50.3185   15.8680   -5.8955 H   0  0  0  0  0
   51.8885    7.8483   -9.4021 H   0  0  0  0  0
   49.1619    6.8015   -8.8003 H   0  0  0  0  0
   49.6447    5.3468  -10.7262 H   0  0  0  0  0
   51.1808    6.3896  -10.9662 H   0  0  0  0  0
   49.5367    8.2835  -11.2315 H   0  0  0  0  0
   50.9149    7.2799  -13.0568 H   0  0  0  0  0
   49.6781    6.0218  -13.2987 H   0  0  0  0  0
   49.2984    7.7243  -13.6572 H   0  0  0  0  0
   47.6877    5.9602  -11.7412 H   0  0  0  0  0
   47.5668    7.1387  -10.4116 H   0  0  0  0  0
   47.3549    7.6730  -12.0970 H   0  0  0  0  0
   48.9741    4.4752   -8.5399 H   0  0  0  0  0
   50.9516    3.3935   -6.6666 H   0  0  0  0  0
   49.4281    1.4009   -6.8585 H   0  0  0  0  0
   48.4156    2.4460   -7.9802 H   0  0  0  0  0
   48.5463    4.0726   -5.8215 H   0  0  0  0  0
   48.6728    2.4868   -4.9845 H   0  0  0  0  0
   46.8404    3.6881   -7.6189 H   0  0  0  0  0
   53.7013    1.3706   -9.2469 H   0  0  0  0  0
   54.6384   -0.5669   -7.9896 H   0  0  0  0  0
   53.0940   -1.2575   -7.7332 H   0  0  0  0  0
   54.2865    1.1721   -6.3418 H   0  0  0  0  0
   53.6020   -0.2134   -5.6081 H   0  0  0  0  0
   51.3451    0.3975   -6.2167 H   0  0  0  0  0
   52.0333    1.9284   -5.9036 H   0  0  0  0  0
   50.5291   -0.0702   -9.2384 H   0  0  0  0  0
   51.4681   -1.8871  -11.4379 H   0  0  0  0  0
   50.3042   -3.1838   -9.8678 H   0  0  0  0  0
   49.0899   -2.8705  -11.1591 H   0  0  0  0  0
   49.8948   -1.9694   -7.4494 H   0  0  0  0  0
   46.9904   -1.4830  -11.6998 H   0  0  0  0  0
   45.3209    0.1544   -7.2445 H   0  0  0  0  0
   44.7526   -0.3586  -11.4997 H   0  0  0  0  0
   43.9533    0.4585   -9.2597 H   0  0  0  0  0
   50.3018    1.1391  -11.0425 H   0  0  0  0  0
   48.4452    1.0701  -13.2920 H   0  0  0  0  0
   48.5935    3.5315  -13.1516 H   0  0  0  0  0
   49.8141    3.3061  -11.8012 H   0  0  0  0  0
   47.8225    3.7535  -10.6694 H   0  0  0  0  0
   47.9083    1.9790  -10.6671 H   0  0  0  0  0
   46.3554    1.8225  -12.5054 H   0  0  0  0  0
   46.4365    3.5633  -12.8054 H   0  0  0  0  0
   45.5964    2.5501  -10.0501 H   0  0  0  0  0
   44.3891    2.6220  -11.4107 H   0  0  0  0  0
   44.2978    4.5701  -10.0088 H   0  0  0  0  0
   45.9040    4.9037  -10.3016 H   0  0  0  0  0
   44.7988    4.9695  -11.5471 H   0  0  0  0  0
   48.8855    1.6376  -15.3968 H   0  0  0  0  0
   51.7281    2.1953  -16.2245 H   0  0  0  0  0
   50.9177    1.8024  -18.4336 H   0  0  0  0  0
   49.2484    1.5377  -17.7853 H   0  0  0  0  0
   52.8088   -0.2264  -17.4865 H   0  0  0  0  0
   49.7345   -3.0559  -16.6053 H   0  0  0  0  0
   50.4341    6.4516  -15.7735 H   0  0  0  0  0
   52.4958    7.4952  -15.7828 H   0  0  0  0  0
   52.4912    7.4597  -17.5279 H   0  0  0  0  0
   54.0230    5.7463  -15.6816 H   0  0  0  0  0
   54.1708    5.8574  -17.4463 H   0  0  0  0  0
   53.0011    3.9091  -17.7276 H   0  0  0  0  0
   53.1579    3.6507  -16.0318 H   0  0  0  0  0
   48.9561    7.6062  -16.7740 H   0  0  0  0  0
   47.1413    7.7011  -18.2077 H   0  0  0  0  0
   47.9706    6.4973  -19.3116 H   0  0  0  0  0
   46.8223    8.0139  -20.9033 H   0  0  0  0  0
   48.7540   10.2056  -21.5498 H   0  0  0  0  0
   48.1196    8.1387  -23.1351 H   0  0  0  0  0
   48.4897    9.7572  -23.7817 H   0  0  0  0  0
   46.5093    8.8962  -24.6153 H   0  0  0  0  0
   47.1175   11.4809  -23.2590 H   0  0  0  0  0
  1  2  1  0  0  0
  2  3  1  0  0  0
  2  5  1  0  0  0
  3  4  2  0  0  0
  3 10  1  0  0  0
  5  6  1  0  0  0
  6  7  1  0  0  0
  7  8  2  0  0  0
  7  9  1  0  0  0
 10 11  1  0  0  0
 10 16  1  0  0  0
 11 12  1  0  0  0
 11 14  1  0  0  0
 12 13  2  0  0  0
 12 17  1  0  0  0
 14 15  1  0  0  0
 15 16  1  0  0  0
 17 18  1  0  0  0
 18 19  1  0  0  0
 18 21  1  0  0  0
 19 20  2  0  0  0
 19 24  1  0  0  0
 21 22  1  0  0  0
 21 23  1  0  0  0
 24 25  1  0  0  0
 25 26  1  0  0  0
 25 28  1  0  0  0
 26 27  2  0  0  0
 26 32  1  0  0  0
 28 29  1  0  0  0
 29 30  2  0  0  0
 29 31  1  0  0  0
 32 33  1  0  0  0
 32 38  1  0  0  0
 33 34  1  0  0  0
 33 36  1  0  0  0
 34 35  2  0  0  0
 34 39  1  0  0  0
 36 37  1  0  0  0
 37 38  1  0  0  0
 39 40  1  0  0  0
 40 41  1  0  0  0
 40 43  1  0  0  0
 41 42  2  0  0  0
 41 48  1  0  0  0
 43 44  1  0  0  0
 44 45  1  0  0  0
 45 46  1  0  0  0
 46 47  1  0  0  0
 48 49  1  0  0  0
 49 50  1  0  0  0
 49 52  1  0  0  0
 50 51  2  0  0  0
 50 56  1  0  0  0
 52 53  1  0  0  0
 53 54  1  0  0  0
 53 55  1  0  0  0
 56 57  1  0  0  0
 57 58  1  0  0  0
 57 60  1  0  0  0
 58 59  2  0  0  0
 58 65  1  0  0  0
 60 61  1  0  0  0
 61 62  1  0  0  0
 62 63  2  0  0  0
 62 64  1  0  0  0
 65 66  1  0  0  0
 65 71  1  0  0  0
 66 67  1  0  0  0
 66 69  1  0  0  0
 67 68  2  0  0  0
 67 72  1  0  0  0
 69 70  1  0  0  0
 70 71  1  0  0  0
 72 73  1  0  0  0
 73 74  1  0  0  0
 73 76  1  0  0  0
 74 75  2  0  0  0
 74 86  1  0  0  0
 76 77  1  0  0  0
 77 78  4  0  0  0
 77 79  4  0  0  0
 78 80  4  0  0  0
 79 81  4  0  0  0
 79 82  4  0  0  0
 80 81  4  0  0  0
 81 83  4  0  0  0
 82 84  4  0  0  0
 83 85  4  0  0  0
 84 85  4  0  0  0
 86 87  1  0  0  0
 87 88  1  0  0  0
 87 90  1  0  0  0
 88 89  2  0  0  0
 88 95  1  0  0  0
 90 91  1  0  0  0
 91 92  1  0  0  0
 92 93  1  0  0  0
 93 94  1  0  0  0
 95 96  1  0  0  0
 96 97  1  0  0  0
 96 99  1  0  0  0
 97 98  2  0  0  0
 97105  1  0  0  0
 99100  1  0  0  0
100101  4  0  0  0
100102  4  0  0  0
101103  4  0  0  0
102104  4  0  0  0
103104  4  0  0  0
105106  1  0  0  0
105111  1  0  0  0
106107  1  0  0  0
106109  1  0  0  0
107108  2  0  0  0
107112  1  0  0  0
109110  1  0  0  0
110111  1  0  0  0
112113  1  0  0  0
113114  1  0  0  0
114115  2  0  0  0
114116  1  0  0  0
116117  1  0  0  0
117118  1  0  0  0
117120  1  0  0  0
118119  2  0  0  0
118122  1  0  0  0
120121  1  0  0  0
  1123  1  0  0  0
  1124  1  0  0  0
  1125  1  0  0  0
  2126  1  0  0  0
  5127  1  0  0  0
  5128  1  0  0  0
  6129  1  0  0  0
  6130  1  0  0  0
  9131  1  0  0  0
 11132  1  0  0  0
 14133  1  0  0  0
 14134  1  0  0  0
 15135  1  0  0  0
 15136  1  0  0  0
 16137  1  0  0  0
 16138  1  0  0  0
 17139  1  0  0  0
 18140  1  0  0  0
 21141  1  0  0  0
 22142  1  0  0  0
 22143  1  0  0  0
 22144  1  0  0  0
 23145  1  0  0  0
 23146  1  0  0  0
 23147  1  0  0  0
 24148  1  0  0  0
 25149  1  0  0  0
 28150  1  0  0  0
 28151  1  0  0  0
 31152  1  0  0  0
 33153  1  0  0  0
 36154  1  0  0  0
 36155  1  0  0  0
 37156  1  0  0  0
 37157  1  0  0  0
 38158  1  0  0  0
 38159  1  0  0  0
 39160  1  0  0  0
 40161  1  0  0  0
 43162  1  0  0  0
 43163  1  0  0  0
 44164  1  0  0  0
 44165  1  0  0  0
 45166  1  0  0  0
 45167  1  0  0  0
 46168  1  0  0  0
 46169  1  0  0  0
 47170  1  0  0  0
 47171  1  0  0  0
 47172  1  0  0  0
 48173  1  0  0  0
 49174  1  0  0  0
 52175  1  0  0  0
 52176  1  0  0  0
 53177  1  0  0  0
 54178  1  0  0  0
 54179  1  0  0  0
 54180  1  0  0  0
 55181  1  0  0  0
 55182  1  0  0  0
 55183  1  0  0  0
 56184  1  0  0  0
 57185  1  0  0  0
 60186  1  0  0  0
 60187  1  0  0  0
 61188  1  0  0  0
 61189  1  0  0  0
 64190  1  0  0  0
 66191  1  0  0  0
 69192  1  0  0  0
 69193  1  0  0  0
 70194  1  0  0  0
 70195  1  0  0  0
 71196  1  0  0  0
 71197  1  0  0  0
 72198  1  0  0  0
 73199  1  0  0  0
 76200  1  0  0  0
 76201  1  0  0  0
 78202  1  0  0  0
 82203  1  0  0  0
 83204  1  0  0  0
 84205  1  0  0  0
 85206  1  0  0  0
 86207  1  0  0  0
 87208  1  0  0  0
 90209  1  0  0  0
 90210  1  0  0  0
 91211  1  0  0  0
 91212  1  0  0  0
 92213  1  0  0  0
 92214  1  0  0  0
 93215  1  0  0  0
 93216  1  0  0  0
 94217  1  0  0  0
 94218  1  0  0  0
 94219  1  0  0  0
 95220  1  0  0  0
 96221  1  0  0  0
 99222  1  0  0  0
 99223  1  0  0  0
102224  1  0  0  0
103225  1  0  0  0
106226  1  0  0  0
109227  1  0  0  0
109228  1  0  0  0
110229  1  0  0  0
110230  1  0  0  0
111231  1  0  0  0
111232  1  0  0  0
112233  1  0  0  0
113234  1  0  0  0
113235  1  0  0  0
116236  1  0  0  0
117237  1  0  0  0
120238  1  0  0  0
120239  1  0  0  0
121240  1  0  0  0
122241  1  0  0  0
M  END
$$$$
