5oh2_ligand
  -I-interpret- 

 13 13  0  0  0  0  0  0  0  0999 V2000
   21.4820   16.0720   -7.3520 O   0  0  0  0  0
   22.4450   16.8130   -7.5170 C   0  0  0  0  0
   22.7050   18.0620   -6.7150 C   0  0  0  0  0
   24.1400   18.4330   -7.1170 C   0  0  0  0  0
   24.5360   17.5560   -8.3090 C   0  0  0  0  0
   23.4350   16.6180   -8.3790 N   0  0  0  0  0
   22.5917   17.9080   -5.6419 H   0  0  0  0  0
   21.9878   18.8561   -6.9227 H   0  0  0  0  0
   24.8211   18.2662   -6.2825 H   0  0  0  0  0
   24.1956   19.4871   -7.3887 H   0  0  0  0  0
   25.5048   17.0725   -8.1834 H   0  0  0  0  0
   24.6777   18.1215   -9.2300 H   0  0  0  0  0
   23.4212   15.8517   -9.0520 H   0  0  0  0  0
  1  2  2  0  0  0
  2  3  1  0  0  0
  2  6  1  0  0  0
  3  4  1  0  0  0
  4  5  1  0  0  0
  5  6  1  0  0  0
  3  7  1  0  0  0
  3  8  1  0  0  0
  4  9  1  0  0  0
  4 10  1  0  0  0
  5 11  1  0  0  0
  5 12  1  0  0  0
  6 13  1  0  0  0
M  END
$$$$
