1ong_ligand
  -I-interpret- 

 34 36  0  0  0  0  0  0  0  0999 V2000
    5.5150   36.1880    4.2430 S   0  0  0  0  0
    6.1350   37.7820    3.9190 C   0  0  0  0  0
    7.2430   38.3580    4.4250 C   0  0  0  0  0
    8.2020   37.6900    5.1990 N   0  0  0  0  0
    8.4760   36.4180    5.5610 C   0  0  0  0  0
    7.9150   35.2510    5.1620 C   0  0  0  0  0
    8.4910   34.1160    5.8480 C   0  0  0  0  0
    9.4820   34.2610    6.5300 O   0  0  0  0  0
    7.5060   39.7300    4.1280 C   0  0  0  0  0
    8.6090   40.1640    4.4150 O   0  0  0  0  0
    6.5480   40.4380    3.5330 O   0  0  0  0  0
    6.8760   35.0500    4.1130 C   0  0  0  0  0
    7.5500   34.9740    2.7200 C   0  0  0  0  0
    8.4940   34.0490    2.4070 N   0  0  0  0  0
    8.9180   34.2500    1.2060 C   0  0  0  0  0
    8.2420   35.3460    0.6750 N   0  0  0  0  0
    7.3870   35.7810    1.6210 C   0  0  0  0  0
    9.9830   33.4960    0.4230 C   0  0  0  0  0
   10.5280   34.4010   -0.5610 O   0  0  0  0  0
    9.5350   34.9920   -1.3930 C   0  0  0  0  0
    8.5370   35.9190   -0.6600 C   0  0  0  0  0
    5.5564   38.3880    3.2218 H   0  0  0  0  0
    9.2777   36.3134    6.2920 H   0  0  0  0  0
    7.0470   35.6926    4.6724 H   0  0  0  0  0
    8.0343   33.1310    5.7518 H   0  0  0  0  0
    5.7727   39.8854    3.4101 H   0  0  0  0  0
    6.3893   34.0882    4.2747 H   0  0  0  0  0
    6.6946   36.6180    1.5308 H   0  0  0  0  0
    9.5486   32.6230   -0.0642 H   0  0  0  0  0
   10.7688   33.1456    1.0923 H   0  0  0  0  0
    8.9523   34.1745   -1.8175 H   0  0  0  0  0
   10.0609   35.6087   -2.1219 H   0  0  0  0  0
    8.9712   36.9124   -0.5471 H   0  0  0  0  0
    7.6164   36.0002   -1.2380 H   0  0  0  0  0
  1  2  1  0  0  0
  1 12  1  0  0  0
  2  3  2  0  0  0
  3  4  1  0  0  0
  3  9  1  0  0  0
  4  5  2  0  0  0
  5  6  1  0  0  0
  6  7  1  0  0  0
  6 12  1  0  0  0
  7  8  2  0  0  0
  9 10  2  0  0  0
  9 11  1  0  0  0
 12 13  1  0  0  0
 13 14  4  0  0  0
 13 17  4  0  0  0
 14 15  4  0  0  0
 15 16  4  0  0  0
 15 18  1  0  0  0
 16 17  4  0  0  0
 16 21  1  0  0  0
 18 19  1  0  0  0
 19 20  1  0  0  0
 20 21  1  0  0  0
  2 22  1  0  0  0
  5 23  1  0  0  0
  6 24  1  0  0  0
  7 25  1  0  0  0
 11 26  1  0  0  0
 12 27  1  0  0  0
 17 28  1  0  0  0
 18 29  1  0  0  0
 18 30  1  0  0  0
 20 31  1  0  0  0
 20 32  1  0  0  0
 21 33  1  0  0  0
 21 34  1  0  0  0
M  END
$$$$
