4djo_ligand
  -I-interpret- 

 77 78  0  0  0  0  0  0  0  0999 V2000
   15.4990   36.9610   18.7020 C   0  0  0  0  0
   14.9390   35.6570   18.4960 O   0  0  0  0  0
   15.6860   34.9120   17.6260 C   0  0  0  0  0
   15.4380   33.5480   17.5110 C   0  0  0  0  0
   16.1810   32.7710   16.6290 C   0  0  0  0  0
   16.6780   35.5010   16.8480 C   0  0  0  0  0
   17.4200   34.7230   15.9670 C   0  0  0  0  0
   17.1750   33.3580   15.8560 C   0  0  0  0  0
   18.1290   32.3780   14.7510 S   0  0  0  0  0
   18.6630   33.2640   13.6630 O   0  0  0  0  0
   17.2930   31.2880   14.1890 O   0  0  0  0  0
   19.4210   31.7040   15.5600 N   0  0  0  0  0
   20.0250   32.6110   16.5580 C   0  0  0  0  0
   21.3270   33.2380   16.0490 C   0  0  0  0  0
   22.1270   33.9280   17.1690 C   0  0  0  0  0
   22.1890   32.2090   15.3220 C   0  0  0  0  0
   22.9720   32.8770   14.1990 C   0  0  0  0  0
   19.0270   30.4390   16.2090 C   0  0  0  0  0
   19.9660   29.3410   15.6850 C   0  0  0  0  0
   19.9210   28.1890   16.5220 O   0  0  0  0  0
   19.6160   28.9540   14.2480 C   0  0  0  0  0
   18.2850   28.1880   14.1640 C   0  0  0  0  0
   17.9740   27.8330   12.7060 C   0  0  0  0  0
   18.1990   26.5400   12.2500 C   0  0  0  0  0
   17.9340   26.2050   10.9290 C   0  0  0  0  0
   17.4370   27.1690   10.0580 C   0  0  0  0  0
   17.2140   28.4640   10.5090 C   0  0  0  0  0
   17.4770   28.7910   11.8350 C   0  0  0  0  0
   20.6860   28.1170   13.6950 N   0  0  0  0  0
   21.6280   28.5490   12.8660 C   0  0  0  0  0
   21.7200   29.7060   12.4640 O   0  0  0  0  0
   22.5370   27.6300   12.4370 O   0  0  0  0  0
   23.5610   28.3010   11.7000 C   0  0  0  0  0
   24.3070   27.2780   10.8440 C   0  0  0  0  0
   23.3420   26.4320   10.1300 N   0  0  0  0  0
   23.2430   25.1370   10.3960 C   0  0  0  0  0
   23.9140   24.5800   11.2640 O   0  0  0  0  0
   22.2100   24.3460    9.5840 C   0  0  0  0  0
   21.5060   25.2740    8.2100 Cl  0  0  0  0  0
   20.9000   23.9090   10.7100 Cl  0  0  0  0  0
   16.5041   36.8627   19.1122 H   0  0  0  0  0
   15.5438   37.4903   17.7502 H   0  0  0  0  0
   14.8733   37.5176   19.3997 H   0  0  0  0  0
   14.6573   33.0860   18.1153 H   0  0  0  0  0
   15.9837   31.7024   16.5442 H   0  0  0  0  0
   16.8728   36.5704   16.9293 H   0  0  0  0  0
   18.1983   35.1850   15.3596 H   0  0  0  0  0
   20.2526   32.0310   17.4524 H   0  0  0  0  0
   19.3167   33.4140   16.7619 H   0  0  0  0  0
   21.0410   34.0126   15.3375 H   0  0  0  0  0
   21.5225   34.7204   17.6103 H   0  0  0  0  0
   22.3835   33.1958   17.9346 H   0  0  0  0  0
   23.0394   34.3546   16.7522 H   0  0  0  0  0
   21.5441   31.4392   14.8981 H   0  0  0  0  0
   22.8891   31.7661   16.0303 H   0  0  0  0  0
   22.2764   33.3254   13.4896 H   0  0  0  0  0
   23.6158   33.6508   14.6171 H   0  0  0  0  0
   23.5821   32.1311   13.6896 H   0  0  0  0  0
   17.9899   30.1974   15.9765 H   0  0  0  0  0
   19.1071   30.5247   17.2927 H   0  0  0  0  0
   20.9785   29.7445   15.6983 H   0  0  0  0  0
   20.5144   27.5191   16.1746 H   0  0  0  0  0
   19.5110   29.8747   13.6742 H   0  0  0  0  0
   17.4854   28.8152   14.5582 H   0  0  0  0  0
   18.3625   27.2704   14.7473 H   0  0  0  0  0
   18.5859   25.7841   12.9335 H   0  0  0  0  0
   18.1148   25.1899   10.5755 H   0  0  0  0  0
   17.2225   26.9084    9.0216 H   0  0  0  0  0
   16.8336   29.2225    9.8248 H   0  0  0  0  0
   17.2917   29.8044   12.1911 H   0  0  0  0  0
   20.7076   27.1341   13.9666 H   0  0  0  0  0
   24.2558   28.7814   12.3888 H   0  0  0  0  0
   23.1152   29.0620   11.0595 H   0  0  0  0  0
   24.9285   26.6541   11.4863 H   0  0  0  0  0
   24.9338   27.8002   10.1211 H   0  0  0  0  0
   22.7393   26.8467    9.4193 H   0  0  0  0  0
   22.7080   23.4813    9.1453 H   0  0  0  0  0
  1  2  1  0  0  0
  2  3  1  0  0  0
  3  4  4  0  0  0
  3  6  4  0  0  0
  4  5  4  0  0  0
  5  8  4  0  0  0
  6  7  4  0  0  0
  7  8  4  0  0  0
  8  9  1  0  0  0
  9 10  2  0  0  0
  9 11  2  0  0  0
  9 12  1  0  0  0
 12 13  1  0  0  0
 12 18  1  0  0  0
 13 14  1  0  0  0
 14 15  1  0  0  0
 14 16  1  0  0  0
 16 17  1  0  0  0
 18 19  1  0  0  0
 19 20  1  0  0  0
 19 21  1  0  0  0
 21 22  1  0  0  0
 21 29  1  0  0  0
 22 23  1  0  0  0
 23 24  4  0  0  0
 23 28  4  0  0  0
 24 25  4  0  0  0
 25 26  4  0  0  0
 26 27  4  0  0  0
 27 28  4  0  0  0
 29 30  1  0  0  0
 30 31  2  0  0  0
 30 32  1  0  0  0
 32 33  1  0  0  0
 33 34  1  0  0  0
 34 35  1  0  0  0
 35 36  1  0  0  0
 36 37  2  0  0  0
 36 38  1  0  0  0
 38 39  1  0  0  0
 38 40  1  0  0  0
  1 41  1  0  0  0
  1 42  1  0  0  0
  1 43  1  0  0  0
  4 44  1  0  0  0
  5 45  1  0  0  0
  6 46  1  0  0  0
  7 47  1  0  0  0
 13 48  1  0  0  0
 13 49  1  0  0  0
 14 50  1  0  0  0
 15 51  1  0  0  0
 15 52  1  0  0  0
 15 53  1  0  0  0
 16 54  1  0  0  0
 16 55  1  0  0  0
 17 56  1  0  0  0
 17 57  1  0  0  0
 17 58  1  0  0  0
 18 59  1  0  0  0
 18 60  1  0  0  0
 19 61  1  0  0  0
 20 62  1  0  0  0
 21 63  1  0  0  0
 22 64  1  0  0  0
 22 65  1  0  0  0
 24 66  1  0  0  0
 25 67  1  0  0  0
 26 68  1  0  0  0
 27 69  1  0  0  0
 28 70  1  0  0  0
 29 71  1  0  0  0
 33 72  1  0  0  0
 33 73  1  0  0  0
 34 74  1  0  0  0
 34 75  1  0  0  0
 35 76  1  0  0  0
 38 77  1  0  0  0
M  END
$$$$
