### 
### Created by X-TOOL on Mon Aug  2 16:12:24 2021
### 

@<TRIPOS>MOLECULE
5zdb_ligand
   57    60     1     0     0
SMALL
GAST_HUCK


@<TRIPOS>ATOM
      1 N1          7.6880  -11.4650    2.9200 N.ar      1 AR6        -0.2698
      2 C2          7.3550  -11.5660    1.5960 C.ar      1 AR6         0.0533
      3 N3          8.0920  -12.3590    0.7710 N.ar      1 AR6        -0.2714
      4 C4          9.1410  -13.0450    1.2850 C.ar      1 AR6         0.1613
      5 C5          9.4580  -12.9410    2.5820 C.ar      1 AR6         0.1045
      6 C6          8.7150  -12.1410    3.4160 C.ar      1 AR6         0.1298
      7 N6          8.7900  -11.8090    4.8330 N.pl3     1 AR6        -0.3152
      8 N7         10.5370  -13.7050    2.8250 N.2       1 AR6        -0.2958
      9 C8         10.8800  -14.2830    1.6770 C.2       1 AR6         0.1123
     10 N9         10.0330  -13.8760    0.7220 N.pl3     1 AR6        -0.1919
     11 PA          9.9470  -18.9550    1.3700 P.3       1 AR6         0.2972
     12 PB          8.6430  -21.4200    0.4550 P.3       1 AR6         0.2972
     13 C1'        10.1010  -14.2450   -0.6480 C.3       1 AR6         0.2010
     14 O1A        11.2130  -19.6090    0.8670 O.co2     1 AR6        -0.6127
     15 O1B         9.4450  -21.5170   -0.8200 O.co2     1 AR6        -0.6127
     16 C1D        10.0990  -21.9710    5.5660 C.3       1 AR6         0.1854
     17 O1D        11.0570  -22.4870    6.2080 O.3       1 AR6        -0.3649
     18 C2'        11.3430  -14.6030   -1.0750 C.3       1 AR6         0.1385
     19 O2'        11.5280  -14.2160   -2.4930 O.3       1 AR6        -0.3836
     20 O2A         9.9200  -18.6220    2.8520 O.co2     1 AR6        -0.6127
     21 O2B         7.1970  -21.7900    0.3450 O.co2     1 AR6        -0.6127
     22 C2D         8.7800  -22.6870    5.8770 C.3       1 AR6         0.1339
     23 O2D         8.7390  -23.0720    7.2890 O.3       1 AR6        -0.3841
     24 C3'        11.3150  -16.1350   -1.0680 C.3       1 AR6         0.1149
     25 O3'        12.1610  -16.6160   -1.9800 O.3       1 AR6        -0.3864
     26 O3A         8.6320  -19.8960    1.0730 O.3       1 AR6        -0.1319
     27 C3D         8.7540  -23.7630    5.0720 C.3       1 AR6         0.1144
     28 O3D         9.4370  -24.9240    5.5910 O.3       1 AR6        -0.3864
     29 C4'         9.8280  -16.4380   -1.5190 C.3       1 AR6         0.1189
     30 O4'         9.1150  -15.5050   -0.9320 O.3       1 AR6        -0.3364
     31 C4D         9.5080  -23.2340    3.7260 C.3       1 AR6         0.1184
     32 O4D        10.3440  -22.2700    4.0380 O.3       1 AR6        -0.3403
     33 C5'         9.4440  -17.7650   -0.8850 C.3       1 AR6         0.1128
     34 O5'         9.6670  -17.5990    0.4960 O.3       1 AR6        -0.2476
     35 C5D         8.4890  -22.7120    2.7310 C.3       1 AR6         0.1128
     36 O5D         9.2660  -22.4600    1.5920 O.3       1 AR6        -0.2476
     37 H1          6.5065  -11.0158    1.2056 H         1 AR6         0.0996
     38 H2          9.5242  -12.2275    5.4219 H         1 AR6         0.1820
     39 H3          8.1089  -11.1558    5.2457 H         1 AR6         0.1820
     40 H4         11.7112  -14.9725    1.5367 H         1 AR6         0.1349
     41 H5          9.7668  -13.3830   -1.2440 H         1 AR6         0.0996
     42 H6         10.0283  -20.8927    5.7717 H         1 AR6         0.0935
     43 H7         11.0748  -23.4236    6.0496 H         1 AR6         0.2126
     44 H8         12.1338  -14.1864   -0.4339 H         1 AR6         0.0676
     45 H9         11.4283  -13.2752   -2.5789 H         1 AR6         0.2101
     46 H10         7.9261  -22.0297    5.6563 H         1 AR6         0.0671
     47 H11         9.4641  -23.6560    7.4780 H         1 AR6         0.2101
     48 H12        11.5413  -16.5482   -0.0740 H         1 AR6         0.0648
     49 H13        11.9079  -16.3040   -2.8408 H         1 AR6         0.2100
     50 H14         7.7120  -24.0398    4.8536 H         1 AR6         0.0648
     51 H15         9.0360  -25.1855    6.4116 H         1 AR6         0.2100
     52 H16         9.7041  -16.4453   -2.6120 H         1 AR6         0.0651
     53 H17        10.0650  -24.0669    3.2721 H         1 AR6         0.0651
     54 H18        10.0718  -18.5767   -1.2812 H         1 AR6         0.0648
     55 H19         8.3854  -17.9921   -1.0791 H         1 AR6         0.0648
     56 H20         8.0135  -21.7904    3.0978 H         1 AR6         0.0648
     57 H21         7.7156  -23.4662    2.5237 H         1 AR6         0.0648
@<TRIPOS>BOND
     1    2    1 ar 
     2    6    1 ar 
     3    3    2 ar 
     4    4    3 ar 
     5    4    5 ar 
     6   10    4 1  
     7    5    6 ar 
     8    8    5 1  
     9    6    7 1  
    10    9    8 2  
    11   10    9 1  
    12   13   10 1  
    13   11   14 ar 
    14   11   20 ar 
    15   26   11 1  
    16   11   34 1  
    17   12   15 ar 
    18   12   21 ar 
    19   12   26 1  
    20   36   12 1  
    21   13   18 1  
    22   30   13 1  
    23   16   17 1  
    24   16   22 1  
    25   32   16 1  
    26   18   19 1  
    27   24   18 1  
    28   22   23 1  
    29   27   22 1  
    30   24   25 1  
    31   29   24 1  
    32   27   28 1  
    33   31   27 1  
    34   29   30 1  
    35   33   29 1  
    36   31   32 1  
    37   35   31 1  
    38   34   33 1  
    39   35   36 1  
    40    2   37 1  
    41    7   38 1  
    42    7   39 1  
    43    9   40 1  
    44   13   41 1  
    45   16   42 1  
    46   17   43 1  
    47   18   44 1  
    48   19   45 1  
    49   22   46 1  
    50   23   47 1  
    51   24   48 1  
    52   25   49 1  
    53   27   50 1  
    54   28   51 1  
    55   29   52 1  
    56   31   53 1  
    57   33   54 1  
    58   33   55 1  
    59   35   56 1  
    60   35   57 1  
@<TRIPOS>SUBSTRUCTURE
     1 AR6         1

