5zdb_ligand
  -I-interpret- 

 59 62  0  0  0  0  0  0  0  0999 V2000
    7.6880  -11.4650    2.9200 N   0  0  0  0  0
    7.3550  -11.5660    1.5960 C   0  0  0  0  0
    8.0920  -12.3590    0.7710 N   0  0  0  0  0
    9.1410  -13.0450    1.2850 C   0  0  0  0  0
    9.4580  -12.9410    2.5820 C   0  0  0  0  0
    8.7150  -12.1410    3.4160 C   0  0  0  0  0
    8.7900  -11.8090    4.8330 N   0  0  0  0  0
   10.5370  -13.7050    2.8250 N   0  0  0  0  0
   10.8800  -14.2830    1.6770 C   0  0  0  0  0
   10.0330  -13.8760    0.7220 N   0  0  0  0  0
    9.9470  -18.9550    1.3700 P   0  0  0  0  0
    8.6430  -21.4200    0.4550 P   0  0  0  0  0
   10.1010  -14.2450   -0.6480 C   0  0  0  0  0
   11.2130  -19.6090    0.8670 O   0  0  0  0  0
    9.4450  -21.5170   -0.8200 O   0  0  0  0  0
   10.0990  -21.9710    5.5660 C   0  0  0  0  0
   11.0570  -22.4870    6.2080 O   0  0  0  0  0
   11.3430  -14.6030   -1.0750 C   0  0  0  0  0
   11.5280  -14.2160   -2.4930 O   0  0  0  0  0
    9.9200  -18.6220    2.8520 O   0  0  0  0  0
    7.1970  -21.7900    0.3450 O   0  0  0  0  0
    8.7800  -22.6870    5.8770 C   0  0  0  0  0
    8.7390  -23.0720    7.2890 O   0  0  0  0  0
   11.3150  -16.1350   -1.0680 C   0  0  0  0  0
   12.1610  -16.6160   -1.9800 O   0  0  0  0  0
    8.6320  -19.8960    1.0730 O   0  0  0  0  0
    8.7540  -23.7630    5.0720 C   0  0  0  0  0
    9.4370  -24.9240    5.5910 O   0  0  0  0  0
    9.8280  -16.4380   -1.5190 C   0  0  0  0  0
    9.1150  -15.5050   -0.9320 O   0  0  0  0  0
    9.5080  -23.2340    3.7260 C   0  0  0  0  0
   10.3440  -22.2700    4.0380 O   0  0  0  0  0
    9.4440  -17.7650   -0.8850 C   0  0  0  0  0
    9.6670  -17.5990    0.4960 O   0  0  0  0  0
    8.4890  -22.7120    2.7310 C   0  0  0  0  0
    9.2660  -22.4600    1.5920 O   0  0  0  0  0
    6.5018  -11.0128    1.2035 H   0  0  0  0  0
    8.1155  -11.1622    5.2417 H   0  0  0  0  0
    9.5170  -12.2235    5.4161 H   0  0  0  0  0
   11.7120  -14.9731    1.5366 H   0  0  0  0  0
    9.8048  -13.3500   -1.1952 H   0  0  0  0  0
   10.3535  -21.2607   -0.6455 H   0  0  0  0  0
   10.0462  -20.9130    5.8226 H   0  0  0  0  0
   11.8698  -22.0220    5.9964 H   0  0  0  0  0
   12.1182  -14.1454   -0.4603 H   0  0  0  0  0
   12.4066  -14.4735   -2.7818 H   0  0  0  0  0
    9.0798  -18.2127    3.0716 H   0  0  0  0  0
    7.9122  -22.0506    5.7035 H   0  0  0  0  0
    7.9099  -23.5193    7.4736 H   0  0  0  0  0
   11.5968  -16.5751   -0.1114 H   0  0  0  0  0
   12.1339  -17.5755   -1.9654 H   0  0  0  0  0
    7.7296  -24.1070    4.9291 H   0  0  0  0  0
    9.3707  -25.6425    4.9578 H   0  0  0  0  0
    9.6930  -16.4653   -2.6003 H   0  0  0  0  0
   10.0556  -24.0633    3.2783 H   0  0  0  0  0
   10.0342  -18.5872   -1.2895 H   0  0  0  0  0
    8.4058  -18.0228   -1.0944 H   0  0  0  0  0
    7.9621  -21.8274    3.0887 H   0  0  0  0  0
    7.6794  -23.4175    2.5441 H   0  0  0  0  0
  2  1  4  0  0  0
  6  1  4  0  0  0
  3  2  4  0  0  0
  4  3  4  0  0  0
  4  5  4  0  0  0
 10  4  4  0  0  0
  5  6  4  0  0  0
  8  5  4  0  0  0
  6  7  1  0  0  0
  9  8  4  0  0  0
 10  9  4  0  0  0
 13 10  1  0  0  0
 11 14  2  0  0  0
 11 20  1  0  0  0
 26 11  1  0  0  0
 11 34  1  0  0  0
 12 15  1  0  0  0
 12 21  2  0  0  0
 12 26  1  0  0  0
 36 12  1  0  0  0
 13 18  1  0  0  0
 30 13  1  0  0  0
 16 17  1  0  0  0
 16 22  1  0  0  0
 32 16  1  0  0  0
 18 19  1  0  0  0
 24 18  1  0  0  0
 22 23  1  0  0  0
 27 22  1  0  0  0
 24 25  1  0  0  0
 29 24  1  0  0  0
 27 28  1  0  0  0
 31 27  1  0  0  0
 29 30  1  0  0  0
 33 29  1  0  0  0
 31 32  1  0  0  0
 35 31  1  0  0  0
 34 33  1  0  0  0
 35 36  1  0  0  0
  2 37  1  0  0  0
  7 38  1  0  0  0
  7 39  1  0  0  0
  9 40  1  0  0  0
 13 41  1  0  0  0
 15 42  1  0  0  0
 16 43  1  0  0  0
 17 44  1  0  0  0
 18 45  1  0  0  0
 19 46  1  0  0  0
 20 47  1  0  0  0
 22 48  1  0  0  0
 23 49  1  0  0  0
 24 50  1  0  0  0
 25 51  1  0  0  0
 27 52  1  0  0  0
 28 53  1  0  0  0
 29 54  1  0  0  0
 31 55  1  0  0  0
 33 56  1  0  0  0
 33 57  1  0  0  0
 35 58  1  0  0  0
 35 59  1  0  0  0
M  END
$$$$
