6pgx_ligand
  -I-interpret- 

 28 28  0  0  0  0  0  0  0  0999 V2000
   -7.0700   11.0940   77.6800 C   0  0  0  0  0
   -4.9710   12.2840   77.5870 C   0  0  0  0  0
   -6.3910    9.9270   77.9110 C   0  0  0  0  0
   -4.2960   11.1110   77.8100 C   0  0  0  0  0
   -6.3530   12.2640   77.5210 C   0  0  0  0  0
   -5.0200    9.9410   77.9610 C   0  0  0  0  0
   -8.3210   13.5510   76.9940 C   0  0  0  0  0
   -7.8260   15.4600   78.4650 C   0  0  0  0  0
   -8.6070   15.0250   77.1370 C   0  0  0  0  0
   -3.4860    7.7910   76.8020 N   0  0  0  0  0
   -3.0980    8.6850   79.1800 O   0  0  0  0  0
   -5.1570    7.3460   78.5310 O   0  0  0  0  0
  -10.0510   15.1480   76.9560 O   0  0  0  0  0
   -6.9230   13.4880   77.2870 O   0  0  0  0  0
   -4.1850    8.3820   78.2560 S   0  0  0  0  0
   -8.5870   17.1640   79.7630 Te  0  0  0  0  0
   -8.1585   11.0994   77.6226 H   0  0  0  0  0
   -4.4259   13.2198   77.4634 H   0  0  0  0  0
   -6.9360    8.9939   78.0541 H   0  0  0  0  0
   -3.2076   11.1004   77.8674 H   0  0  0  0  0
   -8.5734   13.1564   76.0098 H   0  0  0  0  0
   -8.9277   12.9284   77.6515 H   0  0  0  0  0
   -6.8617   15.8146   78.1010 H   0  0  0  0  0
   -7.8936   14.5845   79.1108 H   0  0  0  0  0
   -8.2403   15.7570   76.4174 H   0  0  0  0  0
   -2.4725    7.7111   76.7190 H   0  0  0  0  0
   -4.0845    7.5200   76.0218 H   0  0  0  0  0
  -10.3049   16.0704   77.0353 H   0  0  0  0  0
  1  3  4  0  0  0
  5  1  4  0  0  0
  2  4  4  0  0  0
  5  2  4  0  0  0
  3  6  4  0  0  0
  4  6  4  0  0  0
 14  5  1  0  0  0
  6 15  1  0  0  0
  7  9  1  0  0  0
  7 14  1  0  0  0
  9  8  1  0  0  0
  8 16  1  0  0  0
  9 13  1  0  0  0
 15 10  1  0  0  0
 15 11  2  0  0  0
 15 12  2  0  0  0
  1 17  1  0  0  0
  2 18  1  0  0  0
  3 19  1  0  0  0
  4 20  1  0  0  0
  7 21  1  0  0  0
  7 22  1  0  0  0
  8 23  1  0  0  0
  8 24  1  0  0  0
  9 25  1  0  0  0
 10 26  1  0  0  0
 10 27  1  0  0  0
 13 28  1  0  0  0
M  END
$$$$
