### 
### Created by X-TOOL on Mon Aug  2 16:12:08 2021
### 

@<TRIPOS>MOLECULE
6pgx_ligand
   29    29     1     0     0
SMALL
GAST_HUCK


@<TRIPOS>ATOM
      1 C23        -7.0700   11.0940   77.6800 C.ar      1 OJ4        -0.0313
      2 C31        -4.9710   12.2840   77.5870 C.ar      1 OJ4        -0.0313
      3 C24        -6.3910    9.9270   77.9110 C.ar      1 OJ4        -0.0441
      4 C30        -4.2960   11.1110   77.8100 C.ar      1 OJ4        -0.0441
      5 C22        -6.3530   12.2640   77.5210 C.ar      1 OJ4         0.0913
      6 C25        -5.0200    9.9410   77.9610 C.ar      1 OJ4         0.0967
      7 C20        -8.3210   13.5510   76.9940 C.3       1 OJ4         0.0960
      8 C3         -7.8260   15.4600   78.4650 C.3       1 OJ4        -0.0364
      9 C2         -8.6070   15.0250   77.1370 C.3       1 OJ4         0.0800
     10 N28        -3.4860    7.7910   76.8020 N.am      1 OJ4        -0.2621
     11 O27        -3.0980    8.6850   79.1800 O.2       1 OJ4        -0.1519
     12 O29        -5.1570    7.3460   78.5310 O.2       1 OJ4        -0.1519
     13 O1        -10.0510   15.1480   76.9560 O.3       1 OJ4        -0.3894
     14 O21        -6.9230   13.4880   77.2870 O.3       1 OJ4        -0.3154
     15 S26        -4.1850    8.3820   78.2560 S.o2      1 OJ4         0.0609
     16 TE4        -8.5870   17.1640   79.7630 Te        1 OJ4         1.0000
     17 H1         -8.1525   11.0993   77.6229 H         1 OJ4         0.0542
     18 H2         -4.4289   13.2146   77.4641 H         1 OJ4         0.0542
     19 H3         -6.9330    8.9991   78.0533 H         1 OJ4         0.0608
     20 H4         -3.2135   11.1004   77.8670 H         1 OJ4         0.0608
     21 H5         -8.5312   13.2006   75.9727 H         1 OJ4         0.0639
     22 H6         -8.9067   12.9589   77.7126 H         1 OJ4         0.0639
     23 H7         -7.3958   14.5691   78.9458 H         1 OJ4         0.0255
     24 H8         -8.5260   15.9490   79.1585 H         1 OJ4         0.0255
     25 H9         -7.0196   16.1608   78.2032 H         1 OJ4         0.0255
     26 H10        -8.1451   15.5847   76.3103 H         1 OJ4         0.0617
     27 H11        -2.9835    6.9264   76.8042 H         1 OJ4         0.1633
     28 H12        -3.5817    8.3116   75.9536 H         1 OJ4         0.1633
     29 H13       -10.4970   14.6345   77.6193 H         1 OJ4         0.2099
@<TRIPOS>BOND
     1    1    3 ar 
     2    5    1 ar 
     3    2    4 ar 
     4    5    2 ar 
     5    3    6 ar 
     6    4    6 ar 
     7   14    5 1  
     8    6   15 1  
     9    7    9 1  
    10    7   14 1  
    11    9    8 1  
    12    8   16 1  
    13    9   13 1  
    14   15   10 am 
    15   15   11 2  
    16   15   12 2  
    17    1   17 1  
    18    2   18 1  
    19    3   19 1  
    20    4   20 1  
    21    7   21 1  
    22    7   22 1  
    23    8   23 1  
    24    8   24 1  
    25    8   25 1  
    26    9   26 1  
    27   10   27 1  
    28   10   28 1  
    29   13   29 1  
@<TRIPOS>SUBSTRUCTURE
     1 OJ4         1

