6d28_ligand
  -I-interpret- 

 38 40  0  0  0  0  0  0  0  0999 V2000
   18.4420  -14.5850   53.5100 C   0  0  0  0  0
   17.2920  -15.1490   53.9910 O   0  0  0  0  0
   18.5440  -13.1690   53.5040 N   0  0  0  0  0
   17.4100  -12.4120   53.9620 C   0  0  0  0  0
   16.8570  -11.7890   52.6760 C   0  0  0  0  0
   19.5940  -15.4350   53.0830 C   0  0  0  0  0
   19.9190  -16.1460   54.2550 O   0  0  0  0  0
   19.1970  -16.4900   52.0810 C   0  0  0  0  0
   19.1980  -16.0200   50.7330 O   0  0  0  0  0
   20.2390  -17.5740   52.3970 C   0  0  0  0  0
   21.4820  -17.2060   51.7850 O   0  0  0  0  0
   20.3060  -17.4880   53.9550 C   0  0  0  0  0
   19.2810  -18.3830   54.5650 N   0  0  0  0  0
   18.0190  -18.0890   55.0620 C   0  0  0  0  0
   17.4380  -19.1350   55.5930 N   0  0  0  0  0
   18.3570  -20.1620   55.4320 C   0  0  0  0  0
   18.3360  -21.5380   55.7550 C   0  0  0  0  0
   17.2880  -22.1640   56.3230 N   0  0  0  0  0
   19.4580  -22.2740   55.4640 N   0  0  0  0  0
   20.5160  -21.6980   54.8490 C   0  0  0  0  0
   20.6420  -20.4080   54.4560 N   0  0  0  0  0
   19.5190  -19.7050   54.8140 C   0  0  0  0  0
   19.3938  -12.7036   53.1853 H   0  0  0  0  0
   17.6791  -11.6640   54.7078 H   0  0  0  0  0
   16.6749  -13.0295   54.4781 H   0  0  0  0  0
   17.6216  -11.1594   52.2208 H   0  0  0  0  0
   16.5761  -12.5810   51.9818 H   0  0  0  0  0
   15.9814  -11.1850   52.9138 H   0  0  0  0  0
   20.3760  -14.8169   52.6419 H   0  0  0  0  0
   18.1688  -16.8427   52.1620 H   0  0  0  0  0
   18.5192  -15.3493   50.6287 H   0  0  0  0  0
   20.0104  -18.5772   52.0371 H   0  0  0  0  0
   22.1421  -17.8765   51.9755 H   0  0  0  0  0
   21.2914  -17.7677   54.3275 H   0  0  0  0  0
   17.5635  -17.0998   55.0155 H   0  0  0  0  0
   16.4415  -21.6408   56.5467 H   0  0  0  0  0
   17.3406  -23.1615   56.5296 H   0  0  0  0  0
   21.3670  -22.3482   54.6458 H   0  0  0  0  0
  1  2  2  0  0  0
  1  3  1  0  0  0
  1  6  1  0  0  0
  3  4  1  0  0  0
  4  5  1  0  0  0
  6  7  1  0  0  0
  6  8  1  0  0  0
  7 12  1  0  0  0
  8  9  1  0  0  0
  8 10  1  0  0  0
 10 11  1  0  0  0
 10 12  1  0  0  0
 12 13  1  0  0  0
 13 14  4  0  0  0
 13 22  4  0  0  0
 14 15  4  0  0  0
 15 16  4  0  0  0
 16 17  4  0  0  0
 16 22  4  0  0  0
 17 18  1  0  0  0
 17 19  4  0  0  0
 19 20  4  0  0  0
 20 21  4  0  0  0
 21 22  4  0  0  0
  3 23  1  0  0  0
  4 24  1  0  0  0
  4 25  1  0  0  0
  5 26  1  0  0  0
  5 27  1  0  0  0
  5 28  1  0  0  0
  6 29  1  0  0  0
  8 30  1  0  0  0
  9 31  1  0  0  0
 10 32  1  0  0  0
 11 33  1  0  0  0
 12 34  1  0  0  0
 14 35  1  0  0  0
 18 36  1  0  0  0
 18 37  1  0  0  0
 20 38  1  0  0  0
M  END
$$$$
