4op3_ligand
  -I-interpret- 

 56 59  0  0  0  0  0  0  0  0999 V2000
   37.1600  -18.3760  -14.2690 C   0  0  0  0  0
   37.1530  -17.5320  -13.1530 C   0  0  0  0  0
   38.3110  -17.4060  -12.3690 C   0  0  0  0  0
   39.4650  -18.1130  -12.6980 C   0  0  0  0  0
   39.4880  -18.9480  -13.8130 C   0  0  0  0  0
   38.3240  -19.0980  -14.6060 C   0  0  0  0  0
   38.2620  -19.8770  -15.7080 N   0  0  0  0  0
   39.2110  -20.7310  -16.1330 C   0  0  0  0  0
   40.2370  -21.0140  -15.3380 N   0  0  0  0  0
   41.1930  -21.8850  -15.6820 C   0  0  0  0  0
   42.5180  -22.1780  -14.5970 S   0  0  0  0  0
   42.0720  -22.3140  -13.1440 O   0  0  0  0  0
   43.2720  -23.3680  -15.1350 O   0  0  0  0  0
   43.5080  -20.7700  -14.7560 C   0  0  0  0  0
   44.4510  -20.7190  -15.7850 C   0  0  0  0  0
   45.2570  -19.5880  -15.9230 C   0  0  0  0  0
   45.0790  -18.5390  -15.0230 C   0  0  0  0  0
   45.8330  -17.4590  -15.1300 N   0  0  0  0  0
   44.1430  -18.6270  -14.0300 N   0  0  0  0  0
   43.3500  -19.6960  -13.8790 C   0  0  0  0  0
   41.1890  -22.5210  -16.9110 C   0  0  0  0  0
   40.1360  -22.2490  -17.7650 C   0  0  0  0  0
   39.1310  -21.3500  -17.3890 C   0  0  0  0  0
   38.0800  -21.0710  -18.3040 C   0  0  0  0  0
   38.1310  -21.5400  -19.6420 C   0  0  0  0  0
   37.0940  -21.2270  -20.5210 C   0  0  0  0  0
   37.0260  -20.2950  -17.9230 N   0  0  0  0  0
   36.0250  -19.9880  -18.7340 C   0  0  0  0  0
   36.0210  -20.4480  -20.0550 C   0  0  0  0  0
   34.8310  -20.0770  -20.9580 C   0  0  0  0  0
   34.4080  -21.3140  -21.7720 C   0  0  0  0  0
   33.8370  -22.1680  -20.9190 F   0  0  0  0  0
   35.4820  -21.9090  -22.2830 F   0  0  0  0  0
   33.5450  -20.9610  -22.7640 F   0  0  0  0  0
   35.2170  -18.9030  -21.8600 C   0  0  0  0  0
   33.7200  -19.7270  -20.1110 O   0  0  0  0  0
   36.2629  -18.4759  -14.8800 H   0  0  0  0  0
   36.2528  -16.9749  -12.8935 H   0  0  0  0  0
   38.3068  -16.7510  -11.4978 H   0  0  0  0  0
   40.3564  -18.0123  -12.0788 H   0  0  0  0  0
   40.3999  -19.4848  -14.0746 H   0  0  0  0  0
   37.4146  -19.8115  -16.2719 H   0  0  0  0  0
   44.5567  -21.5561  -16.4750 H   0  0  0  0  0
   46.0053  -19.5268  -16.7132 H   0  0  0  0  0
   46.5367  -17.3992  -15.8659 H   0  0  0  0  0
   45.7112  -16.6852  -14.4767 H   0  0  0  0  0
   42.5989  -19.7263  -13.0896 H   0  0  0  0  0
   41.9849  -23.2096  -17.1948 H   0  0  0  0  0
   40.0882  -22.7381  -18.7379 H   0  0  0  0  0
   38.9749  -22.1409  -19.9809 H   0  0  0  0  0
   37.1155  -21.5806  -21.5518 H   0  0  0  0  0
   35.2008  -19.3743  -18.3706 H   0  0  0  0  0
   35.4853  -18.0454  -21.2431 H   0  0  0  0  0
   36.0677  -19.1869  -22.4795 H   0  0  0  0  0
   34.3720  -18.6433  -22.4977 H   0  0  0  0  0
   32.9654  -19.4917  -20.6558 H   0  0  0  0  0
  1  2  4  0  0  0
  1  6  4  0  0  0
  2  3  4  0  0  0
  3  4  4  0  0  0
  4  5  4  0  0  0
  5  6  4  0  0  0
  6  7  1  0  0  0
  7  8  1  0  0  0
  8  9  4  0  0  0
  8 23  4  0  0  0
  9 10  4  0  0  0
 10 11  1  0  0  0
 10 21  4  0  0  0
 11 12  2  0  0  0
 11 13  2  0  0  0
 11 14  1  0  0  0
 14 15  4  0  0  0
 14 20  4  0  0  0
 15 16  4  0  0  0
 16 17  4  0  0  0
 17 18  1  0  0  0
 17 19  4  0  0  0
 19 20  4  0  0  0
 21 22  4  0  0  0
 22 23  4  0  0  0
 23 24  1  0  0  0
 24 25  4  0  0  0
 24 27  4  0  0  0
 25 26  4  0  0  0
 26 29  4  0  0  0
 27 28  4  0  0  0
 28 29  4  0  0  0
 29 30  1  0  0  0
 30 31  1  0  0  0
 30 35  1  0  0  0
 30 36  1  0  0  0
 31 32  1  0  0  0
 31 33  1  0  0  0
 31 34  1  0  0  0
  1 37  1  0  0  0
  2 38  1  0  0  0
  3 39  1  0  0  0
  4 40  1  0  0  0
  5 41  1  0  0  0
  7 42  1  0  0  0
 15 43  1  0  0  0
 16 44  1  0  0  0
 18 45  1  0  0  0
 18 46  1  0  0  0
 20 47  1  0  0  0
 21 48  1  0  0  0
 22 49  1  0  0  0
 25 50  1  0  0  0
 26 51  1  0  0  0
 28 52  1  0  0  0
 35 53  1  0  0  0
 35 54  1  0  0  0
 35 55  1  0  0  0
 36 56  1  0  0  0
M  END
$$$$
