6e92_ligand
  -I-interpret- 

 50 52  0  0  0  0  0  0  0  0999 V2000
   -3.4870   14.4350   11.9710 C   0  0  0  0  0
   -2.7810   13.3820   11.3720 O   0  0  0  0  0
   -3.3690   12.1200   11.5220 C   0  0  0  0  0
   -2.9520   11.3090   12.5620 C   0  0  0  0  0
   -4.3510   11.6810   10.6390 C   0  0  0  0  0
   -4.7710   12.5090    9.5860 O   0  0  0  0  0
   -4.4500   12.0570    8.2980 C   0  0  0  0  0
   -4.9230   10.4280   10.8140 C   0  0  0  0  0
   -5.9120    9.9660    9.9330 O   0  0  0  0  0
   -7.0630   10.7560    9.8540 C   0  0  0  0  0
   -4.5040    9.6170   11.8610 C   0  0  0  0  0
   -3.5210   10.0580   12.7360 C   0  0  0  0  0
   -3.0220    9.2150   13.9080 C   0  0  0  0  0
   -3.6660    7.9340   14.1770 N   0  0  0  0  0
   -2.8830    6.8130   14.1930 C   0  0  0  0  0
   -5.0150    7.7910   14.4870 C   0  0  0  0  0
   -5.5940    6.5450   14.7840 C   0  0  0  0  0
   -4.8030    5.4900   14.7680 C   0  0  0  0  0
   -5.3570    4.2250   15.0600 C   0  0  0  0  0
   -3.4930    5.6140   14.4800 C   0  0  0  0  0
   -2.6600    4.5140   14.4730 C   0  0  0  0  0
   -3.1960    3.2970   14.7490 C   0  0  0  0  0
   -4.5040    3.1460   15.0550 C   0  0  0  0  0
   -4.8550    1.8130   15.2560 O   0  0  0  0  0
   -5.4890    1.1100   16.5890 S   0  0  0  0  0
   -4.7410    1.5470   17.9620 O   0  0  0  0  0
   -7.0880    1.3750   16.5790 O   0  0  0  0  0
   -5.1340   -0.5160   16.3410 N   0  0  0  0  0
   -4.4833   14.4980   11.5334 H   0  0  0  0  0
   -3.5702   14.2519   13.0423 H   0  0  0  0  0
   -2.9544   15.3707   11.8013 H   0  0  0  0  0
   -2.1756   11.6543   13.2447 H   0  0  0  0  0
   -3.3678   11.9658    8.2055 H   0  0  0  0  0
   -4.9135   11.0850    8.1294 H   0  0  0  0  0
   -4.8201   12.7701    7.5614 H   0  0  0  0  0
   -7.5293   10.8158   10.8374 H   0  0  0  0  0
   -6.7928   11.7568    9.5171 H   0  0  0  0  0
   -7.7610   10.3091    9.1461 H   0  0  0  0  0
   -4.9487    8.6310   11.9959 H   0  0  0  0  0
   -3.2158    9.8200   14.7937 H   0  0  0  0  0
   -1.9909    8.9656   13.6576 H   0  0  0  0  0
   -2.1601    6.9724   14.9930 H   0  0  0  0  0
   -2.4984    6.7102   13.1783 H   0  0  0  0  0
   -5.6469    8.6791   14.5000 H   0  0  0  0  0
   -6.6547    6.4545   15.0182 H   0  0  0  0  0
   -6.4180    4.1079   15.2806 H   0  0  0  0  0
   -1.5980    4.6192   14.2514 H   0  0  0  0  0
   -2.5532    2.4171   14.7230 H   0  0  0  0  0
   -4.5455   -1.0168   17.0068 H   0  0  0  0  0
   -5.5073   -1.0008   15.5249 H   0  0  0  0  0
  1  2  1  0  0  0
  2  3  1  0  0  0
  3  4  4  0  0  0
  3  5  4  0  0  0
  4 12  4  0  0  0
  5  6  1  0  0  0
  5  8  4  0  0  0
  6  7  1  0  0  0
  8  9  1  0  0  0
  8 11  4  0  0  0
  9 10  1  0  0  0
 11 12  4  0  0  0
 12 13  1  0  0  0
 13 14  1  0  0  0
 14 15  1  0  0  0
 14 16  1  0  0  0
 15 20  1  0  0  0
 16 17  2  0  0  0
 17 18  1  0  0  0
 18 19  4  0  0  0
 18 20  4  0  0  0
 19 23  4  0  0  0
 20 21  4  0  0  0
 21 22  4  0  0  0
 22 23  4  0  0  0
 23 24  1  0  0  0
 24 25  1  0  0  0
 25 26  2  0  0  0
 25 27  2  0  0  0
 25 28  1  0  0  0
  1 29  1  0  0  0
  1 30  1  0  0  0
  1 31  1  0  0  0
  4 32  1  0  0  0
  7 33  1  0  0  0
  7 34  1  0  0  0
  7 35  1  0  0  0
 10 36  1  0  0  0
 10 37  1  0  0  0
 10 38  1  0  0  0
 11 39  1  0  0  0
 13 40  1  0  0  0
 13 41  1  0  0  0
 15 42  1  0  0  0
 15 43  1  0  0  0
 16 44  1  0  0  0
 17 45  1  0  0  0
 19 46  1  0  0  0
 21 47  1  0  0  0
 22 48  1  0  0  0
 28 49  1  0  0  0
 28 50  1  0  0  0
M  END
$$$$
