5i3x_ligand
  -I-interpret- 

 83 87  0  0  0  0  0  0  0  0999 V2000
   13.9700  -39.0770   13.7030 C   0  0  0  0  0
   12.5730  -39.2760   13.1610 C   0  0  0  0  0
   11.8090  -40.1600   14.1490 C   0  0  0  0  0
   11.9150  -37.9200   13.0200 C   0  0  0  0  0
   12.6560  -39.9450   11.7790 C   0  0  0  0  0
   11.3740  -40.6290   11.2720 C   0  0  0  0  0
   11.7000  -41.2800    9.9930 N   0  0  0  0  0
   12.0590  -42.5570    9.9160 C   0  0  0  0  0
   12.1170  -43.2800   10.9040 O   0  0  0  0  0
   12.4360  -43.0890    8.5110 C   0  0  0  0  0
   13.9660  -43.2880    8.2860 C   0  0  0  0  0
   14.6520  -41.9750    8.6810 C   0  0  0  0  0
   14.5290  -40.8160    7.9010 C   0  0  0  0  0
   15.1000  -39.6670    8.3160 N   0  0  0  0  0
   13.8310  -40.8370    6.7330 N   0  0  0  0  0
   15.3900  -41.9350    9.8780 C   0  0  0  0  0
   15.9860  -40.7340   10.2740 C   0  0  0  0  0
   16.7520  -40.6430   11.4470 C   0  0  0  0  0
   15.8190  -39.6100    9.4620 C   0  0  0  0  0
   16.4050  -38.3950    9.8540 C   0  0  0  0  0
   17.1600  -38.3170   11.0260 C   0  0  0  0  0
   17.3340  -39.4340   11.8450 C   0  0  0  0  0
   18.1660  -39.3800   12.9830 C   0  0  0  0  0
   17.8580  -38.6990   14.1530 C   0  0  0  0  0
   18.7780  -38.7030   15.2100 C   0  0  0  0  0
   20.0030  -39.3600   15.1070 C   0  0  0  0  0
   20.3340  -40.0490   13.9470 C   0  0  0  0  0
   19.4240  -40.0500   12.8900 C   0  0  0  0  0
   19.7100  -40.7020   11.6450 C   0  0  0  0  0
   19.9140  -41.2390   10.5880 C   0  0  0  0  0
   20.1650  -41.8730    9.2860 C   0  0  0  0  0
   20.0530  -40.7670    8.1640 C   0  0  0  0  0
   20.7720  -39.4180    8.3820 C   0  0  0  0  0
   19.2500  -39.4800    8.3970 C   0  0  0  0  0
   19.9930  -41.2360    6.7710 N   0  0  0  0  0
   21.1000  -41.3920    6.0620 C   0  0  0  0  0
   22.2210  -41.2300    6.5370 O   0  0  0  0  0
   20.8730  -41.8820    4.6270 C   0  0  0  0  0
   21.6970  -42.8540    4.0890 C   0  0  0  0  0
   21.4880  -43.3150    2.7960 C   0  0  0  0  0
   20.4440  -42.8090    2.0160 C   0  0  0  0  0
   20.2630  -43.2680    0.7440 F   0  0  0  0  0
   19.6200  -41.8130    2.5440 C   0  0  0  0  0
   19.8340  -41.3560    3.8490 C   0  0  0  0  0
   14.4643  -40.0442   13.7937 H   0  0  0  0  0
   14.5354  -38.4410   13.0219 H   0  0  0  0  0
   13.9141  -38.6028   14.6829 H   0  0  0  0  0
   10.7978  -40.3273   13.7781 H   0  0  0  0  0
   12.3225  -41.1160   14.2515 H   0  0  0  0  0
   11.7644  -39.6643   15.1187 H   0  0  0  0  0
   12.5065  -37.2987   12.3475 H   0  0  0  0  0
   10.9116  -38.0450   12.6130 H   0  0  0  0  0
   11.8548  -37.4433   13.9984 H   0  0  0  0  0
   13.4043  -40.7325   11.8683 H   0  0  0  0  0
   12.8745  -39.1473   11.0691 H   0  0  0  0  0
   10.5780  -39.8969   11.1364 H   0  0  0  0  0
   11.0206  -41.3634   11.9957 H   0  0  0  0  0
   11.6485  -40.7312    9.1348 H   0  0  0  0  0
   12.1005  -42.3461    7.7873 H   0  0  0  0  0
   11.9672  -44.0671    8.4032 H   0  0  0  0  0
   14.1738  -43.5335    7.2445 H   0  0  0  0  0
   14.3401  -44.1151    8.8894 H   0  0  0  0  0
   13.3911  -41.7014    6.4172 H   0  0  0  0  0
   13.7477  -39.9883    6.1733 H   0  0  0  0  0
   15.4960  -42.8307   10.4901 H   0  0  0  0  0
   16.8964  -41.5323   12.0605 H   0  0  0  0  0
   16.2692  -37.5059    9.2383 H   0  0  0  0  0
   17.6205  -37.3695   11.3057 H   0  0  0  0  0
   16.9113  -38.1673   14.2483 H   0  0  0  0  0
   18.5300  -38.1804   16.1338 H   0  0  0  0  0
   20.7047  -39.3330   15.9407 H   0  0  0  0  0
   21.2839  -40.5772   13.8647 H   0  0  0  0  0
   19.4336  -42.6612    9.1075 H   0  0  0  0  0
   21.1598  -42.3182    9.2732 H   0  0  0  0  0
   21.5613  -38.8280    7.9161 H   0  0  0  0  0
   21.5793  -39.0114    8.9911 H   0  0  0  0  0
   18.4294  -39.1377    9.0276 H   0  0  0  0  0
   18.4112  -38.9526    7.9427 H   0  0  0  0  0
   19.0888  -41.4432    6.3469 H   0  0  0  0  0
   22.5152  -43.2605    4.6835 H   0  0  0  0  0
   22.1457  -44.0805    2.3843 H   0  0  0  0  0
   18.8138  -41.3935    1.9423 H   0  0  0  0  0
   19.1863  -40.5837    4.2639 H   0  0  0  0  0
  1  2  1  0  0  0
  2  3  1  0  0  0
  2  4  1  0  0  0
  2  5  1  0  0  0
  5  6  1  0  0  0
  6  7  1  0  0  0
  7  8  1  0  0  0
  8  9  2  0  0  0
  8 10  1  0  0  0
 10 11  1  0  0  0
 11 12  1  0  0  0
 12 13  4  0  0  0
 12 16  4  0  0  0
 13 14  4  0  0  0
 13 15  1  0  0  0
 14 19  4  0  0  0
 16 17  4  0  0  0
 17 18  4  0  0  0
 17 19  4  0  0  0
 18 22  4  0  0  0
 19 20  4  0  0  0
 20 21  4  0  0  0
 21 22  4  0  0  0
 22 23  1  0  0  0
 23 24  4  0  0  0
 23 28  4  0  0  0
 24 25  4  0  0  0
 25 26  4  0  0  0
 26 27  4  0  0  0
 27 28  4  0  0  0
 28 29  1  0  0  0
 29 30  3  0  0  0
 30 31  1  0  0  0
 31 32  1  0  0  0
 32 33  1  0  0  0
 32 34  1  0  0  0
 32 35  1  0  0  0
 33 34  1  0  0  0
 35 36  1  0  0  0
 36 37  2  0  0  0
 36 38  1  0  0  0
 38 39  4  0  0  0
 38 44  4  0  0  0
 39 40  4  0  0  0
 40 41  4  0  0  0
 41 42  1  0  0  0
 41 43  4  0  0  0
 43 44  4  0  0  0
  1 45  1  0  0  0
  1 46  1  0  0  0
  1 47  1  0  0  0
  3 48  1  0  0  0
  3 49  1  0  0  0
  3 50  1  0  0  0
  4 51  1  0  0  0
  4 52  1  0  0  0
  4 53  1  0  0  0
  5 54  1  0  0  0
  5 55  1  0  0  0
  6 56  1  0  0  0
  6 57  1  0  0  0
  7 58  1  0  0  0
 10 59  1  0  0  0
 10 60  1  0  0  0
 11 61  1  0  0  0
 11 62  1  0  0  0
 15 63  1  0  0  0
 15 64  1  0  0  0
 16 65  1  0  0  0
 18 66  1  0  0  0
 20 67  1  0  0  0
 21 68  1  0  0  0
 24 69  1  0  0  0
 25 70  1  0  0  0
 26 71  1  0  0  0
 27 72  1  0  0  0
 31 73  1  0  0  0
 31 74  1  0  0  0
 33 75  1  0  0  0
 33 76  1  0  0  0
 34 77  1  0  0  0
 34 78  1  0  0  0
 35 79  1  0  0  0
 39 80  1  0  0  0
 40 81  1  0  0  0
 43 82  1  0  0  0
 44 83  1  0  0  0
M  END
$$$$
