### 
### Created by X-TOOL on Mon Sep 10 21:13:08 2018
### 

@<TRIPOS>MOLECULE
2xu1_ligand
   60    64     1     0     0
SMALL
GAST_HUCK


@<TRIPOS>ATOM
      1 S1         31.3410  -25.0310  -14.6360 S.o2      1 424         0.0023
      2 N2         32.3380  -28.2580  -13.9940 N.am      1 424        -0.2566
      3 CL2        28.9640  -23.6620  -13.0040 Cl        1 424        -0.0687
      4 C3         31.2490  -30.2080  -15.0170 C.3       1 424         0.0409
      5 CL3        28.4300  -32.1840  -10.0030 Cl        1 424        -0.0415
      6 C4         31.3850  -26.1550  -13.2350 C.3       1 424         0.1066
      7 C5         32.4830  -29.4010  -14.6910 C.2       1 424         0.1702
      8 C6         33.4270  -27.3640  -13.6270 C.3       1 424         0.1342
      9 C7         29.6800  -25.0260  -15.2110 C.ar      1 424         0.1025
     10 C8         31.0490  -27.6250  -13.5810 C.3       1 424         0.0587
     11 C9         32.8370  -26.2710  -12.7200 C.3       1 424         0.0125
     12 C10        34.4860  -28.0590  -12.8280 C.2       1 424         0.1971
     13 C11        30.4590  -29.7860  -16.2660 C.3       1 424        -0.0708
     14 C12        31.3220  -31.0510  -16.2770 C.3       1 424        -0.0708
     15 C13        36.8870  -28.5840  -12.6260 C.3       1 424         0.0783
     16 N14        35.7380  -28.0130  -13.3110 N.am      1 424        -0.2955
     17 C15        37.4830  -27.6920  -11.6050 C.2       1 424         0.0437
     18 N16        38.6940  -27.8820  -11.1640 N.2       1 424        -0.2686
     19 C17        30.5070  -30.7020  -13.7870 C.ar      1 424        -0.0393
     20 O18        31.6590  -23.7300  -14.1790 O.2       1 424        -0.1690
     21 O19        32.0910  -25.6170  -15.7130 O.2       1 424        -0.1690
     22 C20        36.9600  -30.0880  -12.4110 C.3       1 424        -0.0407
     23 C21        37.8120  -29.4270  -13.5060 C.3       1 424        -0.0407
     24 O22        33.6010  -29.7760  -14.9990 O.2       1 424        -0.3658
     25 C23        28.6640  -24.4290  -14.4990 C.ar      1 424         0.0651
     26 O24        34.1840  -28.6020  -11.7940 O.2       1 424        -0.3951
     27 C25        29.1980  -30.3380  -13.5190 C.ar      1 424        -0.0392
     28 C26        31.1510  -31.5250  -12.8700 C.ar      1 424        -0.0392
     29 C27        29.1940  -31.5930  -11.4540 C.ar      1 424         0.0718
     30 C29        29.3950  -25.6230  -16.4230 C.ar      1 424        -0.0364
     31 C30        28.5540  -30.7700  -12.3630 C.ar      1 424        -0.0180
     32 C31        30.4970  -31.9760  -11.7270 C.ar      1 424        -0.0180
     33 C33        27.3730  -24.4220  -14.9940 C.ar      1 424        -0.0460
     34 C34        28.1100  -25.6140  -16.9170 C.ar      1 424        -0.0598
     35 C35        27.0970  -25.0090  -16.2060 C.ar      1 424        -0.0612
     36 H          30.6582  -25.7389  -12.5374 H         1 424         0.0563
     37 H          33.8734  -26.9776  -14.5432 H         1 424         0.0804
     38 H          30.6127  -28.1412  -12.7259 H         1 424         0.0544
     39 H          30.3083  -27.6827  -14.3786 H         1 424         0.0544
     40 H          32.8952  -26.5189  -11.6602 H         1 424         0.0332
     41 H          33.3851  -25.3303  -12.7737 H         1 424         0.0332
     42 H          30.2939  -28.8967  -16.8742 H         1 424         0.0158
     43 H          29.4495  -29.4757  -16.5358 H         1 424         0.0158
     44 H          31.2251  -32.0989  -16.5609 H         1 424         0.0158
     45 H          32.0856  -31.5089  -16.9058 H         1 424         0.0158
     46 H          35.8918  -27.5521  -14.2079 H         1 424         0.1774
     47 H          36.8968  -26.8600  -11.2148 H         1 424         0.1090
     48 H          39.2514  -28.6575  -11.5223 H         1 424         0.2165
     49 H          36.2788  -30.9321  -12.3037 H         1 424         0.0220
     50 H          37.0892  -30.7905  -11.5876 H         1 424         0.0220
     51 H          38.8453  -29.4227  -13.8529 H         1 424         0.0220
     52 H          38.0420  -29.5631  -14.5627 H         1 424         0.0220
     53 H          28.6631  -29.7027  -14.2250 H         1 424         0.0846
     54 H          32.1844  -31.8218  -13.0490 H         1 424         0.0846
     55 H          30.1912  -26.1037  -16.9914 H         1 424         0.0636
     56 H          27.5285  -30.4545  -12.1710 H         1 424         0.0704
     57 H          31.0176  -32.6400  -11.0369 H         1 424         0.0704
     58 H          26.5733  -23.9506  -14.4227 H         1 424         0.0624
     59 H          27.8933  -26.0875  -17.8746 H         1 424         0.0620
     60 H          26.0817  -24.9958  -16.6024 H         1 424         0.0618
@<TRIPOS>BOND
     1    6    1 1  
     2    1    9 1  
     3    1   20 2  
     4    1   21 2  
     5    7    2 am 
     6    2    8 1  
     7    2   10 1  
     8   25    3 1  
     9    4    7 1  
    10    4   13 1  
    11    4   14 1  
    12   19    4 1  
    13   29    5 1  
    14   10    6 1  
    15    6   11 1  
    16    7   24 2  
    17    8   11 1  
    18    8   12 1  
    19    9   25 ar 
    20    9   30 ar 
    21   12   16 am 
    22   12   26 2  
    23   14   13 1  
    24   16   15 1  
    25   15   17 1  
    26   15   22 1  
    27   15   23 1  
    28   17   18 2  
    29   27   19 ar 
    30   19   28 ar 
    31   23   22 1  
    32   25   33 ar 
    33   31   27 ar 
    34   28   32 ar 
    35   29   31 ar 
    36   29   32 ar 
    37   30   34 ar 
    38   33   35 ar 
    39   34   35 ar 
    40    6   36 1  
    41    8   37 1  
    42   10   38 1  
    43   10   39 1  
    44   11   40 1  
    45   11   41 1  
    46   13   42 1  
    47   13   43 1  
    48   14   44 1  
    49   14   45 1  
    50   16   46 1  
    51   17   47 1  
    52   18   48 1  
    53   22   49 1  
    54   22   50 1  
    55   23   51 1  
    56   23   52 1  
    57   27   53 1  
    58   28   54 1  
    59   30   55 1  
    60   31   56 1  
    61   32   57 1  
    62   33   58 1  
    63   34   59 1  
    64   35   60 1  
@<TRIPOS>SUBSTRUCTURE
     1 424         1

