2xu1_ligand
  -I-interpret- 

 60 64  0  0  0  0  0  0  0  0999 V2000
   31.3410  -25.0310  -14.6360 S   0  0  0  0  0
   32.3380  -28.2580  -13.9940 N   0  0  0  0  0
   28.9640  -23.6620  -13.0040 Cl  0  0  0  0  0
   31.2490  -30.2080  -15.0170 C   0  0  0  0  0
   28.4300  -32.1840  -10.0030 Cl  0  0  0  0  0
   31.3850  -26.1550  -13.2350 C   0  0  0  0  0
   32.4830  -29.4010  -14.6910 C   0  0  0  0  0
   33.4270  -27.3640  -13.6270 C   0  0  0  0  0
   29.6800  -25.0260  -15.2110 C   0  0  0  0  0
   31.0490  -27.6250  -13.5810 C   0  0  0  0  0
   32.8370  -26.2710  -12.7200 C   0  0  0  0  0
   34.4860  -28.0590  -12.8280 C   0  0  0  0  0
   30.4590  -29.7860  -16.2660 C   0  0  0  0  0
   31.3220  -31.0510  -16.2770 C   0  0  0  0  0
   36.8870  -28.5840  -12.6260 C   0  0  0  0  0
   35.7380  -28.0130  -13.3110 N   0  0  0  0  0
   37.4830  -27.6920  -11.6050 C   0  0  0  0  0
   38.6940  -27.8820  -11.1640 N   0  0  0  0  0
   30.5070  -30.7020  -13.7870 C   0  0  0  0  0
   31.6590  -23.7300  -14.1790 O   0  0  0  0  0
   32.0910  -25.6170  -15.7130 O   0  0  0  0  0
   36.9600  -30.0880  -12.4110 C   0  0  0  0  0
   37.8120  -29.4270  -13.5060 C   0  0  0  0  0
   33.6010  -29.7760  -14.9990 O   0  0  0  0  0
   28.6640  -24.4290  -14.4990 C   0  0  0  0  0
   34.1840  -28.6020  -11.7940 O   0  0  0  0  0
   29.1980  -30.3380  -13.5190 C   0  0  0  0  0
   31.1510  -31.5250  -12.8700 C   0  0  0  0  0
   29.1940  -31.5930  -11.4540 C   0  0  0  0  0
   29.3950  -25.6230  -16.4230 C   0  0  0  0  0
   28.5540  -30.7700  -12.3630 C   0  0  0  0  0
   30.4970  -31.9760  -11.7270 C   0  0  0  0  0
   27.3730  -24.4220  -14.9940 C   0  0  0  0  0
   28.1100  -25.6140  -16.9170 C   0  0  0  0  0
   27.0970  -25.0090  -16.2060 C   0  0  0  0  0
   30.6582  -25.7389  -12.5374 H   0  0  0  0  0
   33.8734  -26.9776  -14.5432 H   0  0  0  0  0
   30.6127  -28.1412  -12.7259 H   0  0  0  0  0
   30.3083  -27.6827  -14.3786 H   0  0  0  0  0
   32.8952  -26.5189  -11.6602 H   0  0  0  0  0
   33.3851  -25.3303  -12.7737 H   0  0  0  0  0
   30.2939  -28.8967  -16.8742 H   0  0  0  0  0
   29.4495  -29.4757  -16.5358 H   0  0  0  0  0
   31.2251  -32.0989  -16.5609 H   0  0  0  0  0
   32.0856  -31.5089  -16.9058 H   0  0  0  0  0
   35.8918  -27.5521  -14.2079 H   0  0  0  0  0
   36.8968  -26.8600  -11.2148 H   0  0  0  0  0
   39.2514  -28.6575  -11.5223 H   0  0  0  0  0
   36.2788  -30.9321  -12.3037 H   0  0  0  0  0
   37.0892  -30.7905  -11.5876 H   0  0  0  0  0
   38.8453  -29.4227  -13.8529 H   0  0  0  0  0
   38.0420  -29.5631  -14.5627 H   0  0  0  0  0
   28.6631  -29.7027  -14.2250 H   0  0  0  0  0
   32.1844  -31.8218  -13.0490 H   0  0  0  0  0
   30.1912  -26.1037  -16.9914 H   0  0  0  0  0
   27.5285  -30.4545  -12.1710 H   0  0  0  0  0
   31.0176  -32.6400  -11.0369 H   0  0  0  0  0
   26.5733  -23.9506  -14.4227 H   0  0  0  0  0
   27.8933  -26.0875  -17.8746 H   0  0  0  0  0
   26.0817  -24.9958  -16.6024 H   0  0  0  0  0
  6  1  1  0  0  0
  1  9  1  0  0  0
  1 20  2  0  0  0
  1 21  2  0  0  0
  7  2  1  0  0  0
  2  8  1  0  0  0
  2 10  1  0  0  0
 25  3  1  0  0  0
  4  7  1  0  0  0
  4 13  1  0  0  0
  4 14  1  0  0  0
 19  4  1  0  0  0
 29  5  1  0  0  0
 10  6  1  0  0  0
  6 11  1  0  0  0
  7 24  2  0  0  0
  8 11  1  0  0  0
  8 12  1  0  0  0
  9 25  4  0  0  0
  9 30  4  0  0  0
 12 16  1  0  0  0
 12 26  2  0  0  0
 14 13  1  0  0  0
 16 15  1  0  0  0
 15 17  1  0  0  0
 15 22  1  0  0  0
 15 23  1  0  0  0
 17 18  2  0  0  0
 27 19  4  0  0  0
 19 28  4  0  0  0
 23 22  1  0  0  0
 25 33  4  0  0  0
 31 27  4  0  0  0
 28 32  4  0  0  0
 29 31  4  0  0  0
 29 32  4  0  0  0
 30 34  4  0  0  0
 33 35  4  0  0  0
 34 35  4  0  0  0
  6 36  1  0  0  0
  8 37  1  0  0  0
 10 38  1  0  0  0
 10 39  1  0  0  0
 11 40  1  0  0  0
 11 41  1  0  0  0
 13 42  1  0  0  0
 13 43  1  0  0  0
 14 44  1  0  0  0
 14 45  1  0  0  0
 16 46  1  0  0  0
 17 47  1  0  0  0
 18 48  1  0  0  0
 22 49  1  0  0  0
 22 50  1  0  0  0
 23 51  1  0  0  0
 23 52  1  0  0  0
 27 53  1  0  0  0
 28 54  1  0  0  0
 30 55  1  0  0  0
 31 56  1  0  0  0
 32 57  1  0  0  0
 33 58  1  0  0  0
 34 59  1  0  0  0
 35 60  1  0  0  0
M  END
$$$$
