5a6h_ligand
  -I-interpret- 

 35 35  0  0  0  0  0  0  0  0999 V2000
   -2.4970    8.6650   11.6770 C   0  0  0  0  0
   -2.3060    9.9850   12.0200 C   0  0  0  0  0
   -1.6480    7.8740   13.7710 C   0  0  0  0  0
   -2.1770    7.6210   12.5400 C   0  0  0  0  0
   -1.7700   10.2380   13.2500 C   0  0  0  0  0
   -1.4640    9.1850   14.0840 C   0  0  0  0  0
   -2.3830    5.2300   13.1740 C   0  0  0  0  0
   -3.7220    4.6930   13.6580 C   0  0  0  0  0
   -2.4200    6.2510   12.0660 C   0  0  0  0  0
   -4.8670    2.7070   14.5380 C   0  0  0  0  0
   -4.5740    2.4910   15.9920 C   0  0  0  0  0
   -1.2980    4.7640   13.6990 N   0  0  0  0  0
   -5.2800   -0.1110   16.2120 N   0  0  0  0  0
   -3.6570    3.3800   14.0420 N   0  0  0  0  0
   -4.7420    5.3800   13.5780 O   0  0  0  0  0
   -7.0450    1.6590   16.4300 O   0  0  0  0  0
   -5.3460    1.4350   18.1840 O   0  0  0  0  0
   -1.5500   11.5280   13.6490 O   0  0  0  0  0
   -0.1270    5.3300   13.1490 O   0  0  0  0  0
   -5.6660    1.3500   16.7670 S   0  0  0  0  0
   -0.7720    9.5390   15.7290 Br  0  0  0  0  0
   -2.9126    8.4300   10.6971 H   0  0  0  0  0
   -2.5714   10.7933   11.3386 H   0  0  0  0  0
   -1.3880    7.0732   14.4633 H   0  0  0  0  0
   -1.6315    6.0001   11.3565 H   0  0  0  0  0
   -3.4154    6.2244   11.6227 H   0  0  0  0  0
   -5.7696    3.2962   14.3761 H   0  0  0  0  0
   -5.0742    1.7761   14.0101 H   0  0  0  0  0
   -4.6918    3.4505   16.4957 H   0  0  0  0  0
   -3.5666    2.0814   16.0655 H   0  0  0  0  0
   -5.9728   -0.6645   15.7079 H   0  0  0  0  0
   -4.3427   -0.4832   16.3645 H   0  0  0  0  0
   -2.7745    2.8718   13.9843 H   0  0  0  0  0
   -1.1723   11.5288   14.5316 H   0  0  0  0  0
    0.6430    4.9473   13.5759 H   0  0  0  0  0
  1  2  4  0  0  0
  4  1  4  0  0  0
  2  5  4  0  0  0
  4  3  4  0  0  0
  3  6  4  0  0  0
  9  4  1  0  0  0
  6  5  4  0  0  0
  5 18  1  0  0  0
  6 21  1  0  0  0
  8  7  1  0  0  0
  7  9  1  0  0  0
  7 12  2  0  0  0
 14  8  1  0  0  0
  8 15  2  0  0  0
 10 11  1  0  0  0
 10 14  1  0  0  0
 11 20  1  0  0  0
 12 19  1  0  0  0
 20 13  1  0  0  0
 20 16  2  0  0  0
 20 17  2  0  0  0
  1 22  1  0  0  0
  2 23  1  0  0  0
  3 24  1  0  0  0
  9 25  1  0  0  0
  9 26  1  0  0  0
 10 27  1  0  0  0
 10 28  1  0  0  0
 11 29  1  0  0  0
 11 30  1  0  0  0
 13 31  1  0  0  0
 13 32  1  0  0  0
 14 33  1  0  0  0
 18 34  1  0  0  0
 19 35  1  0  0  0
M  END
$$$$
