3ful_ligand
  -I-interpret- 

 43 45  0  0  0  0  0  0  0  0999 V2000
  -24.8920    1.1990    2.6490 O   0  0  0  0  0
  -25.1170    0.0300    2.4050 C   0  0  0  0  0
  -24.3440   -1.0220    3.1900 C   0  0  0  0  0
  -23.9790   -2.2550    2.6650 C   0  0  0  0  0
  -23.2920   -3.1470    3.4920 C   0  0  0  0  0
  -22.9570   -2.8330    4.7470 N   0  0  0  0  0
  -23.2810   -1.6610    5.2760 C   0  0  0  0  0
  -23.9650   -0.7440    4.5060 C   0  0  0  0  0
  -26.1770   -0.1650    1.3510 C   0  0  0  0  0
  -27.4930    0.2860    1.5550 C   0  0  0  0  0
  -25.8220   -0.7300    0.1470 C   0  0  0  0  0
  -26.7890   -0.8820   -0.8280 C   0  0  0  0  0
  -28.1040   -0.4720   -0.6240 C   0  0  0  0  0
  -28.4690    0.1230    0.5760 C   0  0  0  0  0
  -28.9800   -0.6730   -1.6680 O   0  0  0  0  0
  -30.3870   -0.6820   -1.5040 C   0  0  0  0  0
  -31.0370   -1.7890   -2.2990 C   0  0  0  0  0
  -32.1620   -2.2520   -1.4770 N   0  3  0  0  0
  -33.5270   -1.8830   -1.7950 C   0  0  0  0  0
  -31.9960   -3.1430   -0.3390 C   0  0  0  0  0
  -33.3940   -3.7170   -0.1240 C   0  0  0  0  0
  -34.3420   -2.9070   -0.9910 C   0  0  0  0  0
  -24.2220   -2.5194    1.6358 H   0  0  0  0  0
  -23.0212   -4.1282    3.1021 H   0  0  0  0  0
  -23.0104   -1.4257    6.3053 H   0  0  0  0  0
  -24.2172    0.2253    4.9361 H   0  0  0  0  0
  -27.7533    0.7714    2.4956 H   0  0  0  0  0
  -24.7964   -1.0517   -0.0339 H   0  0  0  0  0
  -26.5156   -1.3344   -1.7812 H   0  0  0  0  0
  -29.4933    0.4540    0.7471 H   0  0  0  0  0
  -30.7795    0.2709   -1.8591 H   0  0  0  0  0
  -30.6080   -0.8427   -0.4488 H   0  0  0  0  0
  -30.3353   -2.5965   -2.5078 H   0  0  0  0  0
  -31.3727   -1.4368   -3.2744 H   0  0  0  0  0
  -31.3236   -1.6725   -1.5173 H   0  0  0  0  0
  -33.7398   -1.9111   -2.8637 H   0  0  0  0  0
  -33.7624   -0.8507   -1.5361 H   0  0  0  0  0
  -31.6180   -2.6260    0.5430 H   0  0  0  0  0
  -31.2514   -3.9177   -0.5219 H   0  0  0  0  0
  -33.6806   -3.6537    0.9257 H   0  0  0  0  0
  -33.4252   -4.7716   -0.3979 H   0  0  0  0  0
  -34.8764   -3.5696   -1.6719 H   0  0  0  0  0
  -35.0664   -2.3898   -0.3618 H   0  0  0  0  0
  1  2  2  0  0  0
  2  3  1  0  0  0
  2  9  1  0  0  0
  3  4  4  0  0  0
  3  8  4  0  0  0
  4  5  4  0  0  0
  5  6  4  0  0  0
  6  7  4  0  0  0
  7  8  4  0  0  0
  9 10  4  0  0  0
  9 11  4  0  0  0
 10 14  4  0  0  0
 11 12  4  0  0  0
 12 13  4  0  0  0
 13 14  4  0  0  0
 13 15  1  0  0  0
 15 16  1  0  0  0
 16 17  1  0  0  0
 17 18  1  0  0  0
 18 19  1  0  0  0
 18 20  1  0  0  0
 19 22  1  0  0  0
 20 21  1  0  0  0
 21 22  1  0  0  0
  4 23  1  0  0  0
  5 24  1  0  0  0
  7 25  1  0  0  0
  8 26  1  0  0  0
 10 27  1  0  0  0
 11 28  1  0  0  0
 12 29  1  0  0  0
 14 30  1  0  0  0
 16 31  1  0  0  0
 16 32  1  0  0  0
 17 33  1  0  0  0
 17 34  1  0  0  0
 18 35  1  0  0  0
 19 36  1  0  0  0
 19 37  1  0  0  0
 20 38  1  0  0  0
 20 39  1  0  0  0
 21 40  1  0  0  0
 21 41  1  0  0  0
 22 42  1  0  0  0
 22 43  1  0  0  0
M  END
$$$$
