4pp9_ligand
  -I-interpret- 

 39 42  0  0  0  0  0  0  0  0999 V2000
  -10.9950    4.5260  -20.3510 C   0  0  0  0  0
  -10.6720    5.7610  -19.7690 C   0  0  0  0  0
  -10.4780    6.8830  -20.5470 C   0  0  0  0  0
  -10.6120    6.7860  -21.9410 C   0  0  0  0  0
  -10.9550    5.5330  -22.5330 C   0  0  0  0  0
  -11.1470    4.4050  -21.7150 C   0  0  0  0  0
  -11.0080    5.8140  -23.9800 C   0  0  0  0  0
  -10.7290    7.0970  -24.1060 N   0  0  0  0  0
  -10.4890    7.6720  -22.9800 N   0  0  0  0  0
  -11.3070    4.8630  -25.0760 C   0  0  0  0  0
  -11.7250    3.7520  -24.7870 O   0  0  0  0  0
  -11.1190    5.2330  -26.3760 N   0  0  0  0  0
  -11.3660    4.4100  -27.5100 C   0  0  0  0  0
  -11.7560    3.0590  -27.5150 C   0  0  0  0  0
  -11.8730    2.6490  -28.7480 N   0  0  0  0  0
  -11.5520    3.7080  -29.5950 N   0  0  0  0  0
  -11.2450    4.7840  -28.8150 C   0  0  0  0  0
  -11.5500    3.6400  -31.0560 C   0  0  0  0  0
  -12.8190    4.2520  -31.5640 C   0  0  0  0  0
  -13.9670    3.4740  -31.6800 C   0  0  0  0  0
  -15.1560    4.0450  -32.1280 C   0  0  0  0  0
  -15.1990    5.3960  -32.4530 C   0  0  0  0  0
  -14.0430    6.1850  -32.3360 C   0  0  0  0  0
  -12.8460    5.6050  -31.8830 C   0  0  0  0  0
  -14.0760    7.5750  -32.6770 C   0  0  0  0  0
  -14.0960    8.6790  -32.9460 N   0  0  0  0  0
  -11.1275    3.6504  -19.7155 H   0  0  0  0  0
  -10.5729    5.8348  -18.6860 H   0  0  0  0  0
  -10.2230    7.8362  -20.0839 H   0  0  0  0  0
  -11.4135    3.4444  -22.1559 H   0  0  0  0  0
  -10.7731    6.1769  -26.5489 H   0  0  0  0  0
  -11.9327    2.4502  -26.6283 H   0  0  0  0  0
  -10.9535    5.7714  -29.1731 H   0  0  0  0  0
  -11.4833    2.6012  -31.3793 H   0  0  0  0  0
  -10.6916    4.1827  -31.4518 H   0  0  0  0  0
  -13.9357    2.4160  -31.4198 H   0  0  0  0  0
  -16.0526    3.4326  -32.2237 H   0  0  0  0  0
  -16.1308    5.8434  -32.7990 H   0  0  0  0  0
  -11.9456    6.2111  -31.7825 H   0  0  0  0  0
  1  2  4  0  0  0
  1  6  4  0  0  0
  2  3  4  0  0  0
  3  4  4  0  0  0
  4  5  4  0  0  0
  4  9  4  0  0  0
  5  6  4  0  0  0
  5  7  4  0  0  0
  7  8  4  0  0  0
  7 10  1  0  0  0
  8  9  4  0  0  0
 10 11  2  0  0  0
 10 12  1  0  0  0
 12 13  1  0  0  0
 13 14  4  0  0  0
 13 17  4  0  0  0
 14 15  4  0  0  0
 15 16  4  0  0  0
 16 17  4  0  0  0
 16 18  1  0  0  0
 18 19  1  0  0  0
 19 20  4  0  0  0
 19 24  4  0  0  0
 20 21  4  0  0  0
 21 22  4  0  0  0
 22 23  4  0  0  0
 23 24  4  0  0  0
 23 25  1  0  0  0
 25 26  3  0  0  0
  1 27  1  0  0  0
  2 28  1  0  0  0
  3 29  1  0  0  0
  6 30  1  0  0  0
 12 31  1  0  0  0
 14 32  1  0  0  0
 17 33  1  0  0  0
 18 34  1  0  0  0
 18 35  1  0  0  0
 20 36  1  0  0  0
 21 37  1  0  0  0
 22 38  1  0  0  0
 24 39  1  0  0  0
M  END
$$$$
