1y57_ligand
  -I-interpret- 

 67 71  0  0  0  0  0  0  0  0999 V2000
   22.0730   35.1300   38.6680 O   0  0  0  0  0
   20.9950   35.3360   39.2450 C   0  0  0  0  0
   20.2240   36.5780   38.9100 C   0  0  0  0  0
   20.7990   37.4960   38.0020 C   0  0  0  0  0
   20.1570   38.7040   37.6790 C   0  0  0  0  0
   18.9810   36.9540   39.5290 C   0  0  0  0  0
   18.3360   38.1650   39.1950 C   0  0  0  0  0
   18.9200   39.0550   38.2640 C   0  0  0  0  0
   18.2320   40.3620   37.8870 C   0  0  0  0  0
   18.3290   40.5980   36.4350 N   0  3  0  0  0
   17.8550   39.4450   35.6280 C   0  0  0  0  0
   18.1720   39.6900   34.1490 C   0  0  0  0  0
   17.6620   41.8550   36.0030 C   0  0  0  0  0
   17.9250   42.1120   34.5100 C   0  0  0  0  0
   17.5460   40.9440   33.6630 N   0  3  0  0  0
   17.8660   41.1570   32.2290 C   0  0  0  0  0
   20.4280   34.5480   40.1960 N   0  0  0  0  0
   20.9690   33.4100   40.8000 C   0  0  0  0  0
   22.3270   33.0360   40.9050 C   0  0  0  0  0
   22.6940   31.8920   41.6330 C   0  0  0  0  0
   21.7040   31.1370   42.2990 C   0  0  0  0  0
   20.3450   31.5220   42.2140 C   0  0  0  0  0
   20.0000   32.6560   41.4790 C   0  0  0  0  0
   19.4430   30.7210   42.8950 N   0  0  0  0  0
   18.0710   31.0040   43.0680 C   0  0  0  0  0
   17.4550   30.1080   43.8240 N   0  0  0  0  0
   16.1240   30.2340   44.0800 C   0  0  0  0  0
   15.4140   31.2760   43.5880 C   0  0  0  0  0
   16.0670   32.1800   42.8390 C   0  0  0  0  0
   17.3940   32.0500   42.5690 N   0  0  0  0  0
   15.3830   33.3380   42.2130 C   0  0  0  0  0
   15.9950   33.9830   41.1340 C   0  0  0  0  0
   15.3630   35.0670   40.5210 C   0  0  0  0  0
   14.1280   35.4790   40.9920 C   0  0  0  0  0
   13.5080   34.8720   42.0230 N   0  0  0  0  0
   14.1140   33.8210   42.6190 C   0  0  0  0  0
   21.7597   37.2625   37.5430 H   0  0  0  0  0
   20.6222   39.3825   36.9639 H   0  0  0  0  0
   18.5293   36.2928   40.2685 H   0  0  0  0  0
   17.3815   38.4155   39.6579 H   0  0  0  0  0
   18.7203   41.1829   38.4121 H   0  0  0  0  0
   17.1800   40.3011   38.1659 H   0  0  0  0  0
   19.3269   40.7072   36.2542 H   0  0  0  0  0
   16.7783   39.3320   35.7544 H   0  0  0  0  0
   18.3583   38.5375   35.9614 H   0  0  0  0  0
   17.7768   38.8573   33.5673 H   0  0  0  0  0
   19.2527   39.7756   34.0357 H   0  0  0  0  0
   18.0606   42.6872   36.5832 H   0  0  0  0  0
   16.5881   41.7619   36.1645 H   0  0  0  0  0
   18.9917   42.2941   34.3796 H   0  0  0  0  0
   17.3216   42.9655   34.2010 H   0  0  0  0  0
   16.5333   40.8519   33.7431 H   0  0  0  0  0
   18.9467   41.2269   32.1057 H   0  0  0  0  0
   17.4858   40.3190   31.6448 H   0  0  0  0  0
   17.3996   42.0810   31.8873 H   0  0  0  0  0
   19.4952   34.8200   40.5063 H   0  0  0  0  0
   23.0943   33.6383   40.4186 H   0  0  0  0  0
   23.7396   31.5882   41.6836 H   0  0  0  0  0
   21.9865   30.2580   42.8784 H   0  0  0  0  0
   18.9552   32.9630   41.4311 H   0  0  0  0  0
   19.7989   29.8572   43.3044 H   0  0  0  0  0
   15.6220   29.4838   44.6910 H   0  0  0  0  0
   14.3483   31.3782   43.7926 H   0  0  0  0  0
   16.9642   33.6402   40.7717 H   0  0  0  0  0
   15.8352   35.5812   39.6839 H   0  0  0  0  0
   13.6389   36.3260   40.5109 H   0  0  0  0  0
   13.6059   33.3246   43.4457 H   0  0  0  0  0
  1  2  2  0  0  0
  2  3  1  0  0  0
  2 17  1  0  0  0
  3  4  4  0  0  0
  3  6  4  0  0  0
  4  5  4  0  0  0
  5  8  4  0  0  0
  6  7  4  0  0  0
  7  8  4  0  0  0
  8  9  1  0  0  0
  9 10  1  0  0  0
 10 11  1  0  0  0
 10 13  1  0  0  0
 11 12  1  0  0  0
 12 15  1  0  0  0
 13 14  1  0  0  0
 14 15  1  0  0  0
 15 16  1  0  0  0
 17 18  1  0  0  0
 18 19  4  0  0  0
 18 23  4  0  0  0
 19 20  4  0  0  0
 20 21  4  0  0  0
 21 22  4  0  0  0
 22 23  4  0  0  0
 22 24  1  0  0  0
 24 25  1  0  0  0
 25 26  4  0  0  0
 25 30  4  0  0  0
 26 27  4  0  0  0
 27 28  4  0  0  0
 28 29  4  0  0  0
 29 30  4  0  0  0
 29 31  1  0  0  0
 31 32  4  0  0  0
 31 36  4  0  0  0
 32 33  4  0  0  0
 33 34  4  0  0  0
 34 35  4  0  0  0
 35 36  4  0  0  0
  4 37  1  0  0  0
  5 38  1  0  0  0
  6 39  1  0  0  0
  7 40  1  0  0  0
  9 41  1  0  0  0
  9 42  1  0  0  0
 10 43  1  0  0  0
 11 44  1  0  0  0
 11 45  1  0  0  0
 12 46  1  0  0  0
 12 47  1  0  0  0
 13 48  1  0  0  0
 13 49  1  0  0  0
 14 50  1  0  0  0
 14 51  1  0  0  0
 15 52  1  0  0  0
 16 53  1  0  0  0
 16 54  1  0  0  0
 16 55  1  0  0  0
 17 56  1  0  0  0
 19 57  1  0  0  0
 20 58  1  0  0  0
 21 59  1  0  0  0
 23 60  1  0  0  0
 24 61  1  0  0  0
 27 62  1  0  0  0
 28 63  1  0  0  0
 32 64  1  0  0  0
 33 65  1  0  0  0
 34 66  1  0  0  0
 36 67  1  0  0  0
M  END
$$$$
