6fyv_ligand
  -I-interpret- 

 37 40  0  0  0  0  0  0  0  0999 V2000
  -28.5920   22.3680  -19.2300 C   0  0  0  0  0
  -28.7030   21.0380  -19.6810 C   0  0  0  0  0
  -27.7730   20.6230  -20.6570 C   0  0  0  0  0
  -26.7930   21.4910  -21.1520 C   0  0  0  0  0
  -26.7020   22.8070  -20.6870 C   0  0  0  0  0
  -27.6160   23.2390  -19.7200 C   0  0  0  0  0
  -30.5950   20.7870  -18.1480 C   0  0  0  0  0
  -29.7320   20.2310  -19.1240 C   0  0  0  0  0
  -29.4310   22.8670  -18.3020 N   0  0  0  0  0
  -30.4230   22.1260  -17.7470 C   0  0  0  0  0
  -31.7870   18.6740  -17.9860 C   0  0  0  0  0
  -30.9550   18.1520  -18.9130 N   0  0  0  0  0
  -29.9590   18.8810  -19.4760 C   0  0  0  0  0
  -31.6200   20.0020  -17.5830 C   0  0  0  0  0
  -31.2360   22.6840  -16.8010 N   0  0  0  0  0
  -31.2620   23.9730  -16.3540 C   0  0  0  0  0
  -31.1760   25.0810  -17.2150 C   0  0  0  0  0
  -31.2260   26.3890  -16.7110 C   0  0  0  0  0
  -31.3740   26.6160  -15.3340 C   0  0  0  0  0
  -31.4680   25.5190  -14.4640 C   0  0  0  0  0
  -31.4190   24.2110  -14.9760 C   0  0  0  0  0
  -31.1080   27.7420  -17.8160 Cl  0  0  0  0  0
  -25.6420   23.7430  -21.2240 C   0  0  0  0  0
  -24.6220   23.2520  -21.9350 O   0  0  0  0  0
  -25.7390   24.9450  -21.0060 O   0  0  0  0  0
  -27.8187   19.6016  -21.0348 H   0  0  0  0  0
  -26.0926   21.1374  -21.9086 H   0  0  0  0  0
  -27.5662   24.2618  -19.3465 H   0  0  0  0  0
  -32.5820   18.0649  -17.5558 H   0  0  0  0  0
  -29.3157   18.4125  -20.2208 H   0  0  0  0  0
  -32.2829   20.4306  -16.8314 H   0  0  0  0  0
  -31.9133   22.0533  -16.3721 H   0  0  0  0  0
  -31.0691   24.9216  -18.2880 H   0  0  0  0  0
  -31.4155   27.6332  -14.9446 H   0  0  0  0  0
  -31.5789   25.6812  -13.3919 H   0  0  0  0  0
  -31.5042   23.3656  -14.2933 H   0  0  0  0  0
  -24.7105   22.2985  -22.0030 H   0  0  0  0  0
  2  1  4  0  0  0
  1  6  4  0  0  0
  9  1  4  0  0  0
  2  3  4  0  0  0
  8  2  4  0  0  0
  3  4  4  0  0  0
  4  5  4  0  0  0
  6  5  4  0  0  0
  5 23  1  0  0  0
  7  8  4  0  0  0
  7 10  4  0  0  0
 14  7  4  0  0  0
  8 13  4  0  0  0
 10  9  4  0  0  0
 10 15  1  0  0  0
 11 12  4  0  0  0
 11 14  4  0  0  0
 12 13  4  0  0  0
 15 16  1  0  0  0
 16 17  4  0  0  0
 16 21  4  0  0  0
 17 18  4  0  0  0
 18 19  4  0  0  0
 18 22  1  0  0  0
 19 20  4  0  0  0
 20 21  4  0  0  0
 23 24  1  0  0  0
 23 25  2  0  0  0
  3 26  1  0  0  0
  4 27  1  0  0  0
  6 28  1  0  0  0
 11 29  1  0  0  0
 13 30  1  0  0  0
 14 31  1  0  0  0
 15 32  1  0  0  0
 17 33  1  0  0  0
 19 34  1  0  0  0
 20 35  1  0  0  0
 21 36  1  0  0  0
 24 37  1  0  0  0
M  END
$$$$
