2w6u_ligand
  -I-interpret- 

110110  0  0  0  0  0  0  0  0999 V2000
  -69.6480  -36.6590   20.0390 N   0  3  0  0  0
  -70.0210  -37.9770   19.4540 C   0  0  0  0  0
  -68.8470  -38.8820   19.8100 C   0  0  0  0  0
  -67.7490  -38.6880   19.2720 O   0  0  0  0  0
  -71.3860  -38.4440   20.0130 C   0  0  0  0  0
  -71.3860  -39.7860   20.4650 O   0  0  0  0  0
  -69.0700  -39.8790   20.6660 N   0  0  0  0  0
  -68.0280  -40.3700   21.5830 C   0  0  0  0  0
  -66.7050  -41.1060   21.1510 C   0  0  0  0  0
  -65.8230  -41.2440   22.0020 O   0  0  0  0  0
  -68.6860  -41.0870   22.7720 C   0  0  0  0  0
  -65.0300  -43.6140   20.2410 C   0  0  0  0  0
  -65.2610  -42.2980   19.5030 C   0  0  0  0  0
  -63.9550  -41.4740   19.6500 C   0  0  0  0  0
  -63.6160  -40.6550   18.4120 C   0  0  0  0  0
  -62.4170  -39.7180   18.5650 C   0  0  0  0  0
  -61.5300  -38.3770   20.3950 C   0  0  0  0  0
  -60.2320  -39.0380   20.0130 C   0  0  0  0  0
  -66.5260  -41.5610   19.9020 N   0  0  0  0  0
  -62.5860  -38.7460   19.6540 N   0  3  0  0  0
  -64.2210  -43.6670   21.1950 O   0  0  0  0  0
  -63.6890  -38.2430   19.8690 O   0  0  0  0  0
  -61.5330  -37.5740   21.3160 O   0  0  0  0  0
  -65.7070  -44.6870   19.8070 N   0  0  0  0  0
  -65.8910  -45.8940   20.6730 C   0  0  0  0  0
  -64.5760  -46.6130   21.0670 C   0  0  0  0  0
  -64.7770  -47.9430   21.8200 C   0  0  0  0  0
  -63.6820  -48.3520   22.8460 C   0  0  0  0  0
  -63.9610  -47.9140   24.2340 N   0  0  0  0  0
  -66.6130  -45.4520   21.9360 C   0  0  0  0  0
  -67.2780  -44.3960   21.9430 O   0  0  0  0  0
  -66.4870  -46.2490   22.9950 N   0  0  0  0  0
  -67.0800  -45.8930   24.2920 C   0  0  0  0  0
  -66.7150  -44.4830   24.7890 C   0  0  0  0  0
  -67.5530  -43.7000   25.2670 O   0  0  0  0  0
  -68.5710  -46.3390   24.4970 C   0  0  0  0  0
  -69.5440  -45.6970   23.5030 C   0  0  0  0  0
  -69.5590  -44.4410   23.4790 O   0  0  0  0  0
  -70.2910  -46.4310   22.7820 O   0  0  0  0  0
  -64.5710  -44.8770   26.4980 C   0  0  0  0  0
  -64.4920  -43.6800   25.5530 C   0  0  0  0  0
  -64.6900  -42.2500   26.0890 C   0  0  0  0  0
  -64.7120  -41.2020   24.9690 C   0  0  0  0  0
  -63.3450  -40.6380   24.6030 C   0  0  0  0  0
  -62.9750  -38.2080   24.3480 C   0  0  0  0  0
  -62.3840  -38.3090   25.7260 C   0  0  0  0  0
  -65.4370  -44.1720   24.5310 N   0  0  0  0  0
  -63.4340  -39.3500   23.8870 N   0  3  0  0  0
  -64.8450  -44.7600   27.7020 O   0  0  0  0  0
  -63.9050  -39.2340   22.7640 O   0  0  0  0  0
  -63.0620  -37.1600   23.6960 O   0  0  0  0  0
  -64.3090  -46.0440   25.8840 N   0  0  0  0  0
  -64.7840  -47.3940   26.2860 C   0  0  0  0  0
  -64.9280  -48.2860   25.0050 C   0  0  0  0  0
  -66.0490  -48.5620   24.5350 O   0  0  0  0  0
  -66.1090  -47.3070   27.1040 C   0  0  0  0  0
  -66.8220  -48.5300   27.1110 O   0  0  0  0  0
  -68.7473  -36.3638   19.6622 H   0  0  0  0  0
  -70.3603  -35.9688   19.8008 H   0  0  0  0  0
  -69.5819  -36.7450   21.0532 H   0  0  0  0  0
  -70.1721  -37.9654   18.3746 H   0  0  0  0  0
  -72.1119  -38.3725   19.2031 H   0  0  0  0  0
  -71.6217  -37.8115   20.8688 H   0  0  0  0  0
  -72.2582  -40.0105   20.7973 H   0  0  0  0  0
  -69.9916  -40.3156   20.6864 H   0  0  0  0  0
  -67.5546  -39.4082   21.7805 H   0  0  0  0  0
  -69.3360  -40.3898   23.3006 H   0  0  0  0  0
  -69.2745  -41.9286   22.4067 H   0  0  0  0  0
  -67.9127  -41.4495   23.4492 H   0  0  0  0  0
  -65.4610  -42.4918   18.4492 H   0  0  0  0  0
  -63.1385  -42.1775   19.8129 H   0  0  0  0  0
  -64.0964  -40.7778   20.4766 H   0  0  0  0  0
  -64.4819  -40.0265   18.2038 H   0  0  0  0  0
  -63.3620  -41.3650   17.6249 H   0  0  0  0  0
  -62.3096  -39.1602   17.6347 H   0  0  0  0  0
  -61.5445  -40.3289   18.7966 H   0  0  0  0  0
  -59.5110  -38.2760   19.7172 H   0  0  0  0  0
  -59.8445  -39.5950   20.8661 H   0  0  0  0  0
  -60.4043  -39.7198   19.1802 H   0  0  0  0  0
  -67.2556  -41.4084   19.2057 H   0  0  0  0  0
  -66.1047  -44.6806   18.8677 H   0  0  0  0  0
  -66.4604  -46.6198   20.0924 H   0  0  0  0  0
  -64.0351  -45.9450   21.7373 H   0  0  0  0  0
  -64.0498  -46.8463   20.1414 H   0  0  0  0  0
  -64.7707  -48.7197   21.0553 H   0  0  0  0  0
  -65.6929  -47.8201   22.3981 H   0  0  0  0  0
  -62.7538  -47.8717   22.5363 H   0  0  0  0  0
  -63.6376  -49.4411   22.8539 H   0  0  0  0  0
  -63.3095  -47.2357   24.6287 H   0  0  0  0  0
  -65.9692  -47.1231   22.9046 H   0  0  0  0  0
  -66.5669  -46.5399   25.0035 H   0  0  0  0  0
  -68.8714  -46.0268   25.4972 H   0  0  0  0  0
  -68.6136  -47.4177   24.3464 H   0  0  0  0  0
  -70.1064  -47.3544   22.9685 H   0  0  0  0  0
  -63.4821  -43.4480   25.2149 H   0  0  0  0  0
  -63.8543  -42.0193   26.7497 H   0  0  0  0  0
  -65.6502  -42.2132   26.6035 H   0  0  0  0  0
  -65.3159  -40.3675   25.3254 H   0  0  0  0  0
  -65.1018  -41.6954   24.0787 H   0  0  0  0  0
  -62.8526  -41.3538   23.9448 H   0  0  0  0  0
  -62.7936  -40.4696   25.5280 H   0  0  0  0  0
  -61.3444  -37.9827   25.6989 H   0  0  0  0  0
  -62.9478  -37.6738   26.4092 H   0  0  0  0  0
  -62.4327  -39.3435   26.0659 H   0  0  0  0  0
  -65.0984  -44.2814   23.5751 H   0  0  0  0  0
  -63.7205  -45.9981   25.0522 H   0  0  0  0  0
  -64.0530  -47.8582   26.9479 H   0  0  0  0  0
  -66.7422  -46.5508   26.6398 H   0  0  0  0  0
  -65.8529  -47.0607   28.1345 H   0  0  0  0  0
  -67.6265  -48.4272   27.6247 H   0  0  0  0  0
  2  1  1  0  0  0
  3  2  1  0  0  0
  2  5  1  0  0  0
  3  4  2  0  0  0
  7  3  1  0  0  0
  5  6  1  0  0  0
  8  7  1  0  0  0
  9  8  1  0  0  0
  8 11  1  0  0  0
  9 10  2  0  0  0
 19  9  1  0  0  0
 12 13  1  0  0  0
 12 21  2  0  0  0
 24 12  1  0  0  0
 13 14  1  0  0  0
 13 19  1  0  0  0
 14 15  1  0  0  0
 15 16  1  0  0  0
 16 20  1  0  0  0
 17 18  1  0  0  0
 20 17  1  0  0  0
 17 23  2  0  0  0
 20 22  2  0  0  0
 25 24  1  0  0  0
 25 26  1  0  0  0
 30 25  1  0  0  0
 26 27  1  0  0  0
 27 28  1  0  0  0
 28 29  1  0  0  0
 29 54  1  0  0  0
 30 31  2  0  0  0
 32 30  1  0  0  0
 33 32  1  0  0  0
 34 33  1  0  0  0
 33 36  1  0  0  0
 34 35  2  0  0  0
 47 34  1  0  0  0
 36 37  1  0  0  0
 37 38  2  0  0  0
 37 39  1  0  0  0
 41 40  1  0  0  0
 40 49  2  0  0  0
 40 52  1  0  0  0
 42 41  1  0  0  0
 41 47  1  0  0  0
 43 42  1  0  0  0
 44 43  1  0  0  0
 48 44  1  0  0  0
 45 46  1  0  0  0
 45 48  1  0  0  0
 45 51  2  0  0  0
 48 50  2  0  0  0
 52 53  1  0  0  0
 53 54  1  0  0  0
 53 56  1  0  0  0
 54 55  2  0  0  0
 56 57  1  0  0  0
  1 58  1  0  0  0
  1 59  1  0  0  0
  1 60  1  0  0  0
  2 61  1  0  0  0
  5 62  1  0  0  0
  5 63  1  0  0  0
  6 64  1  0  0  0
  7 65  1  0  0  0
  8 66  1  0  0  0
 11 67  1  0  0  0
 11 68  1  0  0  0
 11 69  1  0  0  0
 13 70  1  0  0  0
 14 71  1  0  0  0
 14 72  1  0  0  0
 15 73  1  0  0  0
 15 74  1  0  0  0
 16 75  1  0  0  0
 16 76  1  0  0  0
 18 77  1  0  0  0
 18 78  1  0  0  0
 18 79  1  0  0  0
 19 80  1  0  0  0
 24 81  1  0  0  0
 25 82  1  0  0  0
 26 83  1  0  0  0
 26 84  1  0  0  0
 27 85  1  0  0  0
 27 86  1  0  0  0
 28 87  1  0  0  0
 28 88  1  0  0  0
 29 89  1  0  0  0
 32 90  1  0  0  0
 33 91  1  0  0  0
 36 92  1  0  0  0
 36 93  1  0  0  0
 39 94  1  0  0  0
 41 95  1  0  0  0
 42 96  1  0  0  0
 42 97  1  0  0  0
 43 98  1  0  0  0
 43 99  1  0  0  0
 44100  1  0  0  0
 44101  1  0  0  0
 46102  1  0  0  0
 46103  1  0  0  0
 46104  1  0  0  0
 47105  1  0  0  0
 52106  1  0  0  0
 53107  1  0  0  0
 56108  1  0  0  0
 56109  1  0  0  0
 57110  1  0  0  0
M  END
$$$$
