### 
### Created by X-TOOL on Mon Sep 10 21:13:07 2018
### 

@<TRIPOS>MOLECULE
3b1u_ligand
   42    42     1     0     0
SMALL
GAST_HUCK


@<TRIPOS>ATOM
      1 C1        -26.2830   19.8470  -21.9300 C.2       1 YFF         0.0666
      2 O1        -26.1150   20.9990  -21.4730 O.co2     1 YFF        -0.5594
      3 O2        -26.7750   18.9280  -21.2390 O.co2     1 YFF        -0.5594
      4 NAA       -21.5490   15.7770  -22.7800 N.am      1 YFF        -0.2990
      5 NAC       -23.6430    9.4760  -19.4820 N.2       1 YFF        -0.3925
      6 OAE       -21.7530   15.5310  -20.5710 O.2       1 YFF        -0.3947
      7 OAF       -23.6250   18.3060  -21.7350 O.2       1 YFF        -0.3834
      8 CAH       -26.1440   20.1050  -25.6990 C.ar      1 YFF        -0.0541
      9 CAI       -26.4820   20.3220  -24.3650 C.ar      1 YFF        -0.0422
     10 CAJ       -25.2020   19.1340  -26.0220 C.ar      1 YFF        -0.0537
     11 CAK       -25.8840   19.5730  -23.3520 C.ar      1 YFF         0.0296
     12 CAL       -24.6040   18.3870  -25.0100 C.ar      1 YFF        -0.0386
     13 CAM       -23.2380   12.9420  -21.9920 C.3       1 YFF        -0.0275
     14 CAN       -23.7790   12.1420  -20.8130 C.3       1 YFF         0.0351
     15 CAO       -24.1380   14.1020  -22.4180 C.3       1 YFF        -0.0105
     16 CAP       -24.2900    8.4140  -21.5720 C.3       1 YFF         0.0183
     17 NAR       -24.0430   10.8190  -21.3550 N.pl3     1 YFF        -0.2896
     18 NAS       -24.3580   16.4320  -22.7350 N.am      1 YFF        -0.2646
     19 CAU       -22.2640   15.5970  -21.6750 C.2       1 YFF         0.1991
     20 CAV       -23.9670    9.6330  -20.7570 C.2       1 YFF         0.0851
     21 CAW       -24.2540   17.7600  -22.6290 C.2       1 YFF         0.2097
     22 CAX       -24.9380   18.6010  -23.6740 C.ar      1 YFF         0.0637
     23 CAZ       -23.7590   15.4600  -21.8190 C.3       1 YFF         0.1303
     24 H         -20.5345   15.8653  -22.7223 H         1 YFF         0.1815
     25 H         -22.0145   15.8269  -23.6862 H         1 YFF         0.1815
     26 H         -23.6169    8.5416  -19.0737 H         1 YFF         0.0591
     27 H         -26.6156   20.6935  -26.4860 H         1 YFF         0.0659
     28 H         -27.2197   21.0832  -24.1111 H         1 YFF         0.0663
     29 H         -24.9327   18.9583  -27.0635 H         1 YFF         0.0649
     30 H         -23.8664   17.6264  -25.2658 H         1 YFF         0.0676
     31 H         -23.1640   12.2607  -22.8396 H         1 YFF         0.0288
     32 H         -22.2834   13.3684  -21.6839 H         1 YFF         0.0288
     33 H         -24.6762   12.5953  -20.3914 H         1 YFF         0.0533
     34 H         -23.0708   12.1085  -19.9851 H         1 YFF         0.0533
     35 H         -25.1431   13.8695  -22.0660 H         1 YFF         0.0313
     36 H         -24.0443   14.1953  -23.4999 H         1 YFF         0.0313
     37 H         -23.4274    7.7478  -21.5844 H         1 YFF         0.0525
     38 H         -25.1426    7.8984  -21.1300 H         1 YFF         0.0525
     39 H         -24.5337    8.7140  -22.5912 H         1 YFF         0.0525
     40 H         -24.3273   10.7969  -22.3343 H         1 YFF         0.1931
     41 H         -24.8990   16.0657  -23.5183 H         1 YFF         0.1877
     42 H         -24.1278   15.6051  -20.8036 H         1 YFF         0.0799
@<TRIPOS>BOND
     1    1    2 ar 
     2    1    3 ar 
     3   11    1 1  
     4   19    4 am 
     5   20    5 2  
     6   19    6 2  
     7   21    7 2  
     8    9    8 ar 
     9   10    8 ar 
    10   11    9 ar 
    11   12   10 ar 
    12   22   11 ar 
    13   22   12 ar 
    14   13   14 1  
    15   15   13 1  
    16   14   17 1  
    17   23   15 1  
    18   20   16 1  
    19   17   20 1  
    20   21   18 am 
    21   18   23 1  
    22   23   19 1  
    23   21   22 1  
    24    4   24 1  
    25    4   25 1  
    26    5   26 1  
    27    8   27 1  
    28    9   28 1  
    29   10   29 1  
    30   12   30 1  
    31   13   31 1  
    32   13   32 1  
    33   14   33 1  
    34   14   34 1  
    35   15   35 1  
    36   15   36 1  
    37   16   37 1  
    38   16   38 1  
    39   16   39 1  
    40   17   40 1  
    41   18   41 1  
    42   23   42 1  
@<TRIPOS>SUBSTRUCTURE
     1 YFF         1

