3b1u_ligand
  -I-interpret- 

 43 43  0  0  0  0  0  0  0  0999 V2000
  -26.2830   19.8470  -21.9300 C   0  0  0  0  0
  -26.1150   20.9990  -21.4730 O   0  0  0  0  0
  -26.7750   18.9280  -21.2390 O   0  0  0  0  0
  -21.5490   15.7770  -22.7800 N   0  0  0  0  0
  -23.6430    9.4760  -19.4820 N   0  0  0  0  0
  -21.7530   15.5310  -20.5710 O   0  0  0  0  0
  -23.6250   18.3060  -21.7350 O   0  0  0  0  0
  -26.1440   20.1050  -25.6990 C   0  0  0  0  0
  -26.4820   20.3220  -24.3650 C   0  0  0  0  0
  -25.2020   19.1340  -26.0220 C   0  0  0  0  0
  -25.8840   19.5730  -23.3520 C   0  0  0  0  0
  -24.6040   18.3870  -25.0100 C   0  0  0  0  0
  -23.2380   12.9420  -21.9920 C   0  0  0  0  0
  -23.7790   12.1420  -20.8130 C   0  0  0  0  0
  -24.1380   14.1020  -22.4180 C   0  0  0  0  0
  -24.2900    8.4140  -21.5720 C   0  0  0  0  0
  -24.0430   10.8190  -21.3550 N   0  0  0  0  0
  -24.3580   16.4320  -22.7350 N   0  0  0  0  0
  -22.2640   15.5970  -21.6750 C   0  0  0  0  0
  -23.9670    9.6330  -20.7570 C   0  0  0  0  0
  -24.2540   17.7600  -22.6290 C   0  0  0  0  0
  -24.9380   18.6010  -23.6740 C   0  0  0  0  0
  -23.7590   15.4600  -21.8190 C   0  0  0  0  0
  -25.7284   21.5578  -22.1511 H   0  0  0  0  0
  -20.5345   15.8653  -22.7223 H   0  0  0  0  0
  -22.0145   15.8269  -23.6862 H   0  0  0  0  0
  -23.6169    8.5416  -19.0737 H   0  0  0  0  0
  -26.6156   20.6935  -26.4860 H   0  0  0  0  0
  -27.2197   21.0832  -24.1111 H   0  0  0  0  0
  -24.9327   18.9583  -27.0635 H   0  0  0  0  0
  -23.8664   17.6264  -25.2658 H   0  0  0  0  0
  -23.1640   12.2607  -22.8396 H   0  0  0  0  0
  -22.2834   13.3684  -21.6839 H   0  0  0  0  0
  -24.6762   12.5953  -20.3914 H   0  0  0  0  0
  -23.0708   12.1085  -19.9851 H   0  0  0  0  0
  -25.1431   13.8695  -22.0660 H   0  0  0  0  0
  -24.0443   14.1953  -23.4999 H   0  0  0  0  0
  -23.4274    7.7478  -21.5844 H   0  0  0  0  0
  -25.1426    7.8984  -21.1300 H   0  0  0  0  0
  -24.5337    8.7140  -22.5912 H   0  0  0  0  0
  -24.3273   10.7969  -22.3343 H   0  0  0  0  0
  -24.8990   16.0657  -23.5183 H   0  0  0  0  0
  -24.1278   15.6051  -20.8036 H   0  0  0  0  0
  1  2  1  0  0  0
  1  3  2  0  0  0
 11  1  1  0  0  0
 19  4  1  0  0  0
 20  5  2  0  0  0
 19  6  2  0  0  0
 21  7  2  0  0  0
  9  8  4  0  0  0
 10  8  4  0  0  0
 11  9  4  0  0  0
 12 10  4  0  0  0
 22 11  4  0  0  0
 22 12  4  0  0  0
 13 14  1  0  0  0
 15 13  1  0  0  0
 14 17  1  0  0  0
 23 15  1  0  0  0
 20 16  1  0  0  0
 17 20  1  0  0  0
 21 18  1  0  0  0
 18 23  1  0  0  0
 23 19  1  0  0  0
 21 22  1  0  0  0
  2 24  1  0  0  0
  4 25  1  0  0  0
  4 26  1  0  0  0
  5 27  1  0  0  0
  8 28  1  0  0  0
  9 29  1  0  0  0
 10 30  1  0  0  0
 12 31  1  0  0  0
 13 32  1  0  0  0
 13 33  1  0  0  0
 14 34  1  0  0  0
 14 35  1  0  0  0
 15 36  1  0  0  0
 15 37  1  0  0  0
 16 38  1  0  0  0
 16 39  1  0  0  0
 16 40  1  0  0  0
 17 41  1  0  0  0
 18 42  1  0  0  0
 23 43  1  0  0  0
M  END
$$$$
