3dp4_ligand
  -I-interpret- 

 24 24  0  0  0  0  0  0  0  0999 V2000
   20.9390   20.7800   13.3460 N   0  3  0  0  0
   20.7560   19.5320   14.1660 C   0  0  0  0  0
   19.2250   19.1940   14.2990 C   0  0  0  0  0
   18.4180   19.9480   13.7350 O   0  0  0  0  0
   18.9040   18.1840   14.9600 O   0  0  0  0  0
   21.4330   19.7320   15.5520 C   0  0  0  0  0
   22.9190   20.0230   15.4450 C   0  0  0  0  0
   23.9770   19.0770   15.3030 C   0  0  0  0  0
   23.6270   21.1880   15.4500 C   0  0  0  0  0
   23.2810   22.6370   15.5590 C   0  0  0  0  0
   23.6400   17.7970   15.2600 O   0  0  0  0  0
   25.2040   19.5110   15.2210 N   0  0  0  0  0
   24.9800   20.9330   15.3200 O   0  0  0  0  0
   20.4969   20.6549   12.4353 H   0  0  0  0  0
   20.5086   21.5687   13.8288 H   0  0  0  0  0
   21.9351   20.9595   13.2199 H   0  0  0  0  0
   21.2312   18.6832   13.6743 H   0  0  0  0  0
   19.6957   17.7604   15.2997 H   0  0  0  0  0
   21.3139   18.8080   16.1179 H   0  0  0  0  0
   20.9595   20.5872   16.0342 H   0  0  0  0  0
   22.6247   22.9155   14.7345 H   0  0  0  0  0
   22.7731   22.8177   16.5064 H   0  0  0  0  0
   24.1936   23.2314   15.5154 H   0  0  0  0  0
   26.0758   18.9919   15.1164 H   0  0  0  0  0
  1  2  1  0  0  0
  2  3  1  0  0  0
  2  6  1  0  0  0
  3  4  2  0  0  0
  3  5  1  0  0  0
  6  7  1  0  0  0
  7  8  1  0  0  0
  7  9  2  0  0  0
  8 11  2  0  0  0
  8 12  1  0  0  0
  9 10  1  0  0  0
  9 13  1  0  0  0
 12 13  1  0  0  0
  1 14  1  0  0  0
  1 15  1  0  0  0
  1 16  1  0  0  0
  2 17  1  0  0  0
  5 18  1  0  0  0
  6 19  1  0  0  0
  6 20  1  0  0  0
 10 21  1  0  0  0
 10 22  1  0  0  0
 10 23  1  0  0  0
 12 24  1  0  0  0
M  END
$$$$
