4fhi_ligand
  -I-interpret- 

 72 73  0  0  0  0  0  0  0  0999 V2000
    2.4200   37.3040   37.9780 C   0  0  0  0  0
    1.4790   38.3660   38.1490 C   0  0  0  0  0
    0.0520   38.0780   38.5780 C   0  0  0  0  0
   -0.3160   36.7080   38.8060 C   0  0  0  0  0
    0.6530   35.5850   38.6300 C   0  0  0  0  0
    2.0210   35.9590   38.2110 C   0  0  0  0  0
    0.1870   34.0650   38.9090 C   0  0  0  0  0
    0.8700   32.8560   38.0660 C   0  0  0  0  0
   -1.4280   33.8680   38.7150 C   0  0  0  0  0
    0.4930   33.9080   40.5250 C   0  0  0  0  0
    1.9680   34.0350   41.1440 C   0  0  0  0  0
   -2.1200   33.9640   37.2840 C   0  0  0  0  0
    1.1790   31.5010   38.6730 C   0  0  0  0  0
    1.7830   30.4460   37.9040 C   0  0  0  0  0
    2.1090   30.7450   36.4170 C   0  0  0  0  0
    2.0930   29.0790   38.5240 C   0  0  0  0  0
    1.7940   32.0730   35.8590 C   0  0  0  0  0
    1.2140   33.0510   36.6450 C   0  0  0  0  0
    1.8510   39.6300   37.9320 O   0  0  0  0  0
    4.7580   41.9190   36.5890 O   0  0  0  0  0
    2.5720   40.2850   38.9640 C   0  0  0  0  0
    3.6980   41.1550   38.4510 C   0  0  0  0  0
    4.0850   40.9080   37.2210 N   0  0  0  0  0
    4.2070   42.0300   39.1410 O   0  0  0  0  0
    4.8400   29.2270   32.5080 C   0  0  0  0  0
    4.0600   30.0400   31.4540 C   0  0  0  0  0
    6.1250   30.0260   32.8060 C   0  0  0  0  0
    5.1980   27.8560   31.9190 C   0  0  0  0  0
    3.4810   30.1570   34.5010 C   0  0  0  0  0
    2.6810   29.7770   35.6370 O   0  0  0  0  0
    3.9850   28.9220   33.7700 C   0  0  0  0  0
    4.7420   28.1720   34.7600 O   0  0  0  0  0
   -1.0180   39.1640   38.7830 C   0  0  0  0  0
    3.4419   37.5246   37.6695 H   0  0  0  0  0
   -1.3355   36.4808   39.1176 H   0  0  0  0  0
    2.7576   35.1672   38.0744 H   0  0  0  0  0
   -1.8575   34.7051   39.2654 H   0  0  0  0  0
   -1.5992   32.8342   39.0150 H   0  0  0  0  0
    0.2226   32.8725   40.7319 H   0  0  0  0  0
   -0.0367   34.7536   40.9637 H   0  0  0  0  0
    2.6115   33.2723   40.7056 H   0  0  0  0  0
    2.3702   35.0233   40.9214 H   0  0  0  0  0
    1.9207   33.8954   42.2240 H   0  0  0  0  0
   -1.9403   34.9522   36.8605 H   0  0  0  0  0
   -1.6989   33.2035   36.6265 H   0  0  0  0  0
   -3.1927   33.8018   37.3890 H   0  0  0  0  0
    0.9368   31.3217   39.7205 H   0  0  0  0  0
    2.7847   29.2075   39.3566 H   0  0  0  0  0
    1.1689   28.6268   38.8841 H   0  0  0  0  0
    2.5451   28.4339   37.7706 H   0  0  0  0  0
    2.0212   32.2860   34.8144 H   0  0  0  0  0
    0.9994   34.0181   36.1903 H   0  0  0  0  0
    4.9946   41.6387   35.7018 H   0  0  0  0  0
    3.0137   39.5147   39.5962 H   0  0  0  0  0
    1.8726   40.9315   39.4942 H   0  0  0  0  0
    3.8956   40.0162   36.7636 H   0  0  0  0  0
    3.8245   31.0247   31.8578 H   0  0  0  0  0
    4.6700   30.1499   30.5574 H   0  0  0  0  0
    3.1363   29.5177   31.2048 H   0  0  0  0  0
    6.7037   30.1362   31.8889 H   0  0  0  0  0
    5.8582   31.0109   33.1893 H   0  0  0  0  0
    6.7181   29.4937   33.5497 H   0  0  0  0  0
    4.2834   27.3275   31.6500 H   0  0  0  0  0
    5.8144   27.9934   31.0306 H   0  0  0  0  0
    5.7495   27.2767   32.6595 H   0  0  0  0  0
    4.3358   30.7379   34.8473 H   0  0  0  0  0
    2.8704   30.7486   33.8189 H   0  0  0  0  0
    3.1409   28.3595   33.3709 H   0  0  0  0  0
    4.1863   28.0010   35.5239 H   0  0  0  0  0
   -0.6866   39.8575   39.5559 H   0  0  0  0  0
   -1.1690   39.7045   37.8486 H   0  0  0  0  0
   -1.9540   38.6968   39.0893 H   0  0  0  0  0
  1  2  4  0  0  0
  6  1  4  0  0  0
  3  2  4  0  0  0
  2 19  1  0  0  0
  4  3  4  0  0  0
  3 33  1  0  0  0
  5  4  4  0  0  0
  5  6  4  0  0  0
  7  5  1  0  0  0
  8  7  1  0  0  0
  7  9  1  0  0  0
  7 10  1  0  0  0
 13  8  4  0  0  0
 18  8  4  0  0  0
  9 12  1  0  0  0
 10 11  1  0  0  0
 14 13  4  0  0  0
 15 14  4  0  0  0
 14 16  1  0  0  0
 15 17  4  0  0  0
 30 15  1  0  0  0
 17 18  4  0  0  0
 19 21  1  0  0  0
 23 20  1  0  0  0
 21 22  1  0  0  0
 22 23  1  0  0  0
 22 24  2  0  0  0
 25 26  1  0  0  0
 25 27  1  0  0  0
 25 28  1  0  0  0
 31 25  1  0  0  0
 29 30  1  0  0  0
 29 31  1  0  0  0
 31 32  1  0  0  0
  1 34  1  0  0  0
  4 35  1  0  0  0
  6 36  1  0  0  0
  9 37  1  0  0  0
  9 38  1  0  0  0
 10 39  1  0  0  0
 10 40  1  0  0  0
 11 41  1  0  0  0
 11 42  1  0  0  0
 11 43  1  0  0  0
 12 44  1  0  0  0
 12 45  1  0  0  0
 12 46  1  0  0  0
 13 47  1  0  0  0
 16 48  1  0  0  0
 16 49  1  0  0  0
 16 50  1  0  0  0
 17 51  1  0  0  0
 18 52  1  0  0  0
 20 53  1  0  0  0
 21 54  1  0  0  0
 21 55  1  0  0  0
 23 56  1  0  0  0
 26 57  1  0  0  0
 26 58  1  0  0  0
 26 59  1  0  0  0
 27 60  1  0  0  0
 27 61  1  0  0  0
 27 62  1  0  0  0
 28 63  1  0  0  0
 28 64  1  0  0  0
 28 65  1  0  0  0
 29 66  1  0  0  0
 29 67  1  0  0  0
 31 68  1  0  0  0
 32 69  1  0  0  0
 33 70  1  0  0  0
 33 71  1  0  0  0
 33 72  1  0  0  0
M  END
$$$$
