5cpr_ligand
  -I-interpret- 

 40 43  0  0  0  0  0  0  0  0999 V2000
   -3.8740  -14.3640   24.4410 C   0  0  0  0  0
   -3.6600  -15.4610   25.2720 C   0  0  0  0  0
   -3.3670  -16.6960   24.7300 C   0  0  0  0  0
   -3.0960  -17.7140   25.6300 C   0  0  0  0  0
   -1.9360  -19.3900   24.1740 C   0  0  0  0  0
   -1.8670  -21.7300   24.7460 N   0  0  0  0  0
   -2.5880  -21.4020   25.8280 C   0  0  0  0  0
   -3.6780  -15.3670   26.6540 C   0  0  0  0  0
   -2.8570  -12.9240   28.9650 C   0  0  0  0  0
   -3.6500  -11.6560   29.1320 C   0  0  0  0  0
   -5.1080  -12.0220   29.1740 C   0  0  0  0  0
   -3.3570  -16.8440   23.3470 C   0  0  0  0  0
   -3.0050  -20.1210   26.1440 C   0  0  0  0  0
   -1.5750  -20.7020   23.9360 C   0  0  0  0  0
   -2.6800  -19.0720   25.2960 C   0  0  0  0  0
   -3.6210  -15.7780   22.5090 C   0  0  0  0  0
   -3.8480  -14.5340   23.0660 C   0  0  0  0  0
   -5.1940  -13.5320   29.0930 C   0  0  0  0  0
   -3.8400  -14.0270   28.6330 C   0  0  0  0  0
   -3.1860  -17.5480   26.9600 N   0  0  0  0  0
   -3.4560  -16.4210   27.4570 N   0  0  0  0  0
   -3.9310  -14.0980   27.1880 N   0  0  0  0  0
   -3.6570  -16.0530   20.7930 Cl  0  0  0  0  0
   -4.1190  -13.1830   22.0420 Cl  0  0  0  0  0
   -4.0605  -13.3791   24.8690 H   0  0  0  0  0
   -1.6350  -18.6064   23.4787 H   0  0  0  0  0
   -2.8667  -22.2052   26.5102 H   0  0  0  0  0
   -2.3115  -13.1586   29.8790 H   0  0  0  0  0
   -2.1206  -12.8139   28.1690 H   0  0  0  0  0
   -3.4557  -10.9780   28.3009 H   0  0  0  0  0
   -3.3619  -11.1502   30.0536 H   0  0  0  0  0
   -5.6430  -11.5622   28.3430 H   0  0  0  0  0
   -5.5679  -11.6604   30.0937 H   0  0  0  0  0
   -3.1365  -17.8205   22.9159 H   0  0  0  0  0
   -3.5829  -19.9379   27.0499 H   0  0  0  0  0
   -1.0138  -20.9165   23.0265 H   0  0  0  0  0
   -5.9741  -13.8374   28.3957 H   0  0  0  0  0
   -5.4511  -13.9567   30.0634 H   0  0  0  0  0
   -3.5488  -14.9774   29.0802 H   0  0  0  0  0
   -4.1603  -13.2905   26.6086 H   0  0  0  0  0
  2  1  4  0  0  0
  1 17  4  0  0  0
  2  3  4  0  0  0
  8  2  4  0  0  0
  3  4  4  0  0  0
  3 12  4  0  0  0
  4 15  1  0  0  0
  4 20  4  0  0  0
  5 14  4  0  0  0
 15  5  4  0  0  0
  7  6  4  0  0  0
 14  6  4  0  0  0
 13  7  4  0  0  0
  8 21  4  0  0  0
 22  8  1  0  0  0
  9 10  1  0  0  0
 19  9  1  0  0  0
 11 10  1  0  0  0
 18 11  1  0  0  0
 12 16  4  0  0  0
 15 13  4  0  0  0
 17 16  4  0  0  0
 16 23  1  0  0  0
 17 24  1  0  0  0
 19 18  1  0  0  0
 19 22  1  0  0  0
 20 21  4  0  0  0
  1 25  1  0  0  0
  5 26  1  0  0  0
  7 27  1  0  0  0
  9 28  1  0  0  0
  9 29  1  0  0  0
 10 30  1  0  0  0
 10 31  1  0  0  0
 11 32  1  0  0  0
 11 33  1  0  0  0
 12 34  1  0  0  0
 13 35  1  0  0  0
 14 36  1  0  0  0
 18 37  1  0  0  0
 18 38  1  0  0  0
 19 39  1  0  0  0
 22 40  1  0  0  0
M  END
$$$$
