1qr3_ligand
  -I-interpret- 

132136  0  0  0  0  0  0  0  0999 V2000
  -16.7450   18.0300   41.2070 C   0  0  0  0  0
  -15.9550   17.8560   39.9110 C   0  0  0  0  0
  -15.3320   16.8530   39.6000 O   0  0  0  0  0
  -15.9170   17.4220   42.3590 C   0  0  0  0  0
  -18.0940   17.3320   41.1260 C   0  0  0  0  0
  -15.9430   18.9220   39.1290 N   0  0  0  0  0
  -15.0220   19.0160   37.9970 C   0  0  0  0  0
  -15.6970   19.8400   36.8860 C   0  0  0  0  0
  -14.7390   20.4220   35.8350 C   0  0  0  0  0
  -14.0510   19.4300   34.9050 C   0  0  0  0  0
  -12.8690   20.0280   34.2680 N   0  0  0  0  0
  -13.7100   19.7510   38.4660 C   0  0  0  0  0
  -13.7670   20.9050   38.8730 O   0  0  0  0  0
  -12.5490   19.0530   38.3620 N   0  0  0  0  0
  -11.3120   19.7470   38.6520 C   0  0  0  0  0
  -10.9180   20.8040   37.6050 C   0  0  0  0  0
  -11.2560   20.7110   36.4320 O   0  0  0  0  0
  -10.0480   18.8100   38.8730 C   0  0  0  0  0
   -9.9740   17.8400   37.8380 O   0  0  0  0  0
  -10.1700   18.1630   40.2140 C   0  0  0  0  0
  -10.2070   21.8310   38.1710 N   0  0  0  0  0
   -9.8660   23.0540   37.4160 C   0  0  0  0  0
   -8.9000   22.9550   36.2820 C   0  0  0  0  0
   -8.6830   23.9490   35.5930 O   0  0  0  0  0
  -10.4160   24.2570   37.7240 C   0  0  0  0  0
  -11.4430   24.4510   38.8250 C   0  0  0  0  0
   -8.2970   21.8050   36.0850 N   0  0  0  0  0
   -7.3230   21.6780   35.0020 C   0  0  0  0  0
   -7.9660   21.0660   33.6970 C   0  0  0  0  0
   -9.1650   21.2290   33.4200 O   0  0  0  0  0
   -6.0990   20.8930   35.5100 C   0  0  0  0  0
   -5.1570   20.7380   34.3240 C   0  0  0  0  0
   -5.7730   19.8840   33.2300 C   0  0  0  0  0
   -6.1130   18.6080   33.7410 O   0  0  0  0  0
   -7.1200   20.3580   32.8470 N   0  0  0  0  0
   -7.6370   19.9960   31.5180 C   0  0  0  0  0
   -7.4550   18.4830   31.2310 C   0  0  0  0  0
   -6.4400   18.1230   30.6630 O   0  0  0  0  0
   -6.8850   20.7480   30.4090 C   0  0  0  0  0
   -6.9610   22.2470   30.5730 C   0  0  0  0  0
   -5.8900   22.8920   31.2370 C   0  0  0  0  0
   -8.1110   22.9260   30.0880 C   0  0  0  0  0
   -6.0510   24.2870   31.4250 C   0  0  0  0  0
   -8.2300   24.3180   30.2890 C   0  0  0  0  0
   -7.1890   24.9810   30.9590 C   0  0  0  0  0
   -8.3770   17.5800   31.6340 N   0  0  0  0  0
   -9.5890   17.9500   32.3710 C   0  0  0  0  0
   -9.8850   17.3540   33.7360 C   0  0  0  0  0
  -11.0370   17.0970   34.0610 O   0  0  0  0  0
   -8.1990   16.1220   31.4360 C   0  0  0  0  0
  -10.8040   17.7620   31.4840 C   0  0  0  0  0
  -10.9390   18.9350   30.5780 C   0  0  0  0  0
  -11.3840   20.1600   31.1040 C   0  0  0  0  0
  -10.5680   18.7830   29.2360 C   0  0  0  0  0
  -11.4940   21.2650   30.2760 C   0  0  0  0  0
  -10.6790   19.8990   28.4370 C   0  0  0  0  0
  -11.1180   21.1260   28.9490 C   0  0  0  0  0
  -10.3200   19.7710   27.1190 O   0  0  0  0  0
  -11.1630   22.2760   28.1420 O   0  0  0  0  0
  -11.6490   20.3650   32.4230 N   0  0  0  0  0
  -12.8010   19.9500   32.9380 C   0  0  0  0  0
  -13.6730   19.5030   32.2090 O   0  0  0  0  0
   -8.7720   17.2400   34.5010 N   0  0  0  0  0
   -8.8690   16.8490   35.9170 C   0  0  0  0  0
   -9.1200   18.0600   36.8660 C   0  0  0  0  0
   -8.5700   19.0980   36.6710 O   0  0  0  0  0
   -7.5930   16.1660   36.4220 C   0  0  0  0  0
   -7.9200   15.1490   37.5230 C   0  0  0  0  0
   -6.8170   15.5490   35.2830 C   0  0  0  0  0
  -16.9279   19.0910   41.3773 H   0  0  0  0  0
  -15.7456   16.3637   42.1623 H   0  0  0  0  0
  -14.9602   17.9394   42.4295 H   0  0  0  0  0
  -16.4625   17.5351   43.2959 H   0  0  0  0  0
  -18.6725   17.7564   40.3054 H   0  0  0  0  0
  -17.9407   16.2670   40.9515 H   0  0  0  0  0
  -18.6321   17.4742   42.0632 H   0  0  0  0  0
  -16.5861   19.6908   39.3182 H   0  0  0  0  0
  -14.7723   18.0220   37.6260 H   0  0  0  0  0
  -16.1817   20.6864   37.3726 H   0  0  0  0  0
  -16.3699   19.1643   36.3581 H   0  0  0  0  0
  -13.9408   20.9085   36.3956 H   0  0  0  0  0
  -15.3497   21.0579   35.1941 H   0  0  0  0  0
  -14.7553   19.1384   34.1259 H   0  0  0  0  0
  -13.7311   18.5686   35.4913 H   0  0  0  0  0
  -12.1370   20.4802   34.8158 H   0  0  0  0  0
  -12.5489   18.0705   38.0881 H   0  0  0  0  0
  -11.5626   20.2331   39.5949 H   0  0  0  0  0
   -9.1294   19.3959   38.8397 H   0  0  0  0  0
  -10.2043   18.9323   40.9854 H   0  0  0  0  0
  -11.0846   17.5710   40.2485 H   0  0  0  0  0
   -9.3098   17.5152   40.3831 H   0  0  0  0  0
   -9.9048   21.7480   39.1417 H   0  0  0  0  0
  -10.1034   25.1295   37.1502 H   0  0  0  0  0
  -12.3232   23.8451   38.6100 H   0  0  0  0  0
  -11.0135   24.1446   39.7788 H   0  0  0  0  0
  -11.7271   25.5022   38.8740 H   0  0  0  0  0
   -8.5067   21.0060   36.6834 H   0  0  0  0  0
   -6.9819   22.6694   34.7039 H   0  0  0  0  0
   -6.3960   19.9196   35.9004 H   0  0  0  0  0
   -5.6102   21.4218   36.3282 H   0  0  0  0  0
   -4.2452   20.2508   34.6694 H   0  0  0  0  0
   -4.9522   21.7273   33.9148 H   0  0  0  0  0
   -5.0410   19.9018   32.4226 H   0  0  0  0  0
   -6.5011   18.0774   33.0414 H   0  0  0  0  0
   -8.6943   20.2611   31.5219 H   0  0  0  0  0
   -7.3460   20.4902   29.4555 H   0  0  0  0  0
   -5.8356   20.4571   30.4573 H   0  0  0  0  0
   -5.0056   22.3544   31.5789 H   0  0  0  0  0
   -8.8943   22.3769   29.5654 H   0  0  0  0  0
   -5.2713   24.8424   31.9462 H   0  0  0  0  0
   -9.1049   24.8628   29.9343 H   0  0  0  0  0
   -7.2611   26.0562   31.1231 H   0  0  0  0  0
   -9.3607   18.9850   32.6254 H   0  0  0  0  0
   -8.1435   15.6289   32.4065 H   0  0  0  0  0
   -9.0454   15.7269   30.8742 H   0  0  0  0  0
   -7.2777   15.9416   30.8822 H   0  0  0  0  0
  -11.6971   17.6746   32.1028 H   0  0  0  0  0
  -10.6856   16.8551   30.8910 H   0  0  0  0  0
  -10.2100   17.8308   28.8444 H   0  0  0  0  0
  -11.8655   22.2163   30.6569 H   0  0  0  0  0
  -10.0477   18.8662   26.9491 H   0  0  0  0  0
  -10.8818   22.0521   27.2518 H   0  0  0  0  0
  -10.9647   20.8362   33.0147 H   0  0  0  0  0
   -7.8570   17.4272   34.0911 H   0  0  0  0  0
   -9.7159   16.1634   35.9441 H   0  0  0  0  0
   -6.9485   16.9248   36.8657 H   0  0  0  0  0
   -8.3998   15.6605   38.3574 H   0  0  0  0  0
   -8.5928   14.3891   37.1257 H   0  0  0  0  0
   -6.9989   14.6774   37.8654 H   0  0  0  0  0
   -7.4370   14.8041   34.7842 H   0  0  0  0  0
   -6.5380   16.3265   34.5719 H   0  0  0  0  0
   -5.9178   15.0726   35.6737 H   0  0  0  0  0
  1  5  1  0  0  0
  1  4  1  0  0  0
  2  1  1  0  0  0
  2  3  2  0  0  0
  7  6  1  0  0  0
 12  7  1  0  0  0
  7  8  1  0  0  0
  8  9  1  0  0  0
  9 10  1  0  0  0
 10 11  1  0  0  0
 12 13  2  0  0  0
 16 15  1  0  0  0
 15 18  1  0  0  0
 15 14  1  0  0  0
 18 19  1  0  0  0
 18 20  1  0  0  0
 16 17  2  0  0  0
 22 21  1  0  0  0
 22 25  2  0  0  0
 23 22  1  0  0  0
 23 24  2  0  0  0
 25 26  1  0  0  0
 28 27  1  0  0  0
 28 31  1  0  0  0
 29 28  1  0  0  0
 29 30  2  0  0  0
 31 32  1  0  0  0
 32 33  1  0  0  0
 33 34  1  0  0  0
 36 37  1  0  0  0
 36 39  1  0  0  0
 35 36  1  0  0  0
 39 40  1  0  0  0
 40 42  4  0  0  0
 40 41  4  0  0  0
 41 43  4  0  0  0
 43 45  4  0  0  0
 44 45  4  0  0  0
 42 44  4  0  0  0
 37 38  2  0  0  0
 46 50  1  0  0  0
 47 46  1  0  0  0
 51 47  1  0  0  0
 47 48  1  0  0  0
 48 49  2  0  0  0
 52 51  1  0  0  0
 52 54  4  0  0  0
 53 52  4  0  0  0
 60 53  1  0  0  0
 53 55  4  0  0  0
 55 57  4  0  0  0
 57 59  1  0  0  0
 57 56  4  0  0  0
 56 58  1  0  0  0
 54 56  4  0  0  0
 61 60  1  0  0  0
 61 62  2  0  0  0
 65 64  1  0  0  0
 64 67  1  0  0  0
 64 63  1  0  0  0
 67 68  1  0  0  0
 67 69  1  0  0  0
 65 66  2  0  0  0
 19 65  1  0  0  0
 11 61  1  0  0  0
  6  2  1  0  0  0
 14 12  1  0  0  0
 21 16  1  0  0  0
 27 23  1  0  0  0
 29 35  1  0  0  0
 33 35  1  0  0  0
 46 37  1  0  0  0
 63 48  1  0  0  0
  1 70  1  0  0  0
  4 71  1  0  0  0
  4 72  1  0  0  0
  4 73  1  0  0  0
  5 74  1  0  0  0
  5 75  1  0  0  0
  5 76  1  0  0  0
  6 77  1  0  0  0
  7 78  1  0  0  0
  8 79  1  0  0  0
  8 80  1  0  0  0
  9 81  1  0  0  0
  9 82  1  0  0  0
 10 83  1  0  0  0
 10 84  1  0  0  0
 11 85  1  0  0  0
 14 86  1  0  0  0
 15 87  1  0  0  0
 18 88  1  0  0  0
 20 89  1  0  0  0
 20 90  1  0  0  0
 20 91  1  0  0  0
 21 92  1  0  0  0
 25 93  1  0  0  0
 26 94  1  0  0  0
 26 95  1  0  0  0
 26 96  1  0  0  0
 27 97  1  0  0  0
 28 98  1  0  0  0
 31 99  1  0  0  0
 31100  1  0  0  0
 32101  1  0  0  0
 32102  1  0  0  0
 33103  1  0  0  0
 34104  1  0  0  0
 36105  1  0  0  0
 39106  1  0  0  0
 39107  1  0  0  0
 41108  1  0  0  0
 42109  1  0  0  0
 43110  1  0  0  0
 44111  1  0  0  0
 45112  1  0  0  0
 47113  1  0  0  0
 50114  1  0  0  0
 50115  1  0  0  0
 50116  1  0  0  0
 51117  1  0  0  0
 51118  1  0  0  0
 54119  1  0  0  0
 55120  1  0  0  0
 58121  1  0  0  0
 59122  1  0  0  0
 60123  1  0  0  0
 63124  1  0  0  0
 64125  1  0  0  0
 67126  1  0  0  0
 68127  1  0  0  0
 68128  1  0  0  0
 68129  1  0  0  0
 69130  1  0  0  0
 69131  1  0  0  0
 69132  1  0  0  0
M  END
$$$$
