2bcd_ligand
  -I-interpret- 

114115  0  0  0  0  0  0  0  0999 V2000
   87.2070   54.4500   23.7770 N   0  0  0  0  0
   86.6930   55.7060   23.1800 C   0  0  0  0  0
   85.1660   55.6720   22.8970 C   0  0  0  0  0
   84.7940   56.2680   21.8580 O   0  0  0  0  0
   87.0220   56.9230   24.0930 C   0  0  0  0  0
   86.1940   56.8640   25.3920 C   0  0  0  0  0
   86.2170   58.0520   26.3710 C   0  0  0  0  0
   86.9360   59.0310   26.1400 O   0  0  0  0  0
   84.3960   55.0890   23.7150 O   0  0  0  0  0
   85.3580   57.9160   27.4240 N   0  0  0  0  0
   83.9740   58.3600   27.1000 C   0  0  0  0  0
   85.5630   57.2160   28.5970 C   0  0  0  0  0
   86.6070   56.1050   28.7950 C   0  0  0  0  0
   86.2800   55.1450   29.4910 O   0  0  0  0  0
   84.5280   56.6470   29.3770 C   0  0  0  0  0
   83.0900   56.9530   29.8430 C   0  0  0  0  0
   88.3560   53.8380   27.6460 C   0  0  0  0  0
   87.7590   54.0900   26.5630 O   0  0  0  0  0
   88.6510   52.7140   28.0970 O   0  0  0  0  0
   88.7390   55.0460   28.5100 C   0  0  0  0  0
   87.8090   56.1720   28.2650 N   0  0  0  0  0
   90.1860   55.4360   28.2200 C   0  0  0  0  0
   90.3290   55.9480   26.7970 C   0  0  0  0  0
   89.8420   57.0170   26.4160 O   0  0  0  0  0
   90.7280   56.4510   29.2400 C   0  0  0  0  0
   91.3150   55.2940   24.6180 C   0  0  0  0  0
   90.6160   54.2490   23.6720 C   0  0  0  0  0
   90.4460   54.4850   22.4720 O   0  0  0  0  0
   92.8570   55.2330   24.7680 C   0  0  0  0  0
   93.5680   56.5320   24.3810 C   0  0  0  0  0
   93.5210   53.9680   24.2400 C   0  0  0  0  0
   90.9810   55.0850   26.0400 N   0  0  0  0  0
   87.4370   53.3660   23.0430 C   0  0  0  0  0
   87.2490   53.3230   21.8390 O   0  0  0  0  0
   87.9820   52.1350   23.7680 C   0  0  0  0  0
   87.1960   50.8670   23.3390 C   0  0  0  0  0
   89.5110   52.0460   23.5050 C   0  0  0  0  0
   90.1880   53.1260   24.2470 N   0  0  0  0  0
   90.0080   50.6620   23.9220 C   0  0  0  0  0
   90.9220   49.9030   23.1980 C   0  0  0  0  0
   91.3110   48.6290   23.6400 C   0  0  0  0  0
   90.6970   48.0150   24.9250 C   0  0  0  0  0
   92.2440   47.9010   22.8950 C   0  0  0  0  0
   92.6930   46.4780   23.3160 C   0  0  0  0  0
   94.2370   46.4670   23.3310 C   0  0  0  0  0
   91.8840   45.3630   22.4850 C   0  0  0  0  0
   92.0840   45.3580   21.0190 O   0  0  0  0  0
   93.2750   44.9230   20.3980 C   0  0  0  0  0
   91.6500   43.8540   23.0960 C   0  0  0  0  0
   91.2670   42.6350   22.1260 C   0  0  0  0  0
   90.5530   42.7320   20.9050 C   0  0  0  0  0
   90.2940   41.5890   20.1200 C   0  0  0  0  0
   90.6990   40.3160   20.5290 C   0  0  0  0  0
   91.3980   40.1860   21.7270 C   0  0  0  0  0
   91.6380   41.3290   22.4980 C   0  0  0  0  0
   87.3894   54.4168   24.7800 H   0  0  0  0  0
   87.1986   55.8097   22.2199 H   0  0  0  0  0
   86.7782   57.8417   23.5595 H   0  0  0  0  0
   88.0816   56.8982   24.3474 H   0  0  0  0  0
   86.6271   56.0373   25.9550 H   0  0  0  0  0
   85.1591   56.8079   25.0543 H   0  0  0  0  0
   84.9159   54.7090   24.4269 H   0  0  0  0  0
   83.9887   59.4119   26.8149 H   0  0  0  0  0
   83.5865   57.7637   26.2739 H   0  0  0  0  0
   83.3373   58.2282   27.9749 H   0  0  0  0  0
   85.8886   58.2192   28.8719 H   0  0  0  0  0
   85.0074   56.7890   30.3456 H   0  0  0  0  0
   84.2679   55.8506   28.6798 H   0  0  0  0  0
   83.0854   57.8779   30.4197 H   0  0  0  0  0
   82.4430   57.0628   28.9727 H   0  0  0  0  0
   82.7289   56.1338   30.4648 H   0  0  0  0  0
   87.6630   55.0402   26.4654 H   0  0  0  0  0
   88.6584   54.7839   29.5649 H   0  0  0  0  0
   88.0917   56.9747   27.7027 H   0  0  0  0  0
   90.7938   54.5369   28.3212 H   0  0  0  0  0
   90.1198   57.3550   29.2094 H   0  0  0  0  0
   90.6867   56.0174   30.2392 H   0  0  0  0  0
   91.7604   56.6975   28.9919 H   0  0  0  0  0
   90.9671   56.2017   24.1248 H   0  0  0  0  0
   93.0024   55.1441   25.8446 H   0  0  0  0  0
   93.3530   56.7656   23.3383 H   0  0  0  0  0
   93.2125   57.3427   25.0171 H   0  0  0  0  0
   94.6430   56.4095   24.5130 H   0  0  0  0  0
   93.1265   53.1027   24.7726 H   0  0  0  0  0
   93.3121   53.8670   23.1750 H   0  0  0  0  0
   94.5979   54.0323   24.3959 H   0  0  0  0  0
   91.2758   54.2084   26.4702 H   0  0  0  0  0
   87.8401   52.2159   24.8457 H   0  0  0  0  0
   86.1426   50.9918   23.5899 H   0  0  0  0  0
   87.3001   50.7231   22.2636 H   0  0  0  0  0
   87.5953   49.9988   23.8634 H   0  0  0  0  0
   89.7348   52.1759   22.4462 H   0  0  0  0  0
   90.3357   53.0073   25.2492 H   0  0  0  0  0
   89.6200   50.2411   24.8496 H   0  0  0  0  0
   91.3416   50.3032   22.2750 H   0  0  0  0  0
   90.1721   47.0940   24.6711 H   0  0  0  0  0
   91.4923   47.7968   25.6377 H   0  0  0  0  0
   89.9965   48.7241   25.3661 H   0  0  0  0  0
   92.6669   48.3459   21.9942 H   0  0  0  0  0
   92.4220   46.1937   24.3328 H   0  0  0  0  0
   94.6105   46.7070   22.3355 H   0  0  0  0  0
   94.5974   47.2084   24.0441 H   0  0  0  0  0
   94.5892   45.4779   23.6239 H   0  0  0  0  0
   90.9107   45.8102   22.6868 H   0  0  0  0  0
   94.1075   45.5372   20.7412 H   0  0  0  0  0
   93.4593   43.8807   20.6584 H   0  0  0  0  0
   93.1745   45.0164   19.3167 H   0  0  0  0  0
   90.7842   43.9598   23.7497 H   0  0  0  0  0
   92.6209   43.5764   23.5063 H   0  0  0  0  0
   90.1984   43.7058   20.5673 H   0  0  0  0  0
   89.7660   41.7015   19.1731 H   0  0  0  0  0
   90.4721   39.4399   19.9214 H   0  0  0  0  0
   91.7522   39.2099   22.0585 H   0  0  0  0  0
   92.1475   41.1990   23.4528 H   0  0  0  0  0
  2  1  1  0  0  0
  1 33  1  0  0  0
  2  3  1  0  0  0
  5  2  1  0  0  0
  3  4  2  0  0  0
  3  9  1  0  0  0
  6  5  1  0  0  0
  7  6  1  0  0  0
  7  8  2  0  0  0
 10  7  1  0  0  0
 10 11  1  0  0  0
 12 10  1  0  0  0
 13 12  1  0  0  0
 12 15  1  0  0  0
 13 14  2  0  0  0
 21 13  1  0  0  0
 15 16  1  0  0  0
 17 18  1  0  0  0
 17 19  2  0  0  0
 20 17  1  0  0  0
 20 21  1  0  0  0
 22 20  1  0  0  0
 23 22  1  0  0  0
 22 25  1  0  0  0
 23 24  2  0  0  0
 32 23  1  0  0  0
 26 27  1  0  0  0
 26 29  1  0  0  0
 26 32  1  0  0  0
 27 28  2  0  0  0
 27 38  1  0  0  0
 29 30  1  0  0  0
 29 31  1  0  0  0
 33 34  2  0  0  0
 33 35  1  0  0  0
 35 36  1  0  0  0
 35 37  1  0  0  0
 37 38  1  0  0  0
 37 39  1  0  0  0
 39 40  2  0  0  0
 40 41  1  0  0  0
 41 42  1  0  0  0
 41 43  2  0  0  0
 43 44  1  0  0  0
 44 45  1  0  0  0
 44 46  1  0  0  0
 46 47  1  0  0  0
 46 49  1  0  0  0
 47 48  1  0  0  0
 49 50  1  0  0  0
 50 51  4  0  0  0
 50 55  4  0  0  0
 51 52  4  0  0  0
 52 53  4  0  0  0
 53 54  4  0  0  0
 54 55  4  0  0  0
  1 56  1  0  0  0
  2 57  1  0  0  0
  5 58  1  0  0  0
  5 59  1  0  0  0
  6 60  1  0  0  0
  6 61  1  0  0  0
  9 62  1  0  0  0
 11 63  1  0  0  0
 11 64  1  0  0  0
 11 65  1  0  0  0
 12 66  1  0  0  0
 15 67  1  0  0  0
 15 68  1  0  0  0
 16 69  1  0  0  0
 16 70  1  0  0  0
 16 71  1  0  0  0
 18 72  1  0  0  0
 20 73  1  0  0  0
 21 74  1  0  0  0
 22 75  1  0  0  0
 25 76  1  0  0  0
 25 77  1  0  0  0
 25 78  1  0  0  0
 26 79  1  0  0  0
 29 80  1  0  0  0
 30 81  1  0  0  0
 30 82  1  0  0  0
 30 83  1  0  0  0
 31 84  1  0  0  0
 31 85  1  0  0  0
 31 86  1  0  0  0
 32 87  1  0  0  0
 35 88  1  0  0  0
 36 89  1  0  0  0
 36 90  1  0  0  0
 36 91  1  0  0  0
 37 92  1  0  0  0
 38 93  1  0  0  0
 39 94  1  0  0  0
 40 95  1  0  0  0
 42 96  1  0  0  0
 42 97  1  0  0  0
 42 98  1  0  0  0
 43 99  1  0  0  0
 44100  1  0  0  0
 45101  1  0  0  0
 45102  1  0  0  0
 45103  1  0  0  0
 46104  1  0  0  0
 48105  1  0  0  0
 48106  1  0  0  0
 48107  1  0  0  0
 49108  1  0  0  0
 49109  1  0  0  0
 51110  1  0  0  0
 52111  1  0  0  0
 53112  1  0  0  0
 54113  1  0  0  0
 55114  1  0  0  0
M  END
$$$$
