4r1v_ligand
  -I-interpret- 

 68 72  0  0  0  0  0  0  0  0999 V2000
  108.0060   17.6260  141.3860 C   0  0  0  0  0
  108.2360   16.3920  141.9820 C   0  0  0  0  0
  108.8860   18.0990  140.4110 C   0  0  0  0  0
  109.3530   15.6400  141.6140 C   0  0  0  0  0
  110.0010   17.3440  140.0650 C   0  0  0  0  0
  110.2380   16.1030  140.6540 C   0  0  0  0  0
  106.8160   18.4270  141.7240 C   0  0  0  0  0
  106.0690   18.2680  142.9920 C   0  0  0  0  0
  104.5450   19.9990  142.2540 C   0  0  0  0  0
  105.5140   23.3500  140.8170 C   0  0  0  0  0
  107.2350   22.1690  139.6720 C   0  0  0  0  0
  106.3670   24.4330  140.9770 C   0  0  0  0  0
  108.0870   23.2520  139.8220 C   0  0  0  0  0
  107.6520   24.3810  140.5040 C   0  0  0  0  0
  109.9180   21.8990  138.9240 N   0  0  0  0  0
  111.6690   24.0070  139.3390 C   0  0  0  0  0
  111.2550   21.7460  138.6700 C   0  0  0  0  0
  113.4400   22.5520  138.5760 O   0  0  0  0  0
  116.0950   21.6850  138.2320 C   0  0  0  0  0
  115.7160   21.8270  140.6810 C   0  0  0  0  0
  117.5060   21.1260  138.5150 C   0  0  0  0  0
  117.1230   21.2570  140.9760 C   0  0  0  0  0
  118.9180   19.8850  140.0450 C   0  0  0  0  0
  109.5530   14.3660  142.2190 C   0  0  0  0  0
  109.6440   13.3030  142.6720 N   0  0  0  0  0
  106.4050   19.2870  140.8360 N   0  0  0  0  0
  105.2700   20.0570  141.0880 N   0  0  0  0  0
  103.5700   20.7110  142.4050 O   0  0  0  0  0
  104.9850   19.0200  143.2430 C   0  0  0  0  0
  105.0010   21.0170  140.0130 C   0  0  0  0  0
  105.9330   22.2090  140.1610 C   0  0  0  0  0
  109.4770   23.1220  139.4020 C   0  0  0  0  0
  112.1270   22.7820  138.8740 C   0  0  0  0  0
  110.3350   24.1650  139.6230 N   0  0  0  0  0
  114.4610   23.3780  139.1070 C   0  0  0  0  0
  115.7710   22.6320  139.3750 C   0  0  0  0  0
  117.5620   20.4320  139.8260 N   0  3  0  0  0
  107.5457   16.0121  142.7352 H   0  0  0  0  0
  108.6998   19.0558  139.9232 H   0  0  0  0  0
  110.7002   17.7281  139.3222 H   0  0  0  0  0
  111.1040   15.5077  140.3645 H   0  0  0  0  0
  106.4012   17.5352  143.7274 H   0  0  0  0  0
  104.5002   23.4005  141.2142 H   0  0  0  0  0
  107.5903   21.2728  139.1634 H   0  0  0  0  0
  106.0123   25.3312  141.4824 H   0  0  0  0  0
  108.3288   25.2207  140.6620 H   0  0  0  0  0
  112.3625   24.8365  139.4775 H   0  0  0  0  0
  111.6286   20.7905  138.3019 H   0  0  0  0  0
  115.3612   20.8813  138.1702 H   0  0  0  0  0
  116.0650   22.2039  137.2739 H   0  0  0  0  0
  115.4006   22.4735  141.4999 H   0  0  0  0  0
  115.0006   21.0107  140.5814 H   0  0  0  0  0
  118.2101   21.9579  138.5338 H   0  0  0  0  0
  117.7570   20.4090  137.7333 H   0  0  0  0  0
  117.0890   20.6432  141.8761 H   0  0  0  0  0
  117.8258   22.0758  141.1297 H   0  0  0  0  0
  119.1554   19.1769  139.2510 H   0  0  0  0  0
  119.6426   20.6992  140.0361 H   0  0  0  0  0
  118.9522   19.3770  141.0088 H   0  0  0  0  0
  106.9124   19.3969  139.9580 H   0  0  0  0  0
  105.2554   19.6122  144.1172 H   0  0  0  0  0
  104.1633   18.3070  143.3111 H   0  0  0  0  0
  103.9658   21.3528  140.0736 H   0  0  0  0  0
  105.1680   20.5403  139.0471 H   0  0  0  0  0
  114.1047   23.7680  140.0604 H   0  0  0  0  0
  114.6704   24.1546  138.3714 H   0  0  0  0  0
  116.5493   23.3900  139.4629 H   0  0  0  0  0
  116.8841   19.6714  139.7783 H   0  0  0  0  0
  1  2  4  0  0  0
  1  3  4  0  0  0
  7  1  1  0  0  0
  2  4  4  0  0  0
  3  5  4  0  0  0
  4  6  4  0  0  0
  4 24  1  0  0  0
  5  6  4  0  0  0
  7  8  2  0  0  0
 26  7  1  0  0  0
 29  8  1  0  0  0
 27  9  1  0  0  0
  9 28  2  0  0  0
  9 29  1  0  0  0
 12 10  4  0  0  0
 31 10  4  0  0  0
 13 11  4  0  0  0
 11 31  4  0  0  0
 14 12  4  0  0  0
 13 14  4  0  0  0
 32 13  1  0  0  0
 17 15  4  0  0  0
 15 32  4  0  0  0
 33 16  4  0  0  0
 16 34  4  0  0  0
 33 17  4  0  0  0
 18 33  1  0  0  0
 35 18  1  0  0  0
 19 21  1  0  0  0
 36 19  1  0  0  0
 20 22  1  0  0  0
 36 20  1  0  0  0
 21 37  1  0  0  0
 22 37  1  0  0  0
 37 23  1  0  0  0
 24 25  3  0  0  0
 27 26  1  0  0  0
 30 27  1  0  0  0
 31 30  1  0  0  0
 34 32  4  0  0  0
 35 36  1  0  0  0
  2 38  1  0  0  0
  3 39  1  0  0  0
  5 40  1  0  0  0
  6 41  1  0  0  0
  8 42  1  0  0  0
 10 43  1  0  0  0
 11 44  1  0  0  0
 12 45  1  0  0  0
 14 46  1  0  0  0
 16 47  1  0  0  0
 17 48  1  0  0  0
 19 49  1  0  0  0
 19 50  1  0  0  0
 20 51  1  0  0  0
 20 52  1  0  0  0
 21 53  1  0  0  0
 21 54  1  0  0  0
 22 55  1  0  0  0
 22 56  1  0  0  0
 23 57  1  0  0  0
 23 58  1  0  0  0
 23 59  1  0  0  0
 26 60  1  0  0  0
 29 61  1  0  0  0
 29 62  1  0  0  0
 30 63  1  0  0  0
 30 64  1  0  0  0
 35 65  1  0  0  0
 35 66  1  0  0  0
 36 67  1  0  0  0
 37 68  1  0  0  0
M  END
$$$$
