### 
### Created by X-TOOL on Mon Sep 10 21:13:07 2018
### 

@<TRIPOS>MOLECULE
3qiy_ligand
   44    45     1     0     0
SMALL
GAST_HUCK


@<TRIPOS>ATOM
      1 O1        -17.9760   33.2180   -5.9740 O.3       1 QI1        -0.2717
      2 N1        -19.1450   33.8030   -5.5880 N.am      1 QI1        -0.1642
      3 C1        -19.2260   35.1270   -5.6100 C.2       1 QI1         0.1987
      4 O2        -18.2940   35.8480   -5.9490 O.2       1 QI1        -0.3970
      5 C2        -20.5650   35.7250   -5.1650 C.3       1 QI1         0.0371
      6 C3        -21.2340   36.5250   -6.2940 C.3       1 QI1        -0.0542
      7 C4        -20.6150   37.9200   -6.4950 C.3       1 QI1        -0.1055
      8 N2        -21.6400   38.9800   -6.3950 N.4       1 QI1         0.4132
      9 C5        -22.8250   38.7070   -7.2430 C.3       1 QI1        -0.0734
     10 C6        -23.1230   39.7710   -8.3140 C.ar      1 QI1        -0.0626
     11 C7        -22.7120   39.5600   -9.6310 C.ar      1 QI1        -0.0617
     12 C8        -23.0140   40.5020  -10.6150 C.ar      1 QI1        -0.0547
     13 C9        -21.0440   40.3280   -6.5090 C.3       1 QI1        -0.0734
     14 C10       -23.8680   40.9110   -7.9900 C.ar      1 QI1        -0.0617
     15 C11       -24.1580   41.8590   -8.9740 C.ar      1 QI1        -0.0547
     16 C12       -23.7270   41.6550  -10.2860 C.ar      1 QI1         0.0330
     17 CL1       -24.0840   42.8210  -11.5120 Cl        1 QI1        -0.0771
     18 C13       -21.3480   41.0950   -5.2210 C.ar      1 QI1        -0.0626
     19 C14       -22.2070   42.1940   -5.2620 C.ar      1 QI1        -0.0617
     20 C15       -22.5050   42.8930   -4.0920 C.ar      1 QI1        -0.0547
     21 C16       -20.7990   40.6820   -4.0030 C.ar      1 QI1        -0.0617
     22 C17       -21.1000   41.3830   -2.8320 C.ar      1 QI1        -0.0547
     23 C18       -21.9560   42.4880   -2.8750 C.ar      1 QI1         0.0330
     24 CL2       -22.3330   43.3600   -1.4300 Cl        1 QI1        -0.0771
     25 H         -18.0600   32.2639   -5.9084 H         1 QI1         0.2490
     26 H         -19.9387   33.2363   -5.2893 H         1 QI1         0.2216
     27 H         -20.3788   36.4000   -4.3297 H         1 QI1         0.0501
     28 H         -21.2291   34.9079   -4.8831 H         1 QI1         0.0501
     29 H         -22.2815   36.6631   -6.0261 H         1 QI1         0.0270
     30 H         -21.0993   35.9665   -7.2203 H         1 QI1         0.0270
     31 H         -20.1674   37.9619   -7.4880 H         1 QI1         0.0024
     32 H         -19.8683   38.0841   -5.7181 H         1 QI1         0.0024
     33 H         -23.6876   38.6829   -6.5771 H         1 QI1         0.0186
     34 H         -22.6225   37.7767   -7.7737 H         1 QI1         0.0186
     35 H         -22.1553   38.6596   -9.8908 H         1 QI1         0.0557
     36 H         -22.6921   40.3366  -11.6432 H         1 QI1         0.0606
     37 H         -21.4655   40.8529   -7.3663 H         1 QI1         0.0186
     38 H         -19.9664   40.2504   -6.6536 H         1 QI1         0.0186
     39 H         -24.2218   41.0589   -6.9697 H         1 QI1         0.0557
     40 H         -24.7202   42.7570   -8.7177 H         1 QI1         0.0606
     41 H         -22.6458   42.5067   -6.2095 H         1 QI1         0.0557
     42 H         -23.1681   43.7573   -4.1287 H         1 QI1         0.0606
     43 H         -20.1382   39.8159   -3.9670 H         1 QI1         0.0557
     44 H         -20.6665   41.0677   -1.8829 H         1 QI1         0.0606
@<TRIPOS>BOND
     1    1    2 1  
     2    2    3 am 
     3    3    4 2  
     4    3    5 1  
     5    5    6 1  
     6    6    7 1  
     7    7    8 1  
     8    8    9 1  
     9    8   13 1  
    10    9   10 1  
    11   10   11 ar 
    12   10   14 ar 
    13   11   12 ar 
    14   12   16 ar 
    15   13   18 1  
    16   14   15 ar 
    17   15   16 ar 
    18   16   17 1  
    19   18   19 ar 
    20   18   21 ar 
    21   19   20 ar 
    22   20   23 ar 
    23   21   22 ar 
    24   22   23 ar 
    25   23   24 1  
    26    1   25 1  
    27    2   26 1  
    28    5   27 1  
    29    5   28 1  
    30    6   29 1  
    31    6   30 1  
    32    7   31 1  
    33    7   32 1  
    34    9   33 1  
    35    9   34 1  
    36   11   35 1  
    37   12   36 1  
    38   13   37 1  
    39   13   38 1  
    40   14   39 1  
    41   15   40 1  
    42   19   41 1  
    43   20   42 1  
    44   21   43 1  
    45   22   44 1  
@<TRIPOS>SUBSTRUCTURE
     1 QI1         1

