3qiy_ligand
  -I-interpret- 

 45 46  0  0  0  0  0  0  0  0999 V2000
  -17.9760   33.2180   -5.9740 O   0  0  0  0  0
  -19.1450   33.8030   -5.5880 N   0  0  0  0  0
  -19.2260   35.1270   -5.6100 C   0  0  0  0  0
  -18.2940   35.8480   -5.9490 O   0  0  0  0  0
  -20.5650   35.7250   -5.1650 C   0  0  0  0  0
  -21.2340   36.5250   -6.2940 C   0  0  0  0  0
  -20.6150   37.9200   -6.4950 C   0  0  0  0  0
  -21.6400   38.9800   -6.3950 N   0  3  0  0  0
  -22.8250   38.7070   -7.2430 C   0  0  0  0  0
  -23.1230   39.7710   -8.3140 C   0  0  0  0  0
  -22.7120   39.5600   -9.6310 C   0  0  0  0  0
  -23.0140   40.5020  -10.6150 C   0  0  0  0  0
  -21.0440   40.3280   -6.5090 C   0  0  0  0  0
  -23.8680   40.9110   -7.9900 C   0  0  0  0  0
  -24.1580   41.8590   -8.9740 C   0  0  0  0  0
  -23.7270   41.6550  -10.2860 C   0  0  0  0  0
  -24.0840   42.8210  -11.5120 Cl  0  0  0  0  0
  -21.3480   41.0950   -5.2210 C   0  0  0  0  0
  -22.2070   42.1940   -5.2620 C   0  0  0  0  0
  -22.5050   42.8930   -4.0920 C   0  0  0  0  0
  -20.7990   40.6820   -4.0030 C   0  0  0  0  0
  -21.1000   41.3830   -2.8320 C   0  0  0  0  0
  -21.9560   42.4880   -2.8750 C   0  0  0  0  0
  -22.3330   43.3600   -1.4300 Cl  0  0  0  0  0
  -18.0600   32.2639   -5.9084 H   0  0  0  0  0
  -19.9387   33.2363   -5.2893 H   0  0  0  0  0
  -20.3788   36.4000   -4.3297 H   0  0  0  0  0
  -21.2291   34.9079   -4.8831 H   0  0  0  0  0
  -22.2815   36.6631   -6.0261 H   0  0  0  0  0
  -21.0993   35.9665   -7.2203 H   0  0  0  0  0
  -20.1674   37.9619   -7.4880 H   0  0  0  0  0
  -19.8683   38.0841   -5.7181 H   0  0  0  0  0
  -22.0309   38.9662   -5.4530 H   0  0  0  0  0
  -23.6876   38.6829   -6.5771 H   0  0  0  0  0
  -22.6225   37.7767   -7.7737 H   0  0  0  0  0
  -22.1553   38.6596   -9.8908 H   0  0  0  0  0
  -22.6921   40.3366  -11.6432 H   0  0  0  0  0
  -21.4655   40.8529   -7.3663 H   0  0  0  0  0
  -19.9664   40.2504   -6.6536 H   0  0  0  0  0
  -24.2218   41.0589   -6.9697 H   0  0  0  0  0
  -24.7202   42.7570   -8.7177 H   0  0  0  0  0
  -22.6458   42.5067   -6.2095 H   0  0  0  0  0
  -23.1681   43.7573   -4.1287 H   0  0  0  0  0
  -20.1382   39.8159   -3.9670 H   0  0  0  0  0
  -20.6665   41.0677   -1.8829 H   0  0  0  0  0
  1  2  1  0  0  0
  2  3  1  0  0  0
  3  4  2  0  0  0
  3  5  1  0  0  0
  5  6  1  0  0  0
  6  7  1  0  0  0
  7  8  1  0  0  0
  8  9  1  0  0  0
  8 13  1  0  0  0
  9 10  1  0  0  0
 10 11  4  0  0  0
 10 14  4  0  0  0
 11 12  4  0  0  0
 12 16  4  0  0  0
 13 18  1  0  0  0
 14 15  4  0  0  0
 15 16  4  0  0  0
 16 17  1  0  0  0
 18 19  4  0  0  0
 18 21  4  0  0  0
 19 20  4  0  0  0
 20 23  4  0  0  0
 21 22  4  0  0  0
 22 23  4  0  0  0
 23 24  1  0  0  0
  1 25  1  0  0  0
  2 26  1  0  0  0
  5 27  1  0  0  0
  5 28  1  0  0  0
  6 29  1  0  0  0
  6 30  1  0  0  0
  7 31  1  0  0  0
  7 32  1  0  0  0
  8 33  1  0  0  0
  9 34  1  0  0  0
  9 35  1  0  0  0
 11 36  1  0  0  0
 12 37  1  0  0  0
 13 38  1  0  0  0
 13 39  1  0  0  0
 14 40  1  0  0  0
 15 41  1  0  0  0
 19 42  1  0  0  0
 20 43  1  0  0  0
 21 44  1  0  0  0
 22 45  1  0  0  0
M  END
$$$$
