### 
### Created by X-TOOL on Mon Sep 10 21:13:18 2018
### 

@<TRIPOS>MOLECULE
4qsh_ligand
   66    72     1     0     0
SMALL
GAST_HUCK


@<TRIPOS>ATOM
      1 P          12.9940  200.4280   49.0750 P.3       1 2BA         0.2557
      2 O1P        12.6370  201.7220   48.5520 O.co2     1 2BA        -0.6177
      3 O2P        12.5830  199.2350   48.3090 O.co2     1 2BA        -0.6177
      4 O5'        14.6030  200.5680   49.3080 O.3       1 2BA        -0.2514
      5 C5'        15.2620  199.5180   49.9290 C.3       1 2BA         0.1128
      6 C4'        16.5550  199.9470   50.5290 C.3       1 2BA         0.1242
      7 O4'        17.3270  200.7250   49.6350 O.3       1 2BA        -0.3360
      8 C3'        16.3020  200.7930   51.7220 C.3       1 2BA         0.1540
      9 O3'        15.9630  199.9150   52.7720 O.3       1 2BA        -0.2453
     10 C2'        17.6640  201.4310   51.8190 C.3       1 2BA         0.1439
     11 O2'        18.5400  200.5470   52.4280 O.3       1 2BA        -0.3832
     12 C1'        18.0520  201.6440   50.3810 C.3       1 2BA         0.2014
     13 N9         17.5060  202.9350   49.8850 N.pl3     1 2BA        -0.1919
     14 C8         16.5690  203.1430   48.9220 C.2       1 2BA         0.1123
     15 N7         16.3270  204.4890   48.7640 N.2       1 2BA        -0.2958
     16 C5         17.1080  205.1210   49.6270 C.ar      1 2BA         0.1045
     17 C6         17.4180  206.5110   50.0050 C.ar      1 2BA         0.1298
     18 N6         16.7890  207.4920   49.4130 N.pl3     1 2BA        -0.3152
     19 N1         18.3190  206.7830   50.9620 N.ar      1 2BA        -0.2698
     20 C2         18.9820  205.8090   51.6040 C.ar      1 2BA         0.0533
     21 N3         18.7500  204.5160   51.3180 N.ar      1 2BA        -0.2714
     22 C4         17.8760  204.1160   50.3560 C.ar      1 2BA         0.1613
     23 P1         15.5100  200.4900   54.1460 P.3       1 2BA         0.2557
     24 O1P1       15.9780  201.8640   54.3570 O.co2     1 2BA        -0.6177
     25 O2P1       15.7470  199.3980   55.1310 O.co2     1 2BA        -0.6177
     26 O5'1       13.9500  200.6970   53.6480 O.3       1 2BA        -0.2514
     27 C5'1       13.1040  199.6000   53.5530 C.3       1 2BA         0.1128
     28 C4'1       11.8710  199.9910   52.7810 C.3       1 2BA         0.1242
     29 O4'1       10.9680  200.7950   53.5520 O.3       1 2BA        -0.3360
     30 C3'1       12.2080  200.8140   51.5730 C.3       1 2BA         0.1540
     31 O3'1       12.6530  199.9710   50.5380 O.3       1 2BA        -0.2453
     32 C2'1       10.9030  201.4880   51.2790 C.3       1 2BA         0.1439
     33 O2'1       10.1900  200.4810   50.6620 O.3       1 2BA        -0.3832
     34 C1'1       10.4670  201.8110   52.6850 C.3       1 2BA         0.2014
     35 N91        11.0630  203.1250   53.0900 N.pl3     1 2BA        -0.1919
     36 C81        12.1000  203.3870   53.9530 C.2       1 2BA         0.1123
     37 N71        12.3000  204.7230   54.0910 N.2       1 2BA        -0.2958
     38 C51        11.4050  205.2670   53.2740 C.ar      1 2BA         0.1045
     39 C61        11.0670  206.5980   52.9040 C.ar      1 2BA         0.1298
     40 N61        11.8250  207.5030   53.4510 N.pl3     1 2BA        -0.3152
     41 N11        10.0680  206.8460   52.0430 N.ar      1 2BA        -0.2698
     42 C21         9.3380  205.8560   51.4770 C.ar      1 2BA         0.0533
     43 N31         9.5860  204.5930   51.7910 N.ar      1 2BA        -0.2714
     44 C41        10.5870  204.2690   52.6360 C.ar      1 2BA         0.1613
     45 H          15.4594  198.7328   49.1844 H         1 2BA         0.0647
     46 H          14.6178  199.1154   50.7245 H         1 2BA         0.0647
     47 H          17.1245  199.0519   50.8196 H         1 2BA         0.0655
     48 H          15.5079  201.5405   51.5783 H         1 2BA         0.0712
     49 H          17.6311  202.3806   52.3733 H         1 2BA         0.0680
     50 H          18.2229  200.3381   53.2987 H         1 2BA         0.2101
     51 H          19.1395  201.5621   50.2377 H         1 2BA         0.0996
     52 H          16.0779  202.3541   48.3542 H         1 2BA         0.1349
     53 H          16.9982  208.4673   49.6698 H         1 2BA         0.1820
     54 H          16.0841  207.2898   48.6897 H         1 2BA         0.1820
     55 H          19.7128  206.0676   52.3617 H         1 2BA         0.0996
     56 H          12.8167  199.2684   54.5617 H         1 2BA         0.0647
     57 H          13.6206  198.7811   53.0310 H         1 2BA         0.0647
     58 H          11.3592  199.0697   52.4660 H         1 2BA         0.0655
     59 H          12.9877  201.5574   51.7954 H         1 2BA         0.0712
     60 H          10.9729  202.3856   50.6471 H         1 2BA         0.0680
     61 H          10.6499  200.2031   49.8785 H         1 2BA         0.2101
     62 H           9.3695  201.8573   52.7434 H         1 2BA         0.0996
     63 H          12.6857  202.6220   54.4606 H         1 2BA         0.1349
     64 H          11.6645  208.5001   53.2487 H         1 2BA         0.1820
     65 H          12.5856  207.2223   54.0863 H         1 2BA         0.1820
     66 H           8.5530  206.0961   50.7691 H         1 2BA         0.0996
@<TRIPOS>BOND
     1    1    2 ar 
     2    1    3 ar 
     3    1    4 1  
     4    1   31 1  
     5    4    5 1  
     6    5    6 1  
     7    6    7 1  
     8    6    8 1  
     9    7   12 1  
    10    8    9 1  
    11    8   10 1  
    12    9   23 1  
    13   10   11 1  
    14   10   12 1  
    15   12   13 1  
    16   13   14 1  
    17   13   22 1  
    18   14   15 2  
    19   15   16 1  
    20   16   17 ar 
    21   16   22 ar 
    22   17   18 1  
    23   17   19 ar 
    24   19   20 ar 
    25   20   21 ar 
    26   21   22 ar 
    27   23   24 ar 
    28   23   25 ar 
    29   23   26 1  
    30   26   27 1  
    31   27   28 1  
    32   28   29 1  
    33   28   30 1  
    34   29   34 1  
    35   30   31 1  
    36   30   32 1  
    37   32   33 1  
    38   32   34 1  
    39   34   35 1  
    40   35   36 1  
    41   35   44 1  
    42   36   37 2  
    43   37   38 1  
    44   38   39 ar 
    45   38   44 ar 
    46   39   40 1  
    47   39   41 ar 
    48   41   42 ar 
    49   42   43 ar 
    50   43   44 ar 
    51    5   45 1  
    52    5   46 1  
    53    6   47 1  
    54    8   48 1  
    55   10   49 1  
    56   11   50 1  
    57   12   51 1  
    58   14   52 1  
    59   18   53 1  
    60   18   54 1  
    61   20   55 1  
    62   27   56 1  
    63   27   57 1  
    64   28   58 1  
    65   30   59 1  
    66   32   60 1  
    67   33   61 1  
    68   34   62 1  
    69   36   63 1  
    70   40   64 1  
    71   40   65 1  
    72   42   66 1  
@<TRIPOS>SUBSTRUCTURE
     1 2BA         1

