4qsh_ligand
  -I-interpret- 

 68 74  0  0  0  0  0  0  0  0999 V2000
   12.9940  200.4280   49.0750 P   0  0  0  0  0
   12.6370  201.7220   48.5520 O   0  0  0  0  0
   12.5830  199.2350   48.3090 O   0  0  0  0  0
   14.6030  200.5680   49.3080 O   0  0  0  0  0
   15.2620  199.5180   49.9290 C   0  0  0  0  0
   16.5550  199.9470   50.5290 C   0  0  0  0  0
   17.3270  200.7250   49.6350 O   0  0  0  0  0
   16.3020  200.7930   51.7220 C   0  0  0  0  0
   15.9630  199.9150   52.7720 O   0  0  0  0  0
   17.6640  201.4310   51.8190 C   0  0  0  0  0
   18.5400  200.5470   52.4280 O   0  0  0  0  0
   18.0520  201.6440   50.3810 C   0  0  0  0  0
   17.5060  202.9350   49.8850 N   0  0  0  0  0
   16.5690  203.1430   48.9220 C   0  0  0  0  0
   16.3270  204.4890   48.7640 N   0  0  0  0  0
   17.1080  205.1210   49.6270 C   0  0  0  0  0
   17.4180  206.5110   50.0050 C   0  0  0  0  0
   16.7890  207.4920   49.4130 N   0  0  0  0  0
   18.3190  206.7830   50.9620 N   0  0  0  0  0
   18.9820  205.8090   51.6040 C   0  0  0  0  0
   18.7500  204.5160   51.3180 N   0  0  0  0  0
   17.8760  204.1160   50.3560 C   0  0  0  0  0
   15.5100  200.4900   54.1460 P   0  0  0  0  0
   15.9780  201.8640   54.3570 O   0  0  0  0  0
   15.7470  199.3980   55.1310 O   0  0  0  0  0
   13.9500  200.6970   53.6480 O   0  0  0  0  0
   13.1040  199.6000   53.5530 C   0  0  0  0  0
   11.8710  199.9910   52.7810 C   0  0  0  0  0
   10.9680  200.7950   53.5520 O   0  0  0  0  0
   12.2080  200.8140   51.5730 C   0  0  0  0  0
   12.6530  199.9710   50.5380 O   0  0  0  0  0
   10.9030  201.4880   51.2790 C   0  0  0  0  0
   10.1900  200.4810   50.6620 O   0  0  0  0  0
   10.4670  201.8110   52.6850 C   0  0  0  0  0
   11.0630  203.1250   53.0900 N   0  0  0  0  0
   12.1000  203.3870   53.9530 C   0  0  0  0  0
   12.3000  204.7230   54.0910 N   0  0  0  0  0
   11.4050  205.2670   53.2740 C   0  0  0  0  0
   11.0670  206.5980   52.9040 C   0  0  0  0  0
   11.8250  207.5030   53.4510 N   0  0  0  0  0
   10.0680  206.8460   52.0430 N   0  0  0  0  0
    9.3380  205.8560   51.4770 C   0  0  0  0  0
    9.5860  204.5930   51.7910 N   0  0  0  0  0
   10.5870  204.2690   52.6360 C   0  0  0  0  0
   12.8819  198.4448   48.7648 H   0  0  0  0  0
   15.4711  198.7557   49.1785 H   0  0  0  0  0
   14.6242  199.1407   50.7283 H   0  0  0  0  0
   17.0957  199.0352   50.7826 H   0  0  0  0  0
   15.5009  201.5322   51.7170 H   0  0  0  0  0
   17.6776  202.3527   52.4008 H   0  0  0  0  0
   19.4085  200.9512   52.4910 H   0  0  0  0  0
   19.1373  201.5829   50.3009 H   0  0  0  0  0
   16.0775  202.3533   48.3537 H   0  0  0  0  0
   16.0910  207.2917   48.6967 H   0  0  0  0  0
   16.9962  208.4578   49.6673 H   0  0  0  0  0
   19.7169  206.0690   52.3659 H   0  0  0  0  0
   15.3616  198.5826   54.8020 H   0  0  0  0  0
   12.8205  199.2690   54.5521 H   0  0  0  0  0
   13.6156  198.7869   53.0380 H   0  0  0  0  0
   11.4093  199.0422   52.5076 H   0  0  0  0  0
   13.0143  201.5357   51.7039 H   0  0  0  0  0
   10.8431  202.3770   50.6511 H   0  0  0  0  0
    9.3187  200.8066   50.4244 H   0  0  0  0  0
    9.3798  201.8631   52.7425 H   0  0  0  0  0
   12.6862  202.6213   54.4611 H   0  0  0  0  0
   12.5782  207.2251   54.0801 H   0  0  0  0  0
   11.6660  208.4904   53.2507 H   0  0  0  0  0
    8.5486  206.0974   50.7651 H   0  0  0  0  0
  1  2  2  0  0  0
  1  3  1  0  0  0
  1  4  1  0  0  0
  1 31  1  0  0  0
  4  5  1  0  0  0
  5  6  1  0  0  0
  6  7  1  0  0  0
  6  8  1  0  0  0
  7 12  1  0  0  0
  8  9  1  0  0  0
  8 10  1  0  0  0
  9 23  1  0  0  0
 10 11  1  0  0  0
 10 12  1  0  0  0
 12 13  1  0  0  0
 13 14  4  0  0  0
 13 22  4  0  0  0
 14 15  4  0  0  0
 15 16  4  0  0  0
 16 17  4  0  0  0
 16 22  4  0  0  0
 17 18  1  0  0  0
 17 19  4  0  0  0
 19 20  4  0  0  0
 20 21  4  0  0  0
 21 22  4  0  0  0
 23 24  2  0  0  0
 23 25  1  0  0  0
 23 26  1  0  0  0
 26 27  1  0  0  0
 27 28  1  0  0  0
 28 29  1  0  0  0
 28 30  1  0  0  0
 29 34  1  0  0  0
 30 31  1  0  0  0
 30 32  1  0  0  0
 32 33  1  0  0  0
 32 34  1  0  0  0
 34 35  1  0  0  0
 35 36  4  0  0  0
 35 44  4  0  0  0
 36 37  4  0  0  0
 37 38  4  0  0  0
 38 39  4  0  0  0
 38 44  4  0  0  0
 39 40  1  0  0  0
 39 41  4  0  0  0
 41 42  4  0  0  0
 42 43  4  0  0  0
 43 44  4  0  0  0
  3 45  1  0  0  0
  5 46  1  0  0  0
  5 47  1  0  0  0
  6 48  1  0  0  0
  8 49  1  0  0  0
 10 50  1  0  0  0
 11 51  1  0  0  0
 12 52  1  0  0  0
 14 53  1  0  0  0
 18 54  1  0  0  0
 18 55  1  0  0  0
 20 56  1  0  0  0
 25 57  1  0  0  0
 27 58  1  0  0  0
 27 59  1  0  0  0
 28 60  1  0  0  0
 30 61  1  0  0  0
 32 62  1  0  0  0
 33 63  1  0  0  0
 34 64  1  0  0  0
 36 65  1  0  0  0
 40 66  1  0  0  0
 40 67  1  0  0  0
 42 68  1  0  0  0
M  END
$$$$
