2nnp_ligand
  -I-interpret- 

100104  0  0  0  0  0  0  0  0999 V2000
   19.2130   35.3340   19.1760 O   0  0  0  0  0
   19.6520   35.8120   18.0950 C   0  0  0  0  0
   20.7250   37.6540   16.9300 N   0  0  0  0  0
   20.5790   36.9510   18.0970 C   0  0  0  0  0
   21.2810   37.3230   19.2450 C   0  0  0  0  0
   22.1180   38.4300   19.2200 C   0  0  0  0  0
   22.3380   39.0670   17.9960 C   0  0  0  0  0
   23.1350   40.2280   17.9540 C   0  0  0  0  0
   23.1890   40.9060   16.7690 C   0  0  0  0  0
   22.5000   40.5200   15.6420 C   0  0  0  0  0
   21.6180   39.4490   15.7010 C   0  0  0  0  0
   21.6120   38.6860   16.8650 C   0  0  0  0  0
   19.2770   35.3430   16.8750 N   0  0  0  0  0
   18.4250   34.1510   16.7170 C   0  0  0  0  0
   19.1610   33.2060   15.7870 C   0  0  0  0  0
   19.1310   33.3780   14.5640 O   0  0  0  0  0
   17.0750   34.4030   16.1670 C   0  0  0  0  0
   16.3920   35.3830   17.0430 C   0  0  0  0  0
   16.1310   36.5780   16.9070 O   0  0  0  0  0
   15.9670   34.9310   18.1090 N   0  0  0  0  0
   20.0820   29.8420   15.9690 C   0  0  0  0  0
   20.2620   29.4040   17.3020 O   0  0  0  0  0
   20.5930   31.2410   15.6580 C   0  0  0  0  0
   19.8350   32.1880   16.4250 N   0  0  0  0  0
   22.1030   31.2830   15.9690 C   0  0  0  0  0
   22.6140   32.7060   16.0370 C   0  0  0  0  0
   23.0940   33.3330   14.8950 C   0  0  0  0  0
   22.6810   33.3020   17.2540 C   0  0  0  0  0
   23.5410   34.6510   14.9970 C   0  0  0  0  0
   23.0320   34.6400   17.3190 C   0  0  0  0  0
   23.4640   35.3070   16.1770 C   0  0  0  0  0
   19.6790   28.8880   13.8150 N   0  3  0  0  0
   20.4330   28.7430   15.0020 C   0  0  0  0  0
   20.4260   28.2850   12.6950 C   0  0  0  0  0
   21.7720   28.9420   12.4620 C   0  0  0  0  0
   21.8210   30.1690   12.4790 O   0  0  0  0  0
   19.6140   28.4870   11.4260 C   0  0  0  0  0
   18.2880   27.7230   11.5340 C   0  0  0  0  0
   17.3780   27.9210   10.3320 C   0  0  0  0  0
   17.0190   29.3830   10.1110 C   0  0  0  0  0
   16.1590   29.7490   11.2960 C   0  0  0  0  0
   17.0600   29.6330   12.5160 C   0  0  0  0  0
   17.5370   28.2340   12.7700 C   0  0  0  0  0
   18.3920   28.2070   13.9830 C   0  0  0  0  0
   22.7670   28.0770   12.2290 N   0  0  0  0  0
   24.1380   28.4400   11.9330 C   0  0  0  0  0
   24.9070   27.1140   11.7270 C   0  0  0  0  0
   24.7830   29.1180   13.1130 C   0  0  0  0  0
   24.2390   29.3070   10.7090 C   0  0  0  0  0
   21.1717   36.7436   20.1618 H   0  0  0  0  0
   22.5916   38.7932   20.1321 H   0  0  0  0  0
   23.6854   40.5710   18.8301 H   0  0  0  0  0
   23.8105   41.7997   16.7134 H   0  0  0  0  0
   22.6465   41.0547   14.7035 H   0  0  0  0  0
   20.9557   39.2149   14.8676 H   0  0  0  0  0
   19.5967   35.8335   16.0398 H   0  0  0  0  0
   18.2535   33.7464   17.7145 H   0  0  0  0  0
   16.5064   33.4738   16.1307 H   0  0  0  0  0
   17.1515   34.7968   15.1535 H   0  0  0  0  0
   15.4645   35.5384   18.7563 H   0  0  0  0  0
   16.1180   33.9498   18.3433 H   0  0  0  0  0
   19.0176   30.0258   15.8230 H   0  0  0  0  0
   19.9093   28.5161   17.3963 H   0  0  0  0  0
   20.4644   31.5006   14.6072 H   0  0  0  0  0
   19.7954   32.1074   17.4410 H   0  0  0  0  0
   22.6348   30.7621   15.1728 H   0  0  0  0  0
   22.2704   30.8087   16.9360 H   0  0  0  0  0
   23.1211   32.8076   13.9404 H   0  0  0  0  0
   22.4631   32.7393   18.1617 H   0  0  0  0  0
   23.9538   35.1536   14.1223 H   0  0  0  0  0
   22.9696   35.1724   18.2681 H   0  0  0  0  0
   23.7408   36.3598   16.2335 H   0  0  0  0  0
   19.5154   29.8753   13.6177 H   0  0  0  0  0
   20.2066   27.7784   15.4563 H   0  0  0  0  0
   21.4949   28.8001   14.7628 H   0  0  0  0  0
   20.5902   27.2360   12.9417 H   0  0  0  0  0
   20.1785   28.1123   10.5722 H   0  0  0  0  0
   19.4093   29.5493   11.2931 H   0  0  0  0  0
   18.5347   26.6630   11.5948 H   0  0  0  0  0
   16.4548   27.3707   10.5136 H   0  0  0  0  0
   17.9061   27.5659    9.4471 H   0  0  0  0  0
   16.4966   29.5354    9.1666 H   0  0  0  0  0
   17.9054   30.0136   10.0413 H   0  0  0  0  0
   15.2955   29.0888   11.3774 H   0  0  0  0  0
   15.7557   30.7567   11.1962 H   0  0  0  0  0
   16.4807   29.9464   13.3845 H   0  0  0  0  0
   17.9383   30.2532   12.3372 H   0  0  0  0  0
   16.6883   27.5739   12.9493 H   0  0  0  0  0
   17.8505   28.7260   14.7739 H   0  0  0  0  0
   18.6043   27.1618   14.2078 H   0  0  0  0  0
   22.5418   27.0827   12.2626 H   0  0  0  0  0
   24.8488   26.5166   12.6369 H   0  0  0  0  0
   24.4617   26.5620   10.8993 H   0  0  0  0  0
   25.9506   27.3322   11.5002 H   0  0  0  0  0
   24.2266   30.0222   13.3597 H   0  0  0  0  0
   24.7764   28.4413   13.9675 H   0  0  0  0  0
   25.8112   29.3794   12.8629 H   0  0  0  0  0
   23.8354   28.7700    9.8506 H   0  0  0  0  0
   23.6699   30.2232   10.8664 H   0  0  0  0  0
   25.2847   29.5542   10.5257 H   0  0  0  0  0
  2  1  2  0  0  0
  2  4  1  0  0  0
 13  2  1  0  0  0
  4  3  4  0  0  0
  3 12  4  0  0  0
  4  5  4  0  0  0
  5  6  4  0  0  0
  6  7  4  0  0  0
  7  8  4  0  0  0
 12  7  4  0  0  0
  8  9  4  0  0  0
 10  9  4  0  0  0
 11 10  4  0  0  0
 12 11  4  0  0  0
 14 13  1  0  0  0
 15 14  1  0  0  0
 14 17  1  0  0  0
 15 16  2  0  0  0
 24 15  1  0  0  0
 17 18  1  0  0  0
 18 19  2  0  0  0
 18 20  1  0  0  0
 21 22  1  0  0  0
 23 21  1  0  0  0
 21 33  1  0  0  0
 23 24  1  0  0  0
 23 25  1  0  0  0
 25 26  1  0  0  0
 26 27  4  0  0  0
 26 28  4  0  0  0
 27 29  4  0  0  0
 28 30  4  0  0  0
 29 31  4  0  0  0
 30 31  4  0  0  0
 33 32  1  0  0  0
 32 34  1  0  0  0
 32 44  1  0  0  0
 34 35  1  0  0  0
 34 37  1  0  0  0
 35 36  2  0  0  0
 35 45  1  0  0  0
 37 38  1  0  0  0
 38 39  1  0  0  0
 38 43  1  0  0  0
 39 40  1  0  0  0
 40 41  1  0  0  0
 41 42  1  0  0  0
 42 43  1  0  0  0
 43 44  1  0  0  0
 45 46  1  0  0  0
 46 47  1  0  0  0
 46 48  1  0  0  0
 46 49  1  0  0  0
  5 50  1  0  0  0
  6 51  1  0  0  0
  8 52  1  0  0  0
  9 53  1  0  0  0
 10 54  1  0  0  0
 11 55  1  0  0  0
 13 56  1  0  0  0
 14 57  1  0  0  0
 17 58  1  0  0  0
 17 59  1  0  0  0
 20 60  1  0  0  0
 20 61  1  0  0  0
 21 62  1  0  0  0
 22 63  1  0  0  0
 23 64  1  0  0  0
 24 65  1  0  0  0
 25 66  1  0  0  0
 25 67  1  0  0  0
 27 68  1  0  0  0
 28 69  1  0  0  0
 29 70  1  0  0  0
 30 71  1  0  0  0
 31 72  1  0  0  0
 32 73  1  0  0  0
 33 74  1  0  0  0
 33 75  1  0  0  0
 34 76  1  0  0  0
 37 77  1  0  0  0
 37 78  1  0  0  0
 38 79  1  0  0  0
 39 80  1  0  0  0
 39 81  1  0  0  0
 40 82  1  0  0  0
 40 83  1  0  0  0
 41 84  1  0  0  0
 41 85  1  0  0  0
 42 86  1  0  0  0
 42 87  1  0  0  0
 43 88  1  0  0  0
 44 89  1  0  0  0
 44 90  1  0  0  0
 45 91  1  0  0  0
 47 92  1  0  0  0
 47 93  1  0  0  0
 47 94  1  0  0  0
 48 95  1  0  0  0
 48 96  1  0  0  0
 48 97  1  0  0  0
 49 98  1  0  0  0
 49 99  1  0  0  0
 49100  1  0  0  0
M  END
$$$$
