### 
### Created by X-TOOL on Mon Sep 10 21:13:04 2018
### 

@<TRIPOS>MOLECULE
3abu_ligand
  120   128     1     0     0
SMALL
GAST_HUCK


@<TRIPOS>ATOM
      1 C01        33.7330   53.4230   42.2670 C.ar      1 12F        -0.0133
      2 O01        33.1150   51.7160   40.4430 O.3       1 12F        -0.3092
      3 C02        32.5790   53.5880   43.0270 C.ar      1 12F        -0.0578
      4 C03        32.6810   54.0120   44.3470 C.ar      1 12F        -0.0685
      5 C04        33.9270   54.2700   44.9110 C.ar      1 12F        -0.0687
      6 C05        35.0770   54.1040   44.1490 C.ar      1 12F        -0.0685
      7 C06        34.9780   53.6840   42.8260 C.ar      1 12F        -0.0578
      8 C07        33.6520   52.9090   40.8270 C.3       1 12F         0.1018
      9 C1'        21.4610   38.1500   31.9080 C.3       1 12F         0.2048
     10 C2'        21.4830   39.6680   32.0780 C.3       1 12F         0.1392
     11 O2'        20.7400   40.2740   31.0170 O.3       1 12F        -0.3835
     12 C3'        22.9810   39.9060   31.8820 C.3       1 12F         0.1150
     13 O3'        23.2900   39.9930   30.4880 O.3       1 12F        -0.3864
     14 C4'        23.6050   38.6420   32.4840 C.3       1 12F         0.1189
     15 O4'        22.5160   37.7550   32.7960 O.3       1 12F        -0.3358
     16 C5'        24.3590   38.9640   33.7750 C.3       1 12F         0.1128
     17 O5'        25.4720   39.8250   33.5260 O.3       1 12F        -0.2476
     18 CAL        30.9120   49.4230   42.2260 C.ar      1 12F        -0.0725
     19 CAM        31.3320   50.4020   41.3300 C.ar      1 12F        -0.0102
     20 CAN        31.7770   48.8850   43.1730 C.ar      1 12F        -0.0814
     21 CAO        32.6500   50.8570   41.3910 C.ar      1 12F         0.1288
     22 CAP        33.0900   49.3340   43.2270 C.ar      1 12F        -0.0437
     23 CAQ        33.5190   50.3140   42.3380 C.ar      1 12F         0.1533
     24 CAR        19.6020   36.4870   31.8350 C.2       1 12F         0.2312
     25 CAS        19.1880   34.4510   30.4000 C.2       1 12F         0.1410
     26 CAT        17.6350   35.1660   32.2630 C.2       1 12F         0.0417
     27 CAU        18.4290   36.2720   32.5470 C.2       1 12F         0.0960
     28 CAV        19.3890   38.0340   33.3230 C.2       1 12F         0.1053
     29 CAW        28.7460   42.3070   36.8430 C.3       1 12F         0.1124
     30 CAX        29.3050   43.6980   36.5340 C.3       1 12F         0.1118
     31 CAY        29.0040   44.6160   37.7210 C.3       1 12F         0.1111
     32 CAZ        29.3560   46.0890   37.4950 C.3       1 12F         0.1024
     33 CBA        28.8760   46.8570   38.7280 C.3       1 12F         0.0535
     34 CBB        30.3080   48.8980   38.8380 C.3       1 12F         0.1550
     35 CBC        32.6890   48.6380   38.3590 C.2       1 12F         0.2897
     36 CBD        31.7450   50.8790   38.2260 C.2       1 12F         0.2581
     37 CBE        30.4260   50.4230   38.8550 C.3       1 12F         0.1867
     38 CBF        27.9680   49.1520   38.3250 C.ar      1 12F         0.0481
     39 CBG        28.1170   50.5320   38.2640 C.ar      1 12F         0.0478
     40 CBH        26.7190   48.5790   38.0990 C.ar      1 12F        -0.0599
     41 CBI        26.9890   51.3120   38.0300 C.ar      1 12F        -0.0600
     42 CBJ        25.7350   50.7480   37.8210 C.ar      1 12F        -0.0686
     43 CBK        24.5300   51.6710   37.6220 C.3       1 12F        -0.0426
     44 CBL        30.2920   50.8850   40.3110 C.3       1 12F         0.0307
     45 CBM        30.2090   52.3950   40.1100 C.3       1 12F         0.0060
     46 CBN        29.1450   52.3920   39.0100 C.3       1 12F         0.1342
     47 CBO        24.3980   48.7450   37.5110 C.3       1 12F        -0.0426
     48 CBP        25.6030   49.3630   37.8320 C.ar      1 12F        -0.0686
     49 FBR        34.8230   50.6540   42.3650 F         1 12F        -0.1923
     50 NBS        20.1680   37.5780   32.3430 N.pl3     1 12F        -0.1737
     51 NBT        19.9930   35.6260   30.8030 N.pl3     1 12F        -0.1944
     52 NBU        17.9830   34.2740   31.2410 N.2       1 12F        -0.2627
     53 NBV        16.5390   34.9530   32.9860 N.2       1 12F        -0.4365
     54 NBW        18.3280   37.2400   33.4530 N.2       1 12F        -0.3147
     55 NBX        29.0460   48.3270   38.6700 N.pl3     1 12F        -0.2924
     56 NBY        31.4370   48.0910   38.6620 N.am      1 12F        -0.2442
     57 NBZ        32.8400   50.0110   38.1350 N.am      1 12F        -0.1824
     58 NCA        29.3020   51.1450   38.2370 N.pl3     1 12F        -0.2778
     59 OCF        26.6920   42.0120   33.9040 O.co2     1 12F        -0.6127
     60 OCG        24.4400   41.5670   35.0050 O.co2     1 12F        -0.6127
     61 OCH        26.4770   40.3730   35.7720 O.3       1 12F        -0.1319
     62 OCI        28.4000   39.3470   36.9850 O.co2     1 12F        -0.6127
     63 OCJ        28.3540   39.3440   34.4460 O.co2     1 12F        -0.6127
     64 OCK        28.7750   41.4650   35.6900 O.3       1 12F        -0.2477
     65 OCL        28.6970   44.2010   35.3400 O.3       1 12F        -0.3865
     66 OCM        29.7030   44.1410   38.8740 O.3       1 12F        -0.3865
     67 OCN        28.6880   46.5880   36.3330 O.3       1 12F        -0.3872
     68 OCO        33.6660   47.8970   38.2810 O.2       1 12F        -0.3910
     69 OCP        31.9110   52.0670   37.9570 O.2       1 12F        -0.3310
     70 OCQ        29.3580   53.5030   38.1350 O.3       1 12F        -0.3711
     71 PCR        25.7410   41.0600   34.5200 P.3       1 12F         0.2972
     72 PCS        28.0480   40.0290   35.7220 P.3       1 12F         0.2972
     73 H          31.6011   53.3860   42.5900 H         1 12F         0.0557
     74 H          31.7788   54.1433   44.9445 H         1 12F         0.0599
     75 H          34.0004   54.6011   45.9469 H         1 12F         0.0559
     76 H          36.0552   54.3025   44.5869 H         1 12F         0.0599
     77 H          35.8798   53.5594   42.2265 H         1 12F         0.0557
     78 H          34.7034   52.7804   40.5700 H         1 12F         0.0774
     79 H          32.9722   53.6254   40.3658 H         1 12F         0.0774
     80 H          21.5859   37.8165   30.8778 H         1 12F         0.1005
     81 H          21.0624   40.0591   33.0044 H         1 12F         0.0677
     82 H          21.1368   40.0388   30.1750 H         1 12F         0.2101
     83 H          23.3389   40.8293   32.3375 H         1 12F         0.0648
     84 H          23.0425   39.1729   30.0548 H         1 12F         0.2100
     85 H          24.3114   38.2012   31.7805 H         1 12F         0.0651
     86 H          24.7301   38.0321   34.2015 H         1 12F         0.0648
     87 H          23.6763   39.4687   34.4586 H         1 12F         0.0648
     88 H          29.8816   49.0699   42.1845 H         1 12F         0.0494
     89 H          31.4280   48.1190   43.8655 H         1 12F         0.0496
     90 H          33.7807   48.9207   43.9620 H         1 12F         0.0518
     91 H          19.4532   33.7895   29.5753 H         1 12F         0.1619
     92 H          19.5893   38.9201   33.9253 H         1 12F         0.1225
     93 H          27.7108   42.4144   37.1669 H         1 12F         0.0647
     94 H          29.3610   41.8517   37.6193 H         1 12F         0.0647
     95 H          30.3827   43.6516   36.3776 H         1 12F         0.0647
     96 H          27.9233   44.5807   37.8587 H         1 12F         0.0647
     97 H          30.4292   46.2069   37.3452 H         1 12F         0.0639
     98 H          29.4797   46.5077   39.5656 H         1 12F         0.0533
     99 H          27.8051   46.6716   38.8116 H         1 12F         0.0533
    100 H          30.4014   48.8480   39.9228 H         1 12F         0.0824
    101 H          26.6147   47.4945   38.1322 H         1 12F         0.0400
    102 H          27.0910   52.3970   38.0099 H         1 12F         0.0400
    103 H          24.4048   52.2983   38.5046 H         1 12F         0.0350
    104 H          24.6966   52.3005   36.7479 H         1 12F         0.0350
    105 H          23.6337   51.0691   37.4724 H         1 12F         0.0350
    106 H          29.4357   50.4350   40.8133 H         1 12F         0.0451
    107 H          31.1465   52.8921   39.8610 H         1 12F         0.0331
    108 H          29.9700   52.9789   40.9988 H         1 12F         0.0331
    109 H          28.1488   52.4615   39.4469 H         1 12F         0.0852
    110 H          24.5281   48.1430   36.6117 H         1 12F         0.0350
    111 H          24.0883   48.1045   38.3368 H         1 12F         0.0350
    112 H          23.6371   49.5052   37.3340 H         1 12F         0.0350
    113 H          20.8656   35.8154   30.3100 H         1 12F         0.2513
    114 H          16.2905   35.5967   33.7372 H         1 12F         0.0404
    115 H          31.3455   47.0795   38.7568 H         1 12F         0.1874
    116 H          33.7602   50.3846   37.9023 H         1 12F         0.2260
    117 H          29.0417   45.0769   35.1512 H         1 12F         0.2100
    118 H          30.6484   44.2302   38.7330 H         1 12F         0.2100
    119 H          28.9898   46.1056   35.5599 H         1 12F         0.2100
    120 H          30.2440   53.4550   37.7685 H         1 12F         0.2121
@<TRIPOS>BOND
     1    1    3 ar 
     2    1    7 ar 
     3    8    1 1  
     4    2    8 1  
     5   21    2 1  
     6    3    4 ar 
     7    4    5 ar 
     8    6    5 ar 
     9    7    6 ar 
    10    9   10 1  
    11   15    9 1  
    12    9   50 1  
    13   10   11 1  
    14   12   10 1  
    15   12   13 1  
    16   14   12 1  
    17   14   15 1  
    18   16   14 1  
    19   17   16 1  
    20   71   17 1  
    21   19   18 ar 
    22   18   20 ar 
    23   19   21 ar 
    24   44   19 1  
    25   20   22 ar 
    26   21   23 ar 
    27   23   22 ar 
    28   23   49 1  
    29   24   27 2  
    30   50   24 1  
    31   24   51 1  
    32   51   25 1  
    33   25   52 2  
    34   27   26 1  
    35   26   52 1  
    36   26   53 2  
    37   54   27 1  
    38   50   28 1  
    39   28   54 2  
    40   29   30 1  
    41   64   29 1  
    42   30   31 1  
    43   30   65 1  
    44   31   32 1  
    45   31   66 1  
    46   32   33 1  
    47   32   67 1  
    48   33   55 1  
    49   34   37 1  
    50   55   34 1  
    51   34   56 1  
    52   56   35 am 
    53   35   57 am 
    54   35   68 2  
    55   37   36 1  
    56   36   57 am 
    57   36   69 2  
    58   37   44 1  
    59   37   58 1  
    60   38   39 ar 
    61   38   40 ar 
    62   55   38 1  
    63   39   41 ar 
    64   39   58 1  
    65   40   48 ar 
    66   41   42 ar 
    67   42   43 1  
    68   48   42 ar 
    69   44   45 1  
    70   46   45 1  
    71   58   46 1  
    72   46   70 1  
    73   48   47 1  
    74   71   59 ar 
    75   71   60 ar 
    76   61   71 1  
    77   72   61 1  
    78   72   62 ar 
    79   72   63 ar 
    80   64   72 1  
    81    3   73 1  
    82    4   74 1  
    83    5   75 1  
    84    6   76 1  
    85    7   77 1  
    86    8   78 1  
    87    8   79 1  
    88    9   80 1  
    89   10   81 1  
    90   11   82 1  
    91   12   83 1  
    92   13   84 1  
    93   14   85 1  
    94   16   86 1  
    95   16   87 1  
    96   18   88 1  
    97   20   89 1  
    98   22   90 1  
    99   25   91 1  
   100   28   92 1  
   101   29   93 1  
   102   29   94 1  
   103   30   95 1  
   104   31   96 1  
   105   32   97 1  
   106   33   98 1  
   107   33   99 1  
   108   34  100 1  
   109   40  101 1  
   110   41  102 1  
   111   43  103 1  
   112   43  104 1  
   113   43  105 1  
   114   44  106 1  
   115   45  107 1  
   116   45  108 1  
   117   46  109 1  
   118   47  110 1  
   119   47  111 1  
   120   47  112 1  
   121   51  113 1  
   122   53  114 1  
   123   56  115 1  
   124   57  116 1  
   125   65  117 1  
   126   66  118 1  
   127   67  119 1  
   128   70  120 1  
@<TRIPOS>SUBSTRUCTURE
     1 12F         1

