3abu_ligand
  -I-interpret- 

122130  0  0  0  0  0  0  0  0999 V2000
   33.7330   53.4230   42.2670 C   0  0  0  0  0
   33.1150   51.7160   40.4430 O   0  0  0  0  0
   32.5790   53.5880   43.0270 C   0  0  0  0  0
   32.6810   54.0120   44.3470 C   0  0  0  0  0
   33.9270   54.2700   44.9110 C   0  0  0  0  0
   35.0770   54.1040   44.1490 C   0  0  0  0  0
   34.9780   53.6840   42.8260 C   0  0  0  0  0
   33.6520   52.9090   40.8270 C   0  0  0  0  0
   21.4610   38.1500   31.9080 C   0  0  0  0  0
   21.4830   39.6680   32.0780 C   0  0  0  0  0
   20.7400   40.2740   31.0170 O   0  0  0  0  0
   22.9810   39.9060   31.8820 C   0  0  0  0  0
   23.2900   39.9930   30.4880 O   0  0  0  0  0
   23.6050   38.6420   32.4840 C   0  0  0  0  0
   22.5160   37.7550   32.7960 O   0  0  0  0  0
   24.3590   38.9640   33.7750 C   0  0  0  0  0
   25.4720   39.8250   33.5260 O   0  0  0  0  0
   30.9120   49.4230   42.2260 C   0  0  0  0  0
   31.3320   50.4020   41.3300 C   0  0  0  0  0
   31.7770   48.8850   43.1730 C   0  0  0  0  0
   32.6500   50.8570   41.3910 C   0  0  0  0  0
   33.0900   49.3340   43.2270 C   0  0  0  0  0
   33.5190   50.3140   42.3380 C   0  0  0  0  0
   19.6020   36.4870   31.8350 C   0  0  0  0  0
   19.1880   34.4510   30.4000 C   0  0  0  0  0
   17.6350   35.1660   32.2630 C   0  0  0  0  0
   18.4290   36.2720   32.5470 C   0  0  0  0  0
   19.3890   38.0340   33.3230 C   0  0  0  0  0
   28.7460   42.3070   36.8430 C   0  0  0  0  0
   29.3050   43.6980   36.5340 C   0  0  0  0  0
   29.0040   44.6160   37.7210 C   0  0  0  0  0
   29.3560   46.0890   37.4950 C   0  0  0  0  0
   28.8760   46.8570   38.7280 C   0  0  0  0  0
   30.3080   48.8980   38.8380 C   0  0  0  0  0
   32.6890   48.6380   38.3590 C   0  0  0  0  0
   31.7450   50.8790   38.2260 C   0  0  0  0  0
   30.4260   50.4230   38.8550 C   0  0  0  0  0
   27.9680   49.1520   38.3250 C   0  0  0  0  0
   28.1170   50.5320   38.2640 C   0  0  0  0  0
   26.7190   48.5790   38.0990 C   0  0  0  0  0
   26.9890   51.3120   38.0300 C   0  0  0  0  0
   25.7350   50.7480   37.8210 C   0  0  0  0  0
   24.5300   51.6710   37.6220 C   0  0  0  0  0
   30.2920   50.8850   40.3110 C   0  0  0  0  0
   30.2090   52.3950   40.1100 C   0  0  0  0  0
   29.1450   52.3920   39.0100 C   0  0  0  0  0
   24.3980   48.7450   37.5110 C   0  0  0  0  0
   25.6030   49.3630   37.8320 C   0  0  0  0  0
   34.8230   50.6540   42.3650 F   0  0  0  0  0
   20.1680   37.5780   32.3430 N   0  0  0  0  0
   19.9930   35.6260   30.8030 N   0  0  0  0  0
   17.9830   34.2740   31.2410 N   0  0  0  0  0
   16.5390   34.9530   32.9860 N   0  0  0  0  0
   18.3280   37.2400   33.4530 N   0  0  0  0  0
   29.0460   48.3270   38.6700 N   0  0  0  0  0
   31.4370   48.0910   38.6620 N   0  0  0  0  0
   32.8400   50.0110   38.1350 N   0  0  0  0  0
   29.3020   51.1450   38.2370 N   0  0  0  0  0
   26.6920   42.0120   33.9040 O   0  0  0  0  0
   24.4400   41.5670   35.0050 O   0  0  0  0  0
   26.4770   40.3730   35.7720 O   0  0  0  0  0
   28.4000   39.3470   36.9850 O   0  0  0  0  0
   28.3540   39.3440   34.4460 O   0  0  0  0  0
   28.7750   41.4650   35.6900 O   0  0  0  0  0
   28.6970   44.2010   35.3400 O   0  0  0  0  0
   29.7030   44.1410   38.8740 O   0  0  0  0  0
   28.6880   46.5880   36.3330 O   0  0  0  0  0
   33.6660   47.8970   38.2810 O   0  0  0  0  0
   31.9110   52.0670   37.9570 O   0  0  0  0  0
   29.3580   53.5030   38.1350 O   0  0  0  0  0
   25.7410   41.0600   34.5200 P   0  0  0  0  0
   28.0480   40.0290   35.7220 P   0  0  0  0  0
   31.6011   53.3860   42.5900 H   0  0  0  0  0
   31.7788   54.1433   44.9445 H   0  0  0  0  0
   34.0004   54.6011   45.9469 H   0  0  0  0  0
   36.0552   54.3025   44.5869 H   0  0  0  0  0
   35.8798   53.5594   42.2265 H   0  0  0  0  0
   34.7034   52.7804   40.5700 H   0  0  0  0  0
   32.9722   53.6254   40.3658 H   0  0  0  0  0
   21.5859   37.8165   30.8778 H   0  0  0  0  0
   21.0624   40.0591   33.0044 H   0  0  0  0  0
   20.7532   41.2281   31.1229 H   0  0  0  0  0
   23.3389   40.8293   32.3375 H   0  0  0  0  0
   24.2320   40.1423   30.3789 H   0  0  0  0  0
   24.3114   38.2012   31.7805 H   0  0  0  0  0
   24.7301   38.0321   34.2015 H   0  0  0  0  0
   23.6763   39.4687   34.4586 H   0  0  0  0  0
   29.8816   49.0699   42.1845 H   0  0  0  0  0
   31.4280   48.1190   43.8655 H   0  0  0  0  0
   33.7807   48.9207   43.9620 H   0  0  0  0  0
   19.4532   33.7895   29.5753 H   0  0  0  0  0
   19.5893   38.9201   33.9253 H   0  0  0  0  0
   27.7108   42.4144   37.1669 H   0  0  0  0  0
   29.3610   41.8517   37.6193 H   0  0  0  0  0
   30.3827   43.6516   36.3776 H   0  0  0  0  0
   27.9233   44.5807   37.8587 H   0  0  0  0  0
   30.4292   46.2069   37.3452 H   0  0  0  0  0
   29.4797   46.5077   39.5656 H   0  0  0  0  0
   27.8051   46.6716   38.8116 H   0  0  0  0  0
   30.4014   48.8480   39.9228 H   0  0  0  0  0
   26.6147   47.4945   38.1322 H   0  0  0  0  0
   27.0910   52.3970   38.0099 H   0  0  0  0  0
   24.4048   52.2983   38.5046 H   0  0  0  0  0
   24.6966   52.3005   36.7479 H   0  0  0  0  0
   23.6337   51.0691   37.4724 H   0  0  0  0  0
   29.4357   50.4350   40.8133 H   0  0  0  0  0
   31.1465   52.8921   39.8610 H   0  0  0  0  0
   29.9700   52.9789   40.9988 H   0  0  0  0  0
   28.1488   52.4615   39.4469 H   0  0  0  0  0
   24.5281   48.1430   36.6117 H   0  0  0  0  0
   24.0883   48.1045   38.3368 H   0  0  0  0  0
   23.6371   49.5052   37.3340 H   0  0  0  0  0
   20.8656   35.8154   30.3100 H   0  0  0  0  0
   16.2905   35.5967   33.7372 H   0  0  0  0  0
   31.3455   47.0795   38.7568 H   0  0  0  0  0
   33.7602   50.3846   37.9023 H   0  0  0  0  0
   27.4866   41.5427   33.6394 H   0  0  0  0  0
   28.0743   39.8965   33.7124 H   0  0  0  0  0
   29.0479   45.0734   35.1466 H   0  0  0  0  0
   29.5154   44.7156   39.6198 H   0  0  0  0  0
   28.9182   47.5111   36.2046 H   0  0  0  0  0
   28.6895   53.4990   37.4460 H   0  0  0  0  0
  1  3  4  0  0  0
  1  7  4  0  0  0
  8  1  1  0  0  0
  2  8  1  0  0  0
 21  2  1  0  0  0
  3  4  4  0  0  0
  4  5  4  0  0  0
  6  5  4  0  0  0
  7  6  4  0  0  0
  9 10  1  0  0  0
 15  9  1  0  0  0
  9 50  1  0  0  0
 10 11  1  0  0  0
 12 10  1  0  0  0
 12 13  1  0  0  0
 14 12  1  0  0  0
 14 15  1  0  0  0
 16 14  1  0  0  0
 17 16  1  0  0  0
 71 17  1  0  0  0
 19 18  4  0  0  0
 18 20  4  0  0  0
 19 21  4  0  0  0
 44 19  1  0  0  0
 20 22  4  0  0  0
 21 23  4  0  0  0
 23 22  4  0  0  0
 23 49  1  0  0  0
 24 27  4  0  0  0
 50 24  4  0  0  0
 24 51  1  0  0  0
 51 25  1  0  0  0
 25 52  2  0  0  0
 27 26  1  0  0  0
 26 52  1  0  0  0
 26 53  2  0  0  0
 54 27  4  0  0  0
 50 28  4  0  0  0
 28 54  4  0  0  0
 29 30  1  0  0  0
 64 29  1  0  0  0
 30 31  1  0  0  0
 30 65  1  0  0  0
 31 32  1  0  0  0
 31 66  1  0  0  0
 32 33  1  0  0  0
 32 67  1  0  0  0
 33 55  1  0  0  0
 34 37  1  0  0  0
 55 34  1  0  0  0
 34 56  1  0  0  0
 56 35  1  0  0  0
 35 57  1  0  0  0
 35 68  2  0  0  0
 37 36  1  0  0  0
 36 57  1  0  0  0
 36 69  2  0  0  0
 37 44  1  0  0  0
 37 58  1  0  0  0
 38 39  4  0  0  0
 38 40  4  0  0  0
 55 38  1  0  0  0
 39 41  4  0  0  0
 39 58  1  0  0  0
 40 48  4  0  0  0
 41 42  4  0  0  0
 42 43  1  0  0  0
 48 42  4  0  0  0
 44 45  1  0  0  0
 46 45  1  0  0  0
 58 46  1  0  0  0
 46 70  1  0  0  0
 48 47  1  0  0  0
 71 59  1  0  0  0
 71 60  2  0  0  0
 61 71  1  0  0  0
 72 61  1  0  0  0
 72 62  2  0  0  0
 72 63  1  0  0  0
 64 72  1  0  0  0
  3 73  1  0  0  0
  4 74  1  0  0  0
  5 75  1  0  0  0
  6 76  1  0  0  0
  7 77  1  0  0  0
  8 78  1  0  0  0
  8 79  1  0  0  0
  9 80  1  0  0  0
 10 81  1  0  0  0
 11 82  1  0  0  0
 12 83  1  0  0  0
 13 84  1  0  0  0
 14 85  1  0  0  0
 16 86  1  0  0  0
 16 87  1  0  0  0
 18 88  1  0  0  0
 20 89  1  0  0  0
 22 90  1  0  0  0
 25 91  1  0  0  0
 28 92  1  0  0  0
 29 93  1  0  0  0
 29 94  1  0  0  0
 30 95  1  0  0  0
 31 96  1  0  0  0
 32 97  1  0  0  0
 33 98  1  0  0  0
 33 99  1  0  0  0
 34100  1  0  0  0
 40101  1  0  0  0
 41102  1  0  0  0
 43103  1  0  0  0
 43104  1  0  0  0
 43105  1  0  0  0
 44106  1  0  0  0
 45107  1  0  0  0
 45108  1  0  0  0
 46109  1  0  0  0
 47110  1  0  0  0
 47111  1  0  0  0
 47112  1  0  0  0
 51113  1  0  0  0
 53114  1  0  0  0
 56115  1  0  0  0
 57116  1  0  0  0
 59117  1  0  0  0
 63118  1  0  0  0
 65119  1  0  0  0
 66120  1  0  0  0
 67121  1  0  0  0
 70122  1  0  0  0
M  END
$$$$
