### 
### Created by X-TOOL on Sun Sep  9 21:50:03 2018
### 

@<TRIPOS>MOLECULE
1p2g_ligand
  168   176     1     0     0
SMALL
GAST_HUCK


@<TRIPOS>ATOM
      1 C1         69.5670   19.3790   29.9450 C.3       1 NON         0.1884
      2 C2         69.8360   20.8490   29.6030 C.3       1 NON         0.1341
      3 C3         69.2100   21.7740   30.6420 C.3       1 NON         0.1144
      4 C4         67.7690   21.3840   30.9770 C.3       1 NON         0.1184
      5 C5         67.6040   19.8870   31.2370 C.3       1 NON         0.1134
      6 C6         66.1340   19.5570   31.2530 C.3       1 NON         0.0730
      7 O2         71.2490   21.0590   29.5990 O.3       1 NON        -0.3841
      8 O3         69.2020   23.1040   30.1250 O.3       1 NON        -0.3864
      9 O4         67.3500   22.1090   32.1510 O.3       1 NON        -0.3401
     10 O5         68.1740   19.1400   30.1460 O.3       1 NON        -0.3405
     11 O6         65.5580   19.8450   29.9790 O.3       1 NON        -0.3924
     12 C1         66.2690   22.9580   31.9290 C.3       1 NON         0.1884
     13 C2         66.2610   24.0320   33.0170 C.3       1 NON         0.1341
     14 C3         65.8690   23.4500   34.3640 C.3       1 NON         0.1144
     15 C4         64.5780   22.6220   34.2680 C.3       1 NON         0.1184
     16 C5         64.6510   21.6020   33.1300 C.3       1 NON         0.1134
     17 C6         63.2700   21.0420   32.9140 C.3       1 NON         0.0730
     18 O2         67.5730   24.5720   33.1340 O.3       1 NON        -0.3841
     19 O3         65.6740   24.5230   35.2770 O.3       1 NON        -0.3864
     20 O4         64.3570   21.9230   35.5130 O.3       1 NON        -0.3401
     21 O5         65.0250   22.2540   31.8860 O.3       1 NON        -0.3405
     22 O6         62.3540   22.1140   32.7120 O.3       1 NON        -0.3924
     23 C1         63.0920   22.0680   36.1010 C.3       1 NON         0.1884
     24 C2         63.2090   23.0310   37.2750 C.3       1 NON         0.1341
     25 C3         64.0630   22.4190   38.3770 C.3       1 NON         0.1144
     26 C4         63.5950   21.0230   38.7390 C.3       1 NON         0.1184
     27 C5         63.4550   20.1570   37.5010 C.3       1 NON         0.1134
     28 C6         62.8580   18.8000   37.8070 C.3       1 NON         0.0730
     29 O2         63.8140   24.2340   36.8320 O.3       1 NON        -0.3841
     30 O3         64.0160   23.2250   39.5480 O.3       1 NON        -0.3864
     31 O4         64.5400   20.4230   39.6440 O.3       1 NON        -0.3401
     32 O5         62.5840   20.8130   36.5630 O.3       1 NON        -0.3405
     33 O6         62.6000   18.0910   36.6040 O.3       1 NON        -0.3924
     34 C1         63.9840   20.0330   40.8660 C.3       1 NON         0.1884
     35 C2         64.9090   20.4870   41.9870 C.3       1 NON         0.1341
     36 C3         66.2180   19.7270   41.8750 C.3       1 NON         0.1144
     37 C4         65.9750   18.2170   41.9170 C.3       1 NON         0.1184
     38 C5         64.9900   17.8350   40.7980 C.3       1 NON         0.1134
     39 C6         64.5680   16.3700   40.7860 C.3       1 NON         0.0730
     40 O2         65.1560   21.8810   41.8430 O.3       1 NON        -0.3841
     41 O3         67.1000   20.1030   42.9240 O.3       1 NON        -0.3864
     42 O4         67.2390   17.5320   41.7340 O.3       1 NON        -0.3401
     43 O5         63.7820   18.6180   40.9310 O.3       1 NON        -0.3405
     44 O6         63.5780   16.1180   41.7810 O.3       1 NON        -0.3924
     45 C1         67.6950   16.7650   42.8240 C.3       1 NON         0.1884
     46 C2         69.2310   16.7100   42.8020 C.3       1 NON         0.1341
     47 C3         69.7140   15.9110   41.5840 C.3       1 NON         0.1144
     48 C4         69.0190   14.5360   41.4720 C.3       1 NON         0.1184
     49 C5         67.5070   14.7350   41.5560 C.3       1 NON         0.1134
     50 C6         66.7280   13.4390   41.5380 C.3       1 NON         0.0730
     51 O2         69.7530   18.0410   42.7180 O.3       1 NON        -0.3841
     52 O3         71.1200   15.7320   41.6640 O.3       1 NON        -0.3864
     53 O4         69.3400   13.9320   40.1900 O.3       1 NON        -0.3401
     54 O5         67.1740   15.4380   42.7720 O.3       1 NON        -0.3405
     55 O6         66.0260   13.2910   40.3010 O.3       1 NON        -0.3924
     56 C1         69.9240   12.6420   40.2320 C.3       1 NON         0.1884
     57 C2         71.4110   12.7450   40.6130 C.3       1 NON         0.1341
     58 C3         72.1740   13.4930   39.5070 C.3       1 NON         0.1144
     59 C4         71.9620   12.8370   38.1440 C.3       1 NON         0.1184
     60 C5         70.4550   12.6740   37.8740 C.3       1 NON         0.1134
     61 C6         70.1220   11.8950   36.6160 C.3       1 NON         0.0730
     62 O2         71.5380   13.4430   41.8500 O.3       1 NON        -0.3841
     63 O3         73.5710   13.5190   39.7910 O.3       1 NON        -0.3864
     64 O4         72.5460   13.7020   37.1450 O.3       1 NON        -0.3401
     65 O5         69.8160   11.9720   38.9720 O.3       1 NON        -0.3405
     66 O6         68.7080   11.7020   36.5210 O.3       1 NON        -0.3924
     67 C1         73.4020   13.0720   36.2310 C.3       1 NON         0.1884
     68 C2         74.5290   14.0430   35.7940 C.3       1 NON         0.1341
     69 C3         73.9670   15.1650   34.9180 C.3       1 NON         0.1144
     70 C4         73.1800   14.5940   33.7560 C.3       1 NON         0.1184
     71 C5         72.1010   13.6080   34.2450 C.3       1 NON         0.1134
     72 C6         71.4840   12.8840   33.0660 C.3       1 NON         0.0730
     73 O2         75.1380   14.6160   36.9480 O.3       1 NON        -0.3841
     74 O3         75.0340   15.9520   34.3850 O.3       1 NON        -0.3864
     75 O4         72.5680   15.6860   33.0310 O.3       1 NON        -0.3401
     76 O5         72.6940   12.5820   35.0850 O.3       1 NON        -0.3405
     77 O6         70.1060   13.2210   32.9190 O.3       1 NON        -0.3924
     78 C1         72.8510   15.7260   31.6570 C.3       1 NON         0.1884
     79 C2         73.5360   17.0630   31.3080 C.3       1 NON         0.1341
     80 C3         72.5470   18.2100   31.5750 C.3       1 NON         0.1144
     81 C4         71.2830   17.9800   30.7590 C.3       1 NON         0.1184
     82 C5         70.6690   16.6070   31.0650 C.3       1 NON         0.1134
     83 C6         69.5060   16.2870   30.1370 C.3       1 NON         0.0730
     84 O2         74.7080   17.2260   32.1130 O.3       1 NON        -0.3841
     85 O3         73.1230   19.4620   31.1920 O.3       1 NON        -0.3864
     86 O4         70.3310   19.0170   31.0530 O.3       1 NON        -0.3401
     87 O5         71.6630   15.5660   30.8710 O.3       1 NON        -0.3405
     88 O6         68.2550   16.6000   30.7470 O.3       1 NON        -0.3924
     89 H1         69.8907   18.7631   29.0930 H         1 NON         0.0938
     90 H2         69.4194   21.0773   28.6109 H         1 NON         0.0671
     91 H3         69.8134   21.7367   31.5610 H         1 NON         0.0648
     92 H4         67.1264   21.6635   30.1291 H         1 NON         0.0651
     93 H5         68.0797   19.6107   32.1895 H         1 NON         0.0647
     94 H6         65.6331   20.1601   32.0246 H         1 NON         0.0584
     95 H7         66.0023   18.4887   31.4798 H         1 NON         0.0584
     96 H8         71.5995   20.8635   30.4601 H         1 NON         0.2101
     97 H9         68.8465   23.6946   30.7788 H         1 NON         0.2100
     98 H10        65.9896   19.3237   29.3124 H         1 NON         0.2095
     99 H11        66.4103   23.4491   30.9549 H         1 NON         0.0938
    100 H12        65.5513   24.8255   32.7403 H         1 NON         0.0671
    101 H13        66.6812   22.8025   34.7259 H         1 NON         0.0648
    102 H14        63.7348   23.3031   34.0809 H         1 NON         0.0651
    103 H15        65.3667   20.8047   33.3792 H         1 NON         0.0647
    104 H16        62.9667   20.4610   33.7974 H         1 NON         0.0584
    105 H17        63.2725   20.3890   32.0288 H         1 NON         0.0584
    106 H18        68.1773   23.8821   33.3816 H         1 NON         0.2101
    107 H19        65.4559   24.1733   36.1330 H         1 NON         0.2100
    108 H20        61.4820   21.7625   32.5755 H         1 NON         0.2095
    109 H21        62.3956   22.4814   35.3566 H         1 NON         0.0938
    110 H22        62.2054   23.2473   37.6698 H         1 NON         0.0671
    111 H23        65.1022   22.3635   38.0206 H         1 NON         0.0648
    112 H24        62.6157   21.0937   39.2348 H         1 NON         0.0651
    113 H25        64.4494   20.0191   37.0513 H         1 NON         0.0647
    114 H26        61.9154   18.9344   38.3579 H         1 NON         0.0584
    115 H27        63.5640   18.2238   38.4231 H         1 NON         0.0584
    116 H28        64.6824   24.0454   36.4961 H         1 NON         0.2101
    117 H29        64.5853   22.8521   40.2108 H         1 NON         0.2100
    118 H30        61.9888   18.5857   36.0710 H         1 NON         0.2095
    119 H31        63.0087   20.5279   40.9837 H         1 NON         0.0938
    120 H32        64.4432   20.2887   42.9636 H         1 NON         0.0671
    121 H33        66.6870   19.9801   40.9128 H         1 NON         0.0648
    122 H34        65.5464   17.9381   42.8909 H         1 NON         0.0651
    123 H35        65.4698   18.0641   39.8351 H         1 NON         0.0647
    124 H36        65.4475   15.7401   40.9853 H         1 NON         0.0584
    125 H37        64.1558   16.1219   39.7968 H         1 NON         0.0584
    126 H38        65.5469   22.0461   40.9930 H         1 NON         0.2101
    127 H39        67.9275   19.6484   42.8187 H         1 NON         0.2100
    128 H40        62.8150   16.6577   41.6108 H         1 NON         0.2095
    129 H41        67.3629   17.2415   43.7582 H         1 NON         0.0938
    130 H42        69.5920   16.2289   43.7230 H         1 NON         0.0671
    131 H43        69.4813   16.4891   40.6776 H         1 NON         0.0648
    132 H44        69.3570   13.8806   42.2882 H         1 NON         0.0651
    133 H45        67.1943   15.3402   40.6923 H         1 NON         0.0647
    134 H46        66.0043   13.4406   42.3664 H         1 NON         0.0584
    135 H47        67.4246   12.5967   41.6613 H         1 NON         0.0584
    136 H48        69.4429   18.4517   41.9195 H         1 NON         0.2101
    137 H49        71.3286   15.2100   42.4298 H         1 NON         0.2100
    138 H50        65.5433   12.4728   40.3080 H         1 NON         0.2095
    139 H51        69.3992   12.0471   40.9940 H         1 NON         0.0938
    140 H52        71.8300   11.7339   40.7225 H         1 NON         0.0671
    141 H53        71.7994   14.5264   39.4645 H         1 NON         0.0648
    142 H54        72.4500   11.8515   38.1204 H         1 NON         0.0651
    143 H55        70.0209   13.6808   37.7851 H         1 NON         0.0647
    144 H56        70.6219   10.9158   36.6507 H         1 NON         0.0584
    145 H57        70.4732   12.4551   35.7368 H         1 NON         0.0584
    146 H58        71.1781   14.3173   41.7574 H         1 NON         0.2101
    147 H59        74.0204   14.0182   39.1191 H         1 NON         0.2100
    148 H60        68.4040   11.2173   37.2794 H         1 NON         0.2095
    149 H61        73.8647   12.2118   36.7369 H         1 NON         0.0938
    150 H62        75.2840   13.4829   35.2228 H         1 NON         0.0671
    151 H63        73.3092   15.8013   35.5282 H         1 NON         0.0648
    152 H64        73.8690   14.0579   33.0868 H         1 NON         0.0651
    153 H65        71.3283   14.1572   34.8030 H         1 NON         0.0647
    154 H66        71.5733   11.7991   33.2241 H         1 NON         0.0584
    155 H67        72.0224   13.1666   32.1494 H         1 NON         0.0584
    156 H68        74.4886   15.1091   37.4356 H         1 NON         0.2101
    157 H69        74.6743   16.6539   33.8554 H         1 NON         0.2100
    158 H70        69.7447   12.7545   32.1744 H         1 NON         0.2095
    159 H71        73.5394   14.9019   31.4184 H         1 NON         0.0938
    160 H72        73.8214   17.0647   30.2457 H         1 NON         0.0671
    161 H73        72.2970   18.2345   32.6459 H         1 NON         0.0648
    162 H74        71.5393   18.0209   29.6901 H         1 NON         0.0651
    163 H75        70.3185   16.5987   32.1076 H         1 NON         0.0647
    164 H76        69.5271   15.2147   29.8926 H         1 NON         0.0584
    165 H77        69.6117   16.8757   29.2138 H         1 NON         0.0584
    166 H78        74.4636   17.2201   33.0310 H         1 NON         0.2101
    167 H79        72.5005   20.1600   31.3589 H         1 NON         0.2100
    168 H80        68.2291   17.5262   30.9566 H         1 NON         0.2095
@<TRIPOS>BOND
     1    1    2 1  
     2    1   10 1  
     3    1   86 1  
     4    2    3 1  
     5    2    7 1  
     6    3    4 1  
     7    3    8 1  
     8    4    5 1  
     9    4    9 1  
    10    5    6 1  
    11    5   10 1  
    12    6   11 1  
    13    9   12 1  
    14   12   13 1  
    15   12   21 1  
    16   13   14 1  
    17   13   18 1  
    18   14   15 1  
    19   14   19 1  
    20   15   16 1  
    21   15   20 1  
    22   16   17 1  
    23   16   21 1  
    24   17   22 1  
    25   20   23 1  
    26   23   24 1  
    27   23   32 1  
    28   24   25 1  
    29   24   29 1  
    30   25   26 1  
    31   25   30 1  
    32   26   27 1  
    33   26   31 1  
    34   27   28 1  
    35   27   32 1  
    36   28   33 1  
    37   31   34 1  
    38   34   35 1  
    39   34   43 1  
    40   35   36 1  
    41   35   40 1  
    42   36   37 1  
    43   36   41 1  
    44   37   38 1  
    45   37   42 1  
    46   38   39 1  
    47   38   43 1  
    48   39   44 1  
    49   42   45 1  
    50   45   46 1  
    51   45   54 1  
    52   46   47 1  
    53   46   51 1  
    54   47   48 1  
    55   47   52 1  
    56   48   49 1  
    57   48   53 1  
    58   49   50 1  
    59   49   54 1  
    60   50   55 1  
    61   53   56 1  
    62   56   57 1  
    63   56   65 1  
    64   57   58 1  
    65   57   62 1  
    66   58   59 1  
    67   58   63 1  
    68   59   60 1  
    69   59   64 1  
    70   60   61 1  
    71   60   65 1  
    72   61   66 1  
    73   64   67 1  
    74   67   68 1  
    75   67   76 1  
    76   68   69 1  
    77   68   73 1  
    78   69   70 1  
    79   69   74 1  
    80   70   71 1  
    81   70   75 1  
    82   71   72 1  
    83   71   76 1  
    84   72   77 1  
    85   75   78 1  
    86   78   79 1  
    87   78   87 1  
    88   79   80 1  
    89   79   84 1  
    90   80   81 1  
    91   80   85 1  
    92   81   82 1  
    93   81   86 1  
    94   82   83 1  
    95   82   87 1  
    96   83   88 1  
    97    1   89 1  
    98    2   90 1  
    99    3   91 1  
   100    4   92 1  
   101    5   93 1  
   102    6   94 1  
   103    6   95 1  
   104    7   96 1  
   105    8   97 1  
   106   11   98 1  
   107   12   99 1  
   108   13  100 1  
   109   14  101 1  
   110   15  102 1  
   111   16  103 1  
   112   17  104 1  
   113   17  105 1  
   114   18  106 1  
   115   19  107 1  
   116   22  108 1  
   117   23  109 1  
   118   24  110 1  
   119   25  111 1  
   120   26  112 1  
   121   27  113 1  
   122   28  114 1  
   123   28  115 1  
   124   29  116 1  
   125   30  117 1  
   126   33  118 1  
   127   34  119 1  
   128   35  120 1  
   129   36  121 1  
   130   37  122 1  
   131   38  123 1  
   132   39  124 1  
   133   39  125 1  
   134   40  126 1  
   135   41  127 1  
   136   44  128 1  
   137   45  129 1  
   138   46  130 1  
   139   47  131 1  
   140   48  132 1  
   141   49  133 1  
   142   50  134 1  
   143   50  135 1  
   144   51  136 1  
   145   52  137 1  
   146   55  138 1  
   147   56  139 1  
   148   57  140 1  
   149   58  141 1  
   150   59  142 1  
   151   60  143 1  
   152   61  144 1  
   153   61  145 1  
   154   62  146 1  
   155   63  147 1  
   156   66  148 1  
   157   67  149 1  
   158   68  150 1  
   159   69  151 1  
   160   70  152 1  
   161   71  153 1  
   162   72  154 1  
   163   72  155 1  
   164   73  156 1  
   165   74  157 1  
   166   77  158 1  
   167   78  159 1  
   168   79  160 1  
   169   80  161 1  
   170   81  162 1  
   171   82  163 1  
   172   83  164 1  
   173   83  165 1  
   174   84  166 1  
   175   85  167 1  
   176   88  168 1  
@<TRIPOS>SUBSTRUCTURE
     1 NON         1

