1p2g_ligand
  -I-interpret- 

168176  0  0  0  0  0  0  0  0999 V2000
   69.5670   19.3790   29.9450 C   0  0  0  0  0
   69.8360   20.8490   29.6030 C   0  0  0  0  0
   69.2100   21.7740   30.6420 C   0  0  0  0  0
   67.7690   21.3840   30.9770 C   0  0  0  0  0
   67.6040   19.8870   31.2370 C   0  0  0  0  0
   66.1340   19.5570   31.2530 C   0  0  0  0  0
   71.2490   21.0590   29.5990 O   0  0  0  0  0
   69.2020   23.1040   30.1250 O   0  0  0  0  0
   67.3500   22.1090   32.1510 O   0  0  0  0  0
   68.1740   19.1400   30.1460 O   0  0  0  0  0
   65.5580   19.8450   29.9790 O   0  0  0  0  0
   66.2690   22.9580   31.9290 C   0  0  0  0  0
   66.2610   24.0320   33.0170 C   0  0  0  0  0
   65.8690   23.4500   34.3640 C   0  0  0  0  0
   64.5780   22.6220   34.2680 C   0  0  0  0  0
   64.6510   21.6020   33.1300 C   0  0  0  0  0
   63.2700   21.0420   32.9140 C   0  0  0  0  0
   67.5730   24.5720   33.1340 O   0  0  0  0  0
   65.6740   24.5230   35.2770 O   0  0  0  0  0
   64.3570   21.9230   35.5130 O   0  0  0  0  0
   65.0250   22.2540   31.8860 O   0  0  0  0  0
   62.3540   22.1140   32.7120 O   0  0  0  0  0
   63.0920   22.0680   36.1010 C   0  0  0  0  0
   63.2090   23.0310   37.2750 C   0  0  0  0  0
   64.0630   22.4190   38.3770 C   0  0  0  0  0
   63.5950   21.0230   38.7390 C   0  0  0  0  0
   63.4550   20.1570   37.5010 C   0  0  0  0  0
   62.8580   18.8000   37.8070 C   0  0  0  0  0
   63.8140   24.2340   36.8320 O   0  0  0  0  0
   64.0160   23.2250   39.5480 O   0  0  0  0  0
   64.5400   20.4230   39.6440 O   0  0  0  0  0
   62.5840   20.8130   36.5630 O   0  0  0  0  0
   62.6000   18.0910   36.6040 O   0  0  0  0  0
   63.9840   20.0330   40.8660 C   0  0  0  0  0
   64.9090   20.4870   41.9870 C   0  0  0  0  0
   66.2180   19.7270   41.8750 C   0  0  0  0  0
   65.9750   18.2170   41.9170 C   0  0  0  0  0
   64.9900   17.8350   40.7980 C   0  0  0  0  0
   64.5680   16.3700   40.7860 C   0  0  0  0  0
   65.1560   21.8810   41.8430 O   0  0  0  0  0
   67.1000   20.1030   42.9240 O   0  0  0  0  0
   67.2390   17.5320   41.7340 O   0  0  0  0  0
   63.7820   18.6180   40.9310 O   0  0  0  0  0
   63.5780   16.1180   41.7810 O   0  0  0  0  0
   67.6950   16.7650   42.8240 C   0  0  0  0  0
   69.2310   16.7100   42.8020 C   0  0  0  0  0
   69.7140   15.9110   41.5840 C   0  0  0  0  0
   69.0190   14.5360   41.4720 C   0  0  0  0  0
   67.5070   14.7350   41.5560 C   0  0  0  0  0
   66.7280   13.4390   41.5380 C   0  0  0  0  0
   69.7530   18.0410   42.7180 O   0  0  0  0  0
   71.1200   15.7320   41.6640 O   0  0  0  0  0
   69.3400   13.9320   40.1900 O   0  0  0  0  0
   67.1740   15.4380   42.7720 O   0  0  0  0  0
   66.0260   13.2910   40.3010 O   0  0  0  0  0
   69.9240   12.6420   40.2320 C   0  0  0  0  0
   71.4110   12.7450   40.6130 C   0  0  0  0  0
   72.1740   13.4930   39.5070 C   0  0  0  0  0
   71.9620   12.8370   38.1440 C   0  0  0  0  0
   70.4550   12.6740   37.8740 C   0  0  0  0  0
   70.1220   11.8950   36.6160 C   0  0  0  0  0
   71.5380   13.4430   41.8500 O   0  0  0  0  0
   73.5710   13.5190   39.7910 O   0  0  0  0  0
   72.5460   13.7020   37.1450 O   0  0  0  0  0
   69.8160   11.9720   38.9720 O   0  0  0  0  0
   68.7080   11.7020   36.5210 O   0  0  0  0  0
   73.4020   13.0720   36.2310 C   0  0  0  0  0
   74.5290   14.0430   35.7940 C   0  0  0  0  0
   73.9670   15.1650   34.9180 C   0  0  0  0  0
   73.1800   14.5940   33.7560 C   0  0  0  0  0
   72.1010   13.6080   34.2450 C   0  0  0  0  0
   71.4840   12.8840   33.0660 C   0  0  0  0  0
   75.1380   14.6160   36.9480 O   0  0  0  0  0
   75.0340   15.9520   34.3850 O   0  0  0  0  0
   72.5680   15.6860   33.0310 O   0  0  0  0  0
   72.6940   12.5820   35.0850 O   0  0  0  0  0
   70.1060   13.2210   32.9190 O   0  0  0  0  0
   72.8510   15.7260   31.6570 C   0  0  0  0  0
   73.5360   17.0630   31.3080 C   0  0  0  0  0
   72.5470   18.2100   31.5750 C   0  0  0  0  0
   71.2830   17.9800   30.7590 C   0  0  0  0  0
   70.6690   16.6070   31.0650 C   0  0  0  0  0
   69.5060   16.2870   30.1370 C   0  0  0  0  0
   74.7080   17.2260   32.1130 O   0  0  0  0  0
   73.1230   19.4620   31.1920 O   0  0  0  0  0
   70.3310   19.0170   31.0530 O   0  0  0  0  0
   71.6630   15.5660   30.8710 O   0  0  0  0  0
   68.2550   16.6000   30.7470 O   0  0  0  0  0
   69.8643   18.7519   29.1045 H   0  0  0  0  0
   69.4002   21.0711   28.6289 H   0  0  0  0  0
   69.8034   21.6958   31.5529 H   0  0  0  0  0
   67.1549   21.6347   30.1120 H   0  0  0  0  0
   68.0895   19.6384   32.1807 H   0  0  0  0  0
   65.6388   20.1578   32.0158 H   0  0  0  0  0
   66.0056   18.4975   31.4746 H   0  0  0  0  0
   71.6553   20.4819   28.9483 H   0  0  0  0  0
   70.0994   23.3673   29.9084 H   0  0  0  0  0
   64.6220   19.6324   29.9968 H   0  0  0  0  0
   66.3840   23.4231   30.9499 H   0  0  0  0  0
   65.5366   24.7972   32.7382 H   0  0  0  0  0
   66.6648   22.7874   34.7042 H   0  0  0  0  0
   63.7548   23.3072   34.0659 H   0  0  0  0  0
   65.3802   20.8358   33.3934 H   0  0  0  0  0
   62.9693   20.4648   33.7884 H   0  0  0  0  0
   63.2720   20.3936   32.0379 H   0  0  0  0  0
   67.5799   25.2483   33.8153 H   0  0  0  0  0
   65.4253   24.1707   36.1347 H   0  0  0  0  0
   61.4729   21.7588   32.5741 H   0  0  0  0  0
   62.4001   22.4544   35.3526 H   0  0  0  0  0
   62.2129   23.2340   37.6683 H   0  0  0  0  0
   65.0824   22.3649   37.9950 H   0  0  0  0  0
   62.6177   21.0978   39.2159 H   0  0  0  0  0
   64.4571   20.0130   37.0970 H   0  0  0  0  0
   61.9209   18.9375   38.3464 H   0  0  0  0  0
   63.5633   18.2296   38.4114 H   0  0  0  0  0
   63.8893   24.8436   37.5698 H   0  0  0  0  0
   64.5587   22.8258   40.2319 H   0  0  0  0  0
   62.2222   17.2338   36.8138 H   0  0  0  0  0
   63.0046   20.4998   40.9708 H   0  0  0  0  0
   64.4524   20.2945   42.9579 H   0  0  0  0  0
   66.6748   19.9796   40.9181 H   0  0  0  0  0
   65.5488   17.9269   42.8774 H   0  0  0  0  0
   65.5295   18.0304   39.8713 H   0  0  0  0  0
   65.4410   15.7518   40.9954 H   0  0  0  0  0
   64.1500   16.1334   39.8075 H   0  0  0  0  0
   65.7390   22.1759   42.5464 H   0  0  0  0  0
   67.9222   19.6146   42.8397 H   0  0  0  0  0
   63.3282   15.1914   41.7548 H   0  0  0  0  0
   67.3487   17.2354   43.7442 H   0  0  0  0  0
   69.5795   16.2260   43.7144 H   0  0  0  0  0
   69.4548   16.4801   40.6912 H   0  0  0  0  0
   69.3605   13.8888   42.2798 H   0  0  0  0  0
   67.2283   15.3063   40.6705 H   0  0  0  0  0
   66.0062   13.4494   42.3547 H   0  0  0  0  0
   67.4234   12.6073   41.6512 H   0  0  0  0  0
   70.7123   18.0070   42.7042 H   0  0  0  0  0
   71.4217   15.2322   40.9019 H   0  0  0  0  0
   65.5382   12.4642   40.3081 H   0  0  0  0  0
   69.3821   12.0655   40.9817 H   0  0  0  0  0
   71.8306   11.7449   40.7224 H   0  0  0  0  0
   71.7833   14.5101   39.4775 H   0  0  0  0  0
   72.4275   11.8518   38.1168 H   0  0  0  0  0
   70.0899   13.6943   37.7568 H   0  0  0  0  0
   70.6150   10.9236   36.6543 H   0  0  0  0  0
   70.4672   12.4536   35.7460 H   0  0  0  0  0
   72.4663   13.5065   42.0865 H   0  0  0  0  0
   74.0300   13.9891   39.0911 H   0  0  0  0  0
   68.5065   11.2085   35.7226 H   0  0  0  0  0
   73.8445   12.2122   36.7340 H   0  0  0  0  0
   75.2657   13.4807   35.2203 H   0  0  0  0  0
   73.3152   15.7782   35.5403 H   0  0  0  0  0
   73.8564   14.0427   33.1028 H   0  0  0  0  0
   71.3572   14.1857   34.7938 H   0  0  0  0  0
   71.5638   11.8103   33.2360 H   0  0  0  0  0
   72.0134   13.1792   32.1601 H   0  0  0  0  0
   75.8354   15.2168   36.6754 H   0  0  0  0  0
   74.6711   16.6522   33.8376 H   0  0  0  0  0
   69.7409   12.7496   32.1666 H   0  0  0  0  0
   73.5195   14.8972   31.4239 H   0  0  0  0  0
   73.8287   17.0708   30.2581 H   0  0  0  0  0
   72.3126   18.2336   32.6392 H   0  0  0  0  0
   71.5436   18.0051   29.7009 H   0  0  0  0  0
   70.3186   16.6425   32.0965 H   0  0  0  0  0
   69.5251   15.2207   29.9117 H   0  0  0  0  0
   69.6098   16.8849   29.2316 H   0  0  0  0  0
   75.1322   18.0588   31.8937 H   0  0  0  0  0
   72.4953   20.1677   31.3641 H   0  0  0  0  0
   67.5423   16.3881   30.1398 H   0  0  0  0  0
  1  2  1  0  0  0
  1 10  1  0  0  0
  1 86  1  0  0  0
  2  3  1  0  0  0
  2  7  1  0  0  0
  3  4  1  0  0  0
  3  8  1  0  0  0
  4  5  1  0  0  0
  4  9  1  0  0  0
  5  6  1  0  0  0
  5 10  1  0  0  0
  6 11  1  0  0  0
  9 12  1  0  0  0
 12 13  1  0  0  0
 12 21  1  0  0  0
 13 14  1  0  0  0
 13 18  1  0  0  0
 14 15  1  0  0  0
 14 19  1  0  0  0
 15 16  1  0  0  0
 15 20  1  0  0  0
 16 17  1  0  0  0
 16 21  1  0  0  0
 17 22  1  0  0  0
 20 23  1  0  0  0
 23 24  1  0  0  0
 23 32  1  0  0  0
 24 25  1  0  0  0
 24 29  1  0  0  0
 25 26  1  0  0  0
 25 30  1  0  0  0
 26 27  1  0  0  0
 26 31  1  0  0  0
 27 28  1  0  0  0
 27 32  1  0  0  0
 28 33  1  0  0  0
 31 34  1  0  0  0
 34 35  1  0  0  0
 34 43  1  0  0  0
 35 36  1  0  0  0
 35 40  1  0  0  0
 36 37  1  0  0  0
 36 41  1  0  0  0
 37 38  1  0  0  0
 37 42  1  0  0  0
 38 39  1  0  0  0
 38 43  1  0  0  0
 39 44  1  0  0  0
 42 45  1  0  0  0
 45 46  1  0  0  0
 45 54  1  0  0  0
 46 47  1  0  0  0
 46 51  1  0  0  0
 47 48  1  0  0  0
 47 52  1  0  0  0
 48 49  1  0  0  0
 48 53  1  0  0  0
 49 50  1  0  0  0
 49 54  1  0  0  0
 50 55  1  0  0  0
 53 56  1  0  0  0
 56 57  1  0  0  0
 56 65  1  0  0  0
 57 58  1  0  0  0
 57 62  1  0  0  0
 58 59  1  0  0  0
 58 63  1  0  0  0
 59 60  1  0  0  0
 59 64  1  0  0  0
 60 61  1  0  0  0
 60 65  1  0  0  0
 61 66  1  0  0  0
 64 67  1  0  0  0
 67 68  1  0  0  0
 67 76  1  0  0  0
 68 69  1  0  0  0
 68 73  1  0  0  0
 69 70  1  0  0  0
 69 74  1  0  0  0
 70 71  1  0  0  0
 70 75  1  0  0  0
 71 72  1  0  0  0
 71 76  1  0  0  0
 72 77  1  0  0  0
 75 78  1  0  0  0
 78 79  1  0  0  0
 78 87  1  0  0  0
 79 80  1  0  0  0
 79 84  1  0  0  0
 80 81  1  0  0  0
 80 85  1  0  0  0
 81 82  1  0  0  0
 81 86  1  0  0  0
 82 83  1  0  0  0
 82 87  1  0  0  0
 83 88  1  0  0  0
  1 89  1  0  0  0
  2 90  1  0  0  0
  3 91  1  0  0  0
  4 92  1  0  0  0
  5 93  1  0  0  0
  6 94  1  0  0  0
  6 95  1  0  0  0
  7 96  1  0  0  0
  8 97  1  0  0  0
 11 98  1  0  0  0
 12 99  1  0  0  0
 13100  1  0  0  0
 14101  1  0  0  0
 15102  1  0  0  0
 16103  1  0  0  0
 17104  1  0  0  0
 17105  1  0  0  0
 18106  1  0  0  0
 19107  1  0  0  0
 22108  1  0  0  0
 23109  1  0  0  0
 24110  1  0  0  0
 25111  1  0  0  0
 26112  1  0  0  0
 27113  1  0  0  0
 28114  1  0  0  0
 28115  1  0  0  0
 29116  1  0  0  0
 30117  1  0  0  0
 33118  1  0  0  0
 34119  1  0  0  0
 35120  1  0  0  0
 36121  1  0  0  0
 37122  1  0  0  0
 38123  1  0  0  0
 39124  1  0  0  0
 39125  1  0  0  0
 40126  1  0  0  0
 41127  1  0  0  0
 44128  1  0  0  0
 45129  1  0  0  0
 46130  1  0  0  0
 47131  1  0  0  0
 48132  1  0  0  0
 49133  1  0  0  0
 50134  1  0  0  0
 50135  1  0  0  0
 51136  1  0  0  0
 52137  1  0  0  0
 55138  1  0  0  0
 56139  1  0  0  0
 57140  1  0  0  0
 58141  1  0  0  0
 59142  1  0  0  0
 60143  1  0  0  0
 61144  1  0  0  0
 61145  1  0  0  0
 62146  1  0  0  0
 63147  1  0  0  0
 66148  1  0  0  0
 67149  1  0  0  0
 68150  1  0  0  0
 69151  1  0  0  0
 70152  1  0  0  0
 71153  1  0  0  0
 72154  1  0  0  0
 72155  1  0  0  0
 73156  1  0  0  0
 74157  1  0  0  0
 77158  1  0  0  0
 78159  1  0  0  0
 79160  1  0  0  0
 80161  1  0  0  0
 81162  1  0  0  0
 82163  1  0  0  0
 83164  1  0  0  0
 83165  1  0  0  0
 84166  1  0  0  0
 85167  1  0  0  0
 88168  1  0  0  0
M  END
$$$$
