5kcv_ligand
  -I-interpret- 

 58 63  0  0  0  0  0  0  0  0999 V2000
  -11.8930    0.2980  -16.4550 C   0  0  0  0  0
   -9.1840   -0.5250  -16.6760 C   0  0  0  0  0
  -14.3570    1.4180  -17.9730 C   0  0  0  0  0
  -11.5000   -0.9850  -16.1640 C   0  0  0  0  0
  -13.2720    0.6540  -16.2710 C   0  0  0  0  0
   -6.1760   -1.6000  -17.9510 C   0  0  0  0  0
   -7.9890   -2.9180  -12.1900 C   0  0  0  0  0
   -9.5550    0.7580  -17.0100 C   0  0  0  0  0
  -14.2180    0.0510  -17.3030 C   0  0  0  0  0
   -7.2180   -3.5430  -14.3360 C   0  0  0  0  0
  -10.1960   -1.3870  -16.2860 C   0  0  0  0  0
  -13.7510    1.9980  -16.7640 C   0  0  0  0  0
   -7.3110   -0.9210  -18.0130 C   0  0  0  0  0
  -13.6860    0.4550  -14.8870 N   0  3  0  0  0
  -10.8810    1.1590  -16.8810 C   0  0  0  0  0
   -7.9370   -1.0300  -16.8440 N   0  0  0  0  0
   -7.6680   -0.2610  -19.1180 N   0  0  0  0  0
   -6.8690   -0.2140  -20.1920 C   0  0  0  0  0
   -7.2740    0.5280  -21.2990 C   0  0  0  0  0
   -8.0920    1.6460  -21.0840 C   0  0  0  0  0
   -8.5130    2.4170  -22.1580 C   0  0  0  0  0
   -8.1070    2.1130  -23.4600 C   0  0  0  0  0
   -7.2890    1.0030  -23.6640 C   0  0  0  0  0
   -6.8670    0.2030  -22.6010 C   0  0  0  0  0
   -5.6510   -0.9070  -20.1540 C   0  0  0  0  0
   -5.3290   -1.6020  -18.9920 C   0  0  0  0  0
   -6.1080   -2.1820  -16.7480 N   0  0  0  0  0
   -7.1900   -1.8380  -16.0620 C   0  0  0  0  0
   -7.4430   -2.2410  -14.8010 C   0  0  0  0  0
   -7.9360   -1.3000  -13.9110 C   0  0  0  0  0
   -8.2000   -1.6030  -12.5930 C   0  0  0  0  0
   -7.4980   -3.8950  -13.0830 N   0  0  0  0  0
   -6.7500   -4.4500  -15.1850 N   0  0  0  0  0
  -15.3152    1.7703  -18.3550 H   0  0  0  0  0
  -13.9468    1.6108  -18.9643 H   0  0  0  0  0
  -12.2465   -1.7039  -15.8264 H   0  0  0  0  0
   -8.2080   -3.2005  -11.1603 H   0  0  0  0  0
   -8.8077    1.4617  -17.3766 H   0  0  0  0  0
  -13.9066   -0.8141  -17.8884 H   0  0  0  0  0
  -15.1067   -0.4898  -16.9778 H   0  0  0  0  0
   -9.9451   -2.4250  -16.0678 H   0  0  0  0  0
  -14.3790    2.5983  -16.1058 H   0  0  0  0  0
  -13.0199    2.7977  -16.8827 H   0  0  0  0  0
  -13.0031    0.8860  -14.2638 H   0  0  0  0  0
  -14.5996    0.8847  -14.7415 H   0  0  0  0  0
  -13.7438   -0.5443  -14.6910 H   0  0  0  0  0
  -11.1403    2.1897  -17.1230 H   0  0  0  0  0
   -8.3977    1.9100  -20.0716 H   0  0  0  0  0
   -9.1685    3.2703  -21.9839 H   0  0  0  0  0
   -8.4237    2.7317  -24.2996 H   0  0  0  0  0
   -6.9717    0.7541  -24.6767 H   0  0  0  0  0
   -6.2296   -0.6628  -22.7805 H   0  0  0  0  0
   -4.9758   -0.9017  -21.0097 H   0  0  0  0  0
   -4.3881   -2.1484  -18.9274 H   0  0  0  0  0
   -8.1211   -0.2860  -14.2656 H   0  0  0  0  0
   -8.5586   -0.8454  -11.8962 H   0  0  0  0  0
   -6.5618   -4.1925  -16.1538 H   0  0  0  0  0
   -6.5786   -5.4044  -14.8684 H   0  0  0  0  0
  4  1  4  0  0  0
  1  5  1  0  0  0
 15  1  4  0  0  0
  2  8  4  0  0  0
  2 11  4  0  0  0
 16  2  1  0  0  0
  9  3  1  0  0  0
 12  3  1  0  0  0
 11  4  4  0  0  0
  5  9  1  0  0  0
  5 12  1  0  0  0
  5 14  1  0  0  0
  6 13  4  0  0  0
  6 26  4  0  0  0
 27  6  4  0  0  0
  7 31  4  0  0  0
 32  7  4  0  0  0
  8 15  4  0  0  0
 29 10  4  0  0  0
 10 32  4  0  0  0
 10 33  1  0  0  0
 16 13  4  0  0  0
 13 17  4  0  0  0
 28 16  4  0  0  0
 17 18  4  0  0  0
 18 19  1  0  0  0
 25 18  4  0  0  0
 19 20  4  0  0  0
 19 24  4  0  0  0
 20 21  4  0  0  0
 21 22  4  0  0  0
 23 22  4  0  0  0
 24 23  4  0  0  0
 26 25  4  0  0  0
 28 27  4  0  0  0
 28 29  1  0  0  0
 29 30  4  0  0  0
 30 31  4  0  0  0
  3 34  1  0  0  0
  3 35  1  0  0  0
  4 36  1  0  0  0
  7 37  1  0  0  0
  8 38  1  0  0  0
  9 39  1  0  0  0
  9 40  1  0  0  0
 11 41  1  0  0  0
 12 42  1  0  0  0
 12 43  1  0  0  0
 14 44  1  0  0  0
 14 45  1  0  0  0
 14 46  1  0  0  0
 15 47  1  0  0  0
 20 48  1  0  0  0
 21 49  1  0  0  0
 22 50  1  0  0  0
 23 51  1  0  0  0
 24 52  1  0  0  0
 25 53  1  0  0  0
 26 54  1  0  0  0
 30 55  1  0  0  0
 31 56  1  0  0  0
 33 57  1  0  0  0
 33 58  1  0  0  0
M  END
$$$$
