3jzj_ligand
  -I-interpret- 

 88 91  0  0  0  0  0  0  0  0999 V2000
   -6.0420  -11.6920   22.0660 C   0  0  0  0  0
   -5.2600  -12.6370   21.1710 C   0  0  0  0  0
   -5.6700  -12.3930   19.7070 C   0  0  0  0  0
   -7.1690  -12.7090   19.5240 C   0  0  0  0  0
   -8.0380  -12.2100   20.6470 C   0  0  0  0  0
   -9.5270  -12.1680   20.3750 C   0  0  0  0  0
   -7.5200  -11.8330   21.8210 C   0  0  0  0  0
   -3.8390  -12.4280   21.3010 O   0  0  0  0  0
   -4.8460  -13.1240   18.7690 O   0  0  0  0  0
   -7.6040  -12.1590   18.2570 O   0  0  0  0  0
  -10.3360  -11.7450   21.4930 O   0  0  0  0  0
   -4.5980   -6.7660   23.9230 C   0  0  0  0  0
   -3.7890   -7.9900   24.3240 C   0  0  0  0  0
   -3.8910   -8.9920   23.1810 C   0  0  0  0  0
   -5.3420   -9.4350   23.0530 C   0  0  0  0  0
   -6.2490   -8.2080   22.9010 C   0  0  0  0  0
   -7.7240   -8.5720   23.1490 C   0  0  0  0  0
   -5.5310  -10.3080   21.8860 N   0  3  0  0  0
   -2.4350   -7.6590   24.6230 O   0  0  0  0  0
   -3.1000  -10.1810   23.3960 O   0  0  0  0  0
   -5.9650   -7.2100   23.8940 O   0  0  0  0  0
   -4.2140   -2.6780   20.4680 C   0  0  0  0  0
   -3.0140   -2.9620   21.3470 C   0  0  0  0  0
   -2.9370   -4.4540   21.6900 C   0  0  0  0  0
   -4.2280   -4.8550   22.3780 C   0  0  0  0  0
   -5.3940   -4.5070   21.4620 C   0  0  0  0  0
   -6.7320   -4.7780   22.1450 C   0  0  0  0  0
   -1.8450   -2.5070   20.6680 O   0  0  0  0  0
   -1.8450   -4.6210   22.5750 O   0  0  0  0  0
   -4.1280   -6.2500   22.6310 O   0  0  0  0  0
   -5.3850   -3.1160   21.1120 O   0  0  0  0  0
   -7.8250   -4.6390   21.1900 O   0  0  0  0  0
   -4.1030   -2.6350   15.1440 C   0  0  0  0  0
   -3.3320   -1.6570   15.9970 C   0  0  0  0  0
   -3.0410   -2.2360   17.3670 C   0  0  0  0  0
   -4.3590   -2.6120   18.0290 C   0  0  0  0  0
   -5.2370   -3.4850   17.1480 C   0  0  0  0  0
   -6.6510   -3.6990   17.7060 C   0  0  0  0  0
   -3.3370   -3.8050   15.0840 O   0  0  0  0  0
   -2.0960   -1.2480   15.3730 O   0  0  0  0  0
   -2.3730   -1.2460   18.1530 O   0  0  0  0  0
   -4.0600   -3.3850   19.2310 O   0  0  0  0  0
   -5.3640   -2.9470   15.7900 O   0  0  0  0  0
   -7.2850   -2.4180   17.6550 O   0  0  0  0  0
   -5.8939  -11.9503   23.1145 H   0  0  0  0  0
   -5.4856  -13.6604   21.4708 H   0  0  0  0  0
   -5.5052  -11.3389   19.4839 H   0  0  0  0  0
   -7.2800  -13.7933   19.5361 H   0  0  0  0  0
   -9.8325  -13.1854   20.1309 H   0  0  0  0  0
   -9.6824  -11.4398   19.5790 H   0  0  0  0  0
   -8.2033  -11.6168   22.6423 H   0  0  0  0  0
   -3.5766  -12.5786   22.2121 H   0  0  0  0  0
   -3.9235  -12.9013   18.9140 H   0  0  0  0  0
   -7.0381  -12.4888   17.5551 H   0  0  0  0  0
  -11.2610  -11.7467   21.2360 H   0  0  0  0  0
   -4.4899   -5.9334   24.6181 H   0  0  0  0  0
   -4.1892   -8.4224   25.2410 H   0  0  0  0  0
   -3.5198   -8.4912   22.2869 H   0  0  0  0  0
   -5.6017   -9.9892   23.9550 H   0  0  0  0  0
   -6.0694   -7.8446   21.8892 H   0  0  0  0  0
   -8.0365   -9.3277   22.4283 H   0  0  0  0  0
   -7.8351   -8.9642   24.1599 H   0  0  0  0  0
   -8.3411   -7.6809   23.0338 H   0  0  0  0  0
   -6.2499   -9.8413   21.3330 H   0  0  0  0  0
   -4.5926  -10.4308   21.5055 H   0  0  0  0  0
   -1.9593   -8.4552   24.8707 H   0  0  0  0  0
   -3.2033  -10.7725   22.6470 H   0  0  0  0  0
   -4.2866   -1.6070   20.2789 H   0  0  0  0  0
   -3.1020   -2.4307   22.2947 H   0  0  0  0  0
   -2.8019   -5.0690   20.8003 H   0  0  0  0  0
   -4.3953   -4.3307   23.3189 H   0  0  0  0  0
   -5.2785   -5.1288   20.5742 H   0  0  0  0  0
   -6.8714   -4.0592   22.9525 H   0  0  0  0  0
   -6.7309   -5.7942   22.5392 H   0  0  0  0  0
   -1.0729   -2.6794   21.2119 H   0  0  0  0  0
   -1.7659   -5.5478   22.8125 H   0  0  0  0  0
   -8.6591   -4.8120   21.6326 H   0  0  0  0  0
   -4.2963   -2.2225   14.1538 H   0  0  0  0  0
   -3.9655   -0.7768   16.1070 H   0  0  0  0  0
   -2.4097   -3.1204   17.2807 H   0  0  0  0  0
   -4.8926   -1.6844   18.2362 H   0  0  0  0  0
   -4.7221   -4.4455   17.1276 H   0  0  0  0  0
   -6.6221   -4.0881   18.7238 H   0  0  0  0  0
   -7.2007   -4.4382   17.1233 H   0  0  0  0  0
   -3.7933   -4.4577   14.5479 H   0  0  0  0  0
   -1.6389   -0.6286   15.9466 H   0  0  0  0  0
   -2.1843   -1.6040   19.0235 H   0  0  0  0  0
   -8.1799   -2.4914   17.9946 H   0  0  0  0  0
  1  2  1  0  0  0
  1  7  1  0  0  0
 18  1  1  0  0  0
  2  3  1  0  0  0
  2  8  1  0  0  0
  3  4  1  0  0  0
  3  9  1  0  0  0
  5  4  1  0  0  0
  4 10  1  0  0  0
  5  6  1  0  0  0
  7  5  2  0  0  0
  6 11  1  0  0  0
 12 13  1  0  0  0
 12 21  1  0  0  0
 30 12  1  0  0  0
 13 14  1  0  0  0
 13 19  1  0  0  0
 14 15  1  0  0  0
 14 20  1  0  0  0
 16 15  1  0  0  0
 15 18  1  0  0  0
 16 17  1  0  0  0
 21 16  1  0  0  0
 22 23  1  0  0  0
 22 31  1  0  0  0
 42 22  1  0  0  0
 23 24  1  0  0  0
 23 28  1  0  0  0
 24 25  1  0  0  0
 24 29  1  0  0  0
 26 25  1  0  0  0
 25 30  1  0  0  0
 26 27  1  0  0  0
 31 26  1  0  0  0
 27 32  1  0  0  0
 34 33  1  0  0  0
 33 39  1  0  0  0
 33 43  1  0  0  0
 35 34  1  0  0  0
 34 40  1  0  0  0
 36 35  1  0  0  0
 35 41  1  0  0  0
 36 37  1  0  0  0
 36 42  1  0  0  0
 37 38  1  0  0  0
 37 43  1  0  0  0
 38 44  1  0  0  0
  1 45  1  0  0  0
  2 46  1  0  0  0
  3 47  1  0  0  0
  4 48  1  0  0  0
  6 49  1  0  0  0
  6 50  1  0  0  0
  7 51  1  0  0  0
  8 52  1  0  0  0
  9 53  1  0  0  0
 10 54  1  0  0  0
 11 55  1  0  0  0
 12 56  1  0  0  0
 13 57  1  0  0  0
 14 58  1  0  0  0
 15 59  1  0  0  0
 16 60  1  0  0  0
 17 61  1  0  0  0
 17 62  1  0  0  0
 17 63  1  0  0  0
 18 64  1  0  0  0
 18 65  1  0  0  0
 19 66  1  0  0  0
 20 67  1  0  0  0
 22 68  1  0  0  0
 23 69  1  0  0  0
 24 70  1  0  0  0
 25 71  1  0  0  0
 26 72  1  0  0  0
 27 73  1  0  0  0
 27 74  1  0  0  0
 28 75  1  0  0  0
 29 76  1  0  0  0
 32 77  1  0  0  0
 33 78  1  0  0  0
 34 79  1  0  0  0
 35 80  1  0  0  0
 36 81  1  0  0  0
 37 82  1  0  0  0
 38 83  1  0  0  0
 38 84  1  0  0  0
 39 85  1  0  0  0
 40 86  1  0  0  0
 41 87  1  0  0  0
 44 88  1  0  0  0
M  END
$$$$
