2zdl_ligand
  -I-interpret- 

 55 57  0  0  0  0  0  0  0  0999 V2000
  -27.1140    1.2500   17.3120 O   0  0  0  0  0
  -28.2890    1.2680   16.9750 C   0  0  0  0  0
  -29.2010    1.5240   18.1660 C   0  0  0  0  0
  -30.2100    0.5790   18.2950 O   0  0  0  0  0
  -30.4210   -0.5130   19.1540 C   0  0  0  0  0
  -29.0460   -1.2220   19.2190 C   0  0  0  0  0
  -29.2770   -2.6990   19.5300 C   0  0  0  0  0
  -30.7170   -2.9980   19.2280 C   0  0  0  0  0
  -31.2390   -1.7150   18.5130 C   0  0  0  0  0
  -28.6000    1.0760   15.6800 N   0  0  0  0  0
  -27.6310    0.5370   14.7420 C   0  0  0  0  0
  -28.4420    0.4190   13.4560 C   0  0  0  0  0
  -29.8100    1.0510   13.6610 C   0  0  0  0  0
  -30.0450    1.0760   15.1600 C   0  0  0  0  0
  -26.5880    1.6070   14.5670 C   0  0  0  0  0
  -26.7650    2.7840   14.8010 O   0  0  0  0  0
  -25.4480    1.1950   14.0890 N   0  0  0  0  0
  -24.3670    2.0320   13.5620 C   0  0  0  0  0
  -23.2710    1.8660   14.6350 C   0  0  0  0  0
  -22.0060    1.3780   14.3650 C   0  0  0  0  0
  -20.9680    1.2070   15.3150 C   0  0  0  0  0
  -21.0350    1.4970   16.6720 C   0  0  0  0  0
  -19.8770    1.2890   17.6450 C   0  0  0  0  0
  -19.0610    0.2870   17.3180 N   0  0  0  0  0
  -19.7140    2.0500   18.7200 N   0  0  0  0  0
  -22.2870    1.9780   16.9340 C   0  0  0  0  0
  -23.3580    2.1610   15.9910 C   0  0  0  0  0
  -29.6743    2.4945   18.0171 H   0  0  0  0  0
  -28.5888    1.4787   19.0667 H   0  0  0  0  0
  -30.9012   -0.1118   20.0465 H   0  0  0  0  0
  -28.4305   -0.7698   19.9966 H   0  0  0  0  0
  -28.5287   -1.1190   18.2651 H   0  0  0  0  0
  -29.0528   -2.9101   20.5756 H   0  0  0  0  0
  -28.6206   -3.3251   18.9257 H   0  0  0  0  0
  -31.2858   -3.2236   20.1300 H   0  0  0  0  0
  -30.8286   -3.8866   18.6067 H   0  0  0  0  0
  -31.0915   -1.7695   17.4344 H   0  0  0  0  0
  -32.3126   -1.5878   18.6519 H   0  0  0  0  0
  -27.1590   -0.4009   15.0348 H   0  0  0  0  0
  -28.5624   -0.6329   13.1971 H   0  0  0  0  0
  -27.9208    0.9336   12.6488 H   0  0  0  0  0
  -30.5865    0.4808   13.1511 H   0  0  0  0  0
  -29.8452    2.0563   13.2411 H   0  0  0  0  0
  -30.6374    1.9252   15.5005 H   0  0  0  0  0
  -30.6470    0.2447   15.5271 H   0  0  0  0  0
  -25.2922    0.1870   14.0809 H   0  0  0  0  0
  -24.6636    3.0696   13.4083 H   0  0  0  0  0
  -24.0406    1.7344   12.5655 H   0  0  0  0  0
  -21.7882    1.1011   13.3335 H   0  0  0  0  0
  -20.0237    0.8085   14.9441 H   0  0  0  0  0
  -18.2580    0.0698   17.9083 H   0  0  0  0  0
  -19.2395   -0.2625   16.4775 H   0  0  0  0  0
  -20.3742    2.8021   18.9173 H   0  0  0  0  0
  -22.4966    2.2523   17.9679 H   0  0  0  0  0
  -24.3018    2.5579   16.3650 H   0  0  0  0  0
  1  2  2  0  0  0
  2  3  1  0  0  0
  2 10  1  0  0  0
  3  4  1  0  0  0
  4  5  1  0  0  0
  5  6  1  0  0  0
  5  9  1  0  0  0
  6  7  1  0  0  0
  7  8  1  0  0  0
  8  9  1  0  0  0
 10 11  1  0  0  0
 10 14  1  0  0  0
 11 12  1  0  0  0
 11 15  1  0  0  0
 12 13  1  0  0  0
 13 14  1  0  0  0
 15 16  2  0  0  0
 15 17  1  0  0  0
 17 18  1  0  0  0
 18 19  1  0  0  0
 19 20  4  0  0  0
 19 27  4  0  0  0
 20 21  4  0  0  0
 21 22  4  0  0  0
 22 23  1  0  0  0
 22 26  4  0  0  0
 23 24  1  0  0  0
 23 25  2  0  0  0
 26 27  4  0  0  0
  3 28  1  0  0  0
  3 29  1  0  0  0
  5 30  1  0  0  0
  6 31  1  0  0  0
  6 32  1  0  0  0
  7 33  1  0  0  0
  7 34  1  0  0  0
  8 35  1  0  0  0
  8 36  1  0  0  0
  9 37  1  0  0  0
  9 38  1  0  0  0
 11 39  1  0  0  0
 12 40  1  0  0  0
 12 41  1  0  0  0
 13 42  1  0  0  0
 13 43  1  0  0  0
 14 44  1  0  0  0
 14 45  1  0  0  0
 17 46  1  0  0  0
 18 47  1  0  0  0
 18 48  1  0  0  0
 20 49  1  0  0  0
 21 50  1  0  0  0
 24 51  1  0  0  0
 24 52  1  0  0  0
 25 53  1  0  0  0
 26 54  1  0  0  0
 27 55  1  0  0  0
M  END
$$$$
