5lca_ligand
  -I-interpret- 

 33 35  0  0  0  0  0  0  0  0999 V2000
  -12.1370   26.1900  -20.4680 O   0  0  0  0  0
  -11.6180   25.3040  -19.7370 C   0  0  0  0  0
  -11.6250   24.1000  -20.1030 O   0  0  0  0  0
  -10.9780   25.7410  -18.4230 C   0  0  0  0  0
  -11.7170   25.8100  -17.2480 C   0  0  0  0  0
  -11.1100   26.2330  -16.0620 C   0  0  0  0  0
   -9.7650   26.5860  -16.0520 C   0  0  0  0  0
   -9.0200   26.5190  -17.2390 C   0  0  0  0  0
   -7.5500   26.8320  -17.5530 C   0  0  0  0  0
   -7.3300   26.5630  -18.9530 N   0  0  0  0  0
   -8.5760   26.1240  -19.5350 C   0  0  0  0  0
   -8.7640   25.8250  -20.6650 O   0  0  0  0  0
   -9.6250   26.0990  -18.4140 C   0  0  0  0  0
   -6.0940   26.7840  -19.6620 C   0  0  0  0  0
   -4.8790   26.8360  -19.0030 C   0  0  0  0  0
   -3.7230   27.0980  -19.7240 C   0  0  0  0  0
   -3.7880   27.3290  -21.0890 C   0  0  0  0  0
   -5.0110   27.2990  -21.7410 C   0  0  0  0  0
   -6.1630   27.0400  -21.0220 C   0  0  0  0  0
   -5.1050   27.5650  -23.2430 C   0  0  0  0  0
   -3.8950   27.3300  -23.8310 F   0  0  0  0  0
   -5.4690   28.8660  -23.4420 F   0  0  0  0  0
   -6.0610   26.7750  -23.8070 F   0  0  0  0  0
  -12.0463   27.0465  -20.0441 H   0  0  0  0  0
  -12.7714   25.5339  -17.2513 H   0  0  0  0  0
  -11.6927   26.2863  -15.1423 H   0  0  0  0  0
   -9.2917   26.9132  -15.1263 H   0  0  0  0  0
   -6.8929   26.2136  -16.9415 H   0  0  0  0  0
   -7.3297   27.8759  -17.3295 H   0  0  0  0  0
   -4.8302   26.6725  -17.9264 H   0  0  0  0  0
   -2.7596   27.1223  -19.2148 H   0  0  0  0  0
   -2.8766   27.5345  -21.6504 H   0  0  0  0  0
   -7.1291   27.0372  -21.5268 H   0  0  0  0  0
  1  2  1  0  0  0
  2  3  2  0  0  0
  2  4  1  0  0  0
  4  5  4  0  0  0
  4 13  4  0  0  0
  5  6  4  0  0  0
  6  7  4  0  0  0
  7  8  4  0  0  0
  8  9  1  0  0  0
  8 13  4  0  0  0
  9 10  1  0  0  0
 10 11  1  0  0  0
 10 14  1  0  0  0
 11 12  2  0  0  0
 11 13  1  0  0  0
 14 15  4  0  0  0
 14 19  4  0  0  0
 15 16  4  0  0  0
 16 17  4  0  0  0
 17 18  4  0  0  0
 18 19  4  0  0  0
 18 20  1  0  0  0
 20 21  1  0  0  0
 20 22  1  0  0  0
 20 23  1  0  0  0
  1 24  1  0  0  0
  5 25  1  0  0  0
  6 26  1  0  0  0
  7 27  1  0  0  0
  9 28  1  0  0  0
  9 29  1  0  0  0
 15 30  1  0  0  0
 16 31  1  0  0  0
 17 32  1  0  0  0
 19 33  1  0  0  0
M  END
$$$$
