3p3h_ligand
  -I-interpret- 

 35 45  0  0  0  0  0  0  0  0999 V2000
   15.0790    6.3660   15.1080 C   0  0  0  0  0
   14.9490    5.2840   15.9790 C   0  0  0  0  0
   15.5330    4.0560   15.6660 C   0  0  0  0  0
   16.1580    3.8810   14.4300 C   0  0  0  0  0
   16.2640    4.9660   13.5560 C   0  0  0  0  0
   15.7340    6.2270   13.8860 C   0  0  0  0  0
   15.2760    2.7560   16.7890 S   0  0  0  0  0
   13.7800    2.7740   16.8210 O   0  0  0  0  0
   15.8910    3.0060   18.0960 O   0  0  0  0  0
   15.8270    1.4140   16.1750 N   0  0  0  0  0
   15.8070    7.2890   13.0530 N   0  0  0  0  0
   16.9080    7.8420   12.5600 C   0  0  0  0  0
   16.4690    8.8310   11.7840 C   0  0  0  0  0
   19.1470   10.8100   13.2560 C   0  0  0  0  0
   15.1330    8.7920   11.8540 N   0  0  0  0  0
   19.2470   10.4910   14.5470 C   0  0  0  0  0
   14.8040    7.8680   12.6100 N   0  0  0  0  0
   20.5080   10.1510   14.7870 C   0  0  0  0  0
   21.1900   10.2510   13.6460 C   0  0  0  0  0
   20.3460   10.6590   12.7000 C   0  0  0  0  0
   18.2260    7.4690   12.8190 C   0  0  0  0  0
   18.7280    7.1650   14.0150 C   0  0  0  0  0
   20.0100    6.8450   13.8610 C   0  0  0  0  0
   20.3070    6.9430   12.5640 C   0  0  0  0  0
   19.2020    7.3200   11.9220 C   0  0  0  0  0
   19.7170    8.7600   13.4940 Fe  0  0  0  0  0
   14.6623    7.3337   15.3873 H   0  0  0  0  0
   14.3893    5.3983   16.9073 H   0  0  0  0  0
   16.5595    2.9072   14.1494 H   0  0  0  0  0
   16.7677    4.8328   12.5986 H   0  0  0  0  0
   15.1779    0.6929   15.8602 H   0  0  0  0  0
   16.8328    1.2662   16.0923 H   0  0  0  0  0
   17.0750    9.5307   11.2083 H   0  0  0  0  0
   20.6628   11.2674   11.8529 H   0  0  0  0  0
   19.0172    7.0503   10.8822 H   0  0  0  0  0
  1  2  4  0  0  0
  6  1  4  0  0  0
  2  3  4  0  0  0
  4  3  4  0  0  0
  3  7  1  0  0  0
  5  4  4  0  0  0
  6  5  4  0  0  0
 11  6  1  0  0  0
  7  8  2  0  0  0
  7  9  2  0  0  0
  7 10  1  0  0  0
 12 11  4  0  0  0
 11 17  4  0  0  0
 12 13  4  0  0  0
 21 12  1  0  0  0
 13 15  4  0  0  0
 16 14  2  0  0  0
 20 14  1  0  0  0
 15 17  4  0  0  0
 18 16  1  0  0  0
 19 18  2  0  0  0
 20 19  1  0  0  0
 22 21  2  0  0  0
 21 25  1  0  0  0
 22 23  1  0  0  0
 23 24  2  0  0  0
 24 25  1  0  0  0
 26 14  1  0  0  0
 26 16  1  0  0  0
 26 18  1  0  0  0
 26 19  1  0  0  0
 26 20  1  0  0  0
 26 22  1  0  0  0
 26 23  1  0  0  0
 26 24  1  0  0  0
 26 25  1  0  0  0
  1 27  1  0  0  0
  2 28  1  0  0  0
  4 29  1  0  0  0
  5 30  1  0  0  0
 10 31  1  0  0  0
 10 32  1  0  0  0
 13 33  1  0  0  0
 20 34  1  0  0  0
 25 35  1  0  0  0
M  END
$$$$
