### 
### Created by X-TOOL on Mon Sep 10 21:13:06 2018
### 

@<TRIPOS>MOLECULE
3p3h_ligand
   35    45     1     0     0
SMALL
GAST_HUCK


@<TRIPOS>ATOM
      1 C1         15.0790    6.3660   15.1080 C.ar      1 84A        -0.0226
      2 C2         14.9490    5.2840   15.9790 C.ar      1 84A        -0.0387
      3 C3         15.5330    4.0560   15.6660 C.ar      1 84A         0.1014
      4 C4         16.1580    3.8810   14.4300 C.ar      1 84A        -0.0387
      5 C5         16.2640    4.9660   13.5560 C.ar      1 84A        -0.0226
      6 C6         15.7340    6.2270   13.8860 C.ar      1 84A         0.1179
      7 S7         15.2760    2.7560   16.7890 S.o2      1 84A         0.0630
      8 O8         13.7800    2.7740   16.8210 O.2       1 84A        -0.1513
      9 O9         15.8910    3.0060   18.0960 O.2       1 84A        -0.1513
     10 N10        15.8270    1.4140   16.1750 N.am      1 84A        -0.2616
     11 N11        15.8070    7.2890   13.0530 N.pl3     1 84A        -0.1259
     12 C12        16.9080    7.8420   12.5600 C.2       1 84A         0.1256
     13 C13        16.4690    8.8310   11.7840 C.2       1 84A         0.0310
     14 C14        19.1470   10.8100   13.2560 C.2       1 84A        -0.0183
     15 N14        15.1330    8.7920   11.8540 N.2       1 84A        -0.2262
     16 C15        19.2470   10.4910   14.5470 C.2       1 84A        -0.0482
     17 N15        14.8040    7.8680   12.6100 N.2       1 84A        -0.0860
     18 C16        20.5080   10.1510   14.7870 C.2       1 84A        -0.0482
     19 C17        21.1900   10.2510   13.6460 C.2       1 84A        -0.0183
     20 C18        20.3460   10.6590   12.7000 C.3       1 84A         0.0501
     21 C19        18.2260    7.4690   12.8190 C.2       1 84A         0.0161
     22 C20        18.7280    7.1650   14.0150 C.2       1 84A        -0.0387
     23 C21        20.0100    6.8450   13.8610 C.2       1 84A        -0.0399
     24 C22        20.3070    6.9430   12.5640 C.2       1 84A        -0.0124
     25 C23        19.2020    7.3200   11.9220 C.3       1 84A         0.0543
     26 FE1        19.7170    8.7600   13.4940 Fe        1 84A         3.0000
     27 H          14.6623    7.3337   15.3873 H         1 84A         0.0591
     28 H          14.3893    5.3983   16.9073 H         1 84A         0.0620
     29 H          16.5595    2.9072   14.1494 H         1 84A         0.0620
     30 H          16.7677    4.8328   12.5986 H         1 84A         0.0591
     31 H          15.1779    0.6929   15.8602 H         1 84A         0.1634
     32 H          16.8328    1.2662   16.0923 H         1 84A         0.1634
     33 H          17.0750    9.5307   11.2083 H         1 84A         0.0567
     34 H          20.6628   11.2674   11.8529 H         1 84A         0.0829
     35 H          19.0172    7.0503   10.8822 H         1 84A         0.0810
@<TRIPOS>BOND
     1    1    2 ar 
     2    6    1 ar 
     3    2    3 ar 
     4    4    3 ar 
     5    3    7 1  
     6    5    4 ar 
     7    6    5 ar 
     8   11    6 1  
     9    7    8 2  
    10    7    9 2  
    11    7   10 am 
    12   12   11 1  
    13   11   17 1  
    14   12   13 2  
    15   21   12 1  
    16   13   15 1  
    17   16   14 2  
    18   20   14 1  
    19   15   17 2  
    20   18   16 1  
    21   19   18 2  
    22   20   19 1  
    23   22   21 2  
    24   21   25 1  
    25   22   23 1  
    26   23   24 2  
    27   24   25 1  
    28   26   14 1  
    29   26   16 1  
    30   26   18 1  
    31   26   19 1  
    32   26   20 1  
    33   26   22 1  
    34   26   23 1  
    35   26   24 1  
    36   26   25 1  
    37    1   27 1  
    38    2   28 1  
    39    4   29 1  
    40    5   30 1  
    41   10   31 1  
    42   10   32 1  
    43   13   33 1  
    44   20   34 1  
    45   25   35 1  
@<TRIPOS>SUBSTRUCTURE
     1 84A         1

