4eke_ligand
  -I-interpret- 

 52 54  0  0  0  0  0  0  0  0999 V2000
   34.0200   23.6700   28.7350 N   0  0  0  0  0
   33.2910   24.1980   29.7450 C   0  0  0  0  0
   32.0630   24.1480   29.7990 O   0  0  0  0  0
   33.8990   24.9500   30.7170 N   0  0  0  0  0
   35.3310   24.8250   30.7920 C   0  0  0  0  0
   36.0440   24.4570   29.6610 C   0  0  0  0  0
   36.0380   25.7220   31.5790 O   0  0  0  0  0
   35.4380   23.7520   28.7040 C   0  0  0  0  0
   37.3090   24.7000   30.0110 C   0  0  0  0  0
   37.3120   25.4490   31.1540 C   0  0  0  0  0
   38.6270   25.9820   31.8180 C   0  0  0  0  0
   33.2750   22.8820   27.7560 C   0  0  0  0  0
   38.5290   27.5060   32.2400 C   0  0  0  0  0
   38.6750   27.7410   33.7750 C   0  0  0  0  0
   39.6980   26.7960   34.4580 C   0  0  0  0  0
   40.0800   27.3380   35.8490 C   0  0  0  0  0
   33.6900   23.0390   26.3120 C   0  0  0  0  0
   33.9220   24.4180   25.9970 O   0  0  0  0  0
   32.5590   22.4200   25.4650 C   0  0  0  0  0
   32.9110   22.3730   24.1090 O   0  0  0  0  0
   32.3220   20.9940   25.9170 C   0  0  0  0  0
   31.1980   20.4600   25.2050 O   0  0  0  0  0
   32.1250   20.8660   27.4440 C   0  0  0  0  0
   33.2190   21.4640   28.1430 O   0  0  0  0  0
   32.1580   19.4050   27.8750 C   0  0  0  0  0
   33.2000   18.6870   27.2470 O   0  0  0  0  0
   33.3720   25.5572   31.3447 H   0  0  0  0  0
   35.6785   24.2626   27.7715 H   0  0  0  0  0
   35.7904   22.7284   28.8309 H   0  0  0  0  0
   38.1935   24.3576   29.4738 H   0  0  0  0  0
   39.4306   25.8893   31.0875 H   0  0  0  0  0
   38.8057   25.3970   32.7202 H   0  0  0  0  0
   32.2739   23.3121   27.7864 H   0  0  0  0  0
   37.5413   27.8626   31.9478 H   0  0  0  0  0
   39.3472   28.0336   31.7498 H   0  0  0  0  0
   37.7022   27.5487   34.2274 H   0  0  0  0  0
   39.0310   28.7616   33.9153 H   0  0  0  0  0
   40.5944   26.7359   33.8408 H   0  0  0  0  0
   39.2503   25.8087   34.5712 H   0  0  0  0  0
   40.5244   28.3276   35.7425 H   0  0  0  0  0
   39.1864   27.4046   36.4696 H   0  0  0  0  0
   40.7984   26.6639   36.3154 H   0  0  0  0  0
   34.6314   22.5306   26.1038 H   0  0  0  0  0
   34.1841   24.4951   25.0767 H   0  0  0  0  0
   31.6694   23.0366   25.5938 H   0  0  0  0  0
   32.1915   21.9845   23.6061 H   0  0  0  0  0
   33.2179   20.4171   25.6876 H   0  0  0  0  0
   31.0423   19.5557   25.4870 H   0  0  0  0  0
   31.1714   21.3432   27.6697 H   0  0  0  0  0
   31.2109   18.9461   27.5912 H   0  0  0  0  0
   32.3247   19.3726   28.9517 H   0  0  0  0  0
   33.1840   17.7749   27.5460 H   0  0  0  0  0
  1  2  1  0  0  0
  1  8  1  0  0  0
  1 12  1  0  0  0
  2  3  2  0  0  0
  2  4  1  0  0  0
  4  5  1  0  0  0
  5  6  4  0  0  0
  5  7  4  0  0  0
  6  8  1  0  0  0
  6  9  4  0  0  0
  7 10  4  0  0  0
  9 10  4  0  0  0
 10 11  1  0  0  0
 11 13  1  0  0  0
 12 17  1  0  0  0
 12 24  1  0  0  0
 13 14  1  0  0  0
 14 15  1  0  0  0
 15 16  1  0  0  0
 17 18  1  0  0  0
 17 19  1  0  0  0
 19 20  1  0  0  0
 19 21  1  0  0  0
 21 22  1  0  0  0
 21 23  1  0  0  0
 23 24  1  0  0  0
 23 25  1  0  0  0
 25 26  1  0  0  0
  4 27  1  0  0  0
  8 28  1  0  0  0
  8 29  1  0  0  0
  9 30  1  0  0  0
 11 31  1  0  0  0
 11 32  1  0  0  0
 12 33  1  0  0  0
 13 34  1  0  0  0
 13 35  1  0  0  0
 14 36  1  0  0  0
 14 37  1  0  0  0
 15 38  1  0  0  0
 15 39  1  0  0  0
 16 40  1  0  0  0
 16 41  1  0  0  0
 16 42  1  0  0  0
 17 43  1  0  0  0
 18 44  1  0  0  0
 19 45  1  0  0  0
 20 46  1  0  0  0
 21 47  1  0  0  0
 22 48  1  0  0  0
 23 49  1  0  0  0
 25 50  1  0  0  0
 25 51  1  0  0  0
 26 52  1  0  0  0
M  END
$$$$
