### 
### Created by X-TOOL on Mon Sep 10 21:13:12 2018
### 

@<TRIPOS>MOLECULE
4jg0_ligand
  127   127     1     0     0
SMALL
GAST_HUCK


@<TRIPOS>ATOM
      1 N          -3.6210   39.9750    4.8050 N.4       1 LYS         0.2379
      2 CA         -4.3420   38.7010    4.5300 C.3       1 LYS         0.0650
      3 C          -3.5410   37.8470    3.5590 C.2       1 LYS         0.2265
      4 O          -3.7710   37.8840    2.3530 O.2       1 LYS        -0.3907
      5 CB         -5.7310   38.9910    3.9570 C.3       1 LYS         0.0080
      6 CG         -6.6020   39.8690    4.8470 C.3       1 LYS        -0.0410
      7 CD         -7.8790   40.3020    4.1360 C.3       1 LYS        -0.0123
      8 CE         -8.7060   41.2450    5.0020 C.3       1 LYS        -0.0354
      9 NZ         -9.9090   41.7730    4.2930 N.4       1 LYS         0.2185
     10 N          -2.6010   37.0720    4.0890 N.am      1 GLY        -0.2637
     11 CA         -1.6730   36.3420    3.2490 C.3       1 GLY         0.1202
     12 C          -0.8550   37.3460    2.4640 C.2       1 GLY         0.2009
     13 O          -0.7850   37.2880    1.2380 O.2       1 GLY        -0.3947
     14 N          -0.2390   38.2760    3.1860 N.am      1 ASN        -0.2618
     15 CA          0.4750   39.3820    2.5650 C.3       1 ASN         0.1476
     16 C           1.9510   39.0910    2.3430 C.2       1 ASN         0.2064
     17 O           2.7620   40.0160    2.3090 O.2       1 ASN        -0.3942
     18 CB          0.3310   40.6470    3.4220 C.3       1 ASN         0.0773
     19 CG          1.0390   40.5290    4.7620 C.2       1 ASN         0.1780
     20 OD1         1.4820   39.4500    5.1510 O.2       1 ASN        -0.3970
     21 ND2         1.1400   41.6430    5.4780 N.am      1 ASN        -0.3007
     22 N           2.3140   37.8180    2.1930 N.am      1 TYR        -0.2620
     23 CA          3.7190   37.4890    1.9610 C.3       1 TYR         0.1390
     24 C           3.9750   36.2840    1.0550 C.2       1 TYR         0.2057
     25 O           3.1350   35.3970    0.8990 O.2       1 TYR        -0.3942
     26 CB          4.4670   37.3270    3.2890 C.3       1 TYR         0.0163
     27 CG          4.1180   36.0940    4.1000 C.ar      1 TYR        -0.0493
     28 CD1         4.7310   34.8760    3.8480 C.ar      1 TYR        -0.0685
     29 CD2         3.2060   36.1600    5.1460 C.ar      1 TYR        -0.0685
     30 CE1         4.4310   33.7530    4.6000 C.ar      1 TYR        -0.0398
     31 CE2         2.8990   35.0410    5.9030 C.ar      1 TYR        -0.0398
     32 CZ          3.5160   33.8420    5.6250 C.ar      1 TYR         0.0805
     33 OH          3.2200   32.7290    6.3770 O.3       1 TYR        -0.3376
     34 N           5.1600   36.2890    0.4570 N.am      1 VAL        -0.2633
     35 CA          5.5980   35.2400   -0.4510 C.3       1 VAL         0.1333
     36 C           6.7170   34.4330    0.1960 C.2       1 VAL         0.2042
     37 O           7.6290   35.0000    0.8110 O.2       1 VAL        -0.3944
     38 CB          6.1040   35.8500   -1.7790 C.3       1 VAL        -0.0063
     39 CG1         6.7900   34.8010   -2.6430 C.3       1 VAL        -0.0584
     40 CG2         4.9540   36.5000   -2.5310 C.3       1 VAL        -0.0584
     41 N           6.6270   33.1110    0.0760 N.am      1 VAL        -0.2635
     42 CA          7.6970   32.2210    0.5160 C.3       1 VAL         0.1333
     43 C           8.4360   31.6740   -0.7040 C.2       1 VAL         0.2042
     44 O           9.6470   31.8330   -0.8250 O.2       1 VAL        -0.3944
     45 CB          7.1520   31.0670    1.3790 C.3       1 VAL        -0.0063
     46 CG1         8.2490   30.0660    1.7070 C.3       1 VAL        -0.0584
     47 CG2         6.5420   31.6240    2.6560 C.3       1 VAL        -0.0584
     48 N           7.6950   31.0420   -1.6070 N.am      1 THR        -0.2613
     49 CA          8.2610   30.5560   -2.8640 C.3       1 THR         0.1564
     50 C           8.0430   31.6090   -3.9470 C.2       1 THR         0.2060
     51 O           6.9090   31.8930   -4.3230 O.2       1 THR        -0.3943
     52 CB          7.6110   29.2250   -3.2800 C.3       1 THR         0.0924
     53 OG1         7.8460   28.2460   -2.2630 O.3       1 THR        -0.3874
     54 CG2         8.1810   28.7240   -4.5980 C.3       1 THR        -0.0346
     55 N           9.1330   32.1890   -4.4420 N.am      1 SEP        -0.2668
     56 CA          9.0750   33.3050   -5.3500 C.3       1 SEP         0.1219
     57 CB         10.3680   34.0520   -5.2730 C.3       1 SEP         0.1129
     58 OG         11.5120   33.3250   -5.5140 O.3       1 SEP        -0.2720
     59 C           8.8510   32.8610   -6.7580 C.2       1 SEP         0.0627
     60 O           8.8253   31.6342   -7.0441 O.co2     1 SEP        -0.5665
     61 P          12.9360   33.9600   -5.5140 P.3       1 SEP         0.2009
     62 O1P        13.4340   34.1050   -4.0910 O.co2     1 SEP        -0.5537
     63 O2P        13.8350   33.0340   -6.3040 O.co2     1 SEP        -0.5537
     64 O3P        12.9180   35.3080   -6.1870 O.co2     1 SEP        -0.5537
     65 O           8.6866   33.7190   -7.6660 O.co2     1 SEP        -0.5665
     66 H1         -4.1593   40.5334    5.4488 H         1 LYS         0.2015
     67 H2         -3.4955   40.4828    3.9434 H         1 LYS         0.2015
     68 H3         -2.7203   39.7709    5.2090 H         1 LYS         0.2015
     69 H4         -4.4577   38.1491    5.4744 H         1 LYS         0.1098
     70 H5         -6.2488   38.0324    3.8052 H         1 LYS         0.0346
     71 H6         -5.6060   39.4977    2.9887 H         1 LYS         0.0346
     72 H7         -6.0312   40.7652    5.1317 H         1 LYS         0.0270
     73 H8         -6.8717   39.3035    5.7511 H         1 LYS         0.0270
     74 H9         -8.4795   39.4100    3.9042 H         1 LYS         0.0317
     75 H10        -7.6113   40.8168    3.2015 H         1 LYS         0.0317
     76 H11        -8.0734   42.0936    5.3013 H         1 LYS         0.0813
     77 H12        -9.0369   40.7002    5.8985 H         1 LYS         0.0813
     78 H13       -10.4181   42.3885    4.9078 H         1 LYS         0.1994
     79 H14       -10.5021   41.0051    4.0199 H         1 LYS         0.1994
     80 H15        -9.6191   42.2820    3.4727 H         1 LYS         0.1994
     81 H16        -2.5328   36.9912    5.0834 H         1 GLY         0.1882
     82 H17        -2.2289   35.6923    2.5570 H         1 GLY         0.0763
     83 H18        -1.0084   35.7280    3.8745 H         1 GLY         0.0763
     84 H19        -0.2667   38.2143    4.1837 H         1 ASN         0.1885
     85 H20         0.0155   39.5699    1.5834 H         1 ASN         0.0826
     86 H21        -0.7384   40.8297    3.6035 H         1 ASN         0.0551
     87 H22         0.7598   41.4968    2.8707 H         1 ASN         0.0551
     88 H23         1.5958   41.6258    6.3679 H         1 ASN         0.1814
     89 H24         0.7603   42.4990    5.1272 H         1 ASN         0.1814
     90 H25         1.6286   37.0912    2.2389 H         1 TYR         0.1885
     91 H26         4.1554   38.3580    1.4467 H         1 TYR         0.0821
     92 H27         4.2498   38.2100    3.9080 H         1 TYR         0.0453
     93 H28         5.5437   37.2906    3.0670 H         1 TYR         0.0453
     94 H29         5.4583   34.8018    3.0476 H         1 TYR         0.0530
     95 H30         2.7257   37.1046    5.3741 H         1 TYR         0.0530
     96 H31         4.9145   32.8075    4.3827 H         1 TYR         0.0525
     97 H32         2.1775   35.1091    6.7092 H         1 TYR         0.0525
     98 H33         2.2930   32.5351    6.3023 H         1 TYR         0.2458
     99 H34         5.7818   37.0506    0.6394 H         1 VAL         0.1883
    100 H35         4.7488   34.5738   -0.6634 H         1 VAL         0.0802
    101 H36         6.8423   36.6292   -1.5387 H         1 VAL         0.0343
    102 H37         7.1373   35.2658   -3.5775 H         1 VAL         0.0234
    103 H38         6.0781   33.9957   -2.8766 H         1 VAL         0.0234
    104 H39         7.6503   34.3836   -2.0993 H         1 VAL         0.0234
    105 H40         4.4745   37.2528   -1.8881 H         1 VAL         0.0234
    106 H41         4.2170   35.7322   -2.8088 H         1 VAL         0.0234
    107 H42         5.3382   36.9855   -3.4402 H         1 VAL         0.0234
    108 H43         5.8020   32.7154   -0.3275 H         1 VAL         0.1883
    109 H44         8.4051   32.8020    1.1252 H         1 VAL         0.0802
    110 H45         6.3661   30.5471    0.8116 H         1 VAL         0.0343
    111 H46         7.8330   29.2547    2.3225 H         1 VAL         0.0234
    112 H47         9.0530   30.5718    2.2618 H         1 VAL         0.0234
    113 H48         8.6544   29.6474    0.7740 H         1 VAL         0.0234
    114 H49         5.7517   32.3452    2.4006 H         1 VAL         0.0234
    115 H50         7.3220   32.1283    3.2453 H         1 VAL         0.0234
    116 H51         6.1111   30.8014    3.2457 H         1 VAL         0.0234
    117 H52         6.7234   30.8946   -1.4219 H         1 THR         0.1884
    118 H53         9.3410   30.3950   -2.7309 H         1 THR         0.0826
    119 H54         6.5277   29.3776   -3.3947 H         1 THR         0.0639
    120 H55         7.4666   28.5438   -1.4446 H         1 THR         0.2101
    121 H56         7.6981   27.7734   -4.8685 H         1 THR         0.0257
    122 H57         9.2648   28.5679   -4.4931 H         1 THR         0.0257
    123 H58         7.9923   29.4683   -5.3857 H         1 THR         0.0257
    124 H59        10.0289   31.8357   -4.1726 H         1 SEP         0.1876
    125 H60         8.2497   33.9675   -5.0501 H         1 SEP         0.0753
    126 H61        10.4489   34.4770   -4.2617 H         1 SEP         0.0654
    127 H62        10.3280   34.8667   -6.0110 H         1 SEP         0.0654
@<TRIPOS>BOND
     1    1    2 1  
     2    2    3 1  
     3    2    5 1  
     4    3    4 2  
     5    3   10 am 
     6    5    6 1  
     7    6    7 1  
     8    7    8 1  
     9    8    9 1  
    10   10   11 1  
    11   11   12 1  
    12   12   13 2  
    13   12   14 am 
    14   14   15 1  
    15   15   16 1  
    16   15   18 1  
    17   16   17 2  
    18   16   22 am 
    19   18   19 1  
    20   19   20 2  
    21   19   21 am 
    22   22   23 1  
    23   23   24 1  
    24   23   26 1  
    25   24   25 2  
    26   24   34 am 
    27   26   27 1  
    28   27   28 ar 
    29   27   29 ar 
    30   28   30 ar 
    31   29   31 ar 
    32   30   32 ar 
    33   31   32 ar 
    34   32   33 1  
    35   34   35 1  
    36   35   36 1  
    37   35   38 1  
    38   36   37 2  
    39   36   41 am 
    40   38   39 1  
    41   38   40 1  
    42   41   42 1  
    43   42   43 1  
    44   42   45 1  
    45   43   44 2  
    46   43   48 am 
    47   45   46 1  
    48   45   47 1  
    49   48   49 1  
    50   49   50 1  
    51   49   52 1  
    52   50   51 2  
    53   50   55 am 
    54   52   53 1  
    55   52   54 1  
    56   55   56 1  
    57   56   57 1  
    58   56   59 1  
    59   57   58 1  
    60   58   61 1  
    61   59   60 ar 
    62   61   62 ar 
    63   61   63 ar 
    64   61   64 ar 
    65   59   65 ar 
    66    1   66 1  
    67    1   67 1  
    68    1   68 1  
    69    2   69 1  
    70    5   70 1  
    71    5   71 1  
    72    6   72 1  
    73    6   73 1  
    74    7   74 1  
    75    7   75 1  
    76    8   76 1  
    77    8   77 1  
    78    9   78 1  
    79    9   79 1  
    80    9   80 1  
    81   10   81 1  
    82   11   82 1  
    83   11   83 1  
    84   14   84 1  
    85   15   85 1  
    86   18   86 1  
    87   18   87 1  
    88   21   88 1  
    89   21   89 1  
    90   22   90 1  
    91   23   91 1  
    92   26   92 1  
    93   26   93 1  
    94   28   94 1  
    95   29   95 1  
    96   30   96 1  
    97   31   97 1  
    98   33   98 1  
    99   34   99 1  
   100   35  100 1  
   101   38  101 1  
   102   39  102 1  
   103   39  103 1  
   104   39  104 1  
   105   40  105 1  
   106   40  106 1  
   107   40  107 1  
   108   41  108 1  
   109   42  109 1  
   110   45  110 1  
   111   46  111 1  
   112   46  112 1  
   113   46  113 1  
   114   47  114 1  
   115   47  115 1  
   116   47  116 1  
   117   48  117 1  
   118   49  118 1  
   119   52  119 1  
   120   53  120 1  
   121   54  121 1  
   122   54  122 1  
   123   54  123 1  
   124   55  124 1  
   125   56  125 1  
   126   57  126 1  
   127   57  127 1  
@<TRIPOS>SUBSTRUCTURE
     1 LYS         1

