4jg0_ligand
  -I-interpret- 

130130  0  0  0  0  0  0  0  0999 V2000
   -3.6210   39.9750    4.8050 N   0  3  0  0  0
   -4.3420   38.7010    4.5300 C   0  0  0  0  0
   -3.5410   37.8470    3.5590 C   0  0  0  0  0
   -3.7710   37.8840    2.3530 O   0  0  0  0  0
   -5.7310   38.9910    3.9570 C   0  0  0  0  0
   -6.6020   39.8690    4.8470 C   0  0  0  0  0
   -7.8790   40.3020    4.1360 C   0  0  0  0  0
   -8.7060   41.2450    5.0020 C   0  0  0  0  0
   -9.9090   41.7730    4.2930 N   0  3  0  0  0
   -2.6010   37.0720    4.0890 N   0  0  0  0  0
   -1.6730   36.3420    3.2490 C   0  0  0  0  0
   -0.8550   37.3460    2.4640 C   0  0  0  0  0
   -0.7850   37.2880    1.2380 O   0  0  0  0  0
   -0.2390   38.2760    3.1860 N   0  0  0  0  0
    0.4750   39.3820    2.5650 C   0  0  0  0  0
    1.9510   39.0910    2.3430 C   0  0  0  0  0
    2.7620   40.0160    2.3090 O   0  0  0  0  0
    0.3310   40.6470    3.4220 C   0  0  0  0  0
    1.0390   40.5290    4.7620 C   0  0  0  0  0
    1.4820   39.4500    5.1510 O   0  0  0  0  0
    1.1400   41.6430    5.4780 N   0  0  0  0  0
    2.3140   37.8180    2.1930 N   0  0  0  0  0
    3.7190   37.4890    1.9610 C   0  0  0  0  0
    3.9750   36.2840    1.0550 C   0  0  0  0  0
    3.1350   35.3970    0.8990 O   0  0  0  0  0
    4.4670   37.3270    3.2890 C   0  0  0  0  0
    4.1180   36.0940    4.1000 C   0  0  0  0  0
    4.7310   34.8760    3.8480 C   0  0  0  0  0
    3.2060   36.1600    5.1460 C   0  0  0  0  0
    4.4310   33.7530    4.6000 C   0  0  0  0  0
    2.8990   35.0410    5.9030 C   0  0  0  0  0
    3.5160   33.8420    5.6250 C   0  0  0  0  0
    3.2200   32.7290    6.3770 O   0  0  0  0  0
    5.1600   36.2890    0.4570 N   0  0  0  0  0
    5.5980   35.2400   -0.4510 C   0  0  0  0  0
    6.7170   34.4330    0.1960 C   0  0  0  0  0
    7.6290   35.0000    0.8110 O   0  0  0  0  0
    6.1040   35.8500   -1.7790 C   0  0  0  0  0
    6.7900   34.8010   -2.6430 C   0  0  0  0  0
    4.9540   36.5000   -2.5310 C   0  0  0  0  0
    6.6270   33.1110    0.0760 N   0  0  0  0  0
    7.6970   32.2210    0.5160 C   0  0  0  0  0
    8.4360   31.6740   -0.7040 C   0  0  0  0  0
    9.6470   31.8330   -0.8250 O   0  0  0  0  0
    7.1520   31.0670    1.3790 C   0  0  0  0  0
    8.2490   30.0660    1.7070 C   0  0  0  0  0
    6.5420   31.6240    2.6560 C   0  0  0  0  0
    7.6950   31.0420   -1.6070 N   0  0  0  0  0
    8.2610   30.5560   -2.8640 C   0  0  0  0  0
    8.0430   31.6090   -3.9470 C   0  0  0  0  0
    6.9090   31.8930   -4.3230 O   0  0  0  0  0
    7.6110   29.2250   -3.2800 C   0  0  0  0  0
    7.8460   28.2460   -2.2630 O   0  0  0  0  0
    8.1810   28.7240   -4.5980 C   0  0  0  0  0
    9.1330   32.1890   -4.4420 N   0  0  0  0  0
    9.0750   33.3050   -5.3500 C   0  0  0  0  0
   10.3680   34.0520   -5.2730 C   0  0  0  0  0
   11.5120   33.3250   -5.5140 O   0  0  0  0  0
    8.8510   32.8610   -6.7580 C   0  0  0  0  0
    8.8253   31.6342   -7.0441 O   0  0  0  0  0
   12.9360   33.9600   -5.5140 P   0  0  0  0  0
   13.4340   34.1050   -4.0910 O   0  0  0  0  0
   13.8350   33.0340   -6.3040 O   0  0  0  0  0
   12.9180   35.3080   -6.1870 O   0  0  0  0  0
    8.6866   33.7190   -7.6660 O   0  0  0  0  0
   -2.6981   39.7666    5.1860 H   0  0  0  0  0
   -3.5209   40.5018    3.9373 H   0  0  0  0  0
   -4.1520   40.5261    5.4794 H   0  0  0  0  0
   -4.4584   38.1547    5.4660 H   0  0  0  0  0
   -6.2415   38.0339    3.8505 H   0  0  0  0  0
   -5.5867   39.5266    3.0187 H   0  0  0  0  0
   -6.0349   40.7624    5.1084 H   0  0  0  0  0
   -6.8791   39.2941    5.7306 H   0  0  0  0  0
   -8.4751   39.4143    3.9245 H   0  0  0  0  0
   -7.6045   40.8249    3.2198 H   0  0  0  0  0
   -8.0758   42.0934    5.2688 H   0  0  0  0  0
   -9.0493   40.6855    5.8722 H   0  0  0  0  0
  -10.4233   42.3957    4.9160 H   0  0  0  0  0
   -9.6144   42.2877    3.4631 H   0  0  0  0  0
  -10.5083   40.9951    4.0171 H   0  0  0  0  0
   -2.5315   36.9896    5.1033 H   0  0  0  0  0
   -2.2183   35.6886    2.5680 H   0  0  0  0  0
   -1.0184   35.7236    3.8632 H   0  0  0  0  0
   -0.2673   38.2131    4.2037 H   0  0  0  0  0
    0.0235   39.5304    1.5841 H   0  0  0  0  0
   -0.7304   40.8017    3.6159 H   0  0  0  0  0
    0.7825   41.4753    2.8759 H   0  0  0  0  0
    1.5993   41.6241    6.3886 H   0  0  0  0  0
    0.7583   42.5174    5.1173 H   0  0  0  0  0
    1.6149   37.0767    2.2398 H   0  0  0  0  0
    4.1098   38.3432    1.4082 H   0  0  0  0  0
    4.1929   38.1854    3.9023 H   0  0  0  0  0
    5.5239   37.2396    3.0372 H   0  0  0  0  0
    5.4623   34.8014    3.0432 H   0  0  0  0  0
    2.7230   37.1099    5.3753 H   0  0  0  0  0
    4.9172   32.8022    4.3815 H   0  0  0  0  0
    2.1735   35.1094    6.7136 H   0  0  0  0  0
    2.5694   32.9589    7.0444 H   0  0  0  0  0
    5.7942   37.0659    0.6431 H   0  0  0  0  0
    4.7510   34.5874   -0.6626 H   0  0  0  0  0
    6.8428   36.6154   -1.5414 H   0  0  0  0  0
    7.6422   34.3882   -2.1031 H   0  0  0  0  0
    6.0836   34.0036   -2.8737 H   0  0  0  0  0
    7.1337   35.2627   -3.5686 H   0  0  0  0  0
    4.1941   35.7497   -2.7494 H   0  0  0  0  0
    4.5207   37.2899   -1.9175 H   0  0  0  0  0
    5.3254   36.9249   -3.4635 H   0  0  0  0  0
    5.7855   32.7075   -0.3356 H   0  0  0  0  0
    8.3889   32.7917    1.1354 H   0  0  0  0  0
    6.3812   30.5442    0.8127 H   0  0  0  0  0
    8.6498   29.6520    0.7818 H   0  0  0  0  0
    9.0450   30.5684    2.2566 H   0  0  0  0  0
    7.8356   29.2627    2.3168 H   0  0  0  0  0
    7.3050   32.1649    3.2158 H   0  0  0  0  0
    5.7269   32.3018    2.4022 H   0  0  0  0  0
    6.1584   30.8032    3.2620 H   0  0  0  0  0
    6.7040   30.8917   -1.4182 H   0  0  0  0  0
    9.3282   30.3797   -2.7295 H   0  0  0  0  0
    6.5411   29.3902   -3.4073 H   0  0  0  0  0
    7.4410   27.4147   -2.5210 H   0  0  0  0  0
    7.9934   29.4624   -5.3776 H   0  0  0  0  0
    9.2549   28.5697   -4.4927 H   0  0  0  0  0
    7.7018   27.7821   -4.8650 H   0  0  0  0  0
   10.0468   31.8286   -4.1672 H   0  0  0  0  0
    8.2378   33.9402   -5.0608 H   0  0  0  0  0
   10.4488   34.4111   -4.2470 H   0  0  0  0  0
   10.3240   34.8131   -6.0520 H   0  0  0  0  0
   13.4434   33.2437   -3.6671 H   0  0  0  0  0
   13.8533   32.1715   -5.8829 H   0  0  0  0  0
    8.7339   34.5991   -7.2854 H   0  0  0  0  0
  1  2  1  0  0  0
  2  3  1  0  0  0
  2  5  1  0  0  0
  3  4  2  0  0  0
  3 10  1  0  0  0
  5  6  1  0  0  0
  6  7  1  0  0  0
  7  8  1  0  0  0
  8  9  1  0  0  0
 10 11  1  0  0  0
 11 12  1  0  0  0
 12 13  2  0  0  0
 12 14  1  0  0  0
 14 15  1  0  0  0
 15 16  1  0  0  0
 15 18  1  0  0  0
 16 17  2  0  0  0
 16 22  1  0  0  0
 18 19  1  0  0  0
 19 20  2  0  0  0
 19 21  1  0  0  0
 22 23  1  0  0  0
 23 24  1  0  0  0
 23 26  1  0  0  0
 24 25  2  0  0  0
 24 34  1  0  0  0
 26 27  1  0  0  0
 27 28  4  0  0  0
 27 29  4  0  0  0
 28 30  4  0  0  0
 29 31  4  0  0  0
 30 32  4  0  0  0
 31 32  4  0  0  0
 32 33  1  0  0  0
 34 35  1  0  0  0
 35 36  1  0  0  0
 35 38  1  0  0  0
 36 37  2  0  0  0
 36 41  1  0  0  0
 38 39  1  0  0  0
 38 40  1  0  0  0
 41 42  1  0  0  0
 42 43  1  0  0  0
 42 45  1  0  0  0
 43 44  2  0  0  0
 43 48  1  0  0  0
 45 46  1  0  0  0
 45 47  1  0  0  0
 48 49  1  0  0  0
 49 50  1  0  0  0
 49 52  1  0  0  0
 50 51  2  0  0  0
 50 55  1  0  0  0
 52 53  1  0  0  0
 52 54  1  0  0  0
 55 56  1  0  0  0
 56 57  1  0  0  0
 56 59  1  0  0  0
 57 58  1  0  0  0
 58 61  1  0  0  0
 59 60  2  0  0  0
 61 62  1  0  0  0
 61 63  1  0  0  0
 61 64  2  0  0  0
 59 65  1  0  0  0
  1 66  1  0  0  0
  1 67  1  0  0  0
  1 68  1  0  0  0
  2 69  1  0  0  0
  5 70  1  0  0  0
  5 71  1  0  0  0
  6 72  1  0  0  0
  6 73  1  0  0  0
  7 74  1  0  0  0
  7 75  1  0  0  0
  8 76  1  0  0  0
  8 77  1  0  0  0
  9 78  1  0  0  0
  9 79  1  0  0  0
  9 80  1  0  0  0
 10 81  1  0  0  0
 11 82  1  0  0  0
 11 83  1  0  0  0
 14 84  1  0  0  0
 15 85  1  0  0  0
 18 86  1  0  0  0
 18 87  1  0  0  0
 21 88  1  0  0  0
 21 89  1  0  0  0
 22 90  1  0  0  0
 23 91  1  0  0  0
 26 92  1  0  0  0
 26 93  1  0  0  0
 28 94  1  0  0  0
 29 95  1  0  0  0
 30 96  1  0  0  0
 31 97  1  0  0  0
 33 98  1  0  0  0
 34 99  1  0  0  0
 35100  1  0  0  0
 38101  1  0  0  0
 39102  1  0  0  0
 39103  1  0  0  0
 39104  1  0  0  0
 40105  1  0  0  0
 40106  1  0  0  0
 40107  1  0  0  0
 41108  1  0  0  0
 42109  1  0  0  0
 45110  1  0  0  0
 46111  1  0  0  0
 46112  1  0  0  0
 46113  1  0  0  0
 47114  1  0  0  0
 47115  1  0  0  0
 47116  1  0  0  0
 48117  1  0  0  0
 49118  1  0  0  0
 52119  1  0  0  0
 53120  1  0  0  0
 54121  1  0  0  0
 54122  1  0  0  0
 54123  1  0  0  0
 55124  1  0  0  0
 56125  1  0  0  0
 57126  1  0  0  0
 57127  1  0  0  0
 62128  1  0  0  0
 63129  1  0  0  0
 65130  1  0  0  0
M  END
$$$$
