4deh_ligand
  -I-interpret- 

 44 48  0  0  0  0  0  0  0  0999 V2000
   21.0440    9.7350   56.7690 C   0  0  0  0  0
   21.7510    8.8790   57.6030 C   0  0  0  0  0
   21.2070    7.6500   57.9670 C   0  0  0  0  0
   21.9340    6.8190   58.8130 C   0  0  0  0  0
   23.1820    7.2300   59.2630 C   0  0  0  0  0
   23.6800    8.4120   58.8940 N   0  0  0  0  0
   23.0120    9.2400   58.0830 C   0  0  0  0  0
   23.5730   10.4670   57.7300 C   0  0  0  0  0
   22.8650   11.3230   56.8830 C   0  0  0  0  0
   21.6000   10.9620   56.4080 C   0  0  0  0  0
   20.8220   11.8950   55.4710 C   0  0  0  0  0
   20.4710   13.1480   56.1550 N   0  0  0  0  0
   19.5040   13.2720   57.0580 C   0  0  0  0  0
   18.5540   12.4340   57.6540 C   0  0  0  0  0
   18.3090   11.3240   57.1760 O   0  0  0  0  0
   21.0320   14.2370   55.9620 N   0  0  0  0  0
   20.5330   15.1320   56.6620 N   0  0  0  0  0
   19.5520   14.6100   57.3960 C   0  0  0  0  0
   18.6580   15.0920   58.3480 C   0  0  0  0  0
   18.1640   14.2600   59.3540 C   0  0  0  0  0
   17.8420   12.9030   58.7960 N   0  0  0  0  0
   16.8420   12.0920   59.4020 C   0  0  0  0  0
   17.1040   10.7640   59.7290 C   0  0  0  0  0
   16.1150    9.9720   60.3110 C   0  0  0  0  0
   14.8510   10.5010   60.5860 C   0  0  0  0  0
   14.5820   11.8310   60.2620 C   0  0  0  0  0
   15.5760   12.6190   59.6760 C   0  0  0  0  0
   20.0595    9.4494   56.3984 H   0  0  0  0  0
   20.2288    7.3445   57.5956 H   0  0  0  0  0
   21.5283    5.8549   59.1197 H   0  0  0  0  0
   23.7593    6.5822   59.9227 H   0  0  0  0  0
   24.5529   10.7549   58.1107 H   0  0  0  0  0
   23.3011   12.2782   56.5905 H   0  0  0  0  0
   19.9045   11.3954   55.1601 H   0  0  0  0  0
   21.4470   12.1284   54.6090 H   0  0  0  0  0
   17.7745   15.3615   57.7693 H   0  0  0  0  0
   19.2273   15.8496   58.8865 H   0  0  0  0  0
   17.2560   14.7001   59.7662 H   0  0  0  0  0
   18.9199   14.1548   60.1323 H   0  0  0  0  0
   18.0884   10.3410   59.5287 H   0  0  0  0  0
   16.3296    8.9312   60.5536 H   0  0  0  0  0
   14.0833    9.8809   61.0488 H   0  0  0  0  0
   13.5985   12.2545   60.4656 H   0  0  0  0  0
   15.3617   13.6588   59.4290 H   0  0  0  0  0
  1  2  4  0  0  0
  1 10  4  0  0  0
  2  3  4  0  0  0
  2  7  4  0  0  0
  3  4  4  0  0  0
  4  5  4  0  0  0
  5  6  4  0  0  0
  6  7  4  0  0  0
  7  8  4  0  0  0
  8  9  4  0  0  0
  9 10  4  0  0  0
 10 11  1  0  0  0
 11 12  1  0  0  0
 12 13  4  0  0  0
 12 16  4  0  0  0
 13 14  1  0  0  0
 13 18  4  0  0  0
 14 15  2  0  0  0
 14 21  1  0  0  0
 16 17  4  0  0  0
 17 18  4  0  0  0
 18 19  1  0  0  0
 19 20  1  0  0  0
 20 21  1  0  0  0
 21 22  1  0  0  0
 22 23  4  0  0  0
 22 27  4  0  0  0
 23 24  4  0  0  0
 24 25  4  0  0  0
 25 26  4  0  0  0
 26 27  4  0  0  0
  1 28  1  0  0  0
  3 29  1  0  0  0
  4 30  1  0  0  0
  5 31  1  0  0  0
  8 32  1  0  0  0
  9 33  1  0  0  0
 11 34  1  0  0  0
 11 35  1  0  0  0
 19 36  1  0  0  0
 19 37  1  0  0  0
 20 38  1  0  0  0
 20 39  1  0  0  0
 23 40  1  0  0  0
 24 41  1  0  0  0
 25 42  1  0  0  0
 26 43  1  0  0  0
 27 44  1  0  0  0
M  END
$$$$
