4qz3_ligand
  -I-interpret- 

 87 89  0  0  0  0  0  0  0  0999 V2000
   59.5080 -134.4940   34.6300 C   0  0  0  0  0
   59.5420 -135.7240   34.6120 O   0  0  0  0  0
   58.3590 -133.7380   33.9440 C   0  0  0  0  0
   57.1420 -134.1620   34.6400 N   0  3  0  0  0
   54.5700 -133.3790   35.3540 O   0  0  0  0  0
   56.0370 -134.2740   33.6560 C   0  0  0  0  0
   56.8610 -133.2070   35.7320 C   0  0  0  0  0
   54.7330 -134.4100   34.3660 C   0  0  0  0  0
   55.5540 -133.4600   36.4010 C   0  0  0  0  0
   60.4350 -133.7190   35.2190 N   0  0  0  0  0
   61.5690 -134.2890   35.9530 C   0  0  0  0  0
   61.1240 -134.4190   37.4060 C   0  0  0  0  0
   60.3660 -133.5830   37.8990 O   0  0  0  0  0
   62.7790 -133.3530   35.8670 C   0  0  0  0  0
   61.5980 -135.4890   38.0600 N   0  0  0  0  0
   61.2570 -135.7250   39.4700 C   0  0  0  0  0
   60.6380 -137.0900   39.6510 C   0  0  0  0  0
   59.2900 -136.9730   39.2950 C   0  0  0  0  0
   58.8550 -137.3360   38.0220 C   0  0  0  0  0
   57.5100 -137.2230   37.6780 C   0  0  0  0  0
   56.5790 -136.7540   38.6020 C   0  0  0  0  0
   55.2670 -136.6530   38.2120 O   0  0  0  0  0
   54.2500 -136.9920   39.1750 C   0  0  0  0  0
   57.0180 -136.3850   39.8780 C   0  0  0  0  0
   58.3610 -136.5030   40.2210 C   0  0  0  0  0
   62.5370 -135.6510   40.3030 C   0  0  0  0  0
   63.6430 -135.8410   39.7930 O   0  0  0  0  0
   62.3230 -135.3780   41.5990 N   0  0  0  0  0
   63.4090 -135.2520   42.5720 C   0  0  0  0  0
   63.2510 -136.2980   43.7010 C   0  0  0  0  0
   61.9100 -136.2260   44.2160 O   0  0  0  0  0
   63.5860 -137.8250   43.3240 C   0  0  0  0  0
   64.6720 -137.9110   42.1920 C   0  0  0  0  0
   62.2910 -138.4430   42.7970 C   0  0  0  0  0
   62.6430 -139.6570   42.1130 O   0  0  0  0  0
   63.3450 -133.8640   43.2040 C   0  0  0  0  0
   64.1130 -132.8910   42.5150 C   0  0  0  0  0
   64.9340 -133.1450   41.4030 C   0  0  0  0  0
   65.6430 -132.1090   40.7970 C   0  0  0  0  0
   65.5500 -130.8070   41.2820 C   0  0  0  0  0
   64.7410 -130.5380   42.3810 C   0  0  0  0  0
   64.0330 -131.5760   42.9850 C   0  0  0  0  0
   58.3103 -133.9657   32.8792 H   0  0  0  0  0
   58.4985 -132.6587   34.0044 H   0  0  0  0  0
   57.2531 -135.0817   35.0669 H   0  0  0  0  0
   56.1995 -135.1537   33.0332 H   0  0  0  0  0
   56.0161 -133.3771   33.0369 H   0  0  0  0  0
   56.8256 -132.2072   35.2992 H   0  0  0  0  0
   57.6453 -133.3172   36.4809 H   0  0  0  0  0
   53.9283 -134.3230   33.6359 H   0  0  0  0  0
   54.7080 -135.3783   34.8658 H   0  0  0  0  0
   55.5368 -134.4322   36.8936 H   0  0  0  0  0
   55.3603 -132.7343   37.1909 H   0  0  0  0  0
   60.3469 -132.7049   35.1534 H   0  0  0  0  0
   61.8595 -135.2531   35.5356 H   0  0  0  0  0
   63.0600 -133.2196   34.8223 H   0  0  0  0  0
   62.5212 -132.3871   36.3014 H   0  0  0  0  0
   63.6136 -133.7887   36.4163 H   0  0  0  0  0
   62.2039 -136.1487   37.5721 H   0  0  0  0  0
   60.5402 -134.9690   39.7904 H   0  0  0  0  0
   60.7385 -137.4274   40.6826 H   0  0  0  0  0
   61.1407 -137.8293   39.0275 H   0  0  0  0  0
   59.5715 -137.7106   37.2910 H   0  0  0  0  0
   57.1830 -137.5041   36.6769 H   0  0  0  0  0
   54.3763 -138.0293   39.4850 H   0  0  0  0  0
   54.3407 -136.3385   40.0426 H   0  0  0  0  0
   53.2664 -136.8637   38.7232 H   0  0  0  0  0
   56.3038 -136.0029   40.6075 H   0  0  0  0  0
   58.6893 -136.2254   41.2226 H   0  0  0  0  0
   61.3629 -135.2530   41.9198 H   0  0  0  0  0
   64.3578 -135.4095   42.0592 H   0  0  0  0  0
   64.0070 -136.0264   44.4378 H   0  0  0  0  0
   61.8028 -136.8723   44.9177 H   0  0  0  0  0
   63.9710 -138.3434   44.2021 H   0  0  0  0  0
   64.3045 -137.4061   41.2986 H   0  0  0  0  0
   65.5885 -137.4290   42.5322 H   0  0  0  0  0
   64.8738 -138.9573   41.9626 H   0  0  0  0  0
   61.7867 -137.7544   42.1191 H   0  0  0  0  0
   61.6049 -138.6516   43.6179 H   0  0  0  0  0
   61.8482 -140.0710   41.7688 H   0  0  0  0  0
   63.7492 -133.9452   44.2130 H   0  0  0  0  0
   62.3048 -133.5395   43.1758 H   0  0  0  0  0
   65.0169 -134.1590   41.0117 H   0  0  0  0  0
   66.2762 -132.3201   39.9353 H   0  0  0  0  0
   66.1083 -130.0028   40.8029 H   0  0  0  0  0
   64.6611 -129.5220   42.7676 H   0  0  0  0  0
   63.4009 -131.3572   43.8456 H   0  0  0  0  0
  1  2  2  0  0  0
  3  1  1  0  0  0
  1 10  1  0  0  0
  4  3  1  0  0  0
  6  4  1  0  0  0
  4  7  1  0  0  0
  8  5  1  0  0  0
  5  9  1  0  0  0
  6  8  1  0  0  0
  7  9  1  0  0  0
 10 11  1  0  0  0
 11 12  1  0  0  0
 11 14  1  0  0  0
 12 13  2  0  0  0
 12 15  1  0  0  0
 15 16  1  0  0  0
 16 17  1  0  0  0
 16 26  1  0  0  0
 17 18  1  0  0  0
 18 19  4  0  0  0
 18 25  4  0  0  0
 19 20  4  0  0  0
 20 21  4  0  0  0
 21 22  1  0  0  0
 21 24  4  0  0  0
 22 23  1  0  0  0
 24 25  4  0  0  0
 26 27  2  0  0  0
 26 28  1  0  0  0
 28 29  1  0  0  0
 29 30  1  0  0  0
 29 36  1  0  0  0
 30 31  1  0  0  0
 30 32  1  0  0  0
 32 33  1  0  0  0
 32 34  1  0  0  0
 34 35  1  0  0  0
 36 37  1  0  0  0
 37 38  4  0  0  0
 37 42  4  0  0  0
 38 39  4  0  0  0
 39 40  4  0  0  0
 40 41  4  0  0  0
 41 42  4  0  0  0
  3 43  1  0  0  0
  3 44  1  0  0  0
  4 45  1  0  0  0
  6 46  1  0  0  0
  6 47  1  0  0  0
  7 48  1  0  0  0
  7 49  1  0  0  0
  8 50  1  0  0  0
  8 51  1  0  0  0
  9 52  1  0  0  0
  9 53  1  0  0  0
 10 54  1  0  0  0
 11 55  1  0  0  0
 14 56  1  0  0  0
 14 57  1  0  0  0
 14 58  1  0  0  0
 15 59  1  0  0  0
 16 60  1  0  0  0
 17 61  1  0  0  0
 17 62  1  0  0  0
 19 63  1  0  0  0
 20 64  1  0  0  0
 23 65  1  0  0  0
 23 66  1  0  0  0
 23 67  1  0  0  0
 24 68  1  0  0  0
 25 69  1  0  0  0
 28 70  1  0  0  0
 29 71  1  0  0  0
 30 72  1  0  0  0
 31 73  1  0  0  0
 32 74  1  0  0  0
 33 75  1  0  0  0
 33 76  1  0  0  0
 33 77  1  0  0  0
 34 78  1  0  0  0
 34 79  1  0  0  0
 35 80  1  0  0  0
 36 81  1  0  0  0
 36 82  1  0  0  0
 38 83  1  0  0  0
 39 84  1  0  0  0
 40 85  1  0  0  0
 41 86  1  0  0  0
 42 87  1  0  0  0
M  END
$$$$
