4kow_ligand
  -I-interpret- 

 45 47  0  0  0  0  0  0  0  0999 V2000
  -12.9660    3.6630   -9.7180 C   0  0  0  0  0
  -11.8430    4.1200   -9.5440 O   0  0  0  0  0
  -14.1840    4.1250   -9.4260 N   0  0  0  0  0
  -14.8900    3.0110  -10.0960 C   0  0  0  0  0
  -16.1590    2.3900   -8.9880 S   0  0  0  0  0
  -16.9640    4.0050   -8.8870 C   0  0  0  0  0
  -16.0520    5.1900   -8.5120 C   0  0  0  0  0
  -14.7620    5.2150   -8.7230 C   0  0  0  0  0
  -16.7280    6.3320   -7.7880 C   0  0  0  0  0
  -13.8000    6.1880   -8.1640 C   0  0  0  0  0
  -13.9170    7.3670   -8.5110 O   0  0  0  0  0
  -12.9180    5.7940   -7.3630 O   0  0  0  0  0
  -13.5290    2.3230  -10.2010 C   0  0  0  0  0
  -13.2730    1.9920  -11.5610 O   0  0  0  0  0
  -11.9220    1.7320  -11.8640 C   0  0  0  0  0
  -13.1350    1.2700   -9.3210 N   0  0  0  0  0
  -13.6110    0.0370   -9.3600 C   0  0  0  0  0
  -14.5700   -0.2430  -10.0460 O   0  0  0  0  0
  -12.9300   -0.9880   -8.5160 C   0  0  0  0  0
  -13.6740   -1.3430   -7.2880 C   0  0  0  0  0
  -13.0690   -2.4900   -6.1610 S   0  0  0  0  0
  -14.4020   -2.3750   -5.1500 C   0  0  0  0  0
  -15.2700   -1.5440   -5.6200 C   0  0  0  0  0
  -14.8760   -0.9330   -6.8370 C   0  0  0  0  0
  -17.7870    6.9150   -8.6790 O   0  0  0  0  0
  -18.3290    8.1440   -8.4010 C   0  0  0  0  0
  -17.9100    9.0730   -7.6670 O   0  0  0  0  0
  -19.4500    8.2090   -9.1250 N   0  0  0  0  0
  -15.4900    3.0499  -11.0052 H   0  0  0  0  0
  -17.7083    3.9278   -8.0944 H   0  0  0  0  0
  -17.3500    4.2183   -9.8838 H   0  0  0  0  0
  -15.9927    7.0976   -7.5404 H   0  0  0  0  0
  -17.1820    5.9666   -6.8669 H   0  0  0  0  0
  -13.0061    4.8470   -7.2322 H   0  0  0  0  0
  -11.3239    2.6147  -11.6379 H   0  0  0  0  0
  -11.5720    0.8912  -11.2651 H   0  0  0  0  0
  -11.8285    1.4896  -12.9226 H   0  0  0  0  0
  -12.4353    1.4845   -8.6105 H   0  0  0  0  0
  -11.9730   -0.5687   -8.2056 H   0  0  0  0  0
  -12.8413   -1.8944   -9.1149 H   0  0  0  0  0
  -14.5196   -2.9291   -4.2188 H   0  0  0  0  0
  -16.2185   -1.3314   -5.1269 H   0  0  0  0  0
  -15.4890   -0.1989   -7.3600 H   0  0  0  0  0
  -20.0238    9.0520   -9.1020 H   0  0  0  0  0
  -19.7320    7.4156   -9.7007 H   0  0  0  0  0
  1  2  2  0  0  0
  1  3  1  0  0  0
  1 13  1  0  0  0
  3  4  1  0  0  0
  3  8  1  0  0  0
  4  5  1  0  0  0
  4 13  1  0  0  0
  5  6  1  0  0  0
  6  7  1  0  0  0
  7  8  2  0  0  0
  7  9  1  0  0  0
  8 10  1  0  0  0
  9 25  1  0  0  0
 10 11  2  0  0  0
 10 12  1  0  0  0
 13 14  1  0  0  0
 13 16  1  0  0  0
 14 15  1  0  0  0
 16 17  1  0  0  0
 17 18  2  0  0  0
 17 19  1  0  0  0
 19 20  1  0  0  0
 20 21  4  0  0  0
 20 24  4  0  0  0
 21 22  4  0  0  0
 22 23  4  0  0  0
 23 24  4  0  0  0
 25 26  1  0  0  0
 26 27  2  0  0  0
 26 28  1  0  0  0
  4 29  1  0  0  0
  6 30  1  0  0  0
  6 31  1  0  0  0
  9 32  1  0  0  0
  9 33  1  0  0  0
 12 34  1  0  0  0
 15 35  1  0  0  0
 15 36  1  0  0  0
 15 37  1  0  0  0
 16 38  1  0  0  0
 19 39  1  0  0  0
 19 40  1  0  0  0
 22 41  1  0  0  0
 23 42  1  0  0  0
 24 43  1  0  0  0
 28 44  1  0  0  0
 28 45  1  0  0  0
M  END
$$$$
