3pvu_ligand
  -I-interpret- 

 55 58  0  0  0  0  0  0  0  0999 V2000
   36.7270   -2.3330   50.3650 C   0  0  0  0  0
   35.3590   -2.2420   50.1020 C   0  0  0  0  0
   34.8060   -1.0030   49.7540 C   0  0  0  0  0
   35.5690    0.0890   49.6780 N   0  0  0  0  0
   36.8760    0.0320   49.9290 C   0  0  0  0  0
   37.4970   -1.1760   50.2760 C   0  0  0  0  0
   37.3250   -3.5380   50.7200 C   0  0  0  0  0
   38.1870   -3.6900   51.7160 N   0  0  0  0  0
   38.5540   -4.8680   51.7880 N   0  0  0  0  0
   37.9490   -5.5900   50.8440 C   0  0  0  0  0
   37.1820   -4.7470   50.1770 N   0  0  0  0  0
   36.3210   -5.1190   49.0310 C   0  0  0  0  0
   38.1090   -7.0940   50.5870 C   0  0  0  0  0
   38.7850   -7.7560   51.7190 N   0  0  0  0  0
   38.2130   -7.9730   52.9140 C   0  0  0  0  0
   36.9550   -7.4650   53.2630 C   0  0  0  0  0
   36.4160   -7.7290   54.5270 C   0  0  0  0  0
   37.1310   -8.4990   55.4500 C   0  0  0  0  0
   38.3850   -8.9970   55.1080 C   0  0  0  0  0
   38.9070   -8.7400   53.8410 C   0  0  0  0  0
   39.2040   -9.8510   56.0820 C   0  0  0  0  0
   38.6400  -10.5760   56.9000 O   0  0  0  0  0
   40.5360   -9.7530   55.9240 N   0  0  0  0  0
   41.5340  -10.5430   56.6650 C   0  0  0  0  0
   41.6900  -11.8770   55.9050 C   0  0  0  0  0
   42.6570  -12.2050   54.9270 C   0  0  0  0  0
   42.6280  -13.4770   54.3300 C   0  0  0  0  0
   41.6720  -14.4300   54.6760 C   0  0  0  0  0
   40.7170  -14.1120   55.6330 C   0  0  0  0  0
   40.7380  -12.8510   56.2280 C   0  0  0  0  0
   43.7680  -11.2220   54.4500 C   0  0  0  0  0
   44.9030  -11.8890   54.1550 F   0  0  0  0  0
   44.0460  -10.3020   55.3850 F   0  0  0  0  0
   43.3300  -10.6230   53.3230 F   0  0  0  0  0
   34.7267   -3.1275   50.1669 H   0  0  0  0  0
   33.7392   -0.9300   49.5427 H   0  0  0  0  0
   37.4736    0.9412   49.8634 H   0  0  0  0  0
   38.5684   -1.2092   50.4735 H   0  0  0  0  0
   35.2817   -4.8945   49.2711 H   0  0  0  0  0
   36.6231   -4.5503   48.1516 H   0  0  0  0  0
   36.4266   -6.1851   48.8298 H   0  0  0  0  0
   38.7127   -7.2328   49.6901 H   0  0  0  0  0
   37.1196   -7.5347   50.4650 H   0  0  0  0  0
   39.7468   -8.0682   51.5854 H   0  0  0  0  0
   36.3946   -6.8625   52.5481 H   0  0  0  0  0
   35.4358   -7.3333   54.7931 H   0  0  0  0  0
   36.7082   -8.7082   56.4326 H   0  0  0  0  0
   39.8806   -9.1498   53.5722 H   0  0  0  0  0
   40.8812   -9.0806   55.2391 H   0  0  0  0  0
   41.2113  -10.7146   57.6919 H   0  0  0  0  0
   42.4851  -10.0138   56.7233 H   0  0  0  0  0
   43.3742  -13.7250   53.5752 H   0  0  0  0  0
   41.6737  -15.4116   54.2021 H   0  0  0  0  0
   39.9581  -14.8413   55.9163 H   0  0  0  0  0
   39.9814  -12.6139   56.9759 H   0  0  0  0  0
  1  2  4  0  0  0
  1  6  4  0  0  0
  1  7  1  0  0  0
  2  3  4  0  0  0
  3  4  4  0  0  0
  4  5  4  0  0  0
  5  6  4  0  0  0
  7  8  4  0  0  0
  7 11  4  0  0  0
  8  9  4  0  0  0
  9 10  4  0  0  0
 10 11  4  0  0  0
 10 13  1  0  0  0
 11 12  1  0  0  0
 13 14  1  0  0  0
 14 15  1  0  0  0
 15 16  4  0  0  0
 15 20  4  0  0  0
 16 17  4  0  0  0
 17 18  4  0  0  0
 18 19  4  0  0  0
 19 20  4  0  0  0
 19 21  1  0  0  0
 21 22  2  0  0  0
 21 23  1  0  0  0
 23 24  1  0  0  0
 24 25  1  0  0  0
 25 26  4  0  0  0
 25 30  4  0  0  0
 26 27  4  0  0  0
 26 31  1  0  0  0
 27 28  4  0  0  0
 28 29  4  0  0  0
 29 30  4  0  0  0
 31 32  1  0  0  0
 31 33  1  0  0  0
 31 34  1  0  0  0
  2 35  1  0  0  0
  3 36  1  0  0  0
  5 37  1  0  0  0
  6 38  1  0  0  0
 12 39  1  0  0  0
 12 40  1  0  0  0
 12 41  1  0  0  0
 13 42  1  0  0  0
 13 43  1  0  0  0
 14 44  1  0  0  0
 16 45  1  0  0  0
 17 46  1  0  0  0
 18 47  1  0  0  0
 20 48  1  0  0  0
 23 49  1  0  0  0
 24 50  1  0  0  0
 24 51  1  0  0  0
 27 52  1  0  0  0
 28 53  1  0  0  0
 29 54  1  0  0  0
 30 55  1  0  0  0
M  END
$$$$
