3gsm_ligand
  -I-interpret- 

 38 38  0  0  0  0  0  0  0  0999 V2000
   -8.5710   18.5930   12.4530 C   0  0  0  0  0
   -7.6540   18.6200   13.6880 C   0  0  0  0  0
   -7.5180   17.2550   14.3460 C   0  0  0  0  0
   -6.0530   16.8850   14.6050 C   0  0  0  0  0
   -5.4560   16.2260   13.3740 C   0  0  0  0  0
   -6.1130   15.3870   12.7680 O   0  0  0  0  0
   -4.2150   16.6040   13.0080 N   0  0  0  0  0
   -3.5330   16.0500   11.8250 C   0  0  0  0  0
   -2.5770   14.9180   12.2400 C   0  0  0  0  0
   -3.2280   13.8420   12.9460 O   0  0  0  0  0
   -1.9310   14.3950   10.9520 C   0  0  0  0  0
   -1.2360   13.1580   11.1950 O   0  0  0  0  0
   -0.9710   15.4280   10.3410 C   0  0  0  0  0
   -0.5890   15.0110    8.9300 C   0  0  0  0  0
   -1.2620   15.3700    7.9730 O   0  0  0  0  0
   -1.5070   16.7660   10.3000 O   0  0  0  0  0
   -2.7410   17.0770   11.0320 C   0  0  0  0  0
   -3.1920   18.2580   10.9740 N   0  0  0  0  0
   -8.1627   17.9038   11.7139 H   0  0  0  0  0
   -9.5668   18.2627   12.7486 H   0  0  0  0  0
   -8.6310   19.5935   12.0246 H   0  0  0  0  0
   -8.0930   19.3013   14.4168 H   0  0  0  0  0
   -6.6627   18.9357   13.3628 H   0  0  0  0  0
   -7.9441   16.5093   13.6748 H   0  0  0  0  0
   -8.0361   17.2858   15.3045 H   0  0  0  0  0
   -6.0023   16.1899   15.4431 H   0  0  0  0  0
   -5.4906   17.7900   14.8346 H   0  0  0  0  0
   -3.7288   17.3010   13.5721 H   0  0  0  0  0
   -4.3294   15.6798   11.1794 H   0  0  0  0  0
   -1.8419   15.3148   12.9402 H   0  0  0  0  0
   -2.5793   13.1723   13.1749 H   0  0  0  0  0
   -2.7335   14.2148   10.2367 H   0  0  0  0  0
   -0.8398   12.8488   10.3770 H   0  0  0  0  0
   -0.0993   15.4497   10.9951 H   0  0  0  0  0
   -0.6868   13.9254    8.9350 H   0  0  0  0  0
    0.3822   15.4778    8.7656 H   0  0  0  0  0
   -0.8803   15.0190    7.1651 H   0  0  0  0  0
   -2.7000   18.9656   10.4285 H   0  0  0  0  0
  1  2  1  0  0  0
  2  3  1  0  0  0
  3  4  1  0  0  0
  4  5  1  0  0  0
  5  6  2  0  0  0
  5  7  1  0  0  0
  7  8  1  0  0  0
  8  9  1  0  0  0
  8 17  1  0  0  0
  9 10  1  0  0  0
  9 11  1  0  0  0
 11 12  1  0  0  0
 11 13  1  0  0  0
 13 14  1  0  0  0
 13 16  1  0  0  0
 14 15  1  0  0  0
 16 17  1  0  0  0
 17 18  2  0  0  0
  1 19  1  0  0  0
  1 20  1  0  0  0
  1 21  1  0  0  0
  2 22  1  0  0  0
  2 23  1  0  0  0
  3 24  1  0  0  0
  3 25  1  0  0  0
  4 26  1  0  0  0
  4 27  1  0  0  0
  7 28  1  0  0  0
  8 29  1  0  0  0
  9 30  1  0  0  0
 10 31  1  0  0  0
 11 32  1  0  0  0
 12 33  1  0  0  0
 13 34  1  0  0  0
 14 35  1  0  0  0
 14 36  1  0  0  0
 15 37  1  0  0  0
 18 38  1  0  0  0
M  END
$$$$
