### 
### Created by X-TOOL on Mon Sep 10 21:12:58 2018
### 

@<TRIPOS>MOLECULE
3ds0_ligand
  196   199     1     0     0
SMALL
GAST_HUCK


@<TRIPOS>ATOM
      1 N         -16.1670   -1.5670  -21.2580 N.4       1 ILE         0.2381
      2 CA        -17.6340   -1.3130  -21.1870 C.3       1 ILE         0.0676
      3 C         -17.8970    0.1360  -21.5760 C.2       1 ILE         0.2270
      4 O         -16.9630    0.9470  -21.5750 O.2       1 ILE        -0.3907
      5 CB        -18.2400   -1.6510  -19.7900 C.3       1 ILE         0.0164
      6 CG1       -17.8730   -0.5960  -18.7490 C.3       1 ILE        -0.0460
      7 CG2       -17.8380   -3.0780  -19.3350 C.3       1 ILE        -0.0551
      8 CD1       -18.8330   -0.5050  -17.5910 C.3       1 ILE        -0.0647
      9 N         -19.1500    0.4400  -21.9110 N.am      1 THR        -0.2586
     10 CA        -19.5380    1.7620  -22.4050 C.3       1 THR         0.1566
     11 C         -20.4580    2.4740  -21.4200 C.2       1 THR         0.2066
     12 O         -20.9120    1.8900  -20.4310 O.2       1 THR        -0.3943
     13 CB        -20.3030    1.6490  -23.7340 C.3       1 THR         0.0924
     14 OG1       -21.4600    0.8210  -23.5440 O.3       1 THR        -0.3874
     15 CG2       -19.4180    1.0490  -24.8270 C.3       1 THR        -0.0346
     16 N         -20.7470    3.7390  -21.6940 N.am      1 PHE        -0.2619
     17 CA        -21.6480    4.4810  -20.8260 C.3       1 PHE         0.1404
     18 C         -23.0530    3.8750  -20.8540 C.2       1 PHE         0.2060
     19 O         -23.7090    3.7860  -19.8070 O.2       1 PHE        -0.3942
     20 CB        -21.6720    5.9640  -21.2050 C.3       1 PHE         0.0214
     21 CG        -22.5110    6.8110  -20.2810 C.ar      1 PHE        -0.0386
     22 CD1       -22.3400    6.7620  -18.8950 C.ar      1 PHE        -0.0601
     23 CD2       -23.4600    7.6680  -20.8080 C.ar      1 PHE        -0.0601
     24 CE1       -23.1330    7.5500  -18.0470 C.ar      1 PHE        -0.0686
     25 CE2       -24.2420    8.4580  -19.9700 C.ar      1 PHE        -0.0686
     26 CZ        -24.0730    8.3980  -18.5990 C.ar      1 PHE        -0.0687
     27 N         -23.4990    3.4460  -22.0380 N.am      1 GLU        -0.2635
     28 CA        -24.7730    2.7220  -22.1590 C.3       1 GLU         0.1325
     29 C         -24.8610    1.4770  -21.2740 C.2       1 GLU         0.2041
     30 O         -25.9350    1.1610  -20.7680 O.2       1 GLU        -0.3944
     31 CB        -25.0540    2.3740  -23.6150 C.3       1 GLU        -0.0008
     32 CG        -25.4180    3.6010  -24.4020 C.3       1 GLU         0.0044
     33 CD        -25.7200    3.3440  -25.8780 C.2       1 GLU         0.0350
     34 OE1       -26.1210    2.2220  -26.2530 O.co2     1 GLU        -0.5690
     35 OE2       -25.5820    4.3050  -26.6690 O.co2     1 GLU        -0.5690
     36 N         -23.7430    0.7740  -21.0850 N.am      1 ASP        -0.2622
     37 CA        -23.6960   -0.3760  -20.1620 C.3       1 ASP         0.1423
     38 C         -23.9710    0.0700  -18.7250 C.2       1 ASP         0.2056
     39 O         -24.6850   -0.6250  -17.9960 O.2       1 ASP        -0.3943
     40 CB        -22.3520   -1.0930  -20.1990 C.3       1 ASP         0.0406
     41 CG        -22.0590   -1.7280  -21.5450 C.2       1 ASP         0.0393
     42 OD1       -23.0120   -2.1250  -22.2490 O.co2     1 ASP        -0.5688
     43 OD2       -20.8730   -1.8560  -21.8890 O.co2     1 ASP        -0.5688
     44 N         -23.4260    1.2230  -18.3240 N.am      1 LEU        -0.2636
     45 CA        -23.6950    1.7440  -16.9770 C.3       1 LEU         0.1312
     46 C         -25.1560    2.1300  -16.8430 C.2       1 LEU         0.2039
     47 O         -25.7800    1.8230  -15.8320 O.2       1 LEU        -0.3944
     48 CB        -22.7880    2.9400  -16.6270 C.3       1 LEU        -0.0101
     49 CG        -21.2870    2.6140  -16.6210 C.3       1 LEU        -0.0425
     50 CD1       -20.4520    3.8870  -16.4220 C.3       1 LEU        -0.0625
     51 CD2       -20.9540    1.5550  -15.5410 C.3       1 LEU        -0.0625
     52 N         -25.6980    2.7690  -17.8750 N.am      1 LEU        -0.2637
     53 CA        -27.1070    3.1560  -17.8610 C.3       1 LEU         0.1312
     54 C         -28.0240    1.9430  -17.7080 C.2       1 LEU         0.2040
     55 O         -29.0070    1.9940  -16.9410 O.2       1 LEU        -0.3944
     56 CB        -27.4610    3.9770  -19.1140 C.3       1 LEU        -0.0101
     57 CG        -26.8220    5.3590  -19.2140 C.3       1 LEU        -0.0425
     58 CD1       -26.9490    5.8910  -20.6400 C.3       1 LEU        -0.0625
     59 CD2       -27.4520    6.3420  -18.2050 C.3       1 LEU        -0.0625
     60 N         -27.7040    0.8630  -18.4220 N.am      1 ASP        -0.2622
     61 CA        -28.4900   -0.3840  -18.3450 C.3       1 ASP         0.1423
     62 C         -28.3560   -1.0180  -16.9610 C.2       1 ASP         0.2057
     63 O         -29.3170   -1.5550  -16.3970 O.2       1 ASP        -0.3943
     64 CB        -28.0320   -1.3990  -19.4020 C.3       1 ASP         0.0406
     65 CG        -28.4620   -1.0310  -20.8220 C.2       1 ASP         0.0393
     66 OD1       -29.2510   -0.0840  -21.0210 O.co2     1 ASP        -0.5688
     67 OD2       -27.9740   -1.7050  -21.7560 O.co2     1 ASP        -0.5688
     68 N         -27.1400   -0.9770  -16.4190 N.am      1 TYR        -0.2620
     69 CA        -26.8470   -1.6670  -15.1700 C.3       1 TYR         0.1390
     70 C         -27.5930   -1.0060  -14.0130 C.2       1 TYR         0.2058
     71 O         -28.2150   -1.6910  -13.1790 O.2       1 TYR        -0.3942
     72 CB        -25.3390   -1.6350  -14.9280 C.3       1 TYR         0.0163
     73 CG        -24.8550   -2.4960  -13.7850 C.ar      1 TYR        -0.0493
     74 CD1       -24.6430   -3.8630  -13.9570 C.ar      1 TYR        -0.0685
     75 CD2       -24.5400   -1.9360  -12.5490 C.ar      1 TYR        -0.0685
     76 CE1       -24.1680   -4.6500  -12.9030 C.ar      1 TYR        -0.0398
     77 CE2       -24.0670   -2.7150  -11.4900 C.ar      1 TYR        -0.0398
     78 CZ        -23.8790   -4.0690  -11.6690 C.ar      1 TYR         0.0805
     79 OH        -23.4150   -4.8550  -10.6110 O.3       1 TYR        -0.3376
     80 N         -27.5560    0.3190  -13.9730 N.am      1 TYR        -0.2620
     81 CA        -28.1380    1.0530  -12.8420 C.3       1 TYR         0.1390
     82 C         -29.5560    1.5630  -13.0840 C.2       1 TYR         0.2055
     83 O         -30.2350    1.9990  -12.1390 O.2       1 TYR        -0.3942
     84 CB        -27.2260    2.2160  -12.4430 C.3       1 TYR         0.0163
     85 CG        -25.9180    1.7770  -11.8420 C.ar      1 TYR        -0.0493
     86 CD1       -24.7170    1.9790  -12.5280 C.ar      1 TYR        -0.0685
     87 CD2       -25.8670    1.1450  -10.5920 C.ar      1 TYR        -0.0685
     88 CE1       -23.5060    1.5660  -11.9860 C.ar      1 TYR        -0.0398
     89 CE2       -24.6470    0.7330  -10.0390 C.ar      1 TYR        -0.0398
     90 CZ        -23.4690    0.9580  -10.7500 C.ar      1 TYR         0.0805
     91 OH        -22.2450    0.5640  -10.2410 O.3       1 TYR        -0.3376
     92 N         -29.9860    1.5120  -14.3450 N.am      1 GLY        -0.2663
     93 CA        -31.2910    2.0360  -14.7780 C.3       1 GLY         0.1203
     94 C         -32.4040    1.0010  -14.7780 C.2       1 GLY         0.2027
     95 O         -32.3680    0.0650  -13.9670 O.2       1 GLY        -0.3945
     96 N         -33.3920    1.1240  -15.7020 N.am      1 PRO        -0.2558
     97 CA        -33.5540    1.8960  -16.9550 C.3       1 PRO         0.0972
     98 C         -32.7460    3.1880  -17.1250 C.2       1 PRO         0.0603
     99 O         -31.9380    3.3050  -18.0650 O.co2     1 PRO        -0.5666
    100 CB        -35.0530    2.2020  -16.9660 C.3       1 PRO        -0.0159
    101 CG        -35.6680    0.9930  -16.3240 C.3       1 PRO        -0.0288
    102 CD        -34.6210    0.3620  -15.4070 C.3       1 PRO         0.0362
    103 OXT       -32.8930    4.1530  -16.3610 O.co2     1 PRO        -0.5666
    104 H1        -15.8296   -1.3326  -22.1785 H         1 ILE         0.2015
    105 H2        -15.9851   -2.5407  -21.0714 H         1 ILE         0.2015
    106 H3        -15.6941   -0.9994  -20.5722 H         1 ILE         0.2015
    107 H4        -18.1271   -1.9624  -21.9253 H         1 ILE         0.1101
    108 H5        -19.3349   -1.6377  -19.8951 H         1 ILE         0.0378
    109 H6        -17.8419    0.3838  -19.2480 H         1 ILE         0.0269
    110 H7        -16.8761   -0.8369  -18.3514 H         1 ILE         0.0269
    111 H8        -18.1199   -3.8036  -20.1121 H         1 ILE         0.0236
    112 H9        -18.3582   -3.3241  -18.3976 H         1 ILE         0.0236
    113 H10       -16.7508   -3.1185  -19.1727 H         1 ILE         0.0236
    114 H11       -18.4937    0.2754  -16.8940 H         1 ILE         0.0230
    115 H12       -18.8701   -1.4723  -17.0685 H         1 ILE         0.0230
    116 H13       -19.8359   -0.2516  -17.9651 H         1 ILE         0.0230
    117 H14       -19.8545   -0.2640  -21.8213 H         1 THR         0.1885
    118 H15       -18.6284    2.3621  -22.5550 H         1 THR         0.0826
    119 H16       -20.6238    2.6533  -24.0477 H         1 THR         0.0639
    120 H17       -21.1864   -0.0429  -23.2586 H         1 THR         0.2101
    121 H18       -19.9893    0.9799  -25.7645 H         1 THR         0.0257
    122 H19       -19.0899    0.0442  -24.5227 H         1 THR         0.0257
    123 H20       -18.5383    1.6913  -24.9802 H         1 THR         0.0257
    124 H21       -20.3462    4.1820  -22.4960 H         1 PHE         0.1885
    125 H22       -21.2678    4.4027  -19.7968 H         1 PHE         0.0823
    126 H23       -22.0765    6.0559  -22.2238 H         1 PHE         0.0474
    127 H24       -20.6402    6.3447  -21.1844 H         1 PHE         0.0474
    128 H25       -21.5867    6.1083  -18.4704 H         1 PHE         0.0557
    129 H26       -23.5959    7.7250  -21.8819 H         1 PHE         0.0557
    130 H27       -23.0093    7.4938  -16.9715 H         1 PHE         0.0599
    131 H28       -24.9861    9.1226  -20.3938 H         1 PHE         0.0599
    132 H29       -24.6821    9.0204  -17.9534 H         1 PHE         0.0559
    133 H30       -22.9552    3.6209  -22.8588 H         1 GLU         0.1883
    134 H31       -25.5647    3.4083  -21.8241 H         1 GLU         0.0801
    135 H32       -25.8879    1.6580  -23.6591 H         1 GLU         0.0330
    136 H33       -24.1553    1.9178  -24.0556 H         1 GLU         0.0330
    137 H34       -24.5781    4.3088  -24.3419 H         1 GLU         0.0433
    138 H35       -26.3104    4.0510  -23.9426 H         1 GLU         0.0433
    139 H36       -22.9150    1.0334  -21.5821 H         1 ASP         0.1884
    140 H37       -24.4776   -1.0876  -20.4663 H         1 ASP         0.0819
    141 H38       -22.3534   -1.8813  -19.4319 H         1 ASP         0.0478
    142 H39       -21.5591   -0.3644  -19.9746 H         1 ASP         0.0478
    143 H40       -22.8315    1.7340  -18.9448 H         1 LEU         0.1883
    144 H41       -23.4851    0.9399  -16.2563 H         1 LEU         0.0800
    145 H42       -23.0659    3.3020  -15.6262 H         1 LEU         0.0315
    146 H43       -22.9650    3.7347  -17.3666 H         1 LEU         0.0315
    147 H44       -21.0284    2.1893  -17.6022 H         1 LEU         0.0298
    148 H45       -19.3830    3.6279  -16.4214 H         1 LEU         0.0232
    149 H46       -20.7169    4.3529  -15.4614 H         1 LEU         0.0232
    150 H47       -20.6578    4.5922  -17.2407 H         1 LEU         0.0232
    151 H48       -21.5656    0.6561  -15.7081 H         1 LEU         0.0232
    152 H49       -21.1718    1.9666  -14.5444 H         1 LEU         0.0232
    153 H50       -19.8882    1.2901  -15.6035 H         1 LEU         0.0232
    154 H51       -25.1341    2.9877  -18.6714 H         1 LEU         0.1883
    155 H52       -27.2655    3.8016  -16.9846 H         1 LEU         0.0800
    156 H53       -28.5528    4.1096  -19.1315 H         1 LEU         0.0315
    157 H54       -27.1479    3.3975  -19.9950 H         1 LEU         0.0315
    158 H55       -25.7528    5.2622  -18.9744 H         1 LEU         0.0298
    159 H56       -26.4860    6.8868  -20.7024 H         1 LEU         0.0232
    160 H57       -28.0126    5.9636  -20.9109 H         1 LEU         0.0232
    161 H58       -26.4398    5.2058  -21.3337 H         1 LEU         0.0232
    162 H59       -27.3488    5.9386  -17.1869 H         1 LEU         0.0232
    163 H60       -28.5182    6.4756  -18.4401 H         1 LEU         0.0232
    164 H61       -26.9380    7.3124  -18.2687 H         1 LEU         0.0232
    165 H62       -26.9086    0.8990  -19.0270 H         1 ASP         0.1884
    166 H63       -29.5475   -0.1398  -18.5243 H         1 ASP         0.0819
    167 H64       -28.4599   -2.3809  -19.1514 H         1 ASP         0.0478
    168 H65       -26.9340   -1.4597  -19.3747 H         1 ASP         0.0478
    169 H66       -26.4151   -0.4632  -16.8778 H         1 TYR         0.1885
    170 H67       -27.1752   -2.7137  -15.2510 H         1 TYR         0.0821
    171 H68       -25.0497   -0.5949  -14.7173 H         1 TYR         0.0453
    172 H69       -24.8391   -1.9758  -15.8467 H         1 TYR         0.0453
    173 H70       -24.8485   -4.3208  -14.9178 H         1 TYR         0.0530
    174 H71       -24.6650   -0.8689  -12.4052 H         1 TYR         0.0530
    175 H72       -24.0241   -5.7149  -13.0459 H         1 TYR         0.0525
    176 H73       -23.8488   -2.2569  -10.5321 H         1 TYR         0.0525
    177 H74       -23.3407   -5.7577  -10.8975 H         1 TYR         0.2458
    178 H75       -27.1268    0.8242  -14.7217 H         1 TYR         0.1885
    179 H76       -28.1861    0.3539  -11.9941 H         1 TYR         0.0821
    180 H77       -27.7564    2.8368  -11.7059 H         1 TYR         0.0453
    181 H78       -27.0126    2.8145  -13.3409 H         1 TYR         0.0453
    182 H79       -24.7305    2.4649  -13.4969 H         1 TYR         0.0530
    183 H80       -26.7862    0.9721  -10.0441 H         1 TYR         0.0530
    184 H81       -22.5863    1.7228  -12.5380 H         1 TYR         0.0525
    185 H82       -24.6196    0.2457   -9.0711 H         1 TYR         0.0525
    186 H83       -22.2471   -0.3765  -10.1066 H         1 TYR         0.2458
    187 H84       -29.3906    1.0960  -15.0323 H         1 GLY         0.1881
    188 H85       -31.1842    2.4289  -15.7999 H         1 GLY         0.0763
    189 H86       -31.5782    2.8526  -14.0993 H         1 GLY         0.0763
    190 H87       -33.2955    1.2425  -17.8012 H         1 PRO         0.0728
    191 H88       -35.4199    2.3288  -17.9952 H         1 PRO         0.0306
    192 H89       -35.2724    3.1093  -16.3841 H         1 PRO         0.0306
    193 H90       -35.9696    0.2719  -17.0980 H         1 PRO         0.0286
    194 H91       -36.5490    1.2898  -15.7360 H         1 PRO         0.0286
    195 H92       -34.9071    0.4728  -14.3507 H         1 PRO         0.0524
    196 H93       -34.4868   -0.7045  -15.6406 H         1 PRO         0.0524
@<TRIPOS>BOND
     1    1    2 1  
     2    2    3 1  
     3    2    5 1  
     4    3    4 2  
     5    3    9 am 
     6    5    6 1  
     7    5    7 1  
     8    6    8 1  
     9    9   10 1  
    10   10   11 1  
    11   10   13 1  
    12   11   12 2  
    13   11   16 am 
    14   13   14 1  
    15   13   15 1  
    16   16   17 1  
    17   17   18 1  
    18   17   20 1  
    19   18   19 2  
    20   18   27 am 
    21   20   21 1  
    22   21   22 ar 
    23   21   23 ar 
    24   22   24 ar 
    25   23   25 ar 
    26   24   26 ar 
    27   25   26 ar 
    28   27   28 1  
    29   28   29 1  
    30   28   31 1  
    31   29   30 2  
    32   29   36 am 
    33   31   32 1  
    34   32   33 1  
    35   33   34 ar 
    36   33   35 ar 
    37   36   37 1  
    38   37   38 1  
    39   37   40 1  
    40   38   39 2  
    41   38   44 am 
    42   40   41 1  
    43   41   42 ar 
    44   41   43 ar 
    45   44   45 1  
    46   45   46 1  
    47   45   48 1  
    48   46   47 2  
    49   46   52 am 
    50   48   49 1  
    51   49   50 1  
    52   49   51 1  
    53   52   53 1  
    54   53   54 1  
    55   53   56 1  
    56   54   55 2  
    57   54   60 am 
    58   56   57 1  
    59   57   58 1  
    60   57   59 1  
    61   60   61 1  
    62   61   62 1  
    63   61   64 1  
    64   62   63 2  
    65   62   68 am 
    66   64   65 1  
    67   65   66 ar 
    68   65   67 ar 
    69   68   69 1  
    70   69   70 1  
    71   69   72 1  
    72   70   71 2  
    73   70   80 am 
    74   72   73 1  
    75   73   74 ar 
    76   73   75 ar 
    77   74   76 ar 
    78   75   77 ar 
    79   76   78 ar 
    80   77   78 ar 
    81   78   79 1  
    82   80   81 1  
    83   81   82 1  
    84   81   84 1  
    85   82   83 2  
    86   82   92 am 
    87   84   85 1  
    88   85   86 ar 
    89   85   87 ar 
    90   86   88 ar 
    91   87   89 ar 
    92   88   90 ar 
    93   89   90 ar 
    94   90   91 1  
    95   92   93 1  
    96   93   94 1  
    97   94   95 2  
    98   94   96 am 
    99   96   97 1  
   100   96  102 1  
   101   97   98 1  
   102   97  100 1  
   103   98   99 ar 
   104   98  103 ar 
   105  100  101 1  
   106  101  102 1  
   107    1  104 1  
   108    1  105 1  
   109    1  106 1  
   110    2  107 1  
   111    5  108 1  
   112    6  109 1  
   113    6  110 1  
   114    7  111 1  
   115    7  112 1  
   116    7  113 1  
   117    8  114 1  
   118    8  115 1  
   119    8  116 1  
   120    9  117 1  
   121   10  118 1  
   122   13  119 1  
   123   14  120 1  
   124   15  121 1  
   125   15  122 1  
   126   15  123 1  
   127   16  124 1  
   128   17  125 1  
   129   20  126 1  
   130   20  127 1  
   131   22  128 1  
   132   23  129 1  
   133   24  130 1  
   134   25  131 1  
   135   26  132 1  
   136   27  133 1  
   137   28  134 1  
   138   31  135 1  
   139   31  136 1  
   140   32  137 1  
   141   32  138 1  
   142   36  139 1  
   143   37  140 1  
   144   40  141 1  
   145   40  142 1  
   146   44  143 1  
   147   45  144 1  
   148   48  145 1  
   149   48  146 1  
   150   49  147 1  
   151   50  148 1  
   152   50  149 1  
   153   50  150 1  
   154   51  151 1  
   155   51  152 1  
   156   51  153 1  
   157   52  154 1  
   158   53  155 1  
   159   56  156 1  
   160   56  157 1  
   161   57  158 1  
   162   58  159 1  
   163   58  160 1  
   164   58  161 1  
   165   59  162 1  
   166   59  163 1  
   167   59  164 1  
   168   60  165 1  
   169   61  166 1  
   170   64  167 1  
   171   64  168 1  
   172   68  169 1  
   173   69  170 1  
   174   72  171 1  
   175   72  172 1  
   176   74  173 1  
   177   75  174 1  
   178   76  175 1  
   179   77  176 1  
   180   79  177 1  
   181   80  178 1  
   182   81  179 1  
   183   84  180 1  
   184   84  181 1  
   185   86  182 1  
   186   87  183 1  
   187   88  184 1  
   188   89  185 1  
   189   91  186 1  
   190   92  187 1  
   191   93  188 1  
   192   93  189 1  
   193   97  190 1  
   194  100  191 1  
   195  100  192 1  
   196  101  193 1  
   197  101  194 1  
   198  102  195 1  
   199  102  196 1  
@<TRIPOS>SUBSTRUCTURE
     1 ILE         1

