4l4v_ligand
  -I-interpret- 

 39 40  0  0  0  0  0  0  0  0999 V2000
  -88.9240   68.3680   95.5920 O   0  0  0  0  0
  -90.0850   67.8550   95.0850 C   0  0  0  0  0
  -90.8350   68.7030   94.2740 C   0  0  0  0  0
  -90.4030   70.0330   94.0510 C   0  0  0  0  0
  -91.9660   68.2340   93.7060 N   0  0  0  0  0
  -92.3650   66.9530   93.9090 C   0  0  0  0  0
  -93.5910   66.4900   93.4030 C   0  0  0  0  0
  -94.3580   67.2580   92.8120 O   0  0  0  0  0
  -94.0220   65.2430   93.7170 N   0  0  0  0  0
  -93.2350   64.4140   94.4580 C   0  0  0  0  0
  -93.5520   63.2410   94.6730 O   0  0  0  0  0
  -92.0590   64.8580   94.9590 N   0  0  0  0  0
  -91.6010   66.1060   94.7220 C   0  0  0  0  0
  -90.4500   66.5710   95.2940 N   0  0  0  0  0
  -89.6910   65.7840   96.2960 C   0  0  0  0  0
  -88.4650   65.0080   95.8550 C   0  0  0  0  0
  -87.6330   65.8090   94.9800 O   0  0  0  0  0
  -88.8790   63.6780   95.2190 C   0  0  0  0  0
  -90.1060   63.1520   95.8230 O   0  0  0  0  0
  -87.7150   62.6570   95.2370 C   0  0  0  0  0
  -88.1510   61.5800   94.4560 O   0  0  0  0  0
  -87.4760   62.0780   96.6220 C   0  0  0  0  0
  -86.0910   61.9780   97.0210 O   0  0  0  0  0
  -88.4907   67.7031   96.1322 H   0  0  0  0  0
  -90.3462   70.5597   95.0036 H   0  0  0  0  0
  -89.4191   70.0203   93.5821 H   0  0  0  0  0
  -91.1124   70.5391   93.3962 H   0  0  0  0  0
  -94.9372   64.9253   93.3977 H   0  0  0  0  0
  -90.3917   65.0244   96.6425 H   0  0  0  0  0
  -89.3136   66.5229   97.0029 H   0  0  0  0  0
  -87.8589   64.7726   96.7299 H   0  0  0  0  0
  -86.8649   65.2980   94.7145 H   0  0  0  0  0
  -89.1098   63.8652   94.1703 H   0  0  0  0  0
  -90.3371   62.3203   95.4029 H   0  0  0  0  0
  -86.8053   63.1498   94.8939 H   0  0  0  0  0
  -87.4660   60.9079   94.4288 H   0  0  0  0  0
  -87.8698   61.0617   96.6068 H   0  0  0  0  0
  -87.9557   62.7545   97.3293 H   0  0  0  0  0
  -86.0396   61.6039   97.9036 H   0  0  0  0  0
  1  2  1  0  0  0
  2  3  2  0  0  0
  2 14  1  0  0  0
  3  4  1  0  0  0
  3  5  1  0  0  0
  5  6  2  0  0  0
  6  7  1  0  0  0
  6 13  1  0  0  0
  7  8  2  0  0  0
  7  9  1  0  0  0
  9 10  1  0  0  0
 10 11  2  0  0  0
 10 12  1  0  0  0
 12 13  2  0  0  0
 13 14  1  0  0  0
 14 15  1  0  0  0
 15 16  1  0  0  0
 16 17  1  0  0  0
 16 18  1  0  0  0
 18 19  1  0  0  0
 18 20  1  0  0  0
 20 21  1  0  0  0
 20 22  1  0  0  0
 22 23  1  0  0  0
  1 24  1  0  0  0
  4 25  1  0  0  0
  4 26  1  0  0  0
  4 27  1  0  0  0
  9 28  1  0  0  0
 15 29  1  0  0  0
 15 30  1  0  0  0
 16 31  1  0  0  0
 17 32  1  0  0  0
 18 33  1  0  0  0
 19 34  1  0  0  0
 20 35  1  0  0  0
 21 36  1  0  0  0
 22 37  1  0  0  0
 22 38  1  0  0  0
 23 39  1  0  0  0
M  END
$$$$
