1ym4_ligand
  -I-interpret- 

 96 96  0  0  0  0  0  0  0  0999 V2000
   29.6060    5.9860    9.6350 N   0  0  0  0  0
   30.8690    5.2750    9.5090 C   0  0  0  0  0
   31.0950    4.6900    8.0950 C   0  0  0  0  0
   30.0880    3.7350    7.7430 O   0  0  0  0  0
   31.1390    5.7590    7.0240 C   0  0  0  0  0
   31.6750    5.0190    5.7560 C   0  0  0  0  0
   30.8200    5.4830    4.5820 C   0  0  0  0  0
   29.4500    5.8410    5.1840 C   0  0  0  0  0
   29.6890    6.1850    6.6820 C   0  0  0  0  0
   33.1460    5.2880    5.5360 C   0  0  0  0  0
   33.6080    6.3910    5.7780 O   0  0  0  0  0
   33.8920    4.2760    5.0780 N   0  0  0  0  0
   35.3010    4.5490    4.7890 C   0  0  0  0  0
   36.0640    3.2390    4.6360 C   0  0  0  0  0
   35.3840    5.3470    3.5120 C   0  0  0  0  0
   34.4110    5.9390    3.0530 O   0  0  0  0  0
   36.5680    5.3600    2.9060 O   0  0  0  0  0
   30.9510    4.1700   10.5950 C   0  0  0  0  0
   30.9280    4.8450   11.9800 C   0  0  0  0  0
   32.2860    5.5390   12.2340 C   0  0  0  0  0
   30.6670    3.8000   13.0910 C   0  0  0  0  0
   29.6310    7.3240    9.5400 C   0  0  0  0  0
   30.6230    7.9460    9.2110 O   0  0  0  0  0
   28.3660    8.0300    9.8640 C   0  0  0  0  0
   28.2800    8.0240   11.3100 N   0  0  0  0  0
   27.0800    7.9270   11.8590 C   0  0  0  0  0
   26.0420    7.9220   11.2030 O   0  0  0  0  0
   27.0250    7.8310   13.3520 C   0  0  0  0  0
   25.7800    8.4780   13.7920 N   0  0  0  0  0
   25.8880    9.4510   14.7140 C   0  0  0  0  0
   26.8800    9.5850   15.3980 O   0  0  0  0  0
   24.7510   10.3960   14.8910 C   0  0  0  0  0
   23.7960   10.2990   13.7810 N   0  3  0  0  0
   24.0610   10.2280   16.2640 C   0  0  0  0  0
   23.8780   11.6360   16.9010 C   0  0  0  0  0
   22.4280   11.9150   17.2990 C   0  0  0  0  0
   21.5990   11.0280   17.4280 O   0  0  0  0  0
   22.1170   13.2050   17.5090 O   0  0  0  0  0
   27.1550    6.3510   13.7810 C   0  0  0  0  0
   27.3540    6.2060   15.3270 C   0  0  0  0  0
   25.9300    5.5500   13.3400 C   0  0  0  0  0
   28.3530    9.5150    9.3320 C   0  0  0  0  0
   26.9420   10.1210    9.3510 C   0  0  0  0  0
   26.1120    9.7680    8.5270 O   0  0  0  0  0
   26.6630   11.0380   10.3100 N   0  0  0  0  0
   28.7315    5.4844    9.7902 H   0  0  0  0  0
   31.6715    5.9966    9.6620 H   0  0  0  0  0
   32.0656    4.1962    8.1414 H   0  0  0  0  0
   30.0492    3.0502    8.4147 H   0  0  0  0  0
   31.7311    6.6204    7.3330 H   0  0  0  0  0
   31.5964    3.9382    5.8739 H   0  0  0  0  0
   30.7308    4.7063    3.8225 H   0  0  0  0  0
   31.2685    6.3378    4.0758 H   0  0  0  0  0
   28.7551    5.0071    5.0854 H   0  0  0  0  0
   29.0069    6.6875    4.6593 H   0  0  0  0  0
   29.5507    7.2518    6.8577 H   0  0  0  0  0
   28.9748    5.6589    7.3154 H   0  0  0  0  0
   33.4934    3.3480    4.9354 H   0  0  0  0  0
   35.7454    5.1141    5.6083 H   0  0  0  0  0
   35.9909    2.6673    5.5611 H   0  0  0  0  0
   35.6339    2.6631    3.8166 H   0  0  0  0  0
   37.1110    3.4528    4.4212 H   0  0  0  0  0
   37.1940    4.8427    3.4180 H   0  0  0  0  0
   31.8705    3.5971   10.4750 H   0  0  0  0  0
   30.1054    3.4891   10.4983 H   0  0  0  0  0
   30.1248    5.5816   11.9984 H   0  0  0  0  0
   33.0834    4.7966   12.2028 H   0  0  0  0  0
   32.4578    6.2912   11.4640 H   0  0  0  0  0
   32.2708    6.0168   13.2136 H   0  0  0  0  0
   29.7049    3.3184   12.9162 H   0  0  0  0  0
   31.4581    3.0503   13.0760 H   0  0  0  0  0
   30.6548    4.2978   14.0606 H   0  0  0  0  0
   27.5212    7.5329    9.3873 H   0  0  0  0  0
   29.1183    8.0924   11.8870 H   0  0  0  0  0
   27.8549    8.3488   13.8329 H   0  0  0  0  0
   24.8739    8.2009   13.4143 H   0  0  0  0  0
   25.1662   11.4037   14.8749 H   0  0  0  0  0
   23.0319   10.9574   13.9329 H   0  0  0  0  0
   24.2699   10.5224   12.9058 H   0  0  0  0  0
   23.4247    9.3501   13.7354 H   0  0  0  0  0
   24.6732    9.6026   16.9138 H   0  0  0  0  0
   23.0904    9.7487   16.1362 H   0  0  0  0  0
   24.1729   12.3805   16.1615 H   0  0  0  0  0
   24.4884   11.6789   17.8030 H   0  0  0  0  0
   22.8939   13.7487   17.3595 H   0  0  0  0  0
   28.0418    5.9529   13.2879 H   0  0  0  0  0
   28.2622    6.7295   15.6258 H   0  0  0  0  0
   26.4973    6.6378   15.8444 H   0  0  0  0  0
   27.4406    5.1501   15.5834 H   0  0  0  0  0
   25.0364    5.9729   13.7990 H   0  0  0  0  0
   25.8389    5.5958   12.2548 H   0  0  0  0  0
   26.0442    4.5121   13.6528 H   0  0  0  0  0
   28.7082    9.5108    8.3015 H   0  0  0  0  0
   28.9903   10.1151    9.9814 H   0  0  0  0  0
   25.7345   11.4573   10.3600 H   0  0  0  0  0
   27.3816   11.3085   10.9815 H   0  0  0  0  0
  1  2  1  0  0  0
  1 22  1  0  0  0
  2  3  1  0  0  0
  2 18  1  0  0  0
  3  4  1  0  0  0
  3  5  1  0  0  0
  5  6  1  0  0  0
  5  9  1  0  0  0
  6  7  1  0  0  0
  6 10  1  0  0  0
  7  8  1  0  0  0
  8  9  1  0  0  0
 10 11  2  0  0  0
 10 12  1  0  0  0
 12 13  1  0  0  0
 13 14  1  0  0  0
 13 15  1  0  0  0
 15 16  2  0  0  0
 15 17  1  0  0  0
 18 19  1  0  0  0
 19 20  1  0  0  0
 19 21  1  0  0  0
 22 23  2  0  0  0
 22 24  1  0  0  0
 24 25  1  0  0  0
 24 42  1  0  0  0
 25 26  1  0  0  0
 26 27  2  0  0  0
 26 28  1  0  0  0
 28 29  1  0  0  0
 28 39  1  0  0  0
 29 30  1  0  0  0
 30 31  2  0  0  0
 30 32  1  0  0  0
 32 33  1  0  0  0
 32 34  1  0  0  0
 34 35  1  0  0  0
 35 36  1  0  0  0
 36 37  2  0  0  0
 36 38  1  0  0  0
 39 40  1  0  0  0
 39 41  1  0  0  0
 42 43  1  0  0  0
 43 44  2  0  0  0
 43 45  1  0  0  0
  1 46  1  0  0  0
  2 47  1  0  0  0
  3 48  1  0  0  0
  4 49  1  0  0  0
  5 50  1  0  0  0
  6 51  1  0  0  0
  7 52  1  0  0  0
  7 53  1  0  0  0
  8 54  1  0  0  0
  8 55  1  0  0  0
  9 56  1  0  0  0
  9 57  1  0  0  0
 12 58  1  0  0  0
 13 59  1  0  0  0
 14 60  1  0  0  0
 14 61  1  0  0  0
 14 62  1  0  0  0
 17 63  1  0  0  0
 18 64  1  0  0  0
 18 65  1  0  0  0
 19 66  1  0  0  0
 20 67  1  0  0  0
 20 68  1  0  0  0
 20 69  1  0  0  0
 21 70  1  0  0  0
 21 71  1  0  0  0
 21 72  1  0  0  0
 24 73  1  0  0  0
 25 74  1  0  0  0
 28 75  1  0  0  0
 29 76  1  0  0  0
 32 77  1  0  0  0
 33 78  1  0  0  0
 33 79  1  0  0  0
 33 80  1  0  0  0
 34 81  1  0  0  0
 34 82  1  0  0  0
 35 83  1  0  0  0
 35 84  1  0  0  0
 38 85  1  0  0  0
 39 86  1  0  0  0
 40 87  1  0  0  0
 40 88  1  0  0  0
 40 89  1  0  0  0
 41 90  1  0  0  0
 41 91  1  0  0  0
 41 92  1  0  0  0
 42 93  1  0  0  0
 42 94  1  0  0  0
 45 95  1  0  0  0
 45 96  1  0  0  0
M  END
$$$$
