2nmy_ligand
  -I-interpret- 

100104  0  0  0  0  0  0  0  0999 V2000
   21.3160   28.0230   18.7860 O   0  0  0  0  0
   21.7490   26.8050   18.7900 C   0  0  0  0  0
   23.3760   25.0100   19.2660 N   0  0  0  0  0
   22.8630   26.2350   19.5820 C   0  0  0  0  0
   23.4120   26.9840   20.6270 C   0  0  0  0  0
   24.5010   26.4220   21.3230 C   0  0  0  0  0
   25.0350   25.1550   20.9980 C   0  0  0  0  0
   26.1110   24.5650   21.6620 C   0  0  0  0  0
   26.5900   23.3250   21.3010 C   0  0  0  0  0
   26.0060   22.6300   20.2570 C   0  0  0  0  0
   24.9460   23.1980   19.5950 C   0  0  0  0  0
   24.4350   24.4580   19.9370 C   0  0  0  0  0
   21.1920   25.9130   17.9020 N   0  0  0  0  0
   19.9340   26.1320   17.0460 C   0  0  0  0  0
   18.8800   24.9880   17.2750 C   0  0  0  0  0
   18.8350   23.9360   16.5710 O   0  0  0  0  0
   20.2840   26.2720   15.5030 C   0  0  0  0  0
   21.2790   27.3910   15.3910 C   0  0  0  0  0
   22.5290   27.1740   15.1770 O   0  0  0  0  0
   20.8740   28.6270   15.5050 N   0  0  0  0  0
   15.6590   24.7940   18.4730 C   0  0  0  0  0
   15.3100   25.8970   19.3130 O   0  0  0  0  0
   17.0730   24.2490   18.8020 C   0  0  0  0  0
   18.1020   25.1880   18.3350 N   0  0  0  0  0
   17.2550   23.9090   20.3430 C   0  0  0  0  0
   18.7020   23.6360   20.7300 C   0  0  0  0  0
   19.3300   22.4280   20.3850 C   0  0  0  0  0
   19.4280   24.5580   21.4450 C   0  0  0  0  0
   20.6250   22.1710   20.7480 C   0  0  0  0  0
   20.7280   24.3030   21.8100 C   0  0  0  0  0
   21.3710   23.1000   21.4740 C   0  0  0  0  0
   14.4650   22.9930   17.2080 N   0  3  0  0  0
   14.5760   23.7260   18.4630 C   0  0  0  0  0
   13.8350   21.6460   17.3150 C   0  0  0  0  0
   14.5280   20.7830   18.3590 C   0  0  0  0  0
   15.7260   20.5630   18.2430 O   0  0  0  0  0
   13.8440   20.9340   15.9790 C   0  0  0  0  0
   13.1820   21.7180   14.8750 C   0  0  0  0  0
   13.2990   21.0840   13.4710 C   0  0  0  0  0
   14.7250   21.2020   12.9000 C   0  0  0  0  0
   15.0460   22.6730   12.7470 C   0  0  0  0  0
   15.0920   23.2290   14.1710 C   0  0  0  0  0
   13.7210   23.1660   14.8180 C   0  0  0  0  0
   13.7230   23.7890   16.1940 C   0  0  0  0  0
   13.7430   20.1270   19.2750 N   0  0  0  0  0
   14.1900   19.1990   20.3240 C   0  0  0  0  0
   12.9740   18.7690   21.0910 C   0  0  0  0  0
   15.1320   19.9730   21.2380 C   0  0  0  0  0
   14.9270   18.0370   19.6990 C   0  0  0  0  0
   23.0138   27.9632   20.8928 H   0  0  0  0  0
   24.9477   26.9855   22.1421 H   0  0  0  0  0
   26.5841   25.0983   22.4865 H   0  0  0  0  0
   27.4319   22.8899   21.8396 H   0  0  0  0  0
   26.3809   21.6489   19.9653 H   0  0  0  0  0
   24.4849   22.6495   18.7737 H   0  0  0  0  0
   21.6626   25.0136   17.8015 H   0  0  0  0  0
   19.4905   27.0735   17.3699 H   0  0  0  0  0
   19.3895   26.4853   14.9178 H   0  0  0  0  0
   20.6964   25.3425   15.1106 H   0  0  0  0  0
   21.5433   29.3925   15.4242 H   0  0  0  0  0
   19.8883   28.8271   15.6749 H   0  0  0  0  0
   15.7162   25.1588   17.4474 H   0  0  0  0  0
   14.4315   26.2080   19.0824 H   0  0  0  0  0
   17.1907   23.3062   18.2677 H   0  0  0  0  0
   18.2285   26.0532   18.8601 H   0  0  0  0  0
   16.6811   23.0062   20.5521 H   0  0  0  0  0
   16.9178   24.7739   20.9142 H   0  0  0  0  0
   18.7757   21.6806   19.8173 H   0  0  0  0  0
   18.9664   25.5045   21.7264 H   0  0  0  0  0
   21.0817   21.2228   20.4644 H   0  0  0  0  0
   21.2761   25.0558   22.3765 H   0  0  0  0  0
   22.4023   22.9021   21.7662 H   0  0  0  0  0
   15.4316   22.8391   16.9209 H   0  0  0  0  0
   13.6246   24.2336   18.6223 H   0  0  0  0  0
   14.8343   23.0012   19.2351 H   0  0  0  0  0
   12.8027   21.8025   17.6281 H   0  0  0  0  0
   13.2877   20.0045   16.0996 H   0  0  0  0  0
   14.8856   20.7839   15.6949 H   0  0  0  0  0
   12.1238   21.7106   15.1362 H   0  0  0  0  0
   12.6196   21.6116   12.8016 H   0  0  0  0  0
   13.0520   20.0256   13.5538 H   0  0  0  0  0
   14.7872   20.7001   11.9344 H   0  0  0  0  0
   15.4405   20.7279   13.5718 H   0  0  0  0  0
   14.2982   23.1850   12.1414 H   0  0  0  0  0
   15.9922   22.8243   12.2275 H   0  0  0  0  0
   15.4150   24.2693   14.1321 H   0  0  0  0  0
   15.7867   22.6302   14.7600 H   0  0  0  0  0
   13.0490   23.7489   14.1881 H   0  0  0  0  0
   14.2173   24.7571   16.1133 H   0  0  0  0  0
   12.6864   23.8538   16.5245 H   0  0  0  0  0
   12.7397   20.3029   19.2218 H   0  0  0  0  0
   12.4965   19.6437   21.5326 H   0  0  0  0  0
   12.2759   18.2746   20.4155 H   0  0  0  0  0
   13.2694   18.0775   21.8801 H   0  0  0  0  0
   15.9811   20.3361   20.6590 H   0  0  0  0  0
   14.5998   20.8184   21.6742 H   0  0  0  0  0
   15.4865   19.3162   22.0324 H   0  0  0  0  0
   14.2615   17.5130   19.0129 H   0  0  0  0  0
   15.7938   18.4095   19.1531 H   0  0  0  0  0
   15.2554   17.3533   20.4818 H   0  0  0  0  0
  2  1  2  0  0  0
  2  4  1  0  0  0
 13  2  1  0  0  0
  4  3  4  0  0  0
  3 12  4  0  0  0
  4  5  4  0  0  0
  5  6  4  0  0  0
  6  7  4  0  0  0
  7  8  4  0  0  0
 12  7  4  0  0  0
  8  9  4  0  0  0
 10  9  4  0  0  0
 11 10  4  0  0  0
 12 11  4  0  0  0
 14 13  1  0  0  0
 15 14  1  0  0  0
 14 17  1  0  0  0
 15 16  2  0  0  0
 24 15  1  0  0  0
 17 18  1  0  0  0
 18 19  2  0  0  0
 18 20  1  0  0  0
 21 22  1  0  0  0
 23 21  1  0  0  0
 21 33  1  0  0  0
 23 24  1  0  0  0
 23 25  1  0  0  0
 25 26  1  0  0  0
 26 27  4  0  0  0
 26 28  4  0  0  0
 27 29  4  0  0  0
 28 30  4  0  0  0
 29 31  4  0  0  0
 30 31  4  0  0  0
 33 32  1  0  0  0
 32 34  1  0  0  0
 32 44  1  0  0  0
 34 35  1  0  0  0
 34 37  1  0  0  0
 35 36  2  0  0  0
 35 45  1  0  0  0
 37 38  1  0  0  0
 38 39  1  0  0  0
 38 43  1  0  0  0
 39 40  1  0  0  0
 40 41  1  0  0  0
 41 42  1  0  0  0
 42 43  1  0  0  0
 43 44  1  0  0  0
 45 46  1  0  0  0
 46 47  1  0  0  0
 46 48  1  0  0  0
 46 49  1  0  0  0
  5 50  1  0  0  0
  6 51  1  0  0  0
  8 52  1  0  0  0
  9 53  1  0  0  0
 10 54  1  0  0  0
 11 55  1  0  0  0
 13 56  1  0  0  0
 14 57  1  0  0  0
 17 58  1  0  0  0
 17 59  1  0  0  0
 20 60  1  0  0  0
 20 61  1  0  0  0
 21 62  1  0  0  0
 22 63  1  0  0  0
 23 64  1  0  0  0
 24 65  1  0  0  0
 25 66  1  0  0  0
 25 67  1  0  0  0
 27 68  1  0  0  0
 28 69  1  0  0  0
 29 70  1  0  0  0
 30 71  1  0  0  0
 31 72  1  0  0  0
 32 73  1  0  0  0
 33 74  1  0  0  0
 33 75  1  0  0  0
 34 76  1  0  0  0
 37 77  1  0  0  0
 37 78  1  0  0  0
 38 79  1  0  0  0
 39 80  1  0  0  0
 39 81  1  0  0  0
 40 82  1  0  0  0
 40 83  1  0  0  0
 41 84  1  0  0  0
 41 85  1  0  0  0
 42 86  1  0  0  0
 42 87  1  0  0  0
 43 88  1  0  0  0
 44 89  1  0  0  0
 44 90  1  0  0  0
 45 91  1  0  0  0
 47 92  1  0  0  0
 47 93  1  0  0  0
 47 94  1  0  0  0
 48 95  1  0  0  0
 48 96  1  0  0  0
 48 97  1  0  0  0
 49 98  1  0  0  0
 49 99  1  0  0  0
 49100  1  0  0  0
M  END
$$$$
