### 
### Created by X-TOOL on Mon Sep 10 21:12:55 2018
### 

@<TRIPOS>MOLECULE
2r9m_ligand
   67    69     1     0     0
SMALL
GAST_HUCK


@<TRIPOS>ATOM
      1 C01        61.3310   36.1020   62.8230 C.2       1 Y11         0.2623
      2 C02        59.2690   37.3430   62.3390 C.3       1 Y11         0.0577
      3 C03        58.8430   38.2930   61.2280 C.3       1 Y11         0.0678
      4 C04        59.7360   36.9080   59.5530 C.3       1 Y11         0.0678
      5 C05        60.2550   35.8810   60.5720 C.3       1 Y11         0.0577
      6 O06        61.2850   36.4360   64.0110 O.2       1 Y11        -0.4005
      7 O07        58.5680   37.5640   60.0420 O.3       1 Y11        -0.3758
      8 N08        60.3440   36.4300   61.9280 N.am      1 Y11        -0.2550
      9 N09        62.3570   35.3790   62.3690 N.am      1 Y11        -0.2517
     10 C10        63.4590   35.0310   63.2860 C.3       1 Y11         0.1309
     11 C11        64.4500   34.0740   62.6200 C.3       1 Y11        -0.0098
     12 C12        63.7860   32.8280   62.0240 C.3       1 Y11        -0.0369
     13 C13        64.8370   31.8880   61.4310 C.3       1 Y11        -0.0500
     14 C14        64.2260   30.6440   60.7980 C.3       1 Y11        -0.0528
     15 C15        63.3720   29.8580   61.8190 C.3       1 Y11        -0.0530
     16 C16        62.3490   30.7690   62.5580 C.3       1 Y11        -0.0528
     17 C17        63.0280   32.0520   63.1030 C.3       1 Y11        -0.0500
     18 C18        64.1760   36.3170   63.7160 C.2       1 Y11         0.1965
     19 O19        64.4530   37.1700   62.8840 O.2       1 Y11        -0.3951
     20 N20        64.4700   36.4330   65.0140 N.am      1 Y11        -0.2951
     21 C21        64.3930   38.8910   65.1690 C.3       1 Y11         0.0027
     22 C22        62.9040   38.9060   65.4720 C.3       1 Y11        -0.0349
     23 C23        63.3840   37.4030   67.4710 C.3       1 Y11        -0.0349
     24 C24        64.8820   37.5390   67.1370 C.3       1 Y11         0.0027
     25 N25        62.5730   38.5260   66.8800 N.4       1 Y11         0.2324
     26 C26        61.1170   38.1810   66.9530 C.3       1 Y11        -0.0431
     27 C27        66.6000   37.7470   65.3290 C.2       1 Y11         0.0441
     28 N28        67.3300   38.7740   65.7340 N.2       1 Y11        -0.2686
     29 C29        65.1060   37.6190   65.6310 C.3       1 Y11         0.0887
     30 H1         58.3974   36.7449   62.6431 H         1 Y11         0.0542
     31 H2         59.6216   37.9383   63.1941 H         1 Y11         0.0542
     32 H3         59.6525   39.0119   61.0337 H         1 Y11         0.0580
     33 H4         57.9381   38.8351   61.5399 H         1 Y11         0.0580
     34 H5         59.4920   36.3913   58.6131 H         1 Y11         0.0580
     35 H6         60.5189   37.6579   59.3667 H         1 Y11         0.0580
     36 H7         61.2562   35.5493   60.2596 H         1 Y11         0.0542
     37 H8         59.5707   35.0199   60.5845 H         1 Y11         0.0542
     38 H9         62.3785   35.0761   61.4162 H         1 Y11         0.1877
     39 H10        63.0391   34.5391   64.1758 H         1 Y11         0.0797
     40 H11        65.1834   33.7514   63.3737 H         1 Y11         0.0315
     41 H12        64.9669   34.6135   61.8127 H         1 Y11         0.0315
     42 H13        63.0855   33.1401   61.2355 H         1 Y11         0.0303
     43 H14        65.5208   31.5743   62.2334 H         1 Y11         0.0268
     44 H15        65.4016   32.4333   60.6604 H         1 Y11         0.0268
     45 H16        65.0343   29.9944   60.4311 H         1 Y11         0.0265
     46 H17        63.5879   30.9472   59.9548 H         1 Y11         0.0265
     47 H18        64.0412   29.4014   62.5631 H         1 Y11         0.0265
     48 H19        62.8222   29.0679   61.2866 H         1 Y11         0.0265
     49 H20        61.9130   30.2096   63.3988 H         1 Y11         0.0265
     50 H21        61.5522   31.0559   61.8560 H         1 Y11         0.0265
     51 H22        62.2523   32.7067   63.5268 H         1 Y11         0.0268
     52 H23        63.7376   31.7651   63.8931 H         1 Y11         0.0268
     53 H24        64.2443   35.6636   65.6116 H         1 Y11         0.1774
     54 H25        64.8578   39.7512   65.6730 H         1 Y11         0.0276
     55 H26        64.5263   38.9873   64.0814 H         1 Y11         0.0276
     56 H27        62.4046   38.1976   64.7947 H         1 Y11         0.0809
     57 H28        62.5223   39.9210   65.2874 H         1 Y11         0.0809
     58 H29        63.2610   37.4125   68.5640 H         1 Y11         0.0809
     59 H30        63.0151   36.4480   67.0687 H         1 Y11         0.0809
     60 H31        65.4189   36.6647   67.5336 H         1 Y11         0.0276
     61 H32        65.2728   38.4535   67.6069 H         1 Y11         0.0276
     62 H33        62.7367   39.3393   67.4525 H         1 Y11         0.2030
     63 H34        60.5239   39.0008   66.5215 H         1 Y11         0.0777
     64 H35        60.8275   38.0327   68.0038 H         1 Y11         0.0777
     65 H36        60.9304   37.2563   66.3872 H         1 Y11         0.0777
     66 H37        67.0844   36.9582   64.7554 H         1 Y11         0.1090
     67 H38        68.3120   38.8138   65.5101 H         1 Y11         0.2165
@<TRIPOS>BOND
     1    1    6 2  
     2    1    8 am 
     3    9    1 am 
     4    2    3 1  
     5    8    2 1  
     6    3    7 1  
     7    5    4 1  
     8    4    7 1  
     9    8    5 1  
    10   10    9 1  
    11   10   11 1  
    12   18   10 1  
    13   11   12 1  
    14   12   13 1  
    15   12   17 1  
    16   13   14 1  
    17   14   15 1  
    18   16   15 1  
    19   17   16 1  
    20   18   19 2  
    21   20   18 am 
    22   29   20 1  
    23   21   22 1  
    24   29   21 1  
    25   22   25 1  
    26   24   23 1  
    27   23   25 1  
    28   29   24 1  
    29   25   26 1  
    30   27   28 2  
    31   27   29 1  
    32    2   30 1  
    33    2   31 1  
    34    3   32 1  
    35    3   33 1  
    36    4   34 1  
    37    4   35 1  
    38    5   36 1  
    39    5   37 1  
    40    9   38 1  
    41   10   39 1  
    42   11   40 1  
    43   11   41 1  
    44   12   42 1  
    45   13   43 1  
    46   13   44 1  
    47   14   45 1  
    48   14   46 1  
    49   15   47 1  
    50   15   48 1  
    51   16   49 1  
    52   16   50 1  
    53   17   51 1  
    54   17   52 1  
    55   20   53 1  
    56   21   54 1  
    57   21   55 1  
    58   22   56 1  
    59   22   57 1  
    60   23   58 1  
    61   23   59 1  
    62   24   60 1  
    63   24   61 1  
    64   25   62 1  
    65   26   63 1  
    66   26   64 1  
    67   26   65 1  
    68   27   66 1  
    69   28   67 1  
@<TRIPOS>SUBSTRUCTURE
     1 Y11         1

