2r9m_ligand
  -I-interpret- 

 67 69  0  0  0  0  0  0  0  0999 V2000
   61.3310   36.1020   62.8230 C   0  0  0  0  0
   59.2690   37.3430   62.3390 C   0  0  0  0  0
   58.8430   38.2930   61.2280 C   0  0  0  0  0
   59.7360   36.9080   59.5530 C   0  0  0  0  0
   60.2550   35.8810   60.5720 C   0  0  0  0  0
   61.2850   36.4360   64.0110 O   0  0  0  0  0
   58.5680   37.5640   60.0420 O   0  0  0  0  0
   60.3440   36.4300   61.9280 N   0  0  0  0  0
   62.3570   35.3790   62.3690 N   0  0  0  0  0
   63.4590   35.0310   63.2860 C   0  0  0  0  0
   64.4500   34.0740   62.6200 C   0  0  0  0  0
   63.7860   32.8280   62.0240 C   0  0  0  0  0
   64.8370   31.8880   61.4310 C   0  0  0  0  0
   64.2260   30.6440   60.7980 C   0  0  0  0  0
   63.3720   29.8580   61.8190 C   0  0  0  0  0
   62.3490   30.7690   62.5580 C   0  0  0  0  0
   63.0280   32.0520   63.1030 C   0  0  0  0  0
   64.1760   36.3170   63.7160 C   0  0  0  0  0
   64.4530   37.1700   62.8840 O   0  0  0  0  0
   64.4700   36.4330   65.0140 N   0  0  0  0  0
   64.3930   38.8910   65.1690 C   0  0  0  0  0
   62.9040   38.9060   65.4720 C   0  0  0  0  0
   63.3840   37.4030   67.4710 C   0  0  0  0  0
   64.8820   37.5390   67.1370 C   0  0  0  0  0
   62.5730   38.5260   66.8800 N   0  3  0  0  0
   61.1170   38.1810   66.9530 C   0  0  0  0  0
   66.6000   37.7470   65.3290 C   0  0  0  0  0
   67.3300   38.7740   65.7340 N   0  0  0  0  0
   65.1060   37.6190   65.6310 C   0  0  0  0  0
   58.4037   36.7383   62.6106 H   0  0  0  0  0
   59.6416   37.9450   63.1677 H   0  0  0  0  0
   59.6488   39.0010   61.0341 H   0  0  0  0  0
   57.9435   38.8251   61.5376 H   0  0  0  0  0
   59.4852   36.3884   58.6282 H   0  0  0  0  0
   60.5115   37.6545   59.3814 H   0  0  0  0  0
   61.2566   35.5799   60.2651 H   0  0  0  0  0
   59.5553   35.0455   60.5931 H   0  0  0  0  0
   62.3789   35.0700   61.3972 H   0  0  0  0  0
   63.0452   34.5263   64.1590 H   0  0  0  0  0
   65.1489   33.7390   63.3864 H   0  0  0  0  0
   64.9293   34.6135   61.8031 H   0  0  0  0  0
   63.0996   33.1670   61.2481 H   0  0  0  0  0
   65.4903   31.5639   62.2411 H   0  0  0  0  0
   65.3697   32.4322   60.6512 H   0  0  0  0  0
   65.0329   29.9990   60.4502 H   0  0  0  0  0
   63.5842   30.9533   59.9731 H   0  0  0  0  0
   64.0434   29.4299   62.5634 H   0  0  0  0  0
   62.8148   29.0938   61.2770 H   0  0  0  0  0
   61.9329   30.2130   63.3981 H   0  0  0  0  0
   61.5714   31.0610   61.8523 H   0  0  0  0  0
   62.2457   32.7027   63.4937 H   0  0  0  0  0
   63.7477   31.7504   63.8641 H   0  0  0  0  0
   64.2398   35.6483   65.6236 H   0  0  0  0  0
   64.8416   39.7273   65.7051 H   0  0  0  0  0
   64.5044   38.9503   64.0863 H   0  0  0  0  0
   62.4308   38.1743   64.8172 H   0  0  0  0  0
   62.5504   39.9255   65.3179 H   0  0  0  0  0
   63.2712   37.4334   68.5547 H   0  0  0  0  0
   63.0240   36.4637   67.0513 H   0  0  0  0  0
   65.4049   36.6629   67.5205 H   0  0  0  0  0
   65.2587   38.4541   67.5939 H   0  0  0  0  0
   62.8124   39.3409   67.4448 H   0  0  0  0  0
   60.5246   39.0452   66.6525 H   0  0  0  0  0
   60.9088   37.3459   66.2842 H   0  0  0  0  0
   60.8619   37.9018   67.9753 H   0  0  0  0  0
   67.0849   36.9575   64.7548 H   0  0  0  0  0
   66.8989   39.5252   66.2727 H   0  0  0  0  0
  1  6  2  0  0  0
  1  8  1  0  0  0
  9  1  1  0  0  0
  2  3  1  0  0  0
  8  2  1  0  0  0
  3  7  1  0  0  0
  5  4  1  0  0  0
  4  7  1  0  0  0
  8  5  1  0  0  0
 10  9  1  0  0  0
 10 11  1  0  0  0
 18 10  1  0  0  0
 11 12  1  0  0  0
 12 13  1  0  0  0
 12 17  1  0  0  0
 13 14  1  0  0  0
 14 15  1  0  0  0
 16 15  1  0  0  0
 17 16  1  0  0  0
 18 19  2  0  0  0
 20 18  1  0  0  0
 29 20  1  0  0  0
 21 22  1  0  0  0
 29 21  1  0  0  0
 22 25  1  0  0  0
 24 23  1  0  0  0
 23 25  1  0  0  0
 29 24  1  0  0  0
 25 26  1  0  0  0
 27 28  2  0  0  0
 27 29  1  0  0  0
  2 30  1  0  0  0
  2 31  1  0  0  0
  3 32  1  0  0  0
  3 33  1  0  0  0
  4 34  1  0  0  0
  4 35  1  0  0  0
  5 36  1  0  0  0
  5 37  1  0  0  0
  9 38  1  0  0  0
 10 39  1  0  0  0
 11 40  1  0  0  0
 11 41  1  0  0  0
 12 42  1  0  0  0
 13 43  1  0  0  0
 13 44  1  0  0  0
 14 45  1  0  0  0
 14 46  1  0  0  0
 15 47  1  0  0  0
 15 48  1  0  0  0
 16 49  1  0  0  0
 16 50  1  0  0  0
 17 51  1  0  0  0
 17 52  1  0  0  0
 20 53  1  0  0  0
 21 54  1  0  0  0
 21 55  1  0  0  0
 22 56  1  0  0  0
 22 57  1  0  0  0
 23 58  1  0  0  0
 23 59  1  0  0  0
 24 60  1  0  0  0
 24 61  1  0  0  0
 25 62  1  0  0  0
 26 63  1  0  0  0
 26 64  1  0  0  0
 26 65  1  0  0  0
 27 66  1  0  0  0
 28 67  1  0  0  0
M  END
$$$$
