3ioc_ligand
  -I-interpret- 

 46 49  0  0  0  0  0  0  0  0999 V2000
   13.9990    9.7850   -5.6050 N   0  0  0  0  0
   13.0560    9.3000   -4.8030 C   0  0  0  0  0
   13.1640    9.4250   -3.4890 N   0  0  0  0  0
   14.2160   10.0430   -2.9070 C   0  0  0  0  0
   15.2170   10.5550   -3.7200 C   0  0  0  0  0
   15.0940   10.4140   -5.1140 C   0  0  0  0  0
   16.0210   10.8720   -5.9610 N   0  0  0  0  0
   16.1190   11.0910   -2.9090 N   0  0  0  0  0
   15.7200   10.9500   -1.6470 C   0  0  0  0  0
   14.5520   10.3070   -1.6450 N   0  0  0  0  0
   12.6650    8.0150    1.7470 O   0  0  0  0  0
   14.4840    7.5600   -0.3940 O   0  0  0  0  0
   13.9240    9.6520    9.4870 C   0  0  0  0  0
   13.5840   10.6390    8.5940 C   0  0  0  0  0
   14.3170    8.3960    9.0170 C   0  0  0  0  0
   13.6530   10.3690    7.2350 C   0  0  0  0  0
   14.3890    8.1170    7.6670 C   0  0  0  0  0
   14.1060    8.8320    5.3030 C   0  0  0  0  0
   13.5570   11.0430    3.0870 C   0  0  0  0  0
   13.9190   10.9550    0.5700 O   0  0  0  0  0
   15.7130    9.5640    4.7870 S   0  0  0  0  0
   15.2580   11.2750    3.7290 S   0  0  0  0  0
   14.0360    9.1090    6.7920 C   0  0  0  0  0
   13.8310    8.8450    1.6830 C   0  0  0  0  0
   14.5440    8.8020    0.3020 C   0  0  0  0  0
   13.3430   10.3100    1.7460 C   0  0  0  0  0
   13.8030    9.9290   -0.4460 C   0  0  0  0  0
   12.1886    8.7964   -5.2296 H   0  0  0  0  0
   15.9001   10.7465   -6.9660 H   0  0  0  0  0
   16.8493   11.3471   -5.6024 H   0  0  0  0  0
   16.2567   11.3005   -0.7654 H   0  0  0  0  0
   12.2717    8.0844    2.6200 H   0  0  0  0  0
   14.9512    7.6394   -1.2288 H   0  0  0  0  0
   13.8874    9.8479   10.5586 H   0  0  0  0  0
   13.2649   11.6193    8.9478 H   0  0  0  0  0
   14.5732    7.6167    9.7347 H   0  0  0  0  0
   13.4061   11.1473    6.5129 H   0  0  0  0  0
   14.7157    7.1404    7.3099 H   0  0  0  0  0
   14.0467    7.7671    5.0783 H   0  0  0  0  0
   13.2635    9.2641    4.7630 H   0  0  0  0  0
   13.1878   12.0534    2.9114 H   0  0  0  0  0
   13.0657   10.4123    3.8280 H   0  0  0  0  0
   14.4957    8.5073    2.4781 H   0  0  0  0  0
   15.6228    8.9265    0.3957 H   0  0  0  0  0
   12.2541   10.3499    1.7170 H   0  0  0  0  0
   12.7934    9.7069   -0.7916 H   0  0  0  0  0
  2  1  4  0  0  0
  6  1  4  0  0  0
  3  2  4  0  0  0
  4  3  4  0  0  0
  4  5  4  0  0  0
 10  4  4  0  0  0
  5  6  4  0  0  0
  8  5  4  0  0  0
  6  7  1  0  0  0
  9  8  4  0  0  0
 10  9  4  0  0  0
 27 10  1  0  0  0
 24 11  1  0  0  0
 25 12  1  0  0  0
 14 13  4  0  0  0
 15 13  4  0  0  0
 16 14  4  0  0  0
 17 15  4  0  0  0
 23 16  4  0  0  0
 23 17  4  0  0  0
 21 18  1  0  0  0
 18 23  1  0  0  0
 19 22  1  0  0  0
 26 19  1  0  0  0
 26 20  1  0  0  0
 20 27  1  0  0  0
 22 21  1  0  0  0
 24 25  1  0  0  0
 24 26  1  0  0  0
 25 27  1  0  0  0
  2 28  1  0  0  0
  7 29  1  0  0  0
  7 30  1  0  0  0
  9 31  1  0  0  0
 11 32  1  0  0  0
 12 33  1  0  0  0
 13 34  1  0  0  0
 14 35  1  0  0  0
 15 36  1  0  0  0
 16 37  1  0  0  0
 17 38  1  0  0  0
 18 39  1  0  0  0
 18 40  1  0  0  0
 19 41  1  0  0  0
 19 42  1  0  0  0
 24 43  1  0  0  0
 25 44  1  0  0  0
 26 45  1  0  0  0
 27 46  1  0  0  0
M  END
$$$$
