5tco_ligand
  -I-interpret- 

 78 83  0  0  0  0  0  0  0  0999 V2000
   22.6210   10.7030  -29.0180 C   0  0  0  0  0
   22.1180   10.8450  -30.3580 C   0  0  0  0  0
   20.7920   11.5090  -30.3210 O   0  0  0  0  0
   19.7470   10.7680  -29.7340 C   0  0  0  0  0
   20.3550   10.0660  -28.4900 C   0  0  0  0  0
   21.5110   10.8510  -28.0920 N   0  3  0  0  0
   22.0020   10.4410  -26.7470 C   0  0  0  0  0
   21.3440    9.1470  -26.1480 C   0  0  0  0  0
   21.7670    7.9940  -27.0070 N   0  0  0  0  0
   21.3350    6.7060  -27.1200 C   0  0  0  0  0
   21.9550    6.0000  -27.9060 O   0  0  0  0  0
   20.3480    6.0940  -26.2700 C   0  0  0  0  0
   20.3500    4.6790  -26.2080 C   0  0  0  0  0
   19.4410    3.9620  -25.4070 C   0  0  0  0  0
   19.5500    2.5520  -25.4070 C   0  0  0  0  0
   19.8090    1.9850  -26.4710 O   0  0  0  0  0
   19.3990    6.7720  -25.4800 C   0  0  0  0  0
   18.5000    6.0700  -24.6780 C   0  0  0  0  0
   18.5280    4.6660  -24.6580 C   0  0  0  0  0
   17.6420    4.0600  -23.8030 C   0  0  0  0  0
   18.5620    3.6020  -22.6480 C   0  0  0  0  0
   19.2160    2.3480  -22.9170 C   0  0  0  0  0
   19.4180    1.5660  -21.7520 C   0  0  0  0  0
   19.6300    1.8410  -24.1630 C   0  0  0  0  0
   20.2680    0.5660  -24.2140 C   0  0  0  0  0
   20.4870   -0.2020  -23.0690 C   0  0  0  0  0
   20.0540    0.2910  -21.8250 C   0  0  0  0  0
   20.2190   -0.3780  -20.6420 N   0  0  0  0  0
   20.9690   -1.4850  -20.4390 C   0  0  0  0  0
   20.4400   -2.3820  -19.5280 C   0  0  0  0  0
   22.2350   -1.7730  -20.9700 C   0  0  0  0  0
   22.9020   -2.9610  -20.6370 C   0  0  0  0  0
   22.3380   -3.8440  -19.7200 C   0  0  0  0  0
   22.9940   -4.9560  -19.4030 F   0  0  0  0  0
   21.0890   -3.5630  -19.1650 C   0  0  0  0  0
   20.5740   -4.4630  -18.2920 N   0  0  0  0  0
   19.2630   -4.8320  -18.3050 C   0  0  0  0  0
   18.4730   -4.4830  -19.1600 O   0  0  0  0  0
   18.8420   -5.7570  -17.3060 C   0  0  0  0  0
   19.1490   -5.5680  -15.9360 C   0  0  0  0  0
   18.7190   -6.4720  -14.9350 C   0  0  0  0  0
   18.0160   -7.5880  -15.3140 C   0  0  0  0  0
   17.7310   -7.8160  -16.6440 C   0  0  0  0  0
   18.1330   -6.9120  -17.6470 C   0  0  0  0  0
   23.3750   11.4649  -28.8205 H   0  0  0  0  0
   23.0808    9.7225  -28.8947 H   0  0  0  0  0
   22.0185    9.8604  -30.8149 H   0  0  0  0  0
   22.8106   11.4493  -30.9438 H   0  0  0  0  0
   19.3412   10.0393  -30.4358 H   0  0  0  0  0
   18.9176   11.4164  -29.4516 H   0  0  0  0  0
   20.6430    9.0411  -28.7241 H   0  0  0  0  0
   19.6266   10.0091  -27.6811 H   0  0  0  0  0
   21.1960   11.8211  -28.0834 H   0  0  0  0  0
   21.7558   11.2561  -26.0665 H   0  0  0  0  0
   23.0643   10.2240  -26.8589 H   0  0  0  0  0
   20.2579    9.2390  -26.1379 H   0  0  0  0  0
   21.6657    8.9954  -25.1177 H   0  0  0  0  0
   22.5369    8.2195  -27.6370 H   0  0  0  0  0
   21.0797    4.1268  -26.8002 H   0  0  0  0  0
   19.3670    7.8614  -25.4959 H   0  0  0  0  0
   17.7765    6.6102  -24.0674 H   0  0  0  0  0
   17.0920    3.2401  -24.2648 H   0  0  0  0  0
   16.8396    4.7215  -23.4764 H   0  0  0  0  0
   17.9426    3.4711  -21.7607 H   0  0  0  0  0
   19.3348    4.3595  -22.5173 H   0  0  0  0  0
   19.0825    1.9443  -20.7864 H   0  0  0  0  0
   20.5953    0.1787  -25.1789 H   0  0  0  0  0
   20.9858   -1.1687  -23.1380 H   0  0  0  0  0
   19.7262   -0.0035  -19.8313 H   0  0  0  0  0
   19.4749   -2.1566  -19.0743 H   0  0  0  0  0
   22.7067   -1.0641  -21.6505 H   0  0  0  0  0
   23.8628   -3.1932  -21.0965 H   0  0  0  0  0
   21.1932   -4.8807  -17.5974 H   0  0  0  0  0
   19.7359   -4.6975  -15.6428 H   0  0  0  0  0
   18.9418   -6.2854  -13.8845 H   0  0  0  0  0
   17.6806   -8.2989  -14.5589 H   0  0  0  0  0
   17.1828   -8.7152  -16.9252 H   0  0  0  0  0
   17.8907   -7.1137  -18.6904 H   0  0  0  0  0
  1  2  1  0  0  0
  1  6  1  0  0  0
  2  3  1  0  0  0
  3  4  1  0  0  0
  4  5  1  0  0  0
  5  6  1  0  0  0
  6  7  1  0  0  0
  7  8  1  0  0  0
  8  9  1  0  0  0
  9 10  1  0  0  0
 10 11  2  0  0  0
 10 12  1  0  0  0
 12 13  4  0  0  0
 12 17  4  0  0  0
 13 14  4  0  0  0
 14 15  1  0  0  0
 14 19  4  0  0  0
 15 16  2  0  0  0
 15 24  1  0  0  0
 17 18  4  0  0  0
 18 19  4  0  0  0
 19 20  1  0  0  0
 20 21  1  0  0  0
 21 22  1  0  0  0
 22 23  4  0  0  0
 22 24  4  0  0  0
 23 27  4  0  0  0
 24 25  4  0  0  0
 25 26  4  0  0  0
 26 27  4  0  0  0
 27 28  1  0  0  0
 28 29  1  0  0  0
 29 30  4  0  0  0
 29 31  4  0  0  0
 30 35  4  0  0  0
 31 32  4  0  0  0
 32 33  4  0  0  0
 33 34  1  0  0  0
 33 35  4  0  0  0
 35 36  1  0  0  0
 36 37  1  0  0  0
 37 38  2  0  0  0
 37 39  1  0  0  0
 39 40  4  0  0  0
 39 44  4  0  0  0
 40 41  4  0  0  0
 41 42  4  0  0  0
 42 43  4  0  0  0
 43 44  4  0  0  0
  1 45  1  0  0  0
  1 46  1  0  0  0
  2 47  1  0  0  0
  2 48  1  0  0  0
  4 49  1  0  0  0
  4 50  1  0  0  0
  5 51  1  0  0  0
  5 52  1  0  0  0
  6 53  1  0  0  0
  7 54  1  0  0  0
  7 55  1  0  0  0
  8 56  1  0  0  0
  8 57  1  0  0  0
  9 58  1  0  0  0
 13 59  1  0  0  0
 17 60  1  0  0  0
 18 61  1  0  0  0
 20 62  1  0  0  0
 20 63  1  0  0  0
 21 64  1  0  0  0
 21 65  1  0  0  0
 23 66  1  0  0  0
 25 67  1  0  0  0
 26 68  1  0  0  0
 28 69  1  0  0  0
 30 70  1  0  0  0
 31 71  1  0  0  0
 32 72  1  0  0  0
 36 73  1  0  0  0
 40 74  1  0  0  0
 41 75  1  0  0  0
 42 76  1  0  0  0
 43 77  1  0  0  0
 44 78  1  0  0  0
M  END
$$$$
