3zrl_ligand
  -I-interpret- 

 24 26  0  0  0  0  0  0  0  0999 V2000
  106.2440   21.3150  -10.1960 C   0  0  0  0  0
  106.5040   22.3390  -11.0100 C   0  0  0  0  0
  105.4830   23.2770  -11.1140 C   0  0  0  0  0
  104.2780   23.2150  -10.4620 C   0  0  0  0  0
  104.0030   22.1200   -9.5910 C   0  0  0  0  0
  102.9370   22.0370   -9.0020 O   0  0  0  0  0
  104.0210   25.2110  -11.6410 C   0  0  0  0  0
  103.4890   26.4530  -12.1350 C   0  0  0  0  0
  102.1890   26.8110  -11.8400 C   0  0  0  0  0
  101.7160   28.0170  -12.3190 C   0  0  0  0  0
  103.4450   24.3190  -10.7620 C   0  0  0  0  0
  102.4330   28.8760  -13.0550 N   0  0  0  0  0
  103.6930   28.4970  -13.3160 C   0  0  0  0  0
  105.0470   21.2100   -9.5170 N   0  0  0  0  0
  104.2630   27.3180  -12.8850 C   0  0  0  0  0
  105.5870   24.6720  -12.1060 S   0  0  0  0  0
  108.0750   22.5920  -11.9870 Br  0  0  0  0  0
  106.9981   20.5392  -10.0632 H   0  0  0  0  0
  101.5515   26.1581  -11.2438 H   0  0  0  0  0
  100.6875   28.2886  -12.0815 H   0  0  0  0  0
  102.4485   24.4507  -10.3405 H   0  0  0  0  0
  104.3105   29.1694  -13.9116 H   0  0  0  0  0
  104.9200   20.3983   -8.9125 H   0  0  0  0  0
  105.2970   27.0745  -13.1294 H   0  0  0  0  0
  2  1  2  0  0  0
 14  1  1  0  0  0
  3  2  1  0  0  0
  2 17  1  0  0  0
  4  3  4  0  0  0
  3 16  4  0  0  0
  4  5  1  0  0  0
 11  4  4  0  0  0
  5  6  2  0  0  0
  5 14  1  0  0  0
  7  8  1  0  0  0
  7 11  4  0  0  0
  7 16  4  0  0  0
  8  9  4  0  0  0
  8 15  4  0  0  0
  9 10  4  0  0  0
 10 12  4  0  0  0
 12 13  4  0  0  0
 13 15  4  0  0  0
  1 18  1  0  0  0
  9 19  1  0  0  0
 10 20  1  0  0  0
 11 21  1  0  0  0
 13 22  1  0  0  0
 14 23  1  0  0  0
 15 24  1  0  0  0
M  END
$$$$
