2wi3_ligand
  -I-interpret- 

 18 18  0  0  0  0  0  0  0  0999 V2000
   29.0380   10.7580   24.5430 N   0  0  0  0  0
   30.2050   11.1050   23.9490 C   0  0  0  0  0
   30.1940   11.8090   22.7970 N   0  0  0  0  0
   31.3570   12.1550   22.2050 C   0  0  0  0  0
   31.3440   12.9400   20.9210 C   0  0  0  0  0
   31.3800   10.7470   24.5090 N   0  0  0  0  0
   32.5430   11.0920   23.9170 C   0  0  0  0  0
   32.5320   11.7970   22.7660 N   0  0  0  0  0
   34.0180   10.6420   24.6210 S   0  0  0  0  0
   35.2070   10.3470   23.3540 C   0  0  0  0  0
   28.1502   11.0286   24.1199 H   0  0  0  0  0
   29.0471   10.2261   25.4133 H   0  0  0  0  0
   30.8165   12.3720   20.1547 H   0  0  0  0  0
   30.8372   13.8913   21.0833 H   0  0  0  0  0
   32.3689   13.1233   20.5983 H   0  0  0  0  0
   34.8535    9.5456   22.7053 H   0  0  0  0  0
   35.3452   11.2559   22.7684 H   0  0  0  0  0
   36.1551   10.0577   23.8074 H   0  0  0  0  0
  1  2  1  0  0  0
  2  3  4  0  0  0
  2  6  4  0  0  0
  3  4  4  0  0  0
  4  5  1  0  0  0
  4  8  4  0  0  0
  6  7  4  0  0  0
  7  8  4  0  0  0
  7  9  1  0  0  0
  9 10  1  0  0  0
  1 11  1  0  0  0
  1 12  1  0  0  0
  5 13  1  0  0  0
  5 14  1  0  0  0
  5 15  1  0  0  0
 10 16  1  0  0  0
 10 17  1  0  0  0
 10 18  1  0  0  0
M  END
$$$$
