1i91_ligand
  -I-interpret- 

 51 54  0  0  0  0  0  0  0  0999 V2000
   -6.1530    0.2870   16.8760 S   0  0  0  0  0
   -7.5280    0.3360   17.0620 O   0  0  0  0  0
   -5.7960   -0.9580   16.1640 N   0  0  0  0  0
   -5.7080    1.6050   16.0510 C   0  0  0  0  0
   -4.4210    1.7460   15.3990 C   0  0  0  0  0
   -4.3170    2.9990   14.7280 C   0  0  0  0  0
   -5.5490    3.7790   14.9020 C   0  0  0  0  0
   -6.4750    2.9090   15.7660 S   0  0  0  0  0
   -3.2340    3.5670   13.9310 C   0  0  0  0  0
   -3.2460    4.9490   13.1950 C   0  0  0  0  0
   -4.5660    5.7190   13.3990 N   0  0  0  0  0
   -5.6820    5.1790   14.2850 S   0  0  0  0  0
   -5.7200    6.1470   15.3100 O   0  0  0  0  0
   -6.9280    5.2890   13.6260 O   0  0  0  0  0
   -2.1680    5.5830   12.3100 C   0  0  0  0  0
   -1.3740    8.1220   12.3990 C   0  0  0  0  0
   -1.5760    9.5000   13.1220 C   0  0  0  0  0
   -1.3080    9.3870   14.6680 O   0  0  0  0  0
   -2.0660    8.2320   15.3390 C   0  0  0  0  0
   -1.9740    6.9030   14.5960 C   0  0  0  0  0
   -2.3010    7.0400   13.0300 N   0  3  0  0  0
   -5.7150    7.1820   11.6870 C   0  0  0  0  0
   -5.1200    5.9270   12.0430 C   0  0  0  0  0
   -5.0930    4.8510   11.0330 C   0  0  0  0  0
   -5.6500    5.0030    9.6610 C   0  0  0  0  0
   -6.2290    6.3580    9.4470 C   0  0  0  0  0
   -6.2930    7.4860   10.4080 C   0  0  0  0  0
   -6.8860    8.8780   10.1060 O   0  0  0  0  0
   -5.5090    0.2980   18.1190 O   0  0  0  0  0
   -5.1705   -1.6344   16.6018 H   0  0  0  0  0
   -6.1751   -1.1408   15.2349 H   0  0  0  0  0
   -3.6347    0.9914   15.4193 H   0  0  0  0  0
   -3.1873    2.8709   13.0935 H   0  0  0  0  0
   -2.4636    3.7252   14.6857 H   0  0  0  0  0
   -2.1941    4.7265   13.0156 H   0  0  0  0  0
   -2.2948    5.5308   11.2287 H   0  0  0  0  0
   -1.1853    5.1123   12.2804 H   0  0  0  0  0
   -1.6237    8.2335   11.3439 H   0  0  0  0  0
   -0.3355    7.8102   12.5105 H   0  0  0  0  0
   -2.6076    9.8190   12.9736 H   0  0  0  0  0
   -0.8704   10.2165   12.7014 H   0  0  0  0  0
   -3.1190    8.5122   15.3645 H   0  0  0  0  0
   -1.6167    8.0817   16.3206 H   0  0  0  0  0
   -0.9517    6.5374   14.6923 H   0  0  0  0  0
   -2.7086    6.2259   15.0319 H   0  0  0  0  0
   -3.2623    7.3507   12.8893 H   0  0  0  0  0
   -5.7297    7.9651   12.4450 H   0  0  0  0  0
   -4.6423    3.8967   11.3056 H   0  0  0  0  0
   -5.6358    4.2179    8.9050 H   0  0  0  0  0
   -6.6588    6.5439    8.4627 H   0  0  0  0  0
   -6.8112    9.4325   10.8861 H   0  0  0  0  0
  1 29  2  0  0  0
  1  4  1  0  0  0
  1  3  1  0  0  0
  1  2  2  0  0  0
  4  8  4  0  0  0
  4  5  4  0  0  0
  5  6  4  0  0  0
  6  9  1  0  0  0
  6  7  4  0  0  0
  7 12  1  0  0  0
  7  8  4  0  0  0
 12 14  2  0  0  0
 12 13  2  0  0  0
 12 11  1  0  0  0
 11 23  1  0  0  0
 11 10  1  0  0  0
 10 15  1  0  0  0
 10  9  1  0  0  0
 15 21  1  0  0  0
 21 20  1  0  0  0
 21 16  1  0  0  0
 16 17  1  0  0  0
 17 18  1  0  0  0
 18 19  1  0  0  0
 19 20  1  0  0  0
 23 22  4  0  0  0
 23 24  4  0  0  0
 24 25  4  0  0  0
 25 26  4  0  0  0
 26 27  4  0  0  0
 27 22  4  0  0  0
 27 28  1  0  0  0
  3 30  1  0  0  0
  3 31  1  0  0  0
  5 32  1  0  0  0
  9 33  1  0  0  0
  9 34  1  0  0  0
 10 35  1  0  0  0
 15 36  1  0  0  0
 15 37  1  0  0  0
 16 38  1  0  0  0
 16 39  1  0  0  0
 17 40  1  0  0  0
 17 41  1  0  0  0
 19 42  1  0  0  0
 19 43  1  0  0  0
 20 44  1  0  0  0
 20 45  1  0  0  0
 21 46  1  0  0  0
 22 47  1  0  0  0
 24 48  1  0  0  0
 25 49  1  0  0  0
 26 50  1  0  0  0
 28 51  1  0  0  0
M  END
$$$$
