2ay9_ligand
  -I-interpret- 

 27 27  0  0  0  0  0  0  0  0999 V2000
   94.9910   18.5800   -1.6300 C   0  0  0  0  0
   94.1730   19.6790   -1.2980 C   0  0  0  0  0
   94.0930   20.1500    0.0020 C   0  0  0  0  0
   94.8250   19.5370    0.9950 C   0  0  0  0  0
   95.6520   18.4540    0.6830 C   0  0  0  0  0
   95.7290   17.9750   -0.6300 C   0  0  0  0  0
   95.0690   18.0720   -3.0400 C   0  0  0  0  0
   93.9580   17.1070   -3.4040 C   0  0  0  0  0
   92.5280   17.6700   -3.2480 C   0  0  0  0  0
   91.5320   16.8440   -4.0830 C   0  0  0  0  0
   91.6960   15.3390   -3.8720 C   0  0  0  0  0
   91.3100   14.8270   -2.8040 O   0  0  0  0  0
   92.2100   14.6570   -4.7770 O   0  0  0  0  0
   93.5919   20.1678   -2.0800 H   0  0  0  0  0
   93.4543   21.0011    0.2381 H   0  0  0  0  0
   94.7595   19.8958    2.0222 H   0  0  0  0  0
   96.2410   17.9792    1.4677 H   0  0  0  0  0
   96.3706   17.1254   -0.8638 H   0  0  0  0  0
   96.0123   17.5351   -3.1407 H   0  0  0  0  0
   94.9812   18.9338   -3.7016 H   0  0  0  0  0
   94.0395   16.2610   -2.7215 H   0  0  0  0  0
   94.0867   16.8619   -4.4583 H   0  0  0  0  0
   92.5129   18.7026   -3.5967 H   0  0  0  0  0
   92.2390   17.6193   -2.1982 H   0  0  0  0  0
   91.7180   17.0577   -5.1355 H   0  0  0  0  0
   90.5241   17.1188   -3.7719 H   0  0  0  0  0
   90.9450   15.5099   -2.2366 H   0  0  0  0  0
  1  2  4  0  0  0
  1  6  4  0  0  0
  1  7  1  0  0  0
  2  3  4  0  0  0
  3  4  4  0  0  0
  4  5  4  0  0  0
  5  6  4  0  0  0
  7  8  1  0  0  0
  8  9  1  0  0  0
  9 10  1  0  0  0
 10 11  1  0  0  0
 11 12  1  0  0  0
 11 13  2  0  0  0
  2 14  1  0  0  0
  3 15  1  0  0  0
  4 16  1  0  0  0
  5 17  1  0  0  0
  6 18  1  0  0  0
  7 19  1  0  0  0
  7 20  1  0  0  0
  8 21  1  0  0  0
  8 22  1  0  0  0
  9 23  1  0  0  0
  9 24  1  0  0  0
 10 25  1  0  0  0
 10 26  1  0  0  0
 12 27  1  0  0  0
M  END
$$$$
