1r5g_ligand
  -I-interpret- 

 51 52  0  0  0  0  0  0  0  0999 V2000
   19.2480   33.7340   16.8230 C   0  0  0  0  0
   18.9690   33.1550   15.4470 C   0  0  0  0  0
   20.0340   31.7290   15.1370 S   0  0  0  0  0
   18.9110   30.5100   15.4980 C   0  0  0  0  0
   19.5070   29.8660   16.7390 C   0  0  0  0  0
   19.5750   28.3780   16.4560 C   0  0  0  0  0
   19.3960   27.5050   17.7830 C   0  0  0  0  0
   17.9770   27.5740   18.0830 C   0  0  0  0  0
   18.1360   27.9950   19.3360 N   0  0  0  0  0
   16.8550   28.0660   19.9400 C   0  0  0  0  0
   16.0610   29.4040   19.5460 C   0  0  0  0  0
   17.7060   27.4890   16.9060 O   0  0  0  0  0
   16.9370   27.9400   21.4610 C   0  0  0  0  0
   16.7730   30.7700   19.4660 C   0  0  0  0  0
   16.0380   32.0180   19.1280 C   0  0  0  0  0
   14.5970   32.0100   18.8640 C   0  0  0  0  0
   13.8530   30.7560   18.9130 C   0  0  0  0  0
   14.5610   29.3950   19.2600 C   0  0  0  0  0
   12.4150   30.7800   18.6340 C   0  0  0  0  0
   11.6110   29.5330   18.6740 C   0  0  0  0  0
   12.2550   28.2310   18.9990 C   0  0  0  0  0
   13.7050   28.1490   19.2890 C   0  0  0  0  0
   19.7450   26.1250   17.5420 O   0  0  0  0  0
   20.7050   27.9380   15.6500 N   0  3  0  0  0
   19.0557   32.9747   17.5811 H   0  0  0  0  0
   20.2899   34.0492   16.8787 H   0  0  0  0  0
   18.5979   34.5921   16.9933 H   0  0  0  0  0
   19.1678   33.9174   14.6938 H   0  0  0  0  0
   17.9274   32.8374   15.3997 H   0  0  0  0  0
   18.7695   29.8052   14.6787 H   0  0  0  0  0
   17.9035   30.8934   15.6593 H   0  0  0  0  0
   18.8960   30.0701   17.6183 H   0  0  0  0  0
   20.4965   30.2698   16.9532 H   0  0  0  0  0
   18.7149   28.1932   15.8125 H   0  0  0  0  0
   20.0312   27.8740   18.5883 H   0  0  0  0  0
   19.0233   28.2259   19.7830 H   0  0  0  0  0
   16.2951   27.2169   19.5480 H   0  0  0  0  0
   17.3861   26.9815   21.7212 H   0  0  0  0  0
   17.5490   28.7494   21.8589 H   0  0  0  0  0
   15.9341   27.9995   21.8838 H   0  0  0  0  0
   17.8439   30.8220   19.6625 H   0  0  0  0  0
   16.5839   32.9600   19.0755 H   0  0  0  0  0
   14.0806   32.9412   18.6309 H   0  0  0  0  0
   11.9293   31.7258   18.3940 H   0  0  0  0  0
   10.5421   29.5709   18.4640 H   0  0  0  0  0
   11.6504   27.3244   19.0239 H   0  0  0  0  0
   14.1573   27.1857   19.5245 H   0  0  0  0  0
   20.6819   26.0633   17.3419 H   0  0  0  0  0
   20.7764   28.5240   14.8182 H   0  0  0  0  0
   21.5623   28.0163   16.1971 H   0  0  0  0  0
   20.5651   26.9666   15.3721 H   0  0  0  0  0
  1  2  1  0  0  0
  2  3  1  0  0  0
  3  4  1  0  0  0
  4  5  1  0  0  0
  5  6  1  0  0  0
  6  7  1  0  0  0
  6 24  1  0  0  0
  7  8  1  0  0  0
  7 23  1  0  0  0
  8  9  1  0  0  0
  8 12  2  0  0  0
  9 10  1  0  0  0
 10 11  1  0  0  0
 10 13  1  0  0  0
 11 14  4  0  0  0
 11 18  4  0  0  0
 14 15  4  0  0  0
 15 16  4  0  0  0
 16 17  4  0  0  0
 17 18  4  0  0  0
 17 19  4  0  0  0
 18 22  4  0  0  0
 19 20  4  0  0  0
 20 21  4  0  0  0
 21 22  4  0  0  0
  1 25  1  0  0  0
  1 26  1  0  0  0
  1 27  1  0  0  0
  2 28  1  0  0  0
  2 29  1  0  0  0
  4 30  1  0  0  0
  4 31  1  0  0  0
  5 32  1  0  0  0
  5 33  1  0  0  0
  6 34  1  0  0  0
  7 35  1  0  0  0
  9 36  1  0  0  0
 10 37  1  0  0  0
 13 38  1  0  0  0
 13 39  1  0  0  0
 13 40  1  0  0  0
 14 41  1  0  0  0
 15 42  1  0  0  0
 16 43  1  0  0  0
 19 44  1  0  0  0
 20 45  1  0  0  0
 21 46  1  0  0  0
 22 47  1  0  0  0
 23 48  1  0  0  0
 24 49  1  0  0  0
 24 50  1  0  0  0
 24 51  1  0  0  0
M  END
$$$$
