5jfp_ligand
  -I-interpret- 

 91 96  0  0  0  0  0  0  0  0999 V2000
   20.7720   27.6060   14.7260 C   0  0  0  0  0
   19.4580   27.5040   14.3140 C   0  0  0  0  0
   18.6790   26.3750   14.5740 C   0  0  0  0  0
   19.2910   25.3390   15.2800 C   0  0  0  0  0
   20.6030   25.4380   15.6790 C   0  0  0  0  0
   21.3990   26.5440   15.3800 C   0  0  0  0  0
   18.2800   23.9610   15.7170 S   0  0  0  0  0
   17.2160   23.8810   14.6830 O   0  0  0  0  0
   19.1280   22.7350   15.8240 O   0  0  0  0  0
   17.5950   24.1540   17.2010 N   0  0  0  0  0
   18.5210   24.5820   18.2370 C   0  0  0  0  0
   18.1830   23.9890   19.6090 C   0  0  0  0  0
   18.1120   22.4550   19.5480 C   0  0  0  0  0
   19.1740   24.3950   20.6990 C   0  0  0  0  0
   16.2900   24.7840   17.2690 C   0  0  0  0  0
   15.2210   23.8600   17.8730 C   0  0  0  0  0
   14.0520   24.6190   18.2000 O   0  0  0  0  0
   14.8340   22.7240   16.9240 C   0  0  0  0  0
   13.8650   21.8470   17.6160 N   0  0  0  0  0
   14.1920   20.6200   18.0530 C   0  0  0  0  0
   15.3210   20.1570   17.8940 O   0  0  0  0  0
   13.1610   20.0000   18.6640 O   0  0  0  0  0
   13.3930   18.6200   19.0440 C   0  0  0  0  0
   12.8520   18.4700   20.4790 C   0  0  0  0  0
   11.4320   18.5180   20.3000 O   0  0  0  0  0
   11.1300   17.8110   19.0980 C   0  0  0  0  0
   10.1470   18.5310   18.3630 O   0  0  0  0  0
   10.7470   19.1150   17.2140 C   0  0  0  0  0
   12.0150   18.3050   16.9060 C   0  0  0  0  0
   12.3990   17.7710   18.2630 C   0  0  0  0  0
   14.0740   23.1750   15.6710 C   0  0  0  0  0
   13.7940   22.2340   14.4860 C   0  0  0  0  0
   12.5210   21.4570   14.7670 C   0  0  0  0  0
   12.1950   20.5290   13.5950 C   0  0  0  0  0
   13.3540   19.5730   13.3580 C   0  0  0  0  0
   14.6370   20.3630   13.0960 C   0  0  0  0  0
   14.4350   21.1800   11.8080 C   0  0  0  0  0
   13.2730   22.1530   12.0150 C   0  0  0  0  0
   13.6090   23.0600   13.2070 C   0  0  0  0  0
   14.9770   21.2820   14.2630 C   0  0  0  0  0
   11.9640   21.4100   12.3530 C   0  0  0  0  0
   21.4270   28.7700   14.4790 O   0  0  0  0  0
   22.8050   28.6770   14.8430 C   0  0  0  0  0
   19.0131   28.3347   13.7662 H   0  0  0  0  0
   17.6432   26.3063   14.2416 H   0  0  0  0  0
   21.0387   24.6195   16.2519 H   0  0  0  0  0
   22.4562   26.5772   15.6435 H   0  0  0  0  0
   18.4589   25.6674   18.3156 H   0  0  0  0  0
   19.5177   24.2393   17.9592 H   0  0  0  0  0
   17.2076   24.3985   19.8718 H   0  0  0  0  0
   17.3398   22.1562   18.8391 H   0  0  0  0  0
   19.0755   22.0605   19.2253 H   0  0  0  0  0
   17.8705   22.0641   20.5364 H   0  0  0  0  0
   20.1721   24.0513   20.4272 H   0  0  0  0  0
   19.1769   25.4803   20.7996 H   0  0  0  0  0
   18.8774   23.9419   21.6450 H   0  0  0  0  0
   15.9837   25.0334   16.2531 H   0  0  0  0  0
   16.3740   25.6634   17.9076 H   0  0  0  0  0
   15.6488   23.4148   18.7713 H   0  0  0  0  0
   13.3885   24.0363   18.5766 H   0  0  0  0  0
   15.7773   22.2580   16.6393 H   0  0  0  0  0
   12.9149   22.1860   17.7667 H   0  0  0  0  0
   14.4404   18.3529   18.9033 H   0  0  0  0  0
   13.2178   19.2475   21.1497 H   0  0  0  0  0
   13.1844   17.5499   20.9596 H   0  0  0  0  0
   10.7646   16.8100   19.3275 H   0  0  0  0  0
   10.9936   20.1607   17.3980 H   0  0  0  0  0
   10.0605   19.0919   16.3676 H   0  0  0  0  0
   12.8013   18.9020   16.4439 H   0  0  0  0  0
   11.8511   17.5192   16.1686 H   0  0  0  0  0
   12.8537   16.7949   18.0939 H   0  0  0  0  0
   14.7279   23.9332   15.2402 H   0  0  0  0  0
   13.0781   23.4039   16.0504 H   0  0  0  0  0
   11.6987   22.1592   14.9041 H   0  0  0  0  0
   12.6613   20.8579   15.6667 H   0  0  0  0  0
   11.3053   19.9359   13.8066 H   0  0  0  0  0
   13.1334   18.9491   12.4919 H   0  0  0  0  0
   13.4908   18.9487   14.2410 H   0  0  0  0  0
   15.4727   19.6722   12.9841 H   0  0  0  0  0
   14.2108   20.5098   10.9781 H   0  0  0  0  0
   15.3441   21.7356   11.5779 H   0  0  0  0  0
   13.1337   22.7176   11.0931 H   0  0  0  0  0
   14.5373   23.5902   12.9941 H   0  0  0  0  0
   12.7879   23.7609   13.3573 H   0  0  0  0  0
   15.1583   20.6934   15.1623 H   0  0  0  0  0
   15.8790   21.8519   14.0401 H   0  0  0  0  0
   11.1730   22.1320   12.5560 H   0  0  0  0  0
   11.6666   20.7865   11.5098 H   0  0  0  0  0
   22.8841   28.4527   15.9067 H   0  0  0  0  0
   23.2789   27.8825   14.2666 H   0  0  0  0  0
   23.2999   29.6251   14.6325 H   0  0  0  0  0
  1  2  4  0  0  0
  1  6  4  0  0  0
  1 42  1  0  0  0
  2  3  4  0  0  0
  3  4  4  0  0  0
  4  5  4  0  0  0
  4  7  1  0  0  0
  5  6  4  0  0  0
  7  8  2  0  0  0
  7  9  2  0  0  0
  7 10  1  0  0  0
 10 11  1  0  0  0
 10 15  1  0  0  0
 11 12  1  0  0  0
 12 13  1  0  0  0
 12 14  1  0  0  0
 15 16  1  0  0  0
 16 17  1  0  0  0
 16 18  1  0  0  0
 18 19  1  0  0  0
 18 31  1  0  0  0
 19 20  1  0  0  0
 20 21  2  0  0  0
 20 22  1  0  0  0
 22 23  1  0  0  0
 23 24  1  0  0  0
 23 30  1  0  0  0
 24 25  1  0  0  0
 25 26  1  0  0  0
 26 27  1  0  0  0
 26 30  1  0  0  0
 27 28  1  0  0  0
 28 29  1  0  0  0
 29 30  1  0  0  0
 31 32  1  0  0  0
 32 33  1  0  0  0
 32 39  1  0  0  0
 32 40  1  0  0  0
 33 34  1  0  0  0
 34 35  1  0  0  0
 34 41  1  0  0  0
 35 36  1  0  0  0
 36 37  1  0  0  0
 36 40  1  0  0  0
 37 38  1  0  0  0
 38 39  1  0  0  0
 38 41  1  0  0  0
 42 43  1  0  0  0
  2 44  1  0  0  0
  3 45  1  0  0  0
  5 46  1  0  0  0
  6 47  1  0  0  0
 11 48  1  0  0  0
 11 49  1  0  0  0
 12 50  1  0  0  0
 13 51  1  0  0  0
 13 52  1  0  0  0
 13 53  1  0  0  0
 14 54  1  0  0  0
 14 55  1  0  0  0
 14 56  1  0  0  0
 15 57  1  0  0  0
 15 58  1  0  0  0
 16 59  1  0  0  0
 17 60  1  0  0  0
 18 61  1  0  0  0
 19 62  1  0  0  0
 23 63  1  0  0  0
 24 64  1  0  0  0
 24 65  1  0  0  0
 26 66  1  0  0  0
 28 67  1  0  0  0
 28 68  1  0  0  0
 29 69  1  0  0  0
 29 70  1  0  0  0
 30 71  1  0  0  0
 31 72  1  0  0  0
 31 73  1  0  0  0
 33 74  1  0  0  0
 33 75  1  0  0  0
 34 76  1  0  0  0
 35 77  1  0  0  0
 35 78  1  0  0  0
 36 79  1  0  0  0
 37 80  1  0  0  0
 37 81  1  0  0  0
 38 82  1  0  0  0
 39 83  1  0  0  0
 39 84  1  0  0  0
 40 85  1  0  0  0
 40 86  1  0  0  0
 41 87  1  0  0  0
 41 88  1  0  0  0
 43 89  1  0  0  0
 43 90  1  0  0  0
 43 91  1  0  0  0
M  END
$$$$
