1t5f_ligand
  -I-interpret- 

 28 27  0  0  0  0  0  0  0  0999 V2000
   88.5700   43.8420   -6.2920 N   0  3  0  0  0
   88.3750   43.9240   -7.8060 C   0  0  0  0  0
   88.8260   45.2290   -8.3850 C   0  0  0  0  0
   88.9680   45.4820   -9.5610 O   0  0  0  0  0
   88.9600   46.1310   -7.4170 O   0  0  0  0  0
   86.8730   43.5200   -8.1440 C   0  0  0  0  0
   85.9270   44.7670   -8.2390 C   0  0  0  0  0
   84.5260   44.2260   -8.5560 C   0  0  0  0  0
   83.5550   44.9910   -7.7060 C   0  0  0  0  0
   82.1140   44.8390   -8.1500 C   0  0  0  0  0
   81.3760   44.6790   -6.9920 O   0  0  0  0  0
   81.5480   46.0250   -8.6640 O   0  0  0  0  0
   89.5295   44.0986   -6.0596 H   0  0  0  0  0
   87.9243   44.4837   -5.8320 H   0  0  0  0  0
   88.3859   42.8892   -5.9778 H   0  0  0  0  0
   89.0289   43.2075   -8.3030 H   0  0  0  0  0
   88.8041   45.7124   -6.5673 H   0  0  0  0  0
   86.5071   42.8788   -7.3421 H   0  0  0  0  0
   86.8679   43.0177   -9.1114 H   0  0  0  0  0
   86.2646   45.4556   -9.0136 H   0  0  0  0  0
   85.9268   45.3294   -7.3053 H   0  0  0  0  0
   84.4679   43.1590   -8.3411 H   0  0  0  0  0
   84.2947   44.3530   -9.6136 H   0  0  0  0  0
   83.8124   46.0473   -7.7838 H   0  0  0  0  0
   83.6285   44.5999   -6.6913 H   0  0  0  0  0
   82.0986   44.0404   -8.8917 H   0  0  0  0  0
   80.4482   44.5775   -7.2166 H   0  0  0  0  0
   80.6393   45.8578   -8.9245 H   0  0  0  0  0
  1  2  1  0  0  0
  2  3  1  0  0  0
  2  6  1  0  0  0
  3  4  2  0  0  0
  3  5  1  0  0  0
  6  7  1  0  0  0
  7  8  1  0  0  0
  8  9  1  0  0  0
  9 10  1  0  0  0
 10 11  1  0  0  0
 10 12  1  0  0  0
  1 13  1  0  0  0
  1 14  1  0  0  0
  1 15  1  0  0  0
  2 16  1  0  0  0
  5 17  1  0  0  0
  6 18  1  0  0  0
  6 19  1  0  0  0
  7 20  1  0  0  0
  7 21  1  0  0  0
  8 22  1  0  0  0
  8 23  1  0  0  0
  9 24  1  0  0  0
  9 25  1  0  0  0
 10 26  1  0  0  0
 11 27  1  0  0  0
 12 28  1  0  0  0
M  END
$$$$
