6qhr_ligand
  -I-interpret- 

 50 54  0  0  0  0  0  0  0  0999 V2000
  -24.6480  -14.1830    6.0270 C   0  0  0  0  0
  -22.5890  -15.3950    6.5780 C   0  0  0  0  0
  -28.4870   -5.2460    9.1390 C   0  0  0  0  0
  -26.9390   -6.9080    8.6150 C   0  0  0  0  0
  -29.9030   -4.1850    7.5500 C   0  0  0  0  0
  -30.0910   -3.7060    8.8420 C   0  0  0  0  0
  -24.2000   -6.5500    3.4890 N   0  0  0  0  0
  -23.9170   -7.7840    3.0450 C   0  0  0  0  0
  -24.9250  -15.1340    5.3160 O   0  0  0  0  0
  -25.2710   -8.8410    4.6410 C   0  0  0  0  0
  -25.3060  -11.8500    6.5530 C   0  0  0  0  0
  -23.2320  -14.0200    6.5230 C   0  0  0  0  0
  -28.2600   -5.9970    6.7930 C   0  0  0  0  0
  -28.8810   -5.1690    7.7240 C   0  0  0  0  0
  -25.6390   -7.5240    5.1930 C   0  0  0  0  0
  -25.0290   -6.3410    4.5340 C   0  0  0  0  0
  -26.5750   -7.8040    6.3250 C   0  0  0  0  0
  -27.2700   -6.8660    7.2560 C   0  0  0  0  0
  -25.9790  -11.2280    5.3320 C   0  0  0  0  0
  -27.4520  -11.6300    5.2820 C   0  0  0  0  0
  -27.6530  -13.1360    5.4130 C   0  0  0  0  0
  -26.9370  -13.6580    6.6480 C   0  0  0  0  0
  -24.4230   -8.9020    3.5900 N   0  0  0  0  0
  -25.9140   -9.7440    5.3810 N   0  0  0  0  0
  -26.7020   -9.1530    6.3850 N   0  0  0  0  0
  -25.2890   -5.0820    4.9410 N   0  0  0  0  0
  -25.5600  -13.2800    6.3960 N   0  0  0  0  0
  -27.5220   -6.1150    9.5290 N   0  0  0  0  0
  -29.2670   -4.3270    9.7470 N   0  0  0  0  0
  -23.1544  -16.0321    7.2581 H   0  0  0  0  0
  -22.5896  -15.8351    5.5808 H   0  0  0  0  0
  -21.5632  -15.3010    6.9345 H   0  0  0  0  0
  -26.1766   -7.6134    8.9455 H   0  0  0  0  0
  -30.4092   -3.8847    6.6326 H   0  0  0  0  0
  -30.8085   -2.9287    9.1050 H   0  0  0  0  0
  -23.2402   -7.8844    2.1965 H   0  0  0  0  0
  -25.7001  -11.4577    7.4905 H   0  0  0  0  0
  -24.2419  -11.6194    6.6044 H   0  0  0  0  0
  -23.2313  -13.5654    7.5137 H   0  0  0  0  0
  -22.6714  -13.3701    5.8511 H   0  0  0  0  0
  -28.5370   -5.9679    5.7392 H   0  0  0  0  0
  -25.4503  -11.5895    4.4500 H   0  0  0  0  0
  -27.8517  -11.3208    4.3162 H   0  0  0  0  0
  -27.9596  -11.1496    6.1185 H   0  0  0  0  0
  -27.2445  -13.6278    4.5302 H   0  0  0  0  0
  -28.7187  -13.3463    5.5038 H   0  0  0  0  0
  -27.0654  -14.7304    6.7946 H   0  0  0  0  0
  -27.3303  -13.2440    7.5765 H   0  0  0  0  0
  -24.8599   -4.2916    4.4598 H   0  0  0  0  0
  -25.9147   -4.9201    5.7301 H   0  0  0  0  0
  1  9  2  0  0  0
  1 12  1  0  0  0
 27  1  1  0  0  0
 12  2  1  0  0  0
 14  3  4  0  0  0
 28  3  4  0  0  0
  3 29  4  0  0  0
 18  4  4  0  0  0
  4 28  4  0  0  0
  5  6  4  0  0  0
 14  5  4  0  0  0
  6 29  4  0  0  0
  8  7  4  0  0  0
 16  7  4  0  0  0
 23  8  4  0  0  0
 10 15  4  0  0  0
 10 23  4  0  0  0
 24 10  4  0  0  0
 19 11  1  0  0  0
 11 27  1  0  0  0
 13 14  4  0  0  0
 18 13  4  0  0  0
 15 16  4  0  0  0
 15 17  4  0  0  0
 16 26  1  0  0  0
 17 18  1  0  0  0
 17 25  4  0  0  0
 19 20  1  0  0  0
 19 24  1  0  0  0
 20 21  1  0  0  0
 21 22  1  0  0  0
 22 27  1  0  0  0
 24 25  4  0  0  0
  2 30  1  0  0  0
  2 31  1  0  0  0
  2 32  1  0  0  0
  4 33  1  0  0  0
  5 34  1  0  0  0
  6 35  1  0  0  0
  8 36  1  0  0  0
 11 37  1  0  0  0
 11 38  1  0  0  0
 12 39  1  0  0  0
 12 40  1  0  0  0
 13 41  1  0  0  0
 19 42  1  0  0  0
 20 43  1  0  0  0
 20 44  1  0  0  0
 21 45  1  0  0  0
 21 46  1  0  0  0
 22 47  1  0  0  0
 22 48  1  0  0  0
 26 49  1  0  0  0
 26 50  1  0  0  0
M  END
$$$$
