4ejn_ligand
  -I-interpret- 

 69 74  0  0  0  0  0  0  0  0999 V2000
   37.4060   46.1000   24.7550 O   0  0  0  0  0
   37.6080   45.1470   25.5140 C   0  0  0  0  0
   37.9110   45.3590   26.9720 C   0  0  0  0  0
   37.5780   43.8520   25.1510 N   0  0  0  0  0
   37.3860   43.3700   23.8850 C   0  0  0  0  0
   36.7520   42.1290   23.7160 C   0  0  0  0  0
   36.5440   41.6320   22.4240 C   0  0  0  0  0
   36.9660   42.3530   21.3040 C   0  0  0  0  0
   37.8090   44.0840   22.7580 C   0  0  0  0  0
   37.6110   43.5850   21.4670 C   0  0  0  0  0
   38.0690   44.3530   20.2650 C   0  0  0  0  0
   39.2830   45.0680   20.2480 C   0  0  0  0  0
   39.6940   45.7840   19.1070 C   0  0  0  0  0
   37.2830   44.3380   19.1740 N   0  0  0  0  0
   37.6280   45.0110   18.0490 C   0  0  0  0  0
   38.8780   45.7790   17.9700 C   0  0  0  0  0
   38.9270   46.3140   16.7150 N   0  0  0  0  0
   37.8160   45.9400   16.0130 C   0  0  0  0  0
   37.4720   46.3210   14.6110 C   0  0  0  0  0
   37.7940   47.6850   14.0980 C   0  0  0  0  0
   38.4030   48.6180   14.8950 N   0  0  0  0  0
   37.4590   47.9820   12.8310 N   0  0  0  0  0
   36.8450   47.0960   12.0140 C   0  0  0  0  0
   36.5250   45.8020   12.4540 C   0  0  0  0  0
   36.8440   45.4090   13.7480 C   0  0  0  0  0
   37.1010   45.1460   16.8410 N   0  0  0  0  0
   35.8780   44.6160   16.6130 C   0  0  0  0  0
   34.8280   45.4280   16.1360 C   0  0  0  0  0
   33.5310   44.9580   15.9290 C   0  0  0  0  0
   35.5150   43.2870   16.9200 C   0  0  0  0  0
   34.2250   42.8060   16.7360 C   0  0  0  0  0
   33.2210   43.6480   16.2480 C   0  0  0  0  0
   31.8080   43.1450   16.0250 C   0  0  0  0  0
   31.4140   42.2840   17.1250 N   0  0  0  0  0
   30.4250   41.4270   16.9210 C   0  0  0  0  0
   29.6700   41.5770   15.9770 O   0  0  0  0  0
   30.2050   40.2530   17.8160 C   0  0  0  0  0
   31.2700   39.5110   18.3300 C   0  0  0  0  0
   28.8870   39.8870   18.1060 C   0  0  0  0  0
   28.6250   38.7960   18.9300 C   0  0  0  0  0
   29.6780   38.0520   19.4450 C   0  0  0  0  0
   30.9880   38.4080   19.1500 C   0  0  0  0  0
   31.9860   37.6690   19.6790 F   0  0  0  0  0
   38.8185   45.9547   27.0703 H   0  0  0  0  0
   37.0786   45.8823   27.4424 H   0  0  0  0  0
   38.0547   44.3930   27.4561 H   0  0  0  0  0
   37.7113   43.1629   25.8911 H   0  0  0  0  0
   36.4243   41.5569   24.5840 H   0  0  0  0  0
   36.0470   40.6712   22.2901 H   0  0  0  0  0
   36.7931   41.9564   20.3035 H   0  0  0  0  0
   38.3021   45.0472   22.8892 H   0  0  0  0  0
   39.9163   45.0669   21.1351 H   0  0  0  0  0
   40.6348   46.3345   19.1094 H   0  0  0  0  0
   38.6449   48.3860   15.8583 H   0  0  0  0  0
   38.6145   49.5447   14.5251 H   0  0  0  0  0
   36.5941   47.3922   10.9955 H   0  0  0  0  0
   36.0261   45.1053   11.7804 H   0  0  0  0  0
   36.6087   44.4012   14.0901 H   0  0  0  0  0
   35.0405   46.4747   15.9183 H   0  0  0  0  0
   32.7670   45.6184   15.5187 H   0  0  0  0  0
   36.2749   42.6134   17.3160 H   0  0  0  0  0
   33.9943   41.7674   16.9731 H   0  0  0  0  0
   31.7690   42.5805   15.0934 H   0  0  0  0  0
   31.1272   43.9945   15.9702 H   0  0  0  0  0
   31.8848   42.3373   18.0283 H   0  0  0  0  0
   32.2999   39.7831   18.0989 H   0  0  0  0  0
   28.0603   40.4590   17.6846 H   0  0  0  0  0
   27.5964   38.5267   19.1701 H   0  0  0  0  0
   29.4770   37.1893   20.0802 H   0  0  0  0  0
  1  2  2  0  0  0
  2  3  1  0  0  0
  2  4  1  0  0  0
  4  5  1  0  0  0
  5  6  4  0  0  0
  5  9  4  0  0  0
  6  7  4  0  0  0
  7  8  4  0  0  0
  8 10  4  0  0  0
  9 10  4  0  0  0
 10 11  1  0  0  0
 11 12  4  0  0  0
 11 14  4  0  0  0
 12 13  4  0  0  0
 13 16  4  0  0  0
 14 15  4  0  0  0
 15 16  4  0  0  0
 15 26  4  0  0  0
 16 17  4  0  0  0
 17 18  4  0  0  0
 18 19  1  0  0  0
 18 26  4  0  0  0
 19 20  4  0  0  0
 19 25  4  0  0  0
 20 21  1  0  0  0
 20 22  4  0  0  0
 22 23  4  0  0  0
 23 24  4  0  0  0
 24 25  4  0  0  0
 26 27  1  0  0  0
 27 28  4  0  0  0
 27 30  4  0  0  0
 28 29  4  0  0  0
 29 32  4  0  0  0
 30 31  4  0  0  0
 31 32  4  0  0  0
 32 33  1  0  0  0
 33 34  1  0  0  0
 34 35  1  0  0  0
 35 36  2  0  0  0
 35 37  1  0  0  0
 37 38  4  0  0  0
 37 39  4  0  0  0
 38 42  4  0  0  0
 39 40  4  0  0  0
 40 41  4  0  0  0
 41 42  4  0  0  0
 42 43  1  0  0  0
  3 44  1  0  0  0
  3 45  1  0  0  0
  3 46  1  0  0  0
  4 47  1  0  0  0
  6 48  1  0  0  0
  7 49  1  0  0  0
  8 50  1  0  0  0
  9 51  1  0  0  0
 12 52  1  0  0  0
 13 53  1  0  0  0
 21 54  1  0  0  0
 21 55  1  0  0  0
 23 56  1  0  0  0
 24 57  1  0  0  0
 25 58  1  0  0  0
 28 59  1  0  0  0
 29 60  1  0  0  0
 30 61  1  0  0  0
 31 62  1  0  0  0
 33 63  1  0  0  0
 33 64  1  0  0  0
 34 65  1  0  0  0
 38 66  1  0  0  0
 39 67  1  0  0  0
 40 68  1  0  0  0
 41 69  1  0  0  0
M  END
$$$$
