### 
### Created by X-TOOL on Mon Sep 10 21:13:05 2018
### 

@<TRIPOS>MOLECULE
2krd_ligand
  261   260     1     0     0
SMALL
GAST_HUCK


@<TRIPOS>ATOM
      1 N          63.7500    4.3720    6.3960 N.4       1 ARG         0.2379
      2 CA         63.8210    3.1640    5.5160 C.3       1 ARG         0.0651
      3 C          64.9630    3.3190    4.4880 C.2       1 ARG         0.2267
      4 O          66.1230    3.4400    4.8740 O.2       1 ARG        -0.3907
      5 CB         62.4500    2.9340    4.8510 C.3       1 ARG         0.0110
      6 CG         61.5710    2.0980    5.7970 C.3       1 ARG        -0.0125
      7 CD         60.1360    2.0160    5.2680 C.3       1 ARG         0.0629
      8 NE         59.4330    3.2670    5.5410 N.pl3     1 ARG        -0.2723
      9 CZ         58.1110    3.3510    5.5450 C.cat     1 ARG         0.2882
     10 NH1        57.3880    2.3120    5.2750 N.pl3     1 ARG        -0.2849
     11 NH2        57.5440    4.4700    5.8400 N.pl3     1 ARG        -0.2849
     12 N          64.6370    3.3010    3.1880 N.am      1 ILE        -0.2608
     13 CA         65.6640    3.4140    2.1360 C.3       1 ILE         0.1336
     14 C          66.3880    4.7640    2.2020 C.2       1 ILE         0.2042
     15 O          67.6080    4.8290    2.0450 O.2       1 ILE        -0.3944
     16 CB         65.0390    3.2040    0.7390 C.3       1 ILE        -0.0037
     17 CG1        66.1120    3.3660   -0.3570 C.3       1 ILE        -0.0491
     18 CG2        63.9050    4.2090    0.5040 C.3       1 ILE        -0.0582
     19 CD1        65.5730    2.8390   -1.6930 C.3       1 ILE        -0.0648
     20 N          65.6220    5.8300    2.4500 N.am      1 SER        -0.2616
     21 CA         66.1710    7.1880    2.5520 C.3       1 SER         0.1539
     22 C          65.5820    7.9260    3.7650 C.2       1 SER         0.2062
     23 O          65.3300    7.3180    4.8050 O.2       1 SER        -0.3943
     24 CB         65.8930    7.9760    1.2630 C.3       1 SER         0.0843
     25 OG         66.0430    7.1200    0.1330 O.3       1 SER        -0.3903
     26 N          65.3290    9.2330    3.6090 N.am      1 ALA        -0.2639
     27 CA         64.7490   10.0550    4.6810 C.3       1 ALA         0.1282
     28 C          63.4170    9.4700    5.1560 C.2       1 ALA         0.2037
     29 O          63.0060    9.6830    6.3000 O.2       1 ALA        -0.3944
     30 CB         64.5350   11.4900    4.1840 C.3       1 ALA        -0.0244
     31 N          62.7640    8.7220    4.2650 N.am      1 ASP        -0.2622
     32 CA         61.4820    8.0680    4.5520 C.3       1 ASP         0.1423
     33 C          60.2960    9.0250    4.3740 C.2       1 ASP         0.2056
     34 O          59.6120    9.3820    5.3360 O.2       1 ASP        -0.3943
     35 CB         61.4830    7.4210    5.9550 C.3       1 ASP         0.0406
     36 CG         60.6470    6.1470    5.9610 C.2       1 ASP         0.0393
     37 OD1        59.5540    6.1720    5.4220 O.co2     1 ASP        -0.5688
     38 OD2        61.1130    5.1630    6.5040 O.co2     1 ASP        -0.5688
     39 N          60.0330    9.3930    3.1140 N.am      1 ALA        -0.2639
     40 CA         58.9110   10.2710    2.7690 C.3       1 ALA         0.1282
     41 C          57.5660    9.6400    3.1530 C.2       1 ALA         0.2036
     42 O          56.5560   10.3350    3.2860 O.2       1 ALA        -0.3944
     43 CB         58.9280   10.6030    1.2730 C.3       1 ALA        -0.0244
     44 N          57.5630    8.3160    3.3000 N.am      1 MET        -0.2637
     45 CA         56.3520    7.5650    3.6260 C.3       1 MET         0.1317
     46 C          55.7530    7.9450    4.9720 C.2       1 MET         0.2039
     47 O          54.5360    7.8930    5.1500 O.2       1 MET        -0.3944
     48 CB         56.5560    6.0600    3.4930 C.3       1 MET        -0.0034
     49 CG         56.4640    5.6910    2.0120 C.3       1 MET        -0.0024
     50 SD         56.5960    3.9020    1.8000 S.3       1 MET        -0.1639
     51 CE         55.8850    3.8390    0.1340 C.3       1 MET        -0.0181
     52 N          56.5960    8.3040    5.9190 N.am      1 MET        -0.2637
     53 CA         56.1160    8.6980    7.2370 C.3       1 MET         0.1317
     54 C          55.2000    9.9300    7.1080 C.2       1 MET         0.2039
     55 O          54.1440    9.9980    7.7390 O.2       1 MET        -0.3944
     56 CB         57.3120    9.0200    8.1430 C.3       1 MET        -0.0034
     57 CG         58.0110    7.7180    8.5510 C.3       1 MET        -0.0024
     58 SD         59.4680    8.1010    9.5540 S.3       1 MET        -0.1639
     59 CE         58.5930    8.6770   11.0270 C.3       1 MET        -0.0181
     60 N          55.5950   10.8640    6.2340 N.am      1 GLN        -0.2636
     61 CA         54.8000   12.0740    5.9310 C.3       1 GLN         0.1330
     62 C          53.7610   11.8260    4.8250 C.2       1 GLN         0.2040
     63 O          52.9580   12.7060    4.5150 O.2       1 GLN        -0.3944
     64 CB         55.7290   13.2160    5.5120 C.3       1 GLN         0.0045
     65 CG         56.8170   13.4110    6.5770 C.3       1 GLN         0.0412
     66 CD         58.1730   13.0160    6.0130 C.2       1 GLN         0.1737
     67 OE1        58.3920   11.8550    5.6790 O.2       1 GLN        -0.3973
     68 NE2        59.0970   13.9170    5.8770 N.am      1 GLN        -0.3009
     69 N          53.9160   10.7100    4.1230 N.am      1 ALA        -0.2640
     70 CA         53.1440   10.4140    2.9080 C.3       1 ALA         0.1282
     71 C          51.6260   10.4020    3.1040 C.2       1 ALA         0.2036
     72 O          50.8810   10.5310    2.1280 O.2       1 ALA        -0.3944
     73 CB         53.5790    9.0850    2.3240 C.3       1 ALA        -0.0244
     74 N          51.1630   10.1580    4.3240 N.am      1 LEU        -0.2637
     75 CA         49.7200   10.0080    4.5530 C.3       1 LEU         0.1312
     76 C          48.9790   11.2810    4.1740 C.2       1 LEU         0.2039
     77 O          47.9930   11.2310    3.4430 O.2       1 LEU        -0.3944
     78 CB         49.4370    9.6350    6.0140 C.3       1 LEU        -0.0101
     79 CG         49.9660    8.2190    6.2880 C.3       1 LEU        -0.0425
     80 CD1        49.7830    7.8630    7.7650 C.3       1 LEU        -0.0625
     81 CD2        49.2230    7.2070    5.4070 C.3       1 LEU        -0.0625
     82 N          49.5630   12.4140    4.5390 N.am      1 LEU        -0.2637
     83 CA         49.0730   13.7400    4.1410 C.3       1 LEU         0.1312
     84 C          47.5770   13.9660    4.4800 C.2       1 LEU         0.2037
     85 O          47.2510   14.8250    5.3020 O.2       1 LEU        -0.3944
     86 CB         49.3470   13.9700    2.6390 C.3       1 LEU        -0.0101
     87 CG         50.8670   14.1090    2.3960 C.3       1 LEU        -0.0425
     88 CD1        51.1790   13.9810    0.8930 C.3       1 LEU        -0.0625
     89 CD2        51.3530   15.4790    2.8960 C.3       1 LEU        -0.0625
     90 N          46.6810   13.1910    3.8520 N.am      1 GLY        -0.2664
     91 CA         45.2300   13.3110    4.0930 C.3       1 GLY         0.1201
     92 C          44.6260   11.9780    4.5360 C.2       1 GLY         0.2007
     93 O          45.1120   10.9120    4.1560 O.2       1 GLY        -0.3947
     94 N          43.5960   12.0430    5.3890 N.am      1 ALA        -0.2642
     95 CA         42.9870   10.8280    5.9390 C.3       1 ALA         0.1282
     96 C          41.5140   11.0190    6.3330 C.2       1 ALA         0.2036
     97 O          41.0760   12.1240    6.6610 O.2       1 ALA        -0.3944
     98 CB         43.7890   10.3480    7.1490 C.3       1 ALA        -0.0244
     99 N          40.7900    9.8970    6.3630 N.am      1 ARG        -0.2637
    100 CA         39.3870    9.8350    6.7910 C.3       1 ARG         0.1311
    101 C          39.1670    8.7920    7.8880 C.2       1 ARG         0.2039
    102 O          39.9420    7.8440    8.0230 O.2       1 ARG        -0.3944
    103 CB         38.4450    9.5470    5.6120 C.3       1 ARG        -0.0092
    104 CG         38.0170   10.8460    4.9230 C.3       1 ARG        -0.0156
    105 CD         37.1060   10.5030    3.7370 C.3       1 ARG         0.0627
    106 NE         36.2860   11.6570    3.3650 N.pl3     1 ARG        -0.2723
    107 CZ         36.7700   12.7210    2.7450 C.cat     1 ARG         0.2882
    108 NH1        38.0220   12.7880    2.4280 N.pl3     1 ARG        -0.2849
    109 NH2        35.9850   13.7010    2.4600 N.pl3     1 ARG        -0.2849
    110 N          38.0850    8.9880    8.6540 N.am      1 ALA        -0.2640
    111 CA         37.6750    8.0960    9.7520 C.3       1 ALA         0.1282
    112 C          38.1710    8.6080   11.0980 C.2       1 ALA         0.2031
    113 O          37.4460    8.5570   12.0900 O.2       1 ALA        -0.3944
    114 CB         38.1190    6.6400    9.5170 C.3       1 ALA        -0.0244
    115 N          39.3860    9.1520   11.1020 N.am      1 LYS        -0.2695
    116 CA         39.9960    9.7410   12.3010 C.3       1 LYS         0.0944
    117 C          41.3500   10.3890   11.9690 C.2       1 LYS         0.0601
    118 O          42.1060   10.6550   12.8910 O.co2     1 LYS        -0.5666
    119 CB         40.1460    8.6880   13.4280 C.3       1 LYS        -0.0177
    120 CG         39.0930    8.9280   14.5300 C.3       1 LYS        -0.0446
    121 CD         39.3850   10.2500   15.2640 C.3       1 LYS        -0.0125
    122 CE         38.3170   10.4840   16.3390 C.3       1 LYS        -0.0354
    123 NZ         38.6110   11.7490   17.0730 N.4       1 LYS         0.2185
    124 OXT        41.6050   10.6190   10.7970 O.co2     1 LYS        -0.5666
    125 H1         63.0018    4.2591    7.0619 H         1 ARG         0.2015
    126 H2         63.5770    5.1891    5.8317 H         1 ARG         0.2015
    127 H3         64.6233    4.4816    6.8873 H         1 ARG         0.2015
    128 H4         64.0469    2.2882    6.1421 H         1 ARG         0.1098
    129 H5         62.5859    2.3958    3.9014 H         1 ARG         0.0347
    130 H6         61.9663    3.9028    4.6575 H         1 ARG         0.0347
    131 H7         61.5632    2.5669    6.7920 H         1 ARG         0.0302
    132 H8         61.9866    1.0824    5.8735 H         1 ARG         0.0302
    133 H9         59.6110    1.1868    5.7648 H         1 ARG         0.0689
    134 H10        60.1570    1.8389    4.1826 H         1 ARG         0.0689
    135 H11        59.9850    4.1141    5.7374 H         1 ARG         0.2642
    136 H12        56.3605    2.3842    5.2798 H         1 ARG         0.2615
    137 H13        57.8401    1.4130    5.0553 H         1 ARG         0.2615
    138 H14        58.1184    5.2975    6.0550 H         1 ARG         0.2615
    139 H15        56.5164    4.5369    5.8608 H         1 ARG         0.2615
    140 H16        63.6764    3.2089    2.9259 H         1 ILE         0.1885
    141 H17        66.4079    2.6208    2.3014 H         1 ILE         0.0803
    142 H18        64.6274    2.1853    0.6859 H         1 ILE         0.0345
    143 H19        67.0104    2.7970   -0.0756 H         1 ILE         0.0267
    144 H20        66.3697    4.4303   -0.4614 H         1 ILE         0.0267
    145 H21        63.1419    4.0905    1.2873 H         1 ILE         0.0235
    146 H22        63.4509    4.0257   -0.4810 H         1 ILE         0.0235
    147 H23        64.3087    5.2317    0.5371 H         1 ILE         0.0235
    148 H24        66.3419    2.9569   -2.4707 H         1 ILE         0.0230
    149 H25        64.6750    3.4077   -1.9761 H         1 ILE         0.0230
    150 H26        65.3156    1.7745   -1.5903 H         1 ILE         0.0230
    151 H27        64.6381    5.6982    2.5707 H         1 SER         0.1884
    152 H28        67.2601    7.1126    2.6867 H         1 SER         0.0823
    153 H29        66.6040    8.8117    1.1851 H         1 SER         0.0606
    154 H30        64.8661    8.3694    1.2895 H         1 SER         0.0606
    155 H31        65.8700    7.6122   -0.6609 H         1 SER         0.2097
    156 H32        65.5423    9.6643    2.7323 H         1 ALA         0.1883
    157 H33        65.4493   10.0726    5.5291 H         1 ALA         0.0797
    158 H34        64.1011   12.0970    4.9922 H         1 ALA         0.0277
    159 H35        63.8499   11.4817    3.3235 H         1 ALA         0.0277
    160 H36        65.5005   11.9206    3.8799 H         1 ALA         0.0277
    161 H37        63.1675    8.6012    3.3580 H         1 ASP         0.1884
    162 H38        61.3585    7.2578    3.8183 H         1 ASP         0.0819
    163 H39        61.0624    8.1323    6.6810 H         1 ASP         0.0478
    164 H40        62.5170    7.1757    6.2388 H         1 ASP         0.0478
    165 H41        60.6240    9.0564    2.3809 H         1 ALA         0.1883
    166 H42        59.0243   11.2083    3.3335 H         1 ALA         0.0797
    167 H43        58.0800   11.2616    1.0339 H         1 ALA         0.0277
    168 H44        58.8461    9.6737    0.6902 H         1 ALA         0.0277
    169 H45        59.8700   11.1121    1.0210 H         1 ALA         0.0277
    170 H46        58.4217    7.8170    3.1829 H         1 MET         0.1883
    171 H47        55.6051    7.8449    2.8685 H         1 MET         0.0800
    172 H48        55.7764    5.5278    4.0578 H         1 MET         0.0320
    173 H49        57.5460    5.7830    3.8843 H         1 MET         0.0320
    174 H50        57.2819    6.1822    1.4645 H         1 MET         0.0378
    175 H51        55.4979    6.0331    1.6125 H         1 MET         0.0378
    176 H52        55.8640    2.7965   -0.2165 H         1 MET         0.0340
    177 H53        56.4990    4.4434   -0.5498 H         1 MET         0.0340
    178 H54        54.8605    4.2387    0.1572 H         1 MET         0.0340
    179 H55        57.5781    8.3060    5.7306 H         1 MET         0.1883
    180 H56        55.5435    7.8683    7.6772 H         1 MET         0.0800
    181 H57        56.9590    9.5440    9.0434 H         1 MET         0.0320
    182 H58        58.0211    9.6617    7.5995 H         1 MET         0.0320
    183 H59        58.3211    7.1705    7.6488 H         1 MET         0.0378
    184 H60        57.3165    7.0972    9.1361 H         1 MET         0.0378
    185 H61        59.3230    8.9721   11.7952 H         1 MET         0.0340
    186 H62        57.9580    7.8675   11.4163 H         1 MET         0.0340
    187 H63        57.9656    9.5420   10.7660 H         1 MET         0.0340
    188 H64        56.4685   10.7377    5.7639 H         1 GLN         0.1883
    189 H65        54.2655   12.3712    6.8453 H         1 GLN         0.0801
    190 H66        55.1463   14.1434    5.4098 H         1 GLN         0.0337
    191 H67        56.1996   12.9705    4.5485 H         1 GLN         0.0337
    192 H68        56.5887   12.7826    7.4505 H         1 GLN         0.0504
    193 H69        56.8431   14.4675    6.8821 H         1 GLN         0.0504
    194 H70        59.9910   13.6645    5.5068 H         1 GLN         0.1814
    195 H71        58.9150   14.8638    6.1424 H         1 GLN         0.1814
    196 H72        54.5892   10.0397    4.4354 H         1 ALA         0.1883
    197 H73        53.3742   11.2032    2.1771 H         1 ALA         0.0797
    198 H74        52.9947    8.8747    1.4160 H         1 ALA         0.0277
    199 H75        53.4096    8.2871    3.0620 H         1 ALA         0.0277
    200 H76        54.6484    9.1285    2.0699 H         1 ALA         0.0277
    201 H77        51.7997   10.0759    5.0907 H         1 LEU         0.1883
    202 H78        49.3534    9.1925    3.9123 H         1 LEU         0.0800
    203 H79        48.3528    9.6640    6.1973 H         1 LEU         0.0315
    204 H80        49.9408   10.3507    6.6802 H         1 LEU         0.0315
    205 H81        51.0381    8.1854    6.0441 H         1 LEU         0.0298
    206 H82        50.1654    6.8479    7.9476 H         1 LEU         0.0232
    207 H83        48.7143    7.9041    8.0224 H         1 LEU         0.0232
    208 H84        50.3378    8.5811    8.3867 H         1 LEU         0.0232
    209 H85        49.3609    7.4718    4.3483 H         1 LEU         0.0232
    210 H86        48.1509    7.2245    5.6527 H         1 LEU         0.0232
    211 H87        49.6243    6.1990    5.5881 H         1 LEU         0.0232
    212 H88        50.3790   12.3630    5.1148 H         1 LEU         0.1883
    213 H89        49.6496   14.4871    4.7061 H         1 LEU         0.0800
    214 H90        48.8400   14.8900    2.3126 H         1 LEU         0.0315
    215 H91        48.9624   13.1153    2.0632 H         1 LEU         0.0315
    216 H92        51.3933   13.3140    2.9446 H         1 LEU         0.0298
    217 H93        52.2627   14.0816    0.7337 H         1 LEU         0.0232
    218 H94        50.6521   14.7728    0.3404 H         1 LEU         0.0232
    219 H95        50.8451   12.9972    0.5317 H         1 LEU         0.0232
    220 H96        51.1330   15.5767    3.9693 H         1 LEU         0.0232
    221 H97        50.8360   16.2762    2.3417 H         1 LEU         0.0232
    222 H98        52.4378   15.5645    2.7348 H         1 LEU         0.0232
    223 H99        47.0071   12.5084    3.1980 H         1 GLY         0.1881
    224 H100       44.7385   13.6354    3.1640 H         1 GLY         0.0763
    225 H101       45.0586   14.0606    4.8796 H         1 GLY         0.0763
    226 H102       43.2354   12.9367    5.6559 H         1 ALA         0.1883
    227 H103       43.0292   10.0498    5.1628 H         1 ALA         0.0797
    228 H104       43.3273    9.4367    7.5568 H         1 ALA         0.0277
    229 H105       43.7946   11.1326    7.9199 H         1 ALA         0.0277
    230 H106       44.8220   10.1292    6.8409 H         1 ALA         0.0277
    231 H107       41.2309    9.0465    6.0762 H         1 ARG         0.1883
    232 H108       39.1234   10.8202    7.2032 H         1 ARG         0.0800
    233 H109       37.5509    9.0258    5.9847 H         1 ARG         0.0313
    234 H110       38.9652    8.9077    4.8835 H         1 ARG         0.0313
    235 H111       38.9066   11.3829    4.5620 H         1 ARG         0.0301
    236 H112       37.4707   11.4799    5.6369 H         1 ARG         0.0301
    237 H113       36.4478    9.6673    4.0169 H         1 ARG         0.0689
    238 H114       37.7267   10.2090    2.8778 H         1 ARG         0.0689
    239 H115       35.2827   11.6399    3.5973 H         1 ARG         0.2642
    240 H116       38.3872   13.6215    1.9455 H         1 ARG         0.2615
    241 H117       38.6540   12.0079    2.6580 H         1 ARG         0.2615
    242 H118       34.9872   13.6514    2.7108 H         1 ARG         0.2615
    243 H119       36.3548   14.5346    1.9812 H         1 ARG         0.2615
    244 H120       37.5196    9.7916    8.4682 H         1 ALA         0.1883
    245 H121       36.5754    8.1013    9.7821 H         1 ALA         0.0797
    246 H122       37.7905    6.0158   10.3611 H         1 ALA         0.0277
    247 H123       39.2152    6.5995    9.4358 H         1 ALA         0.0277
    248 H124       37.6683    6.2649    8.5864 H         1 ALA         0.0277
    249 H125       39.9076    9.1599   10.2488 H         1 LYS         0.1875
    250 H126       39.3243   10.5317   12.6665 H         1 LYS         0.0726
    251 H127       41.1525    8.7654   13.8651 H         1 LYS         0.0305
    252 H128       40.0060    7.6821   13.0055 H         1 LYS         0.0305
    253 H129       39.1249    8.0974   15.2505 H         1 LYS         0.0269
    254 H130       38.0937    8.9789   14.0731 H         1 LYS         0.0269
    255 H131       39.3683   11.0810   14.5435 H         1 LYS         0.0317
    256 H132       40.3763   10.1953   15.7377 H         1 LYS         0.0317
    257 H133       38.3197    9.6417   17.0465 H         1 LYS         0.0813
    258 H134       37.3286   10.5593   15.8622 H         1 LYS         0.0813
    259 H135       37.9070   11.8994   17.7786 H         1 LYS         0.1994
    260 H136       38.6082   12.5216   16.4256 H         1 LYS         0.1994
    261 H137       39.5164   11.6808   17.5109 H         1 LYS         0.1994
@<TRIPOS>BOND
     1    1    2 1  
     2    2    3 1  
     3    2    5 1  
     4    3    4 2  
     5    3   12 am 
     6    5    6 1  
     7    6    7 1  
     8    7    8 1  
     9    8    9 ar 
    10    9   10 ar 
    11    9   11 ar 
    12   12   13 1  
    13   13   14 1  
    14   13   16 1  
    15   14   15 2  
    16   14   20 am 
    17   16   17 1  
    18   16   18 1  
    19   17   19 1  
    20   20   21 1  
    21   21   22 1  
    22   21   24 1  
    23   22   23 2  
    24   22   26 am 
    25   24   25 1  
    26   26   27 1  
    27   27   28 1  
    28   27   30 1  
    29   28   29 2  
    30   28   31 am 
    31   31   32 1  
    32   32   33 1  
    33   32   35 1  
    34   33   34 2  
    35   33   39 am 
    36   35   36 1  
    37   36   37 ar 
    38   36   38 ar 
    39   39   40 1  
    40   40   41 1  
    41   40   43 1  
    42   41   42 2  
    43   41   44 am 
    44   44   45 1  
    45   45   46 1  
    46   45   48 1  
    47   46   47 2  
    48   46   52 am 
    49   48   49 1  
    50   49   50 1  
    51   50   51 1  
    52   52   53 1  
    53   53   54 1  
    54   53   56 1  
    55   54   55 2  
    56   54   60 am 
    57   56   57 1  
    58   57   58 1  
    59   58   59 1  
    60   60   61 1  
    61   61   62 1  
    62   61   64 1  
    63   62   63 2  
    64   62   69 am 
    65   64   65 1  
    66   65   66 1  
    67   66   67 2  
    68   66   68 am 
    69   69   70 1  
    70   70   71 1  
    71   70   73 1  
    72   71   72 2  
    73   71   74 am 
    74   74   75 1  
    75   75   76 1  
    76   75   78 1  
    77   76   77 2  
    78   76   82 am 
    79   78   79 1  
    80   79   80 1  
    81   79   81 1  
    82   82   83 1  
    83   83   84 1  
    84   83   86 1  
    85   84   85 2  
    86   84   90 am 
    87   86   87 1  
    88   87   88 1  
    89   87   89 1  
    90   90   91 1  
    91   91   92 1  
    92   92   93 2  
    93   92   94 am 
    94   94   95 1  
    95   95   96 1  
    96   95   98 1  
    97   96   97 2  
    98   96   99 am 
    99   99  100 1  
   100  100  101 1  
   101  100  103 1  
   102  101  102 2  
   103  101  110 am 
   104  103  104 1  
   105  104  105 1  
   106  105  106 1  
   107  106  107 ar 
   108  107  108 ar 
   109  107  109 ar 
   110  110  111 1  
   111  111  112 1  
   112  111  114 1  
   113  112  113 2  
   114  112  115 am 
   115  115  116 1  
   116  116  117 1  
   117  116  119 1  
   118  117  118 ar 
   119  117  124 ar 
   120  119  120 1  
   121  120  121 1  
   122  121  122 1  
   123  122  123 1  
   124    1  125 1  
   125    1  126 1  
   126    1  127 1  
   127    2  128 1  
   128    5  129 1  
   129    5  130 1  
   130    6  131 1  
   131    6  132 1  
   132    7  133 1  
   133    7  134 1  
   134    8  135 1  
   135   10  136 1  
   136   10  137 1  
   137   11  138 1  
   138   11  139 1  
   139   12  140 1  
   140   13  141 1  
   141   16  142 1  
   142   17  143 1  
   143   17  144 1  
   144   18  145 1  
   145   18  146 1  
   146   18  147 1  
   147   19  148 1  
   148   19  149 1  
   149   19  150 1  
   150   20  151 1  
   151   21  152 1  
   152   24  153 1  
   153   24  154 1  
   154   25  155 1  
   155   26  156 1  
   156   27  157 1  
   157   30  158 1  
   158   30  159 1  
   159   30  160 1  
   160   31  161 1  
   161   32  162 1  
   162   35  163 1  
   163   35  164 1  
   164   39  165 1  
   165   40  166 1  
   166   43  167 1  
   167   43  168 1  
   168   43  169 1  
   169   44  170 1  
   170   45  171 1  
   171   48  172 1  
   172   48  173 1  
   173   49  174 1  
   174   49  175 1  
   175   51  176 1  
   176   51  177 1  
   177   51  178 1  
   178   52  179 1  
   179   53  180 1  
   180   56  181 1  
   181   56  182 1  
   182   57  183 1  
   183   57  184 1  
   184   59  185 1  
   185   59  186 1  
   186   59  187 1  
   187   60  188 1  
   188   61  189 1  
   189   64  190 1  
   190   64  191 1  
   191   65  192 1  
   192   65  193 1  
   193   68  194 1  
   194   68  195 1  
   195   69  196 1  
   196   70  197 1  
   197   73  198 1  
   198   73  199 1  
   199   73  200 1  
   200   74  201 1  
   201   75  202 1  
   202   78  203 1  
   203   78  204 1  
   204   79  205 1  
   205   80  206 1  
   206   80  207 1  
   207   80  208 1  
   208   81  209 1  
   209   81  210 1  
   210   81  211 1  
   211   82  212 1  
   212   83  213 1  
   213   86  214 1  
   214   86  215 1  
   215   87  216 1  
   216   88  217 1  
   217   88  218 1  
   218   88  219 1  
   219   89  220 1  
   220   89  221 1  
   221   89  222 1  
   222   90  223 1  
   223   91  224 1  
   224   91  225 1  
   225   94  226 1  
   226   95  227 1  
   227   98  228 1  
   228   98  229 1  
   229   98  230 1  
   230   99  231 1  
   231  100  232 1  
   232  103  233 1  
   233  103  234 1  
   234  104  235 1  
   235  104  236 1  
   236  105  237 1  
   237  105  238 1  
   238  106  239 1  
   239  108  240 1  
   240  108  241 1  
   241  109  242 1  
   242  109  243 1  
   243  110  244 1  
   244  111  245 1  
   245  114  246 1  
   246  114  247 1  
   247  114  248 1  
   248  115  249 1  
   249  116  250 1  
   250  119  251 1  
   251  119  252 1  
   252  120  253 1  
   253  120  254 1  
   254  121  255 1  
   255  121  256 1  
   256  122  257 1  
   257  122  258 1  
   258  123  259 1  
   259  123  260 1  
   260  123  261 1  
@<TRIPOS>SUBSTRUCTURE
     1 ARG         1

