2krd_ligand
  -I-interpret- 

261260  0  0  0  0  0  0  0  0999 V2000
   63.7500    4.3720    6.3960 N   0  3  0  0  0
   63.8210    3.1640    5.5160 C   0  0  0  0  0
   64.9630    3.3190    4.4880 C   0  0  0  0  0
   66.1230    3.4400    4.8740 O   0  0  0  0  0
   62.4500    2.9340    4.8510 C   0  0  0  0  0
   61.5710    2.0980    5.7970 C   0  0  0  0  0
   60.1360    2.0160    5.2680 C   0  0  0  0  0
   59.4330    3.2670    5.5410 N   0  0  0  0  0
   58.1110    3.3510    5.5450 C   0  0  0  0  0
   57.3880    2.3120    5.2750 N   0  0  0  0  0
   57.5440    4.4700    5.8400 N   0  0  0  0  0
   64.6370    3.3010    3.1880 N   0  0  0  0  0
   65.6640    3.4140    2.1360 C   0  0  0  0  0
   66.3880    4.7640    2.2020 C   0  0  0  0  0
   67.6080    4.8290    2.0450 O   0  0  0  0  0
   65.0390    3.2040    0.7390 C   0  0  0  0  0
   66.1120    3.3660   -0.3570 C   0  0  0  0  0
   63.9050    4.2090    0.5040 C   0  0  0  0  0
   65.5730    2.8390   -1.6930 C   0  0  0  0  0
   65.6220    5.8300    2.4500 N   0  0  0  0  0
   66.1710    7.1880    2.5520 C   0  0  0  0  0
   65.5820    7.9260    3.7650 C   0  0  0  0  0
   65.3300    7.3180    4.8050 O   0  0  0  0  0
   65.8930    7.9760    1.2630 C   0  0  0  0  0
   66.0430    7.1200    0.1330 O   0  0  0  0  0
   65.3290    9.2330    3.6090 N   0  0  0  0  0
   64.7490   10.0550    4.6810 C   0  0  0  0  0
   63.4170    9.4700    5.1560 C   0  0  0  0  0
   63.0060    9.6830    6.3000 O   0  0  0  0  0
   64.5350   11.4900    4.1840 C   0  0  0  0  0
   62.7640    8.7220    4.2650 N   0  0  0  0  0
   61.4820    8.0680    4.5520 C   0  0  0  0  0
   60.2960    9.0250    4.3740 C   0  0  0  0  0
   59.6120    9.3820    5.3360 O   0  0  0  0  0
   61.4830    7.4210    5.9550 C   0  0  0  0  0
   60.6470    6.1470    5.9610 C   0  0  0  0  0
   59.5540    6.1720    5.4220 O   0  0  0  0  0
   61.1130    5.1630    6.5040 O   0  0  0  0  0
   60.0330    9.3930    3.1140 N   0  0  0  0  0
   58.9110   10.2710    2.7690 C   0  0  0  0  0
   57.5660    9.6400    3.1530 C   0  0  0  0  0
   56.5560   10.3350    3.2860 O   0  0  0  0  0
   58.9280   10.6030    1.2730 C   0  0  0  0  0
   57.5630    8.3160    3.3000 N   0  0  0  0  0
   56.3520    7.5650    3.6260 C   0  0  0  0  0
   55.7530    7.9450    4.9720 C   0  0  0  0  0
   54.5360    7.8930    5.1500 O   0  0  0  0  0
   56.5560    6.0600    3.4930 C   0  0  0  0  0
   56.4640    5.6910    2.0120 C   0  0  0  0  0
   56.5960    3.9020    1.8000 S   0  0  0  0  0
   55.8850    3.8390    0.1340 C   0  0  0  0  0
   56.5960    8.3040    5.9190 N   0  0  0  0  0
   56.1160    8.6980    7.2370 C   0  0  0  0  0
   55.2000    9.9300    7.1080 C   0  0  0  0  0
   54.1440    9.9980    7.7390 O   0  0  0  0  0
   57.3120    9.0200    8.1430 C   0  0  0  0  0
   58.0110    7.7180    8.5510 C   0  0  0  0  0
   59.4680    8.1010    9.5540 S   0  0  0  0  0
   58.5930    8.6770   11.0270 C   0  0  0  0  0
   55.5950   10.8640    6.2340 N   0  0  0  0  0
   54.8000   12.0740    5.9310 C   0  0  0  0  0
   53.7610   11.8260    4.8250 C   0  0  0  0  0
   52.9580   12.7060    4.5150 O   0  0  0  0  0
   55.7290   13.2160    5.5120 C   0  0  0  0  0
   56.8170   13.4110    6.5770 C   0  0  0  0  0
   58.1730   13.0160    6.0130 C   0  0  0  0  0
   58.3920   11.8550    5.6790 O   0  0  0  0  0
   59.0970   13.9170    5.8770 N   0  0  0  0  0
   53.9160   10.7100    4.1230 N   0  0  0  0  0
   53.1440   10.4140    2.9080 C   0  0  0  0  0
   51.6260   10.4020    3.1040 C   0  0  0  0  0
   50.8810   10.5310    2.1280 O   0  0  0  0  0
   53.5790    9.0850    2.3240 C   0  0  0  0  0
   51.1630   10.1580    4.3240 N   0  0  0  0  0
   49.7200   10.0080    4.5530 C   0  0  0  0  0
   48.9790   11.2810    4.1740 C   0  0  0  0  0
   47.9930   11.2310    3.4430 O   0  0  0  0  0
   49.4370    9.6350    6.0140 C   0  0  0  0  0
   49.9660    8.2190    6.2880 C   0  0  0  0  0
   49.7830    7.8630    7.7650 C   0  0  0  0  0
   49.2230    7.2070    5.4070 C   0  0  0  0  0
   49.5630   12.4140    4.5390 N   0  0  0  0  0
   49.0730   13.7400    4.1410 C   0  0  0  0  0
   47.5770   13.9660    4.4800 C   0  0  0  0  0
   47.2510   14.8250    5.3020 O   0  0  0  0  0
   49.3470   13.9700    2.6390 C   0  0  0  0  0
   50.8670   14.1090    2.3960 C   0  0  0  0  0
   51.1790   13.9810    0.8930 C   0  0  0  0  0
   51.3530   15.4790    2.8960 C   0  0  0  0  0
   46.6810   13.1910    3.8520 N   0  0  0  0  0
   45.2300   13.3110    4.0930 C   0  0  0  0  0
   44.6260   11.9780    4.5360 C   0  0  0  0  0
   45.1120   10.9120    4.1560 O   0  0  0  0  0
   43.5960   12.0430    5.3890 N   0  0  0  0  0
   42.9870   10.8280    5.9390 C   0  0  0  0  0
   41.5140   11.0190    6.3330 C   0  0  0  0  0
   41.0760   12.1240    6.6610 O   0  0  0  0  0
   43.7890   10.3480    7.1490 C   0  0  0  0  0
   40.7900    9.8970    6.3630 N   0  0  0  0  0
   39.3870    9.8350    6.7910 C   0  0  0  0  0
   39.1670    8.7920    7.8880 C   0  0  0  0  0
   39.9420    7.8440    8.0230 O   0  0  0  0  0
   38.4450    9.5470    5.6120 C   0  0  0  0  0
   38.0170   10.8460    4.9230 C   0  0  0  0  0
   37.1060   10.5030    3.7370 C   0  0  0  0  0
   36.2860   11.6570    3.3650 N   0  0  0  0  0
   36.7700   12.7210    2.7450 C   0  0  0  0  0
   38.0220   12.7880    2.4280 N   0  0  0  0  0
   35.9850   13.7010    2.4600 N   0  0  0  0  0
   38.0850    8.9880    8.6540 N   0  0  0  0  0
   37.6750    8.0960    9.7520 C   0  0  0  0  0
   38.1710    8.6080   11.0980 C   0  0  0  0  0
   37.4460    8.5570   12.0900 O   0  0  0  0  0
   38.1190    6.6400    9.5170 C   0  0  0  0  0
   39.3860    9.1520   11.1020 N   0  0  0  0  0
   39.9960    9.7410   12.3010 C   0  0  0  0  0
   41.3500   10.3890   11.9690 C   0  0  0  0  0
   42.1060   10.6550   12.8910 O   0  0  0  0  0
   40.1460    8.6880   13.4280 C   0  0  0  0  0
   39.0930    8.9280   14.5300 C   0  0  0  0  0
   39.3850   10.2500   15.2640 C   0  0  0  0  0
   38.3170   10.4840   16.3390 C   0  0  0  0  0
   38.6110   11.7490   17.0730 N   0  3  0  0  0
   41.6050   10.6190   10.7970 O   0  0  0  0  0
   64.6574    4.5243    6.8362 H   0  0  0  0  0
   63.5024    5.1864    5.8341 H   0  0  0  0  0
   63.0420    4.2259    7.1155 H   0  0  0  0  0
   64.0515    2.2794    6.1097 H   0  0  0  0  0
   62.5824    2.4048    3.9074 H   0  0  0  0  0
   61.9706    3.8929    4.6540 H   0  0  0  0  0
   61.5590    2.5717    6.7786 H   0  0  0  0  0
   61.9815    1.0903    5.8621 H   0  0  0  0  0
   59.6164    1.1961    5.7639 H   0  0  0  0  0
   60.1589    1.8440    4.1919 H   0  0  0  0  0
   59.9796    4.1059    5.7355 H   0  0  0  0  0
   56.3704    2.3794    5.2958 H   0  0  0  0  0
   57.8358    1.4258    5.0414 H   0  0  0  0  0
   58.1128    5.2852    6.0688 H   0  0  0  0  0
   63.6572    3.2071    2.9206 H   0  0  0  0  0
   66.4017    2.6306    2.3094 H   0  0  0  0  0
   64.6324    2.1937    0.6934 H   0  0  0  0  0
   67.0007    2.7998   -0.0781 H   0  0  0  0  0
   66.3646    4.4212   -0.4611 H   0  0  0  0  0
   63.1348    4.0698    1.2626 H   0  0  0  0  0
   64.3006    5.2227    0.5678 H   0  0  0  0  0
   63.4763    4.0465   -0.4849 H   0  0  0  0  0
   65.3183    1.7842   -1.5899 H   0  0  0  0  0
   64.6832    3.4033   -1.9723 H   0  0  0  0  0
   66.3358    2.9564   -2.4627 H   0  0  0  0  0
   64.6184    5.6956    2.5731 H   0  0  0  0  0
   67.2495    7.1096    2.6894 H   0  0  0  0  0
   66.5996    8.8024    1.1859 H   0  0  0  0  0
   64.8745    8.3633    1.2895 H   0  0  0  0  0
   65.8682    7.6174   -0.6693 H   0  0  0  0  0
   65.5466    9.6729    2.7148 H   0  0  0  0  0
   65.4443   10.0614    5.5204 H   0  0  0  0  0
   65.4923   11.9155    3.8830 H   0  0  0  0  0
   63.8561   11.4804    3.3313 H   0  0  0  0  0
   64.1050   12.0905    4.9857 H   0  0  0  0  0
   63.1755    8.5988    3.3399 H   0  0  0  0  0
   61.3578    7.2698    3.8202 H   0  0  0  0  0
   61.0563    8.1259    6.6685 H   0  0  0  0  0
   62.5085    7.1709    6.2270 H   0  0  0  0  0
   59.3954    7.0481    5.0631 H   0  0  0  0  0
   60.6358    9.0497    2.3662 H   0  0  0  0  0
   59.0272   11.1928    3.3389 H   0  0  0  0  0
   59.8618   11.1073    1.0246 H   0  0  0  0  0
   58.8469    9.6814    0.6967 H   0  0  0  0  0
   58.0873   11.2556    1.0374 H   0  0  0  0  0
   58.4388    7.8070    3.1806 H   0  0  0  0  0
   55.6130    7.8557    2.8794 H   0  0  0  0  0
   55.7911    5.5280    4.0587 H   0  0  0  0  0
   57.5323    5.7791    3.8880 H   0  0  0  0  0
   57.2802    6.1736    1.4744 H   0  0  0  0  0
   55.5026    6.0249    1.6218 H   0  0  0  0  0
   54.8699    4.2354    0.1583 H   0  0  0  0  0
   56.4943    4.4383   -0.5426 H   0  0  0  0  0
   55.8647    2.8056   -0.2122 H   0  0  0  0  0
   57.5977    8.3061    5.7268 H   0  0  0  0  0
   55.5466    7.8796    7.6776 H   0  0  0  0  0
   56.9619    9.5389    9.0353 H   0  0  0  0  0
   58.0147    9.6556    7.6041 H   0  0  0  0  0
   58.3188    7.1761    7.6567 H   0  0  0  0  0
   57.3227    7.1035    9.1313 H   0  0  0  0  0
   57.9717    9.5340   10.7671 H   0  0  0  0  0
   57.9642    7.8741   11.4117 H   0  0  0  0  0
   59.3173    8.9691   11.7874 H   0  0  0  0  0
   56.4860   10.7352    5.7545 H   0  0  0  0  0
   54.2601   12.3426    6.8390 H   0  0  0  0  0
   55.1513   14.1348    5.4117 H   0  0  0  0  0
   56.1957   12.9719    4.5577 H   0  0  0  0  0
   56.5909   12.7844    7.4398 H   0  0  0  0  0
   56.8438   14.4592    6.8748 H   0  0  0  0  0
   60.0063   13.6610    5.4923 H   0  0  0  0  0
   58.9139   14.8812    6.1548 H   0  0  0  0  0
   54.6027   10.0263    4.4416 H   0  0  0  0  0
   53.3595   11.2349    2.2240 H   0  0  0  0  0
   54.6387    9.1294    2.0727 H   0  0  0  0  0
   53.4107    8.2953    3.0562 H   0  0  0  0  0
   52.9994    8.8777    1.4245 H   0  0  0  0  0
   51.8125   10.0743    5.1061 H   0  0  0  0  0
   49.3589    9.1995    3.9173 H   0  0  0  0  0
   48.3629    9.6650    6.1968 H   0  0  0  0  0
   49.9347   10.3447    6.6748 H   0  0  0  0  0
   51.0292    8.1862    6.0499 H   0  0  0  0  0
   50.3332    8.5752    8.3799 H   0  0  0  0  0
   48.7238    7.9041    8.0188 H   0  0  0  0  0
   50.1622    6.8570    7.9446 H   0  0  0  0  0
   48.1573    7.2441    5.6328 H   0  0  0  0  0
   49.3822    7.4550    4.3576 H   0  0  0  0  0
   49.6033    6.2052    5.6067 H   0  0  0  0  0
   50.3953   12.3620    5.1264 H   0  0  0  0  0
   49.6228   14.4769    4.7264 H   0  0  0  0  0
   48.8469   14.8839    2.3184 H   0  0  0  0  0
   48.9686   13.1204    2.0706 H   0  0  0  0  0
   51.3800   13.3162    2.9405 H   0  0  0  0  0
   50.8476   13.0058    0.5362 H   0  0  0  0  0
   50.6563   14.7661    0.3466 H   0  0  0  0  0
   52.2531   14.0808    0.7364 H   0  0  0  0  0
   50.8283   16.2680    2.3573 H   0  0  0  0  0
   51.1490   15.5682    3.9630 H   0  0  0  0  0
   52.4251   15.5688    2.7210 H   0  0  0  0  0
   47.0136   12.4947    3.1849 H   0  0  0  0  0
   44.7490   13.6173    3.1641 H   0  0  0  0  0
   45.0699   14.0435    4.8841 H   0  0  0  0  0
   43.2282   12.9546    5.6612 H   0  0  0  0  0
   43.0089   10.0774    5.1489 H   0  0  0  0  0
   44.8124   10.1316    6.8424 H   0  0  0  0  0
   43.7939   11.1264    7.9120 H   0  0  0  0  0
   43.3305    9.4450    7.5522 H   0  0  0  0  0
   41.2397    9.0295    6.0704 H   0  0  0  0  0
   39.1508   10.8185    7.1973 H   0  0  0  0  0
   37.5561    9.0416    5.9895 H   0  0  0  0  0
   38.9702    8.9235    4.8884 H   0  0  0  0  0
   38.8972   11.3822    4.5684 H   0  0  0  0  0
   37.4793   11.4780    5.6298 H   0  0  0  0  0
   36.4494    9.6812    4.0227 H   0  0  0  0  0
   37.7260   10.2218    2.8858 H   0  0  0  0  0
   35.2924   11.6401    3.5951 H   0  0  0  0  0
   38.3845   13.6152    1.9539 H   0  0  0  0  0
   38.6470   12.0137    2.6521 H   0  0  0  0  0
   34.9978   13.6536    2.7121 H   0  0  0  0  0
   37.5083    9.8077    8.4644 H   0  0  0  0  0
   36.5851    8.1003    9.7695 H   0  0  0  0  0
   37.6718    6.2695    8.5946 H   0  0  0  0  0
   39.2053    6.6012    9.4367 H   0  0  0  0  0
   37.7930    6.0225   10.3540 H   0  0  0  0  0
   39.9180    9.1601   10.2318 H   0  0  0  0  0
   39.3288   10.5232   12.6632 H   0  0  0  0  0
   41.7033   10.3884   13.7206 H   0  0  0  0  0
   41.1417    8.7725   13.8633 H   0  0  0  0  0
   39.9996    7.6933   13.0070 H   0  0  0  0  0
   39.1308    8.1064   15.2453 H   0  0  0  0  0
   38.1047    8.9835   14.0737 H   0  0  0  0  0
   39.3686   11.0734   14.5500 H   0  0  0  0  0
   40.3673   10.1959   15.7333 H   0  0  0  0  0
   38.3217    9.6498   17.0406 H   0  0  0  0  0
   37.3383   10.5603   15.8653 H   0  0  0  0  0
   37.8981   11.9001   17.7867 H   0  0  0  0  0
   39.5273   11.6788   17.5156 H   0  0  0  0  0
   38.6079   12.5300   16.4169 H   0  0  0  0  0
  1  2  1  0  0  0
  2  3  1  0  0  0
  2  5  1  0  0  0
  3  4  2  0  0  0
  3 12  1  0  0  0
  5  6  1  0  0  0
  6  7  1  0  0  0
  7  8  1  0  0  0
  8  9  1  0  0  0
  9 10  1  0  0  0
  9 11  2  0  0  0
 12 13  1  0  0  0
 13 14  1  0  0  0
 13 16  1  0  0  0
 14 15  2  0  0  0
 14 20  1  0  0  0
 16 17  1  0  0  0
 16 18  1  0  0  0
 17 19  1  0  0  0
 20 21  1  0  0  0
 21 22  1  0  0  0
 21 24  1  0  0  0
 22 23  2  0  0  0
 22 26  1  0  0  0
 24 25  1  0  0  0
 26 27  1  0  0  0
 27 28  1  0  0  0
 27 30  1  0  0  0
 28 29  2  0  0  0
 28 31  1  0  0  0
 31 32  1  0  0  0
 32 33  1  0  0  0
 32 35  1  0  0  0
 33 34  2  0  0  0
 33 39  1  0  0  0
 35 36  1  0  0  0
 36 37  1  0  0  0
 36 38  2  0  0  0
 39 40  1  0  0  0
 40 41  1  0  0  0
 40 43  1  0  0  0
 41 42  2  0  0  0
 41 44  1  0  0  0
 44 45  1  0  0  0
 45 46  1  0  0  0
 45 48  1  0  0  0
 46 47  2  0  0  0
 46 52  1  0  0  0
 48 49  1  0  0  0
 49 50  1  0  0  0
 50 51  1  0  0  0
 52 53  1  0  0  0
 53 54  1  0  0  0
 53 56  1  0  0  0
 54 55  2  0  0  0
 54 60  1  0  0  0
 56 57  1  0  0  0
 57 58  1  0  0  0
 58 59  1  0  0  0
 60 61  1  0  0  0
 61 62  1  0  0  0
 61 64  1  0  0  0
 62 63  2  0  0  0
 62 69  1  0  0  0
 64 65  1  0  0  0
 65 66  1  0  0  0
 66 67  2  0  0  0
 66 68  1  0  0  0
 69 70  1  0  0  0
 70 71  1  0  0  0
 70 73  1  0  0  0
 71 72  2  0  0  0
 71 74  1  0  0  0
 74 75  1  0  0  0
 75 76  1  0  0  0
 75 78  1  0  0  0
 76 77  2  0  0  0
 76 82  1  0  0  0
 78 79  1  0  0  0
 79 80  1  0  0  0
 79 81  1  0  0  0
 82 83  1  0  0  0
 83 84  1  0  0  0
 83 86  1  0  0  0
 84 85  2  0  0  0
 84 90  1  0  0  0
 86 87  1  0  0  0
 87 88  1  0  0  0
 87 89  1  0  0  0
 90 91  1  0  0  0
 91 92  1  0  0  0
 92 93  2  0  0  0
 92 94  1  0  0  0
 94 95  1  0  0  0
 95 96  1  0  0  0
 95 98  1  0  0  0
 96 97  2  0  0  0
 96 99  1  0  0  0
 99100  1  0  0  0
100101  1  0  0  0
100103  1  0  0  0
101102  2  0  0  0
101110  1  0  0  0
103104  1  0  0  0
104105  1  0  0  0
105106  1  0  0  0
106107  1  0  0  0
107108  1  0  0  0
107109  2  0  0  0
110111  1  0  0  0
111112  1  0  0  0
111114  1  0  0  0
112113  2  0  0  0
112115  1  0  0  0
115116  1  0  0  0
116117  1  0  0  0
116119  1  0  0  0
117118  1  0  0  0
117124  2  0  0  0
119120  1  0  0  0
120121  1  0  0  0
121122  1  0  0  0
122123  1  0  0  0
  1125  1  0  0  0
  1126  1  0  0  0
  1127  1  0  0  0
  2128  1  0  0  0
  5129  1  0  0  0
  5130  1  0  0  0
  6131  1  0  0  0
  6132  1  0  0  0
  7133  1  0  0  0
  7134  1  0  0  0
  8135  1  0  0  0
 10136  1  0  0  0
 10137  1  0  0  0
 11138  1  0  0  0
 12139  1  0  0  0
 13140  1  0  0  0
 16141  1  0  0  0
 17142  1  0  0  0
 17143  1  0  0  0
 18144  1  0  0  0
 18145  1  0  0  0
 18146  1  0  0  0
 19147  1  0  0  0
 19148  1  0  0  0
 19149  1  0  0  0
 20150  1  0  0  0
 21151  1  0  0  0
 24152  1  0  0  0
 24153  1  0  0  0
 25154  1  0  0  0
 26155  1  0  0  0
 27156  1  0  0  0
 30157  1  0  0  0
 30158  1  0  0  0
 30159  1  0  0  0
 31160  1  0  0  0
 32161  1  0  0  0
 35162  1  0  0  0
 35163  1  0  0  0
 37164  1  0  0  0
 39165  1  0  0  0
 40166  1  0  0  0
 43167  1  0  0  0
 43168  1  0  0  0
 43169  1  0  0  0
 44170  1  0  0  0
 45171  1  0  0  0
 48172  1  0  0  0
 48173  1  0  0  0
 49174  1  0  0  0
 49175  1  0  0  0
 51176  1  0  0  0
 51177  1  0  0  0
 51178  1  0  0  0
 52179  1  0  0  0
 53180  1  0  0  0
 56181  1  0  0  0
 56182  1  0  0  0
 57183  1  0  0  0
 57184  1  0  0  0
 59185  1  0  0  0
 59186  1  0  0  0
 59187  1  0  0  0
 60188  1  0  0  0
 61189  1  0  0  0
 64190  1  0  0  0
 64191  1  0  0  0
 65192  1  0  0  0
 65193  1  0  0  0
 68194  1  0  0  0
 68195  1  0  0  0
 69196  1  0  0  0
 70197  1  0  0  0
 73198  1  0  0  0
 73199  1  0  0  0
 73200  1  0  0  0
 74201  1  0  0  0
 75202  1  0  0  0
 78203  1  0  0  0
 78204  1  0  0  0
 79205  1  0  0  0
 80206  1  0  0  0
 80207  1  0  0  0
 80208  1  0  0  0
 81209  1  0  0  0
 81210  1  0  0  0
 81211  1  0  0  0
 82212  1  0  0  0
 83213  1  0  0  0
 86214  1  0  0  0
 86215  1  0  0  0
 87216  1  0  0  0
 88217  1  0  0  0
 88218  1  0  0  0
 88219  1  0  0  0
 89220  1  0  0  0
 89221  1  0  0  0
 89222  1  0  0  0
 90223  1  0  0  0
 91224  1  0  0  0
 91225  1  0  0  0
 94226  1  0  0  0
 95227  1  0  0  0
 98228  1  0  0  0
 98229  1  0  0  0
 98230  1  0  0  0
 99231  1  0  0  0
100232  1  0  0  0
103233  1  0  0  0
103234  1  0  0  0
104235  1  0  0  0
104236  1  0  0  0
105237  1  0  0  0
105238  1  0  0  0
106239  1  0  0  0
108240  1  0  0  0
108241  1  0  0  0
109242  1  0  0  0
110243  1  0  0  0
111244  1  0  0  0
114245  1  0  0  0
114246  1  0  0  0
114247  1  0  0  0
115248  1  0  0  0
116249  1  0  0  0
118250  1  0  0  0
119251  1  0  0  0
119252  1  0  0  0
120253  1  0  0  0
120254  1  0  0  0
121255  1  0  0  0
121256  1  0  0  0
122257  1  0  0  0
122258  1  0  0  0
123259  1  0  0  0
123260  1  0  0  0
123261  1  0  0  0
M  END
$$$$
