3aav_ligand
  -I-interpret- 

 52 53  0  0  0  0  0  0  0  0999 V2000
  -17.0910   44.0060    1.2030 N   0  0  0  0  0
  -17.6250   42.7870    1.1520 C   0  0  0  0  0
  -17.3710   41.9680    0.0590 C   0  0  0  0  0
  -16.4330   42.3620   -0.8870 C   0  0  0  0  0
  -16.1780   41.5530   -1.9910 C   0  0  0  0  0
  -18.3210   37.3380   -7.9560 C   0  0  0  0  0
  -19.1130   36.5870   -8.8180 C   0  0  0  0  0
  -19.1960   35.2090   -8.6460 C   0  0  0  0  0
  -19.2690   34.5300   -9.7820 C   0  0  0  0  0
  -19.6320   35.1940  -10.8330 N   0  0  0  0  0
  -18.3950   42.3580    2.1480 N   0  0  0  0  0
  -18.0580   40.7670   -0.0950 C   0  0  0  0  0
  -17.8040   39.9640   -1.2000 C   0  0  0  0  0
  -16.8620   40.3530   -2.1460 C   0  0  0  0  0
  -16.5920   39.5530   -3.2110 O   0  0  0  0  0
  -17.7310   37.4170   -5.7700 O   0  0  0  0  0
  -17.6240   36.7310   -6.9370 C   0  0  0  0  0
  -17.6890   35.3370   -6.7610 C   0  0  0  0  0
  -18.3940   34.6600   -7.6440 C   0  0  0  0  0
  -18.9010   33.2580   -9.6560 N   0  0  0  0  0
  -18.5290   38.7940   -1.3940 C   0  0  0  0  0
  -18.3740   37.9940   -2.4010 N   0  3  0  0  0
  -17.6060   36.7450   -2.3200 C   0  0  0  0  0
  -17.8580   35.8710   -3.3710 C   0  0  0  0  0
  -16.9980   35.3460   -4.5970 N   0  3  0  0  0
  -16.9110   34.5570   -5.7000 C   0  0  0  0  0
  -17.2727   44.6093    2.0052 H   0  0  0  0  0
  -16.5003   44.3364    0.4399 H   0  0  0  0  0
  -15.8973   43.3034   -0.7650 H   0  0  0  0  0
  -15.4420   41.8607   -2.7338 H   0  0  0  0  0
  -18.2519   38.4176   -8.0890 H   0  0  0  0  0
  -19.6644   37.0743   -9.6221 H   0  0  0  0  0
  -19.8447   36.1889  -10.7595 H   0  0  0  0  0
  -18.8023   41.4235    2.1117 H   0  0  0  0  0
  -18.7925   40.4578    0.6486 H   0  0  0  0  0
  -17.1457   38.7698   -3.1700 H   0  0  0  0  0
  -17.2328   36.9630   -5.0864 H   0  0  0  0  0
  -18.3469   33.5725   -7.5871 H   0  0  0  0  0
  -18.8777   32.6503  -10.4749 H   0  0  0  0  0
  -18.6421   32.8903   -8.7405 H   0  0  0  0  0
  -19.5431   39.1657   -1.5410 H   0  0  0  0  0
  -18.2139   38.1780   -0.5518 H   0  0  0  0  0
  -17.8363   38.5546   -3.0621 H   0  0  0  0  0
  -19.3231   37.6711   -2.5891 H   0  0  0  0  0
  -17.8956   36.2411   -1.3979 H   0  0  0  0  0
  -16.5487   37.0071   -2.3578 H   0  0  0  0  0
  -18.5804   36.4746   -3.9204 H   0  0  0  0  0
  -17.9239   34.9426   -2.8037 H   0  0  0  0  0
  -16.4146   34.7368   -4.0234 H   0  0  0  0  0
  -17.0939   36.2099   -5.1307 H   0  0  0  0  0
  -15.8795   34.3654   -5.9957 H   0  0  0  0  0
  -17.3183   33.5598   -5.5329 H   0  0  0  0  0
  2  1  1  0  0  0
  3  2  1  0  0  0
  2 11  2  0  0  0
  3  4  4  0  0  0
 12  3  4  0  0  0
  5  4  4  0  0  0
 14  5  4  0  0  0
  6  7  4  0  0  0
 17  6  4  0  0  0
  8  7  4  0  0  0
  8  9  1  0  0  0
 19  8  4  0  0  0
  9 10  2  0  0  0
  9 20  1  0  0  0
 13 12  4  0  0  0
 13 14  4  0  0  0
 21 13  1  0  0  0
 14 15  1  0  0  0
 17 16  1  0  0  0
 18 17  4  0  0  0
 18 19  4  0  0  0
 26 18  1  0  0  0
 22 21  1  0  0  0
 23 22  1  0  0  0
 24 23  1  0  0  0
 25 24  1  0  0  0
 25 26  1  0  0  0
  1 27  1  0  0  0
  1 28  1  0  0  0
  4 29  1  0  0  0
  5 30  1  0  0  0
  6 31  1  0  0  0
  7 32  1  0  0  0
 10 33  1  0  0  0
 11 34  1  0  0  0
 12 35  1  0  0  0
 15 36  1  0  0  0
 16 37  1  0  0  0
 19 38  1  0  0  0
 20 39  1  0  0  0
 20 40  1  0  0  0
 21 41  1  0  0  0
 21 42  1  0  0  0
 22 43  1  0  0  0
 22 44  1  0  0  0
 23 45  1  0  0  0
 23 46  1  0  0  0
 24 47  1  0  0  0
 24 48  1  0  0  0
 25 49  1  0  0  0
 25 50  1  0  0  0
 26 51  1  0  0  0
 26 52  1  0  0  0
M  END
$$$$
