5i4v_ligand
  -I-interpret- 

 60 62  0  0  0  0  0  0  0  0999 V2000
   -8.3200    6.1200  -28.6500 O   0  0  0  0  0
   -8.7940    6.2330  -27.3030 S   0  0  0  0  0
  -10.0210    5.5120  -27.1070 O   0  0  0  0  0
   -9.1380    7.8220  -27.0510 C   0  0  0  0  0
   -7.7520    5.6000  -26.2480 C   0  0  0  0  0
   -7.2520    6.3810  -25.2020 C   0  0  0  0  0
   -7.3540    4.2570  -26.3330 C   0  0  0  0  0
   -7.8240    3.2810  -27.4030 C   0  0  0  0  0
   -8.9250    2.5480  -26.8530 O   0  0  0  0  0
   -6.4760    3.7420  -25.4020 C   0  0  0  0  0
   -5.9830    4.5320  -24.3840 C   0  0  0  0  0
   -6.3690    5.8640  -24.2580 C   0  0  0  0  0
   -5.8110    6.6840  -23.1660 N   0  0  0  0  0
   -5.7830    5.9700  -21.8980 C   0  0  0  0  0
   -4.8190    6.6620  -20.9500 C   0  0  0  0  0
   -3.3880    6.6710  -21.4900 C   0  0  0  0  0
   -2.6000    7.9180  -21.1050 C   0  0  0  0  0
   -2.6610    5.4610  -20.9110 C   0  0  0  0  0
   -6.4060    8.0110  -22.9540 C   0  0  0  0  0
   -5.7830    8.8240  -21.8010 C   0  0  0  0  0
   -5.3340    7.9900  -20.6990 N   0  0  0  0  0
   -5.3740    8.3450  -19.4020 C   0  0  0  0  0
   -5.8110    9.5230  -18.9420 N   0  0  0  0  0
   -5.7940    9.7460  -17.6050 C   0  0  0  0  0
   -6.3070   11.0760  -17.1100 C   0  0  0  0  0
   -5.4570   11.5980  -16.2450 F   0  0  0  0  0
   -6.4470   11.8550  -18.1740 F   0  0  0  0  0
   -7.4630   10.8750  -16.4970 F   0  0  0  0  0
   -4.9260    7.4190  -18.5260 N   0  0  0  0  0
   -4.8880    7.5970  -17.1950 C   0  0  0  0  0
   -5.3330    8.8000  -16.6890 C   0  0  0  0  0
   -5.3110    9.0470  -15.1800 C   0  0  0  0  0
   -4.7070    7.9380  -14.5050 O   0  0  0  0  0
   -8.2349    8.4152  -27.1948 H   0  0  0  0  0
   -9.9021    8.1437  -27.7587 H   0  0  0  0  0
   -9.5041    7.9562  -26.0331 H   0  0  0  0  0
   -7.5619    7.4231  -25.1234 H   0  0  0  0  0
   -7.0172    2.6058  -27.6879 H   0  0  0  0  0
   -8.1295    3.8153  -28.3026 H   0  0  0  0  0
   -9.2474    1.9206  -27.5041 H   0  0  0  0  0
   -6.1681    2.6987  -25.4714 H   0  0  0  0  0
   -5.2804    4.1069  -23.6672 H   0  0  0  0  0
   -5.4551    4.9440  -22.0654 H   0  0  0  0  0
   -6.7817    5.9646  -21.4614 H   0  0  0  0  0
   -4.7544    6.1140  -20.0100 H   0  0  0  0  0
   -3.4518    6.6500  -22.5779 H   0  0  0  0  0
   -3.1036    8.8006  -21.4993 H   0  0  0  0  0
   -2.5398    7.9873  -20.0189 H   0  0  0  0  0
   -1.5951    7.8546  -21.5225 H   0  0  0  0  0
   -2.6549    5.5287  -19.8231 H   0  0  0  0  0
   -3.1747    4.5495  -21.2167 H   0  0  0  0  0
   -1.6359    5.4434  -21.2809 H   0  0  0  0  0
   -7.4532    7.8504  -22.6976 H   0  0  0  0  0
   -6.2404    8.5812  -23.8681 H   0  0  0  0  0
   -6.5487    9.4984  -21.4176 H   0  0  0  0  0
   -4.9138    9.3498  -22.1962 H   0  0  0  0  0
   -4.5164    6.8136  -16.5345 H   0  0  0  0  0
   -6.3341    9.1669  -14.8236 H   0  0  0  0  0
   -4.7320    9.9474  -14.9747 H   0  0  0  0  0
   -4.6995    8.1057  -13.5598 H   0  0  0  0  0
  1  2  2  0  0  0
  2  3  2  0  0  0
  2  4  1  0  0  0
  2  5  1  0  0  0
  5  6  4  0  0  0
  5  7  4  0  0  0
  6 12  4  0  0  0
  7  8  1  0  0  0
  7 10  4  0  0  0
  8  9  1  0  0  0
 10 11  4  0  0  0
 11 12  4  0  0  0
 12 13  1  0  0  0
 13 14  1  0  0  0
 13 19  1  0  0  0
 14 15  1  0  0  0
 15 16  1  0  0  0
 15 21  1  0  0  0
 16 17  1  0  0  0
 16 18  1  0  0  0
 19 20  1  0  0  0
 20 21  1  0  0  0
 21 22  1  0  0  0
 22 23  4  0  0  0
 22 29  4  0  0  0
 23 24  4  0  0  0
 24 25  1  0  0  0
 24 31  4  0  0  0
 25 26  1  0  0  0
 25 27  1  0  0  0
 25 28  1  0  0  0
 29 30  4  0  0  0
 30 31  4  0  0  0
 31 32  1  0  0  0
 32 33  1  0  0  0
  4 34  1  0  0  0
  4 35  1  0  0  0
  4 36  1  0  0  0
  6 37  1  0  0  0
  8 38  1  0  0  0
  8 39  1  0  0  0
  9 40  1  0  0  0
 10 41  1  0  0  0
 11 42  1  0  0  0
 14 43  1  0  0  0
 14 44  1  0  0  0
 15 45  1  0  0  0
 16 46  1  0  0  0
 17 47  1  0  0  0
 17 48  1  0  0  0
 17 49  1  0  0  0
 18 50  1  0  0  0
 18 51  1  0  0  0
 18 52  1  0  0  0
 19 53  1  0  0  0
 19 54  1  0  0  0
 20 55  1  0  0  0
 20 56  1  0  0  0
 30 57  1  0  0  0
 32 58  1  0  0  0
 32 59  1  0  0  0
 33 60  1  0  0  0
M  END
$$$$
