6dha_ligand
  -I-interpret- 

 46 48  0  0  0  0  0  0  0  0999 V2000
   16.4540   61.7630   11.5390 C   0  0  0  0  0
   19.1770   61.5450   13.9450 C   0  0  0  0  0
   18.2460   61.7670   16.1340 C   0  0  0  0  0
   16.8010   61.8420   14.2190 C   0  0  0  0  0
   18.4620   63.3480   19.6720 C   0  0  0  0  0
   18.3370   68.2330    9.6440 C   0  0  0  0  0
   18.5190   67.2550    8.4990 C   0  0  0  0  0
   18.0430   65.8190    8.8550 C   0  0  0  0  0
   16.7270   65.6260    9.4440 C   0  0  0  0  0
   17.0720   63.3250    9.5330 C   0  0  0  0  0
   18.3670   63.4290    8.9650 C   0  0  0  0  0
   18.8540   64.7250    8.6190 C   0  0  0  0  0
   16.5240   61.9480    9.9100 C   0  0  0  0  0
   17.8950   61.6690   13.4010 C   0  0  0  0  0
   19.3450   61.5920   15.3080 C   0  0  0  0  0
   16.9690   61.8930   15.5910 C   0  0  0  0  0
   18.4450   61.8280   17.6850 C   0  0  0  0  0
   18.5250   63.2690   18.1100 C   0  0  0  0  0
   20.5440   64.7090   19.0300 C   0  0  0  0  0
   16.3080   64.4120    9.7510 N   0  0  0  0  0
   19.7230   64.2470   20.2140 N   0  0  0  0  0
   17.7340   61.6150   11.9670 O   0  0  0  0  0
   17.6340   62.8420   20.3540 O   0  0  0  0  0
   21.4030   65.4490   19.0570 O   0  0  0  0  0
   17.7110   67.7160    7.4040 O   0  0  0  0  0
   19.9390   63.9240   17.6530 S   0  0  0  0  0
   15.8507   60.8957   11.8071 H   0  0  0  0  0
   15.9832   62.6263   12.0093 H   0  0  0  0  0
   20.0389   61.4117   13.2912 H   0  0  0  0  0
   15.8051   61.9385   13.7865 H   0  0  0  0  0
   18.6559   69.2257    9.3264 H   0  0  0  0  0
   17.2860   68.2623    9.9316 H   0  0  0  0  0
   18.9388   67.9113   10.4940 H   0  0  0  0  0
   19.5817   67.2102    8.2605 H   0  0  0  0  0
   16.0847   66.4863    9.6325 H   0  0  0  0  0
   18.9758   62.5406    8.7967 H   0  0  0  0  0
   19.8433   64.8493    8.1785 H   0  0  0  0  0
   15.5165   61.8517    9.5052 H   0  0  0  0  0
   17.1874   61.1857    9.5014 H   0  0  0  0  0
   20.3412   61.4918   15.7389 H   0  0  0  0  0
   16.1071   62.0310   16.2438 H   0  0  0  0  0
   19.3649   61.3115   17.9590 H   0  0  0  0  0
   17.6057   61.3430   18.1834 H   0  0  0  0  0
   17.6968   63.8060   17.6476 H   0  0  0  0  0
   19.9215   64.4601   21.1916 H   0  0  0  0  0
   17.9817   68.6040    7.1597 H   0  0  0  0  0
  1 13  1  0  0  0
 22  1  1  0  0  0
  2 14  4  0  0  0
 15  2  4  0  0  0
  3 15  4  0  0  0
  3 16  4  0  0  0
 17  3  1  0  0  0
  4 14  4  0  0  0
 16  4  4  0  0  0
 18  5  1  0  0  0
  5 21  1  0  0  0
  5 23  2  0  0  0
  7  6  1  0  0  0
  8  7  1  0  0  0
  7 25  1  0  0  0
  9  8  4  0  0  0
 12  8  4  0  0  0
 20  9  4  0  0  0
 10 11  4  0  0  0
 13 10  1  0  0  0
 10 20  4  0  0  0
 11 12  4  0  0  0
 14 22  1  0  0  0
 17 18  1  0  0  0
 18 26  1  0  0  0
 21 19  1  0  0  0
 19 24  2  0  0  0
 19 26  1  0  0  0
  1 27  1  0  0  0
  1 28  1  0  0  0
  2 29  1  0  0  0
  4 30  1  0  0  0
  6 31  1  0  0  0
  6 32  1  0  0  0
  6 33  1  0  0  0
  7 34  1  0  0  0
  9 35  1  0  0  0
 11 36  1  0  0  0
 12 37  1  0  0  0
 13 38  1  0  0  0
 13 39  1  0  0  0
 15 40  1  0  0  0
 16 41  1  0  0  0
 17 42  1  0  0  0
 17 43  1  0  0  0
 18 44  1  0  0  0
 21 45  1  0  0  0
 25 46  1  0  0  0
M  END
$$$$
