4duh_ligand
  -I-interpret- 

 42 44  0  0  0  0  0  0  0  0999 V2000
    4.7120    6.4090   39.0540 N   0  0  0  0  0
    5.1670    7.6440   37.3090 O   0  0  0  0  0
    3.5910    5.4480   36.7950 S   0  0  0  0  0
    7.3580    8.6050   39.0460 C   0  0  0  0  0
    3.5670    4.4410   39.1180 N   0  0  0  0  0
   -1.3110   -4.5890   38.3290 O   0  0  0  0  0
    1.0250    2.6750   33.6900 S   0  0  0  0  0
    5.2480    7.4500   38.4560 C   0  0  0  0  0
    1.4560    2.0460   36.1350 N   0  0  0  0  0
    0.0090   -3.6320   39.6610 O   0  0  0  0  0
    6.0020    8.3940   39.3980 C   0  0  0  0  0
    0.2240    0.4490   34.8810 N   0  0  0  0  0
    3.9980    5.4640   38.4510 C   0  0  0  0  0
    2.8520    3.5530   38.3450 C   0  0  0  0  0
    2.2720    2.3040   38.9370 C   0  0  0  0  0
    2.7790    3.9760   37.0610 C   0  0  0  0  0
    2.0620    3.2680   35.9860 C   0  0  0  0  0
    1.9410    3.7920   34.6390 C   0  0  0  0  0
    0.8730    1.6130   35.0100 C   0  0  0  0  0
    0.0130   -0.5490   35.8730 C   0  0  0  0  0
    0.5770   -0.4700   37.1050 C   0  0  0  0  0
    0.3670   -1.4690   38.0150 C   0  0  0  0  0
   -0.4100   -2.5550   37.6970 C   0  0  0  0  0
   -0.5900   -3.6700   38.6560 C   0  0  0  0  0
   -0.9670   -2.6170   36.4730 C   0  0  0  0  0
   -0.7630   -1.6270   35.5570 C   0  0  0  0  0
    4.8554    6.3196   40.0599 H   0  0  0  0  0
    7.8872    7.6521   39.0562 H   0  0  0  0  0
    7.4095    9.0399   38.0479 H   0  0  0  0  0
    7.8169    9.2847   39.7640 H   0  0  0  0  0
   -1.6959   -4.4021   37.4696 H   0  0  0  0  0
    5.5031    9.3619   39.3503 H   0  0  0  0  0
    5.9941    7.9354   40.3868 H   0  0  0  0  0
   -0.1668    0.2539   33.9593 H   0  0  0  0  0
    3.0745    1.6921   39.3489 H   0  0  0  0  0
    1.5726    2.5699   39.7296 H   0  0  0  0  0
    1.7486    1.7449   38.1614 H   0  0  0  0  0
    2.3586    4.7342   34.2840 H   0  0  0  0  0
    1.1959    0.3877   37.3685 H   0  0  0  0  0
    0.8215   -1.4022   39.0035 H   0  0  0  0  0
   -1.5906   -3.4714   36.2098 H   0  0  0  0  0
   -1.2207   -1.6967   34.5702 H   0  0  0  0  0
  1  8  1  0  0  0
 13  1  1  0  0  0
  8  2  2  0  0  0
  3 13  4  0  0  0
 16  3  4  0  0  0
 11  4  1  0  0  0
  5 13  4  0  0  0
 14  5  4  0  0  0
 24  6  1  0  0  0
  7 18  4  0  0  0
 19  7  4  0  0  0
  8 11  1  0  0  0
  9 17  4  0  0  0
 19  9  4  0  0  0
 24 10  2  0  0  0
 12 19  1  0  0  0
 20 12  1  0  0  0
 14 15  1  0  0  0
 16 14  4  0  0  0
 17 16  1  0  0  0
 17 18  4  0  0  0
 21 20  4  0  0  0
 20 26  4  0  0  0
 22 21  4  0  0  0
 23 22  4  0  0  0
 23 24  1  0  0  0
 23 25  4  0  0  0
 25 26  4  0  0  0
  1 27  1  0  0  0
  4 28  1  0  0  0
  4 29  1  0  0  0
  4 30  1  0  0  0
  6 31  1  0  0  0
 11 32  1  0  0  0
 11 33  1  0  0  0
 12 34  1  0  0  0
 15 35  1  0  0  0
 15 36  1  0  0  0
 15 37  1  0  0  0
 18 38  1  0  0  0
 21 39  1  0  0  0
 22 40  1  0  0  0
 25 41  1  0  0  0
 26 42  1  0  0  0
M  END
$$$$
