6nzf_ligand
  -I-interpret- 

 47 49  0  0  0  0  0  0  0  0999 V2000
    8.5170   -3.0430   32.1710 C   0  0  0  0  0
   15.2320   -4.2820   27.5590 C   0  0  0  0  0
   14.8900   -5.3630   26.7560 C   0  0  0  0  0
   14.0240   -6.3270   27.2380 C   0  0  0  0  0
   13.4850   -6.2120   28.5040 C   0  0  0  0  0
   16.0950   -1.7120   26.7710 C   0  0  0  0  0
    8.1710   -5.0910   31.0550 C   0  0  0  0  0
    7.6670   -4.0750   31.8190 C   0  0  0  0  0
   14.5850   -1.0230   31.1200 C   0  0  0  0  0
   13.7260   -0.3200   31.9610 C   0  0  0  0  0
   12.4780   -0.6940   32.2500 N   0  0  0  0  0
   12.0020   -1.7780   31.6390 C   0  0  0  0  0
   12.7600   -2.5350   30.7430 C   0  0  0  0  0
   14.0870   -2.1920   30.4950 C   0  0  0  0  0
   15.9530   -0.5010   30.8050 C   0  0  0  0  0
   16.4710    0.4280   31.6070 N   0  0  0  0  0
   16.5640   -0.9310   29.8400 O   0  0  0  0  0
   17.6110    1.2320   31.2120 C   0  0  0  0  0
   14.9190   -2.9630   29.6040 N   0  0  0  0  0
   14.6340   -4.1110   28.8260 C   0  0  0  0  0
   10.6960   -2.0400   31.9930 N   0  0  0  0  0
    9.8440   -3.0770   31.7020 C   0  0  0  0  0
   10.3230   -4.0700   30.9420 N   0  0  0  0  0
    9.4940   -5.0590   30.6080 C   0  0  0  0  0
    7.4050   -6.1860   30.8410 F   0  0  0  0  0
   13.7930   -5.1200   29.3020 C   0  0  0  0  0
   16.6600   -3.3460   27.0550 S   0  0  0  0  0
   17.5700   -3.3270   28.1630 O   0  0  0  0  0
   17.1260   -3.8820   25.8090 O   0  0  0  0  0
    8.1678   -2.2220   32.7972 H   0  0  0  0  0
   15.3024   -5.4507   25.7509 H   0  0  0  0  0
   13.7652   -7.1830   26.6148 H   0  0  0  0  0
   12.8132   -6.9842   28.8787 H   0  0  0  0  0
   15.5881   -1.3440   27.6630 H   0  0  0  0  0
   16.9454   -1.0692   26.5436 H   0  0  0  0  0
   15.4012   -1.7098   25.9303 H   0  0  0  0  0
    6.6257   -4.0787   32.1410 H   0  0  0  0  0
   14.0985    0.5986   32.4142 H   0  0  0  0  0
   12.3141   -3.3924   30.2389 H   0  0  0  0  0
   16.0536    0.5780   32.5255 H   0  0  0  0  0
   18.4612    0.5804   31.0106 H   0  0  0  0  0
   17.3624    1.7955   30.3127 H   0  0  0  0  0
   17.8634    1.9224   32.0168 H   0  0  0  0  0
   15.8769   -2.6228   29.5200 H   0  0  0  0  0
   10.2808   -1.3230   32.5879 H   0  0  0  0  0
    9.8580   -5.8638   29.9694 H   0  0  0  0  0
   13.3763   -5.0487   30.3067 H   0  0  0  0  0
  1  8  4  0  0  0
 22  1  4  0  0  0
  2  3  4  0  0  0
 20  2  4  0  0  0
  2 27  1  0  0  0
  3  4  4  0  0  0
  5  4  4  0  0  0
 26  5  4  0  0  0
 27  6  1  0  0  0
  8  7  4  0  0  0
  7 24  4  0  0  0
  7 25  1  0  0  0
 10  9  4  0  0  0
 14  9  4  0  0  0
  9 15  1  0  0  0
 11 10  4  0  0  0
 12 11  4  0  0  0
 12 13  4  0  0  0
 21 12  1  0  0  0
 13 14  4  0  0  0
 14 19  1  0  0  0
 15 16  1  0  0  0
 15 17  2  0  0  0
 16 18  1  0  0  0
 19 20  1  0  0  0
 20 26  4  0  0  0
 21 22  1  0  0  0
 22 23  4  0  0  0
 23 24  4  0  0  0
 27 28  2  0  0  0
 27 29  2  0  0  0
  1 30  1  0  0  0
  3 31  1  0  0  0
  4 32  1  0  0  0
  5 33  1  0  0  0
  6 34  1  0  0  0
  6 35  1  0  0  0
  6 36  1  0  0  0
  8 37  1  0  0  0
 10 38  1  0  0  0
 13 39  1  0  0  0
 16 40  1  0  0  0
 18 41  1  0  0  0
 18 42  1  0  0  0
 18 43  1  0  0  0
 19 44  1  0  0  0
 21 45  1  0  0  0
 24 46  1  0  0  0
 26 47  1  0  0  0
M  END
$$$$
