4usj_ligand
  -I-interpret- 

 27 26  0  0  0  0  0  0  0  0999 V2000
   79.6950   45.2230   34.1220 N   0  3  0  0  0
   78.8330   44.2080   33.5190 C   0  0  0  0  0
   77.7770   43.8400   34.5640 C   0  0  0  0  0
   76.6800   43.4040   34.2530 O   0  0  0  0  0
   79.7100   43.0280   33.0780 C   0  0  0  0  0
   79.0700   41.7300   32.6280 C   0  0  0  0  0
   79.8680   40.5330   33.1730 C   0  0  0  0  0
   80.2280   39.4670   32.2220 N   0  0  0  0  0
   80.9910   38.3960   32.5340 C   0  0  0  0  0
   81.5040   38.2270   33.7490 N   0  0  0  0  0
   81.2580   37.4520   31.6280 N   0  0  0  0  0
   77.9640   44.0140   35.7700 O   0  0  0  0  0
   79.1270   46.0156   34.4211 H   0  0  0  0  0
   80.1754   44.8239   34.9284 H   0  0  0  0  0
   80.3820   45.5352   33.4357 H   0  0  0  0  0
   78.3127   44.5558   32.6266 H   0  0  0  0  0
   80.2710   42.7578   33.9727 H   0  0  0  0  0
   80.2321   43.3937   32.1938 H   0  0  0  0  0
   79.0650   41.6915   31.5387 H   0  0  0  0  0
   78.0493   41.6831   33.0075 H   0  0  0  0  0
   79.2210   40.0608   33.9123 H   0  0  0  0  0
   80.8140   40.9458   33.5234 H   0  0  0  0  0
   79.8789   39.5421   31.2665 H   0  0  0  0  0
   81.3256   38.9173   34.4785 H   0  0  0  0  0
   81.8320   36.6483   31.8829 H   0  0  0  0  0
   80.8880   37.5347   30.6811 H   0  0  0  0  0
   78.8500   44.3564   35.9092 H   0  0  0  0  0
  1  2  1  0  0  0
  2  3  1  0  0  0
  2  5  1  0  0  0
  3  4  2  0  0  0
  3 12  1  0  0  0
  5  6  1  0  0  0
  6  7  1  0  0  0
  7  8  1  0  0  0
  8  9  1  0  0  0
  9 10  2  0  0  0
  9 11  1  0  0  0
  1 13  1  0  0  0
  1 14  1  0  0  0
  1 15  1  0  0  0
  2 16  1  0  0  0
  5 17  1  0  0  0
  5 18  1  0  0  0
  6 19  1  0  0  0
  6 20  1  0  0  0
  7 21  1  0  0  0
  7 22  1  0  0  0
  8 23  1  0  0  0
 10 24  1  0  0  0
 11 25  1  0  0  0
 11 26  1  0  0  0
 12 27  1  0  0  0
M  END
$$$$
