4mc2_ligand
  -I-interpret- 

 75 78  0  0  0  0  0  0  0  0999 V2000
    9.5070   27.5870    8.5360 C   0  0  0  0  0
    8.5600   27.8840    7.5760 C   0  0  0  0  0
    8.3160   27.0180    6.5290 C   0  0  0  0  0
    9.0370   25.8410    6.4120 C   0  0  0  0  0
    9.9800   25.5500    7.3920 C   0  0  0  0  0
   10.2180   26.4070    8.4470 C   0  0  0  0  0
    8.7020   24.9250    5.2690 C   0  0  0  0  0
    9.7870   24.7580    4.2080 C   0  0  0  0  0
   10.8060   23.6970    4.6200 C   0  0  0  0  0
   11.6060   24.0950    5.7950 N   0  0  0  0  0
   10.9250   24.0390    7.3450 S   0  0  0  0  0
   12.8610   24.8310    5.6040 C   0  0  0  0  0
   13.9750   23.9170    5.1380 C   0  0  0  0  0
   14.4290   22.8410    6.1140 C   0  0  0  0  0
   15.0690   24.7230    4.7620 O   0  0  0  0  0
   15.1060   23.3540    7.3810 C   0  0  0  0  0
   15.2980   21.9410    5.3940 N   0  0  0  0  0
   14.8860   20.6870    5.0050 C   0  0  0  0  0
   15.9540   20.0430    4.4260 O   0  0  0  0  0
   13.7630   20.2240    5.1850 O   0  0  0  0  0
   15.4460   22.2290    8.3010 C   0  0  0  0  0
   16.7360   21.7330    8.3290 C   0  0  0  0  0
   17.0560   20.6790    9.1640 C   0  0  0  0  0
   16.0830   20.1130    9.9630 C   0  0  0  0  0
   14.7950   20.6100    9.9400 C   0  0  0  0  0
   14.4750   21.6710    9.1140 C   0  0  0  0  0
   11.9580   24.0670    8.3530 O   0  0  0  0  0
    9.9280   22.9840    7.3410 O   0  0  0  0  0
    9.2330   24.4490    2.8110 C   0  0  0  0  0
    8.4630   25.6100    2.2290 C   0  0  0  0  0
    8.3050   23.2450    2.8000 C   0  0  0  0  0
   10.3750   24.1950    1.8500 C   0  0  0  0  0
    7.8810   29.0410    7.6750 F   0  0  0  0  0
   15.6850   18.7830    3.8160 C   0  0  0  0  0
   17.0470   18.1920    3.5210 C   0  0  0  0  0
   15.0740   19.0360    2.4590 C   0  0  0  0  0
   17.3790   18.6520    2.2160 O   0  0  0  0  0
   16.1600   18.6530    1.4900 C   0  0  0  0  0
    9.6918   28.2789    9.3577 H   0  0  0  0  0
    7.5521   27.2616    5.7906 H   0  0  0  0  0
   10.9609   26.1545    9.2035 H   0  0  0  0  0
    7.8435   25.3668    4.7631 H   0  0  0  0  0
    8.5429   23.9380    5.7032 H   0  0  0  0  0
   10.2848   25.7254    4.1414 H   0  0  0  0  0
   11.4909   23.5509    3.7847 H   0  0  0  0  0
   10.2574   22.7922    4.8816 H   0  0  0  0  0
   13.1517   25.2712    6.5578 H   0  0  0  0  0
   12.7007   25.5954    4.8437 H   0  0  0  0  0
   13.5622   23.3462    4.3062 H   0  0  0  0  0
   13.5350   22.3390    6.4841 H   0  0  0  0  0
   15.7892   24.1635    4.4622 H   0  0  0  0  0
   14.4211   24.0293    7.8937 H   0  0  0  0  0
   16.0264   23.8668    7.1018 H   0  0  0  0  0
   16.2453   22.2434    5.1669 H   0  0  0  0  0
   17.5023   22.1739    7.6914 H   0  0  0  0  0
   18.0758   20.2951    9.1915 H   0  0  0  0  0
   16.3315   19.2735   10.6123 H   0  0  0  0  0
   14.0289   20.1646   10.5747 H   0  0  0  0  0
   13.4597   22.0675    9.1030 H   0  0  0  0  0
    7.6225   25.8498    2.8802 H   0  0  0  0  0
    9.1200   26.4759    2.1479 H   0  0  0  0  0
    8.0925   25.3395    1.2402 H   0  0  0  0  0
    8.8485   22.3658    3.1459 H   0  0  0  0  0
    7.4589   23.4340    3.4607 H   0  0  0  0  0
    7.9445   23.0750    1.7855 H   0  0  0  0  0
   11.0089   25.0802    1.7989 H   0  0  0  0  0
   10.9617   23.3462    2.2012 H   0  0  0  0  0
    9.9736   23.9764    0.8604 H   0  0  0  0  0
   15.0431   18.1624    4.4412 H   0  0  0  0  0
   17.0323   17.1033    3.5718 H   0  0  0  0  0
   17.7881   18.5028    4.2574 H   0  0  0  0  0
   14.7586   20.0721    2.3359 H   0  0  0  0  0
   14.1617   18.4600    2.3041 H   0  0  0  0  0
   16.2046   19.3588    0.6606 H   0  0  0  0  0
   15.9654   17.6705    1.0599 H   0  0  0  0  0
  1  2  4  0  0  0
  1  6  4  0  0  0
  2  3  4  0  0  0
  2 33  1  0  0  0
  3  4  4  0  0  0
  4  5  4  0  0  0
  4  7  1  0  0  0
  5  6  4  0  0  0
  5 11  1  0  0  0
  7  8  1  0  0  0
  8  9  1  0  0  0
  8 29  1  0  0  0
  9 10  1  0  0  0
 10 11  1  0  0  0
 10 12  1  0  0  0
 11 27  2  0  0  0
 11 28  2  0  0  0
 12 13  1  0  0  0
 13 14  1  0  0  0
 13 15  1  0  0  0
 14 16  1  0  0  0
 14 17  1  0  0  0
 16 21  1  0  0  0
 17 18  1  0  0  0
 18 19  1  0  0  0
 18 20  2  0  0  0
 19 34  1  0  0  0
 21 22  4  0  0  0
 21 26  4  0  0  0
 22 23  4  0  0  0
 23 24  4  0  0  0
 24 25  4  0  0  0
 25 26  4  0  0  0
 29 30  1  0  0  0
 29 31  1  0  0  0
 29 32  1  0  0  0
 34 35  1  0  0  0
 34 36  1  0  0  0
 35 37  1  0  0  0
 36 38  1  0  0  0
 37 38  1  0  0  0
  1 39  1  0  0  0
  3 40  1  0  0  0
  6 41  1  0  0  0
  7 42  1  0  0  0
  7 43  1  0  0  0
  8 44  1  0  0  0
  9 45  1  0  0  0
  9 46  1  0  0  0
 12 47  1  0  0  0
 12 48  1  0  0  0
 13 49  1  0  0  0
 14 50  1  0  0  0
 15 51  1  0  0  0
 16 52  1  0  0  0
 16 53  1  0  0  0
 17 54  1  0  0  0
 22 55  1  0  0  0
 23 56  1  0  0  0
 24 57  1  0  0  0
 25 58  1  0  0  0
 26 59  1  0  0  0
 30 60  1  0  0  0
 30 61  1  0  0  0
 30 62  1  0  0  0
 31 63  1  0  0  0
 31 64  1  0  0  0
 31 65  1  0  0  0
 32 66  1  0  0  0
 32 67  1  0  0  0
 32 68  1  0  0  0
 34 69  1  0  0  0
 35 70  1  0  0  0
 35 71  1  0  0  0
 36 72  1  0  0  0
 36 73  1  0  0  0
 38 74  1  0  0  0
 38 75  1  0  0  0
M  END
$$$$
