5okt_ligand
  -I-interpret- 

 54 58  0  0  0  0  0  0  0  0999 V2000
   -5.3610    5.0760  -21.0650 C   0  0  0  0  0
   -4.2940    5.2370  -19.9910 C   0  0  0  0  0
   -3.7660    6.5040  -19.7120 C   0  0  0  0  0
   -2.7780    6.6500  -18.7300 C   0  0  0  0  0
   -2.3390    5.5300  -18.0470 C   0  0  0  0  0
   -2.8690    4.2520  -18.3290 C   0  0  0  0  0
   -3.8430    4.1110  -19.2970 C   0  0  0  0  0
   -1.3220    5.7500  -17.0510 N   0  0  0  0  0
   -1.0030    7.0810  -16.9640 C   0  0  0  0  0
    0.0400    7.5700  -16.0730 N   0  0  0  0  0
    0.4580    8.9620  -16.0350 C   0  0  0  0  0
   -0.0870    9.7670  -16.7140 O   0  0  0  0  0
    1.6260    9.3770  -15.1310 C   0  0  0  0  0
    1.2660    9.4540  -13.3500 S   0  0  0  0  0
    0.9490   11.2060  -13.0110 C   0  0  0  0  0
    0.9100   12.1320  -14.1790 N   0  3  0  0  0
    0.6560   13.5350  -13.9940 C   0  0  0  0  0
    0.4260   14.0760  -12.5690 C   0  0  0  0  0
    0.1580   15.7410  -12.7000 S   0  0  0  0  0
   -0.1650   15.9970  -14.3270 C   0  0  0  0  0
    0.5590   14.7980  -15.0840 C   0  0  0  0  0
    0.4660   13.1510  -11.4030 C   0  0  0  0  0
    0.2880   13.5660  -10.3080 O   0  0  0  0  0
    0.7210   11.7240  -11.6120 N   0  0  0  0  0
    0.7740   10.8130  -10.4780 C   0  0  0  0  0
   -0.2450    9.9030  -10.2490 C   0  0  0  0  0
   -0.1710    9.0440   -9.1650 C   0  0  0  0  0
    0.9190    9.0900   -8.3100 C   0  0  0  0  0
    1.9390    9.9970   -8.5410 C   0  0  0  0  0
    1.8660   10.8570   -9.6230 C   0  0  0  0  0
   -1.9110    7.9290  -18.1020 S   0  0  0  0  0
   -6.2337    5.6733  -20.8008 H   0  0  0  0  0
   -4.9646    5.4135  -22.0226 H   0  0  0  0  0
   -5.6460    4.0264  -21.1378 H   0  0  0  0  0
   -4.1239    7.3762  -20.2590 H   0  0  0  0  0
   -2.5100    3.3791  -17.7838 H   0  0  0  0  0
   -4.2577    3.1276  -19.5186 H   0  0  0  0  0
    0.4976    6.9065  -15.4479 H   0  0  0  0  0
    1.9021   10.3876  -15.4318 H   0  0  0  0  0
    2.3955    8.6151  -15.2554 H   0  0  0  0  0
    1.0075   11.2655  -11.9242 H   0  0  0  0  0
    0.1169   11.8050  -14.7309 H   0  0  0  0  0
    1.8566   12.0971  -14.5574 H   0  0  0  0  0
    0.8255   12.8093  -14.7895 H   0  0  0  0  0
    0.3385   14.0160  -11.4842 H   0  0  0  0  0
    0.2006   16.9670  -14.6638 H   0  0  0  0  0
   -1.2361   16.0141  -14.5285 H   0  0  0  0  0
   -0.0003   14.5039  -15.9721 H   0  0  0  0  0
    1.5507   15.0951  -15.4251 H   0  0  0  0  0
   -1.1029    9.8631  -10.9202 H   0  0  0  0  0
   -0.9733    8.3288   -8.9835 H   0  0  0  0  0
    0.9729    8.4132   -7.4573 H   0  0  0  0  0
    2.7985   10.0338   -7.8717 H   0  0  0  0  0
    2.6691   11.5713   -9.8041 H   0  0  0  0  0
  1  2  1  0  0  0
  2  3  4  0  0  0
  2  7  4  0  0  0
  3  4  4  0  0  0
  4  5  4  0  0  0
  4 31  4  0  0  0
  5  6  4  0  0  0
  5  8  4  0  0  0
  6  7  4  0  0  0
  8  9  4  0  0  0
  9 10  1  0  0  0
  9 31  4  0  0  0
 10 11  1  0  0  0
 11 12  2  0  0  0
 11 13  1  0  0  0
 13 14  1  0  0  0
 14 15  1  0  0  0
 15 16  1  0  0  0
 15 24  1  0  0  0
 16 17  1  0  0  0
 17 18  1  0  0  0
 17 21  1  0  0  0
 18 19  1  0  0  0
 18 22  1  0  0  0
 19 20  1  0  0  0
 20 21  1  0  0  0
 22 23  2  0  0  0
 22 24  1  0  0  0
 24 25  1  0  0  0
 25 26  4  0  0  0
 25 30  4  0  0  0
 26 27  4  0  0  0
 27 28  4  0  0  0
 28 29  4  0  0  0
 29 30  4  0  0  0
  1 32  1  0  0  0
  1 33  1  0  0  0
  1 34  1  0  0  0
  3 35  1  0  0  0
  6 36  1  0  0  0
  7 37  1  0  0  0
 10 38  1  0  0  0
 13 39  1  0  0  0
 13 40  1  0  0  0
 15 41  1  0  0  0
 16 42  1  0  0  0
 16 43  1  0  0  0
 17 44  1  0  0  0
 18 45  1  0  0  0
 20 46  1  0  0  0
 20 47  1  0  0  0
 21 48  1  0  0  0
 21 49  1  0  0  0
 26 50  1  0  0  0
 27 51  1  0  0  0
 28 52  1  0  0  0
 29 53  1  0  0  0
 30 54  1  0  0  0
M  END
$$$$
