5nya_ligand
  -I-interpret- 

 17 17  0  0  0  0  0  0  0  0999 V2000
   -4.4830    6.3740   14.7790 C   0  0  0  0  0
   -5.8460    6.2420   15.0900 C   0  0  0  0  0
   -6.3060    5.0980   15.7210 C   0  0  0  0  0
   -5.4280    4.0750   16.0530 C   0  0  0  0  0
   -4.0410    4.1870   15.7470 C   0  0  0  0  0
   -3.5990    5.3570   15.1170 C   0  0  0  0  0
   -5.9860    2.6060   16.8490 S   0  0  0  0  0
   -5.4290    2.6720   18.1990 O   0  0  0  0  0
   -7.4340    2.6490   16.7100 O   0  0  0  0  0
   -5.3860    1.3420   16.0420 N   0  0  0  0  0
   -4.1204    7.2699   14.2750 H   0  0  0  0  0
   -6.5426    7.0405   14.8346 H   0  0  0  0  0
   -7.3653    5.0001   15.9587 H   0  0  0  0  0
   -3.3448    3.3861   15.9958 H   0  0  0  0  0
   -2.5397    5.4721   14.8871 H   0  0  0  0  0
   -4.7118    0.7229   16.4921 H   0  0  0  0  0
   -5.6813    1.1629   15.0822 H   0  0  0  0  0
  1  2  4  0  0  0
  1  6  4  0  0  0
  2  3  4  0  0  0
  3  4  4  0  0  0
  4  5  4  0  0  0
  4  7  1  0  0  0
  5  6  4  0  0  0
  7  8  2  0  0  0
  7  9  2  0  0  0
  7 10  1  0  0  0
  1 11  1  0  0  0
  2 12  1  0  0  0
  3 13  1  0  0  0
  5 14  1  0  0  0
  6 15  1  0  0  0
 10 16  1  0  0  0
 10 17  1  0  0  0
M  END
$$$$
