4d8n_ligand
  -I-interpret- 

 57 60  0  0  0  0  0  0  0  0999 V2000
   25.5300   10.9030   35.8850 C   0  0  0  0  0
   25.6900   12.2830   35.7850 C   0  0  0  0  0
   25.6770   12.8960   34.5360 C   0  0  0  0  0
   25.5060   12.1280   33.3870 C   0  0  0  0  0
   25.3480   10.7510   33.4870 C   0  0  0  0  0
   25.3570   10.1350   34.7380 C   0  0  0  0  0
   25.1490    8.6250   34.8600 C   0  0  0  0  0
   25.5970    7.9310   33.6370 N   0  0  0  0  0
   24.8420    7.7530   32.5620 C   0  0  0  0  0
   25.5950    7.1170   31.6680 C   0  0  0  0  0
   26.7960    6.9110   32.2060 N   0  0  0  0  0
   26.8040    7.4150   33.4340 C   0  0  0  0  0
   27.9930    7.3870   34.4060 C   0  0  0  0  0
   27.9750    6.1730   35.2520 N   0  0  0  0  0
   28.1990    4.9170   34.6670 C   0  0  0  0  0
   28.1630    3.7690   35.4450 C   0  0  0  0  0
   27.9020    3.8700   36.8120 C   0  0  0  0  0
   27.6810    5.1080   37.4010 C   0  0  0  0  0
   27.4060    5.1730   38.7350 O   0  0  0  0  0
   27.7220    6.2660   36.6340 C   0  0  0  0  0
   27.5930    7.6370   37.3010 C   0  0  0  0  0
   28.4160    8.5240   37.0580 O   0  0  0  0  0
   26.5640    7.7660   38.1320 N   0  0  0  0  0
   26.2340    8.8960   38.7660 C   0  0  0  0  0
   24.9530    9.0070   39.2900 C   0  0  0  0  0
   24.5410   10.1910   39.9060 C   0  0  0  0  0
   27.1090    9.9730   38.8620 C   0  0  0  0  0
   26.7010   11.1570   39.4790 C   0  0  0  0  0
   25.4180   11.2640   39.9980 C   0  0  0  0  0
   24.9750   12.5780   40.6570 C   0  0  0  0  0
   23.7750   12.3630   41.4760 N   0  3  0  0  0
   25.5404   10.4238   36.8640 H   0  0  0  0  0
   25.8254   12.8827   36.6851 H   0  0  0  0  0
   25.8005   13.9761   34.4570 H   0  0  0  0  0
   25.4961   12.6075   32.4082 H   0  0  0  0  0
   25.2168   10.1515   32.5862 H   0  0  0  0  0
   24.0868    8.4282   35.0055 H   0  0  0  0  0
   25.7320    8.2580   35.7047 H   0  0  0  0  0
   23.8058    8.0666   32.4351 H   0  0  0  0  0
   25.2828    6.8164   30.6679 H   0  0  0  0  0
   27.9286    8.2604   35.0549 H   0  0  0  0  0
   28.9145    7.3879   33.8237 H   0  0  0  0  0
   28.4018    4.8434   33.5986 H   0  0  0  0  0
   28.3376    2.7936   34.9910 H   0  0  0  0  0
   27.8713    2.9683   37.4236 H   0  0  0  0  0
   27.2789    6.0897   38.9901 H   0  0  0  0  0
   26.6385    6.3214   36.5290 H   0  0  0  0  0
   25.9840    6.9435   38.2982 H   0  0  0  0  0
   24.2645    8.1649   39.2202 H   0  0  0  0  0
   23.5334   10.2727   40.3136 H   0  0  0  0  0
   28.1166    9.8923   38.4541 H   0  0  0  0  0
   27.3904   11.9980   39.5533 H   0  0  0  0  0
   24.7468   13.3057   39.8782 H   0  0  0  0  0
   25.7793   12.9428   41.2958 H   0  0  0  0  0
   23.4954   13.2449   41.9054 H   0  0  0  0  0
   23.0192   12.0164   40.8852 H   0  0  0  0  0
   23.9799   11.6788   42.2042 H   0  0  0  0  0
  1  2  4  0  0  0
  1  6  4  0  0  0
  2  3  4  0  0  0
  3  4  4  0  0  0
  4  5  4  0  0  0
  5  6  4  0  0  0
  6  7  1  0  0  0
  7  8  1  0  0  0
  8  9  4  0  0  0
  8 12  4  0  0  0
  9 10  4  0  0  0
 10 11  4  0  0  0
 11 12  4  0  0  0
 12 13  1  0  0  0
 13 14  1  0  0  0
 14 15  1  0  0  0
 14 20  1  0  0  0
 15 16  2  0  0  0
 16 17  1  0  0  0
 17 18  2  0  0  0
 18 19  1  0  0  0
 18 20  1  0  0  0
 20 21  1  0  0  0
 21 22  2  0  0  0
 21 23  1  0  0  0
 23 24  1  0  0  0
 24 25  4  0  0  0
 24 27  4  0  0  0
 25 26  4  0  0  0
 26 29  4  0  0  0
 27 28  4  0  0  0
 28 29  4  0  0  0
 29 30  1  0  0  0
 30 31  1  0  0  0
  1 32  1  0  0  0
  2 33  1  0  0  0
  3 34  1  0  0  0
  4 35  1  0  0  0
  5 36  1  0  0  0
  7 37  1  0  0  0
  7 38  1  0  0  0
  9 39  1  0  0  0
 10 40  1  0  0  0
 13 41  1  0  0  0
 13 42  1  0  0  0
 15 43  1  0  0  0
 16 44  1  0  0  0
 17 45  1  0  0  0
 19 46  1  0  0  0
 20 47  1  0  0  0
 23 48  1  0  0  0
 25 49  1  0  0  0
 26 50  1  0  0  0
 27 51  1  0  0  0
 28 52  1  0  0  0
 30 53  1  0  0  0
 30 54  1  0  0  0
 31 55  1  0  0  0
 31 56  1  0  0  0
 31 57  1  0  0  0
M  END
$$$$
