5v1d_ligand
  -I-interpret- 

160166  0  0  0  0  0  0  0  0999 V2000
  -32.4520   15.8970   63.6730 N   0  3  0  0  0
  -32.8830   14.9320   62.6550 C   0  0  0  0  0
  -33.9410   15.5010   61.7040 C   0  0  0  0  0
  -34.7460   16.3430   62.1020 O   0  0  0  0  0
  -33.4510   13.7840   63.4900 C   0  0  0  0  0
  -32.6840   13.8560   64.7720 C   0  0  0  0  0
  -32.4870   15.3220   65.0290 C   0  0  0  0  0
  -33.9300   15.0510   60.4520 N   0  0  0  0  0
  -34.8780   15.5140   59.4480 C   0  0  0  0  0
  -35.7700   14.3620   59.0200 C   0  0  0  0  0
  -35.2600   13.3190   58.5780 O   0  0  0  0  0
  -34.1650   16.0900   58.2310 C   0  0  0  0  0
  -33.6240   17.4760   58.4340 C   0  0  0  0  0
  -33.3880   18.1800   57.1240 C   0  0  0  0  0
  -34.1410   17.9990   56.1680 O   0  0  0  0  0
  -32.3340   18.9830   57.0640 N   0  0  0  0  0
  -37.0720   14.4930   59.0990 N   0  0  0  0  0
  -37.9280   13.3490   58.7760 C   0  0  0  0  0
  -38.1470   13.1430   57.2850 C   0  0  0  0  0
  -39.0660   12.4120   56.9140 O   0  0  0  0  0
  -39.2460   13.6830   59.4920 C   0  0  0  0  0
  -38.9360   14.8640   60.3940 C   0  0  0  0  0
  -37.8300   15.5900   59.7190 C   0  0  0  0  0
  -37.3420   13.7140   56.3960 N   0  0  0  0  0
  -37.6340   13.5250   54.9750 C   0  0  0  0  0
  -36.3670   13.4470   54.1320 C   0  0  0  0  0
  -36.2420   14.1160   53.1100 O   0  0  0  0  0
  -38.5650   14.6290   54.4750 C   0  0  0  0  0
  -39.8850   14.6780   55.1940 C   0  0  0  0  0
  -40.3280   15.6580   56.0370 C   0  0  0  0  0
  -40.9170   13.6870   55.1490 C   0  0  0  0  0
  -41.5810   15.3380   56.5140 N   0  0  0  0  0
  -41.9610   14.1310   55.9860 C   0  0  0  0  0
  -41.0550   12.4640   54.4870 C   0  0  0  0  0
  -43.1320   13.3940   56.1720 C   0  0  0  0  0
  -42.2150   11.7350   54.6700 C   0  0  0  0  0
  -43.2380   12.2000   55.5070 C   0  0  0  0  0
  -35.4200   12.6010   54.5410 N   0  0  0  0  0
  -34.2410   12.3450   53.7160 C   0  0  0  0  0
  -33.5390   11.0700   54.1720 C   0  0  0  0  0
  -33.6390   10.6600   55.3300 O   0  0  0  0  0
  -33.2330   13.5120   53.7010 C   0  0  0  0  0
  -33.3070   14.3700   52.4230 C   0  0  0  0  0
  -32.9360   13.5560   51.2060 C   0  0  0  0  0
  -33.3150   14.1890   49.9450 N   0  0  0  0  0
  -34.4460   13.9320   49.2940 C   0  0  0  0  0
  -35.3210   13.0670   49.7990 N   0  0  0  0  0
  -34.7050   14.5390   48.1380 N   0  0  0  0  0
  -32.8050   10.4560   53.2410 N   0  0  0  0  0
  -32.1610    9.1440   53.4370 C   0  0  0  0  0
  -30.9850    9.2630   54.4090 C   0  0  0  0  0
  -29.8510    9.5380   54.0050 O   0  0  0  0  0
  -31.6960    8.6030   52.0960 C   0  0  0  0  0
  -32.7990    8.0830   51.2410 C   0  0  0  0  0
  -32.9070    6.7340   50.9390 C   0  0  0  0  0
  -33.7440    8.9490   50.7150 C   0  0  0  0  0
  -33.9410    6.2620   50.1200 C   0  0  0  0  0
  -34.7760    8.4840   49.9070 C   0  0  0  0  0
  -34.8730    7.1440   49.6080 C   0  0  0  0  0
  -31.2320    9.0100   55.6990 N   0  0  0  0  0
  -30.1880    9.0850   56.7110 C   0  0  0  0  0
  -29.3140    7.8290   56.7670 C   0  0  0  0  0
  -29.7340    6.7180   56.4420 O   0  0  0  0  0
  -30.8150    9.3490   58.0760 C   0  0  0  0  0
  -30.9800   10.8210   58.4090 C   0  0  0  0  0
  -29.9120   11.5670   58.9090 C   0  0  0  0  0
  -32.1980   11.4680   58.2310 C   0  0  0  0  0
  -30.0590   12.9260   59.2270 C   0  0  0  0  0
  -32.3500   12.8170   58.5510 C   0  0  0  0  0
  -31.2830   13.5420   59.0450 C   0  0  0  0  0
  -31.4560   14.8800   59.3480 O   0  0  0  0  0
  -28.0710    8.0310   57.2150 N   0  0  0  0  0
  -27.0940    6.9630   57.2980 C   0  0  0  0  0
  -26.4300    6.9970   58.6690 C   0  0  0  0  0
  -26.0360    8.0780   59.1430 O   0  0  0  0  0
  -26.0330    7.0820   56.1880 C   0  0  0  0  0
  -26.3050    5.8460   59.3500 N   0  0  0  0  0
  -25.6910    5.7430   60.6780 C   0  0  0  0  0
  -24.2550    6.2510   60.6870 C   0  0  0  0  0
  -23.8840    6.9560   61.6240 O   0  0  0  0  0
  -25.7420    4.2400   60.9720 C   0  0  0  0  0
  -26.8580    3.7310   60.1250 C   0  0  0  0  0
  -26.8130    4.5500   58.8750 C   0  0  0  0  0
  -23.5130    5.9400   59.7570 O   0  0  0  0  0
  -33.0892   16.6931   63.6477 H   0  0  0  0  0
  -31.4910   16.1698   63.4671 H   0  0  0  0  0
  -32.0661   14.6363   61.9967 H   0  0  0  0  0
  -33.3402   12.8189   62.9956 H   0  0  0  0  0
  -34.5257   13.8782   63.6454 H   0  0  0  0  0
  -31.7330   13.3279   64.7025 H   0  0  0  0  0
  -33.2191   13.3722   65.5892 H   0  0  0  0  0
  -33.2747   15.7509   65.6485 H   0  0  0  0  0
  -31.5822   15.5321   65.5994 H   0  0  0  0  0
  -33.2322   14.3564   60.1856 H   0  0  0  0  0
  -35.4809   16.3063   59.8918 H   0  0  0  0  0
  -34.8971   16.1451   57.4253 H   0  0  0  0  0
  -33.3155   15.4409   58.0186 H   0  0  0  0  0
  -32.6717   17.3992   58.9587 H   0  0  0  0  0
  -34.3544   18.0493   59.0049 H   0  0  0  0  0
  -32.1205   19.4807   56.1996 H   0  0  0  0  0
  -31.7369   19.1028   57.8823 H   0  0  0  0  0
  -37.4743   12.4108   59.0955 H   0  0  0  0  0
  -39.6141   12.8316   60.0644 H   0  0  0  0  0
  -40.0354   13.9233   58.7798 H   0  0  0  0  0
  -38.6526   14.5413   61.3958 H   0  0  0  0  0
  -39.8085   15.5019   60.5352 H   0  0  0  0  0
  -38.1781   16.3321   59.0005 H   0  0  0  0  0
  -37.2321   16.1938   60.4017 H   0  0  0  0  0
  -36.5411   14.2698   56.6963 H   0  0  0  0  0
  -38.1397   12.5656   54.8660 H   0  0  0  0  0
  -38.7734   14.4285   53.4241 H   0  0  0  0  0
  -38.0639   15.5813   54.6482 H   0  0  0  0  0
  -39.7724   16.5598   56.2943 H   0  0  0  0  0
  -40.2622   12.0917   53.8381 H   0  0  0  0  0
  -43.9307   13.7539   56.8206 H   0  0  0  0  0
  -42.3360   10.7823   54.1545 H   0  0  0  0  0
  -44.1385   11.5987   55.6322 H   0  0  0  0  0
  -35.5198   12.1278   55.4391 H   0  0  0  0  0
  -34.6080   12.2304   52.6961 H   0  0  0  0  0
  -32.2326   13.0821   53.7501 H   0  0  0  0  0
  -33.4686   14.1599   54.5453 H   0  0  0  0  0
  -32.6067   15.2000   52.5167 H   0  0  0  0  0
  -34.3274   14.7343   52.3036 H   0  0  0  0  0
  -33.4698   12.6078   51.2704 H   0  0  0  0  0
  -31.8517   13.4445   51.2041 H   0  0  0  0  0
  -32.6729   14.8697   49.5390 H   0  0  0  0  0
  -35.1245   12.6013   50.6849 H   0  0  0  0  0
  -35.5733   14.3404   47.6410 H   0  0  0  0  0
  -34.0351   15.2027   47.7492 H   0  0  0  0  0
  -32.6826   10.9216   52.3417 H   0  0  0  0  0
  -32.8837    8.4513   53.8683 H   0  0  0  0  0
  -31.0219    7.7706   52.2979 H   0  0  0  0  0
  -31.2292    9.4277   51.5575 H   0  0  0  0  0
  -32.1782    6.0319   51.3439 H   0  0  0  0  0
  -33.6774   10.0138   50.9385 H   0  0  0  0  0
  -34.0101    5.1995   49.8869 H   0  0  0  0  0
  -35.5110    9.1836   49.5089 H   0  0  0  0  0
  -35.6799    6.7810   48.9714 H   0  0  0  0  0
  -32.1789    8.7573   55.9818 H   0  0  0  0  0
  -29.5309    9.9087   56.4322 H   0  0  0  0  0
  -30.1480    8.9220   58.8249 H   0  0  0  0  0
  -31.8116    8.9078   58.0635 H   0  0  0  0  0
  -28.9453   11.0851   59.0554 H   0  0  0  0  0
  -33.0477   10.9119   57.8350 H   0  0  0  0  0
  -29.2127   13.4926   59.6153 H   0  0  0  0  0
  -33.3161   13.3018   58.4105 H   0  0  0  0  0
  -32.3623   15.1348   59.1603 H   0  0  0  0  0
  -27.8003    8.9695   57.5088 H   0  0  0  0  0
  -27.6071    6.0113   57.1594 H   0  0  0  0  0
  -26.5202    7.0301   55.2143 H   0  0  0  0  0
  -25.5128    8.0349   56.2851 H   0  0  0  0  0
  -25.3177    6.2649   56.2818 H   0  0  0  0  0
  -26.2070    6.3498   61.4220 H   0  0  0  0  0
  -24.6114    7.0784   62.2384 H   0  0  0  0  0
  -25.9067    4.0363   62.0300 H   0  0  0  0  0
  -24.7975    3.7468   60.7424 H   0  0  0  0  0
  -27.8191    3.8247   60.6306 H   0  0  0  0  0
  -26.7458    2.6680   59.9114 H   0  0  0  0  0
  -26.1860    4.1073   58.1011 H   0  0  0  0  0
  -27.7837    4.6293   58.3856 H   0  0  0  0  0
  1  2  1  0  0  0
  1  7  1  0  0  0
  2  3  1  0  0  0
  2  5  1  0  0  0
  3  4  2  0  0  0
  3  8  1  0  0  0
  5  6  1  0  0  0
  6  7  1  0  0  0
  8  9  1  0  0  0
  9 10  1  0  0  0
  9 12  1  0  0  0
 10 11  2  0  0  0
 10 17  1  0  0  0
 12 13  1  0  0  0
 13 14  1  0  0  0
 14 15  2  0  0  0
 14 16  1  0  0  0
 17 18  1  0  0  0
 17 23  1  0  0  0
 18 19  1  0  0  0
 18 21  1  0  0  0
 19 20  2  0  0  0
 19 24  1  0  0  0
 21 22  1  0  0  0
 22 23  1  0  0  0
 24 25  1  0  0  0
 25 26  1  0  0  0
 25 28  1  0  0  0
 26 27  2  0  0  0
 26 38  1  0  0  0
 28 29  1  0  0  0
 29 30  4  0  0  0
 29 31  4  0  0  0
 30 32  4  0  0  0
 31 33  4  0  0  0
 31 34  4  0  0  0
 32 33  4  0  0  0
 33 35  4  0  0  0
 34 36  4  0  0  0
 35 37  4  0  0  0
 36 37  4  0  0  0
 38 39  1  0  0  0
 39 40  1  0  0  0
 39 42  1  0  0  0
 40 41  2  0  0  0
 40 49  1  0  0  0
 42 43  1  0  0  0
 43 44  1  0  0  0
 44 45  1  0  0  0
 45 46  1  0  0  0
 46 47  2  0  0  0
 46 48  1  0  0  0
 49 50  1  0  0  0
 50 51  1  0  0  0
 50 53  1  0  0  0
 51 52  2  0  0  0
 51 60  1  0  0  0
 53 54  1  0  0  0
 54 55  4  0  0  0
 54 56  4  0  0  0
 55 57  4  0  0  0
 56 58  4  0  0  0
 57 59  4  0  0  0
 58 59  4  0  0  0
 60 61  1  0  0  0
 61 62  1  0  0  0
 61 64  1  0  0  0
 62 63  2  0  0  0
 62 72  1  0  0  0
 64 65  1  0  0  0
 65 66  4  0  0  0
 65 67  4  0  0  0
 66 68  4  0  0  0
 67 69  4  0  0  0
 68 70  4  0  0  0
 69 70  4  0  0  0
 70 71  1  0  0  0
 72 73  1  0  0  0
 73 74  1  0  0  0
 73 76  1  0  0  0
 74 75  2  0  0  0
 74 77  1  0  0  0
 77 78  1  0  0  0
 77 83  1  0  0  0
 78 79  1  0  0  0
 78 81  1  0  0  0
 79 80  1  0  0  0
 79 84  2  0  0  0
 81 82  1  0  0  0
 82 83  1  0  0  0
  1 85  1  0  0  0
  1 86  1  0  0  0
  2 87  1  0  0  0
  5 88  1  0  0  0
  5 89  1  0  0  0
  6 90  1  0  0  0
  6 91  1  0  0  0
  7 92  1  0  0  0
  7 93  1  0  0  0
  8 94  1  0  0  0
  9 95  1  0  0  0
 12 96  1  0  0  0
 12 97  1  0  0  0
 13 98  1  0  0  0
 13 99  1  0  0  0
 16100  1  0  0  0
 16101  1  0  0  0
 18102  1  0  0  0
 21103  1  0  0  0
 21104  1  0  0  0
 22105  1  0  0  0
 22106  1  0  0  0
 23107  1  0  0  0
 23108  1  0  0  0
 24109  1  0  0  0
 25110  1  0  0  0
 28111  1  0  0  0
 28112  1  0  0  0
 30113  1  0  0  0
 34114  1  0  0  0
 35115  1  0  0  0
 36116  1  0  0  0
 37117  1  0  0  0
 38118  1  0  0  0
 39119  1  0  0  0
 42120  1  0  0  0
 42121  1  0  0  0
 43122  1  0  0  0
 43123  1  0  0  0
 44124  1  0  0  0
 44125  1  0  0  0
 45126  1  0  0  0
 47127  1  0  0  0
 48128  1  0  0  0
 48129  1  0  0  0
 49130  1  0  0  0
 50131  1  0  0  0
 53132  1  0  0  0
 53133  1  0  0  0
 55134  1  0  0  0
 56135  1  0  0  0
 57136  1  0  0  0
 58137  1  0  0  0
 59138  1  0  0  0
 60139  1  0  0  0
 61140  1  0  0  0
 64141  1  0  0  0
 64142  1  0  0  0
 66143  1  0  0  0
 67144  1  0  0  0
 68145  1  0  0  0
 69146  1  0  0  0
 71147  1  0  0  0
 72148  1  0  0  0
 73149  1  0  0  0
 76150  1  0  0  0
 76151  1  0  0  0
 76152  1  0  0  0
 78153  1  0  0  0
 80154  1  0  0  0
 81155  1  0  0  0
 81156  1  0  0  0
 82157  1  0  0  0
 82158  1  0  0  0
 83159  1  0  0  0
 83160  1  0  0  0
M  END
$$$$
