### 
### Created by X-TOOL on Wed Jan  1 15:39:38 2020
### 

@<TRIPOS>MOLECULE
5v1d_ligand
  161   167     1     0     0
SMALL
GAST_HUCK


@<TRIPOS>ATOM
      1 N         -32.4520   15.8970   63.6730 N.4       1 PRO         0.2461
      2 CA        -32.8830   14.9320   62.6550 C.3       1 PRO         0.0670
      3 C         -33.9410   15.5010   61.7040 C.2       1 PRO         0.2268
      4 O         -34.7460   16.3430   62.1020 O.2       1 PRO        -0.3907
      5 CB        -33.4510   13.7840   63.4900 C.3       1 PRO         0.0127
      6 CG        -32.6840   13.8560   64.7720 C.3       1 PRO        -0.0053
      7 CD        -32.4870   15.3220   65.0290 C.3       1 PRO        -0.0313
      8 N         -33.9300   15.0510   60.4520 N.am      1 GLN        -0.2609
      9 CA        -34.8780   15.5140   59.4480 C.3       1 GLN         0.1333
     10 C         -35.7700   14.3620   59.0200 C.2       1 GLN         0.2065
     11 O         -35.2600   13.3190   58.5780 O.2       1 GLN        -0.3942
     12 CB        -34.1650   16.0900   58.2310 C.3       1 GLN         0.0045
     13 CG        -33.6240   17.4760   58.4340 C.3       1 GLN         0.0412
     14 CD        -33.3880   18.1800   57.1240 C.2       1 GLN         0.1737
     15 OE1       -34.1410   17.9990   56.1680 O.2       1 GLN        -0.3973
     16 NE2       -32.3340   18.9830   57.0640 N.am      1 GLN        -0.3009
     17 N         -37.0720   14.4930   59.0990 N.am      1 PRO        -0.2498
     18 CA        -37.9280   13.3490   58.7760 C.3       1 PRO         0.1338
     19 C         -38.1470   13.1430   57.2850 C.2       1 PRO         0.2042
     20 O         -39.0660   12.4120   56.9140 O.2       1 PRO        -0.3944
     21 CB        -39.2460   13.6830   59.4920 C.3       1 PRO        -0.0104
     22 CG        -38.9360   14.8640   60.3940 C.3       1 PRO        -0.0281
     23 CD        -37.8300   15.5900   59.7190 C.3       1 PRO         0.0369
     24 N         -37.3420   13.7140   56.3960 N.am      1 TRP        -0.2627
     25 CA        -37.6340   13.5250   54.9750 C.3       1 TRP         0.1352
     26 C         -36.3670   13.4470   54.1320 C.2       1 TRP         0.2052
     27 O         -36.2420   14.1160   53.1100 O.2       1 TRP        -0.3942
     28 CB        -38.5650   14.6290   54.4750 C.3       1 TRP         0.0042
     29 CG        -39.8850   14.6780   55.1940 C.2       1 TRP        -0.0418
     30 CD1       -40.3280   15.6580   56.0370 C.2       1 TRP         0.0167
     31 CD2       -40.9170   13.6870   55.1490 C.ar      1 TRP        -0.0214
     32 NE1       -41.5810   15.3380   56.5140 N.pl3     1 TRP        -0.2890
     33 CE2       -41.9610   14.1310   55.9860 C.ar      1 TRP         0.0603
     34 CE3       -41.0550   12.4640   54.4870 C.ar      1 TRP        -0.0747
     35 CZ2       -43.1320   13.3940   56.1720 C.ar      1 TRP        -0.0443
     36 CZ3       -42.2150   11.7350   54.6700 C.ar      1 TRP        -0.0792
     37 CH2       -43.2380   12.2000   55.5070 C.ar      1 TRP        -0.0768
     38 N         -35.4200   12.6010   54.5410 N.am      1 ARG        -0.2636
     39 CA        -34.2410   12.3450   53.7160 C.3       1 ARG         0.1311
     40 C         -33.5390   11.0700   54.1720 C.2       1 ARG         0.2040
     41 O         -33.6390   10.6600   55.3300 O.2       1 ARG        -0.3944
     42 CB        -33.2330   13.5120   53.7010 C.3       1 ARG        -0.0092
     43 CG        -33.3070   14.3700   52.4230 C.3       1 ARG        -0.0156
     44 CD        -32.9360   13.5560   51.2060 C.3       1 ARG         0.0627
     45 NE        -33.3150   14.1890   49.9450 N.pl3     1 ARG        -0.2723
     46 CZ        -34.4460   13.9320   49.2940 C.cat     1 ARG         0.2882
     47 NH1       -35.3210   13.0670   49.7990 N.pl3     1 ARG        -0.2849
     48 NH2       -34.7050   14.5390   48.1380 N.pl3     1 ARG        -0.2849
     49 N         -32.8050   10.4560   53.2410 N.am      1 PHE        -0.2619
     50 CA        -32.1610    9.1440   53.4370 C.3       1 PHE         0.1404
     51 C         -30.9850    9.2630   54.4090 C.2       1 PHE         0.2061
     52 O         -29.8510    9.5380   54.0050 O.2       1 PHE        -0.3942
     53 CB        -31.6960    8.6030   52.0960 C.3       1 PHE         0.0214
     54 CG        -32.7990    8.0830   51.2410 C.ar      1 PHE        -0.0386
     55 CD1       -32.9070    6.7340   50.9390 C.ar      1 PHE        -0.0601
     56 CD2       -33.7440    8.9490   50.7150 C.ar      1 PHE        -0.0601
     57 CE1       -33.9410    6.2620   50.1200 C.ar      1 PHE        -0.0686
     58 CE2       -34.7760    8.4840   49.9070 C.ar      1 PHE        -0.0686
     59 CZ        -34.8730    7.1440   49.6080 C.ar      1 PHE        -0.0687
     60 N         -31.2320    9.0100   55.6990 N.am      1 TYR        -0.2620
     61 CA        -30.1880    9.0850   56.7110 C.3       1 TYR         0.1390
     62 C         -29.3140    7.8290   56.7670 C.2       1 TYR         0.2057
     63 O         -29.7340    6.7180   56.4420 O.2       1 TYR        -0.3942
     64 CB        -30.8150    9.3490   58.0760 C.3       1 TYR         0.0163
     65 CG        -30.9800   10.8210   58.4090 C.ar      1 TYR        -0.0493
     66 CD1       -29.9120   11.5670   58.9090 C.ar      1 TYR        -0.0685
     67 CD2       -32.1980   11.4680   58.2310 C.ar      1 TYR        -0.0685
     68 CE1       -30.0590   12.9260   59.2270 C.ar      1 TYR        -0.0398
     69 CE2       -32.3500   12.8170   58.5510 C.ar      1 TYR        -0.0398
     70 CZ        -31.2830   13.5420   59.0450 C.ar      1 TYR         0.0805
     71 OH        -31.4560   14.8800   59.3480 O.3       1 TYR        -0.3376
     72 N         -28.0710    8.0310   57.2150 N.am      1 ALA        -0.2639
     73 CA        -27.0940    6.9630   57.2980 C.3       1 ALA         0.1283
     74 C         -26.4300    6.9970   58.6690 C.2       1 ALA         0.2056
     75 O         -26.0360    8.0780   59.1430 O.2       1 ALA        -0.3942
     76 CB        -26.0330    7.0820   56.1880 C.3       1 ALA        -0.0244
     77 N         -26.3050    5.8460   59.3500 N.am      1 PRO        -0.2556
     78 CA        -25.6910    5.7430   60.6780 C.3       1 PRO         0.0972
     79 C         -24.2550    6.2510   60.6870 C.2       1 PRO         0.0603
     80 O         -23.8840    6.9560   61.6240 O.co2     1 PRO        -0.5666
     81 CB        -25.7420    4.2400   60.9720 C.3       1 PRO        -0.0159
     82 CG        -26.8580    3.7310   60.1250 C.3       1 PRO        -0.0288
     83 CD        -26.8130    4.5500   58.8750 C.3       1 PRO         0.0362
     84 OXT       -23.5130    5.9400   59.7570 O.co2     1 PRO        -0.5666
     85 H1        -33.0645   16.6970   63.6430 H         1 PRO         0.2035
     86 H2        -31.5091   16.1878   63.4672 H         1 PRO         0.2035
     87 H3        -32.0214   14.5918   62.0618 H         1 PRO         0.1099
     88 H4        -33.2870   12.8181   62.9899 H         1 PRO         0.0347
     89 H5        -34.5269   13.9260   63.6695 H         1 PRO         0.0347
     90 H6        -31.7136   13.3481   64.6703 H         1 PRO         0.0320
     91 H7        -33.2557   13.3941   65.5904 H         1 PRO         0.0320
     92 H8        -33.3225   15.7364   65.6123 H         1 PRO         0.0814
     93 H9        -31.5418   15.5062   65.5606 H         1 PRO         0.0814
     94 H10       -33.2459   14.3700   60.1908 H         1 GLN         0.1885
     95 H11       -35.5025   16.3024   59.8933 H         1 GLN         0.0801
     96 H12       -34.8782   16.1172   57.3940 H         1 GLN         0.0337
     97 H13       -33.3259   15.4260   57.9763 H         1 GLN         0.0337
     98 H14       -32.6713   17.4103   58.9798 H         1 GLN         0.0504
     99 H15       -34.3463   18.0573   59.0258 H         1 GLN         0.0504
    100 H16       -32.1288   19.4764   56.2187 H         1 GLN         0.1814
    101 H17       -31.7446   19.0950   57.8640 H         1 GLN         0.1814
    102 H18       -37.4908   12.4284   59.1899 H         1 PRO         0.0802
    103 H19       -39.5867   12.8239   60.0886 H         1 PRO         0.0313
    104 H20       -40.0222   13.9525   58.7606 H         1 PRO         0.0313
    105 H21       -38.6191   14.5170   61.3886 H         1 PRO         0.0287
    106 H22       -39.8179   15.5134   60.4960 H         1 PRO         0.0287
    107 H23       -38.2151   16.2874   58.9605 H         1 PRO         0.0524
    108 H24       -37.2133   16.1410   60.4443 H         1 PRO         0.0524
    109 H25       -36.5568   14.2589   56.6904 H         1 TRP         0.1884
    110 H26       -38.1612   12.5655   54.8676 H         1 TRP         0.0815
    111 H27       -38.7583   14.4622   53.4051 H         1 TRP         0.0397
    112 H28       -38.0599   15.5968   54.6099 H         1 TRP         0.0397
    113 H29       -39.7729   16.5590   56.2941 H         1 TRP         0.0795
    114 H30       -42.1404   15.9117   57.1612 H         1 TRP         0.2216
    115 H31       -40.2666   12.0938   53.8417 H         1 TRP         0.0540
    116 H32       -43.9263   13.7519   56.8170 H         1 TRP         0.0541
    117 H33       -42.3353   10.7875   54.1573 H         1 TRP         0.0510
    118 H34       -44.1335   11.6020   55.6315 H         1 TRP         0.0530
    119 H35       -35.5179   12.1371   55.4214 H         1 ARG         0.1883
    120 H36       -34.5891   12.1944   52.6835 H         1 ARG         0.0800
    121 H37       -32.2178   13.0966   53.7834 H         1 ARG         0.0313
    122 H38       -33.4360   14.1589   54.5672 H         1 ARG         0.0313
    123 H39       -32.6105   15.2163   52.5164 H         1 ARG         0.0301
    124 H40       -34.3322   14.7503   52.3032 H         1 ARG         0.0301
    125 H41       -33.4409   12.5810   51.2719 H         1 ARG         0.0689
    126 H42       -31.8464   13.4055   51.2065 H         1 ARG         0.0689
    127 H43       -32.6667   14.8764   49.5350 H         1 ARG         0.2642
    128 H44       -36.1971   12.8674   49.2955 H         1 ARG         0.2615
    129 H45       -35.1225   12.5967   50.6936 H         1 ARG         0.2615
    130 H46       -34.0286   15.2092   47.7453 H         1 ARG         0.2615
    131 H47       -35.5818   14.3385   47.6362 H         1 ARG         0.2615
    132 H48       -32.6850   10.9124   52.3594 H         1 PHE         0.1885
    133 H49       -32.8981    8.4475   53.8631 H         1 PHE         0.0823
    134 H50       -30.9850    7.7842   52.2803 H         1 PHE         0.0474
    135 H51       -31.1888    9.4136   51.5523 H         1 PHE         0.0474
    136 H52       -32.1822    6.0358   51.3417 H         1 PHE         0.0557
    137 H53       -33.6778   10.0079   50.9372 H         1 PHE         0.0557
    138 H54       -34.0098    5.2053   49.8881 H         1 PHE         0.0599
    139 H55       -35.5070    9.1797   49.5111 H         1 PHE         0.0599
    140 H56       -35.6755    6.7830   48.9749 H         1 PHE         0.0559
    141 H57       -32.1603    8.7622   55.9763 H         1 TYR         0.1885
    142 H58       -29.5363    9.9345   56.4588 H         1 TYR         0.0821
    143 H59       -30.1750    8.8908   58.8444 H         1 TYR         0.0453
    144 H60       -31.8083    8.8769   58.0969 H         1 TYR         0.0453
    145 H61       -28.9506   11.0878   59.0545 H         1 TYR         0.0530
    146 H62       -33.0430   10.9149   57.8372 H         1 TYR         0.0530
    147 H63       -29.2173   13.4895   59.6132 H         1 TYR         0.0525
    148 H64       -33.3108   13.2992   58.4113 H         1 TYR         0.0525
    149 H65       -30.6388   15.2378   59.6744 H         1 TYR         0.2458
    150 H66       -27.8056    8.9511   57.5031 H         1 ALA         0.1883
    151 H67       -27.6144    6.0012   57.1790 H         1 ALA         0.0797
    152 H68       -25.3105    6.2579   56.2816 H         1 ALA         0.0277
    153 H69       -25.5072    8.0433   56.2849 H         1 ALA         0.0277
    154 H70       -26.5235    7.0297   55.2048 H         1 ALA         0.0277
    155 H71       -26.2763    6.3066   61.4194 H         1 PRO         0.0728
    156 H72       -25.9488    4.0591   62.0371 H         1 PRO         0.0306
    157 H73       -24.7930    3.7574   60.6955 H         1 PRO         0.0306
    158 H74       -27.8220    3.8641   60.6378 H         1 PRO         0.0286
    159 H75       -26.7101    2.6660   59.8928 H         1 PRO         0.0286
    160 H76       -26.1319    4.1051   58.1347 H         1 PRO         0.0524
    161 H77       -27.8154    4.6551   58.4344 H         1 PRO         0.0524
@<TRIPOS>BOND
     1    1    2 1  
     2    1    7 1  
     3    2    3 1  
     4    2    5 1  
     5    3    4 2  
     6    3    8 am 
     7    5    6 1  
     8    6    7 1  
     9    8    9 1  
    10    9   10 1  
    11    9   12 1  
    12   10   11 2  
    13   10   17 am 
    14   12   13 1  
    15   13   14 1  
    16   14   15 2  
    17   14   16 am 
    18   17   18 1  
    19   17   23 1  
    20   18   19 1  
    21   18   21 1  
    22   19   20 2  
    23   19   24 am 
    24   21   22 1  
    25   22   23 1  
    26   24   25 1  
    27   25   26 1  
    28   25   28 1  
    29   26   27 2  
    30   26   38 am 
    31   28   29 1  
    32   29   30 2  
    33   29   31 1  
    34   30   32 1  
    35   31   33 ar 
    36   31   34 ar 
    37   32   33 1  
    38   33   35 ar 
    39   34   36 ar 
    40   35   37 ar 
    41   36   37 ar 
    42   38   39 1  
    43   39   40 1  
    44   39   42 1  
    45   40   41 2  
    46   40   49 am 
    47   42   43 1  
    48   43   44 1  
    49   44   45 1  
    50   45   46 ar 
    51   46   47 ar 
    52   46   48 ar 
    53   49   50 1  
    54   50   51 1  
    55   50   53 1  
    56   51   52 2  
    57   51   60 am 
    58   53   54 1  
    59   54   55 ar 
    60   54   56 ar 
    61   55   57 ar 
    62   56   58 ar 
    63   57   59 ar 
    64   58   59 ar 
    65   60   61 1  
    66   61   62 1  
    67   61   64 1  
    68   62   63 2  
    69   62   72 am 
    70   64   65 1  
    71   65   66 ar 
    72   65   67 ar 
    73   66   68 ar 
    74   67   69 ar 
    75   68   70 ar 
    76   69   70 ar 
    77   70   71 1  
    78   72   73 1  
    79   73   74 1  
    80   73   76 1  
    81   74   75 2  
    82   74   77 am 
    83   77   78 1  
    84   77   83 1  
    85   78   79 1  
    86   78   81 1  
    87   79   80 ar 
    88   79   84 ar 
    89   81   82 1  
    90   82   83 1  
    91    1   85 1  
    92    1   86 1  
    93    2   87 1  
    94    5   88 1  
    95    5   89 1  
    96    6   90 1  
    97    6   91 1  
    98    7   92 1  
    99    7   93 1  
   100    8   94 1  
   101    9   95 1  
   102   12   96 1  
   103   12   97 1  
   104   13   98 1  
   105   13   99 1  
   106   16  100 1  
   107   16  101 1  
   108   18  102 1  
   109   21  103 1  
   110   21  104 1  
   111   22  105 1  
   112   22  106 1  
   113   23  107 1  
   114   23  108 1  
   115   24  109 1  
   116   25  110 1  
   117   28  111 1  
   118   28  112 1  
   119   30  113 1  
   120   32  114 1  
   121   34  115 1  
   122   35  116 1  
   123   36  117 1  
   124   37  118 1  
   125   38  119 1  
   126   39  120 1  
   127   42  121 1  
   128   42  122 1  
   129   43  123 1  
   130   43  124 1  
   131   44  125 1  
   132   44  126 1  
   133   45  127 1  
   134   47  128 1  
   135   47  129 1  
   136   48  130 1  
   137   48  131 1  
   138   49  132 1  
   139   50  133 1  
   140   53  134 1  
   141   53  135 1  
   142   55  136 1  
   143   56  137 1  
   144   57  138 1  
   145   58  139 1  
   146   59  140 1  
   147   60  141 1  
   148   61  142 1  
   149   64  143 1  
   150   64  144 1  
   151   66  145 1  
   152   67  146 1  
   153   68  147 1  
   154   69  148 1  
   155   71  149 1  
   156   72  150 1  
   157   73  151 1  
   158   76  152 1  
   159   76  153 1  
   160   76  154 1  
   161   78  155 1  
   162   81  156 1  
   163   81  157 1  
   164   82  158 1  
   165   82  159 1  
   166   83  160 1  
   167   83  161 1  
@<TRIPOS>SUBSTRUCTURE
     1 PRO         1

