5ml2_ligand
  -I-interpret- 

 61 64  0  0  0  0  0  0  0  0999 V2000
  -22.7090   21.5240    7.3560 C   0  0  0  0  0
  -22.5910   20.4760    8.2600 C   0  0  0  0  0
  -21.8140   19.3940    7.9020 C   0  0  0  0  0
  -21.6780   18.1210    8.9980 Cl  0  0  0  0  0
  -21.1320   19.3440    6.7080 C   0  0  0  0  0
  -21.2330   20.4060    5.8220 C   0  0  0  0  0
  -22.0310   21.4990    6.1280 C   0  0  0  0  0
  -22.0840   22.5270    5.1840 C   0  0  0  0  0
  -23.1300   23.5300    5.5630 N   0  0  0  0  0
  -24.0560   23.4660    4.4200 C   0  0  0  0  0
  -24.4990   24.6290    3.6520 C   0  0  0  0  0
  -25.2790   23.7450    2.6420 C   0  0  0  0  0
  -25.8120   22.5480    3.4050 C   0  0  0  0  0
  -25.3390   22.7920    4.8090 C   0  0  0  0  0
  -22.5070   24.9270    6.4980 S   0  0  0  0  0
  -23.5040   25.1790    7.5640 O   0  0  0  0  0
  -21.1390   24.5540    6.9360 O   0  0  0  0  0
  -22.4100   26.3840    5.5270 C   0  0  0  0  0
  -21.4750   26.4250    4.5100 C   0  0  0  0  0
  -21.3790   27.5460    3.7000 C   0  0  0  0  0
  -23.2440   27.4740    5.7510 C   0  0  0  0  0
  -23.1450   28.5980    4.9390 C   0  0  0  0  0
  -22.2100   28.6260    3.9250 C   0  0  0  0  0
  -22.0730   30.0610    2.8860 S   0  0  0  0  0
  -21.8230   29.5770    1.5100 O   0  0  0  0  0
  -23.3100   30.8920    3.0770 O   0  0  0  0  0
  -20.7080   30.9900    3.3790 N   0  0  0  0  0
  -19.4340   30.2870    3.2140 C   0  0  0  0  0
  -18.4410   31.1050    2.5700 C   0  0  0  0  0
  -18.2850   31.1010    1.1830 C   0  0  0  0  0
  -17.2980   31.8730    0.5620 C   0  0  0  0  0
  -16.4380   32.6640    1.3270 C   0  0  0  0  0
  -16.5860   32.6780    2.7130 C   0  0  0  0  0
  -17.5690   31.8990    3.3200 C   0  0  0  0  0
  -23.3380   22.3789    7.6045 H   0  0  0  0  0
  -23.0978   20.5077    9.2245 H   0  0  0  0  0
  -20.5182   18.4778    6.4609 H   0  0  0  0  0
  -20.6831   20.3820    4.8812 H   0  0  0  0  0
  -22.3340   22.1034    4.2113 H   0  0  0  0  0
  -21.1142   23.0230    5.1442 H   0  0  0  0  0
  -23.3628   22.9556    3.7513 H   0  0  0  0  0
  -23.7477   25.3202    3.2701 H   0  0  0  0  0
  -25.0329   25.4253    4.1706 H   0  0  0  0  0
  -24.6248   23.4217    1.8323 H   0  0  0  0  0
  -26.0977   24.3081    2.1940 H   0  0  0  0  0
  -25.4544   21.6008    3.0012 H   0  0  0  0  0
  -26.8962   22.4576    3.3381 H   0  0  0  0  0
  -26.0087   23.3516    5.4620 H   0  0  0  0  0
  -25.2579   21.9199    5.4578 H   0  0  0  0  0
  -20.8126   25.5753    4.3447 H   0  0  0  0  0
  -20.6510   27.5749    2.8893 H   0  0  0  0  0
  -23.9731   27.4471    6.5608 H   0  0  0  0  0
  -23.8022   29.4521    5.1025 H   0  0  0  0  0
  -20.7804   31.9375    3.7497 H   0  0  0  0  0
  -19.6086   29.4109    2.5894 H   0  0  0  0  0
  -19.0634   30.0201    4.2037 H   0  0  0  0  0
  -18.9448   30.4846    0.5724 H   0  0  0  0  0
  -17.1995   31.8573   -0.5234 H   0  0  0  0  0
  -15.6627   33.2615    0.8474 H   0  0  0  0  0
  -15.9312   33.2998    3.3234 H   0  0  0  0  0
  -17.6601   31.9091    4.4061 H   0  0  0  0  0
  1  2  4  0  0  0
  1  7  4  0  0  0
  2  3  4  0  0  0
  3  4  1  0  0  0
  3  5  4  0  0  0
  5  6  4  0  0  0
  6  7  4  0  0  0
  7  8  1  0  0  0
  8  9  1  0  0  0
  9 10  1  0  0  0
  9 15  1  0  0  0
 10 11  1  0  0  0
 10 14  1  0  0  0
 11 12  1  0  0  0
 12 13  1  0  0  0
 13 14  1  0  0  0
 15 16  2  0  0  0
 15 17  2  0  0  0
 15 18  1  0  0  0
 18 19  4  0  0  0
 18 21  4  0  0  0
 19 20  4  0  0  0
 20 23  4  0  0  0
 21 22  4  0  0  0
 22 23  4  0  0  0
 23 24  1  0  0  0
 24 25  2  0  0  0
 24 26  2  0  0  0
 24 27  1  0  0  0
 27 28  1  0  0  0
 28 29  1  0  0  0
 29 30  4  0  0  0
 29 34  4  0  0  0
 30 31  4  0  0  0
 31 32  4  0  0  0
 32 33  4  0  0  0
 33 34  4  0  0  0
  1 35  1  0  0  0
  2 36  1  0  0  0
  5 37  1  0  0  0
  6 38  1  0  0  0
  8 39  1  0  0  0
  8 40  1  0  0  0
 10 41  1  0  0  0
 11 42  1  0  0  0
 11 43  1  0  0  0
 12 44  1  0  0  0
 12 45  1  0  0  0
 13 46  1  0  0  0
 13 47  1  0  0  0
 14 48  1  0  0  0
 14 49  1  0  0  0
 19 50  1  0  0  0
 20 51  1  0  0  0
 21 52  1  0  0  0
 22 53  1  0  0  0
 27 54  1  0  0  0
 28 55  1  0  0  0
 28 56  1  0  0  0
 30 57  1  0  0  0
 31 58  1  0  0  0
 32 59  1  0  0  0
 33 60  1  0  0  0
 34 61  1  0  0  0
M  END
$$$$
