4dmw_ligand
  -I-interpret- 

 39 40  0  0  0  0  0  0  0  0999 V2000
    6.3050   27.2570   18.0250 N   0  0  0  0  0
    4.9930   26.9780   18.3420 C   0  0  0  0  0
    4.3260   25.9570   17.6910 N   0  0  0  0  0
    4.9710   25.2060   16.7210 C   0  0  0  0  0
    6.3020   25.4940   16.4130 C   0  0  0  0  0
    6.8640   26.6730   16.9140 C   0  0  0  0  0
    4.4270   27.6460   19.2030 O   0  0  0  0  0
    4.3690   24.2920   16.1480 O   0  0  0  0  0
    6.9690   28.3440   18.7520 C   0  0  0  0  0
    7.4760   27.7480   20.0460 C   0  0  0  0  0
    7.2660   28.7250   21.0540 O   0  0  0  0  0
    8.9460   27.4820   19.7530 C   0  0  0  0  0
    9.2780   28.6670   18.8430 C   0  0  0  0  0
    8.0980   28.8410   18.0600 O   0  0  0  0  0
    9.7480   27.4380   20.9210 O   0  0  0  0  0
   10.4920   28.4290   17.9420 C   0  0  0  0  0
   10.1870   27.4200   16.9990 O   0  0  0  0  0
   11.3580   26.5430   16.3130 P   0  0  0  0  0
   10.7930   25.2890   15.7220 O   0  0  0  0  0
   12.3500   26.1990   17.3680 O   0  0  0  0  0
   11.9690   27.5560   15.2090 O   0  0  0  0  0
   13.4880   28.1070   15.0500 P   0  0  0  0  0
   13.6520   28.7700   13.7290 O   0  0  0  0  0
   14.4890   27.0190   15.1070 O   0  0  0  0  0
   13.8110   29.0900   16.1170 O   0  0  0  0  0
    3.3541   25.7553   17.9258 H   0  0  0  0  0
    6.8903   24.8151   15.7957 H   0  0  0  0  0
    7.7319   27.1214   16.4305 H   0  0  0  0  0
    6.2598   29.1607   18.8866 H   0  0  0  0  0
    6.9901   26.8336   20.3865 H   0  0  0  0  0
    7.5758   28.3854   21.8968 H   0  0  0  0  0
    9.1402   26.5074   19.3051 H   0  0  0  0  0
    9.5499   29.5431   19.4318 H   0  0  0  0  0
   10.6603   27.2680   20.6752 H   0  0  0  0  0
   11.3402   28.1144   18.5500 H   0  0  0  0  0
   10.7435   29.3517   17.4191 H   0  0  0  0  0
   10.1541   25.5164   15.0425 H   0  0  0  0  0
   13.0176   29.4862   13.6507 H   0  0  0  0  0
   13.1710   29.8052   16.0960 H   0  0  0  0  0
  1  2  1  0  0  0
  1  6  1  0  0  0
  1  9  1  0  0  0
  2  3  1  0  0  0
  2  7  2  0  0  0
  3  4  1  0  0  0
  4  5  1  0  0  0
  4  8  2  0  0  0
  5  6  2  0  0  0
  9 10  1  0  0  0
  9 14  1  0  0  0
 10 11  1  0  0  0
 10 12  1  0  0  0
 12 13  1  0  0  0
 12 15  1  0  0  0
 13 14  1  0  0  0
 13 16  1  0  0  0
 16 17  1  0  0  0
 17 18  1  0  0  0
 18 19  1  0  0  0
 18 20  2  0  0  0
 18 21  1  0  0  0
 21 22  1  0  0  0
 22 23  1  0  0  0
 22 24  2  0  0  0
 22 25  1  0  0  0
  3 26  1  0  0  0
  5 27  1  0  0  0
  6 28  1  0  0  0
  9 29  1  0  0  0
 10 30  1  0  0  0
 11 31  1  0  0  0
 12 32  1  0  0  0
 13 33  1  0  0  0
 15 34  1  0  0  0
 16 35  1  0  0  0
 16 36  1  0  0  0
 19 37  1  0  0  0
 23 38  1  0  0  0
 25 39  1  0  0  0
M  END
$$$$
