### 
### Created by X-TOOL on Mon Sep 10 21:13:00 2018
### 

@<TRIPOS>MOLECULE
3esj_ligand
   31    33     1     0     0
SMALL
GAST_HUCK


@<TRIPOS>ATOM
      1 O2          7.1860   31.9020   13.7680 O.2       1 CC7        -0.3777
      2 C2          7.5130   30.7710   13.4550 C.2       1 CC7         0.3488
      3 N3          6.7530   29.7220   13.7820 N.am      1 CC7        -0.1924
      4 C4          7.1180   28.4830   13.4370 C.2       1 CC7         0.0853
      5 N4          6.3460   27.4900   13.7790 N.2       1 CC7        -0.4291
      6 C5          8.2780   28.2370   12.7210 C.2       1 CC7         0.0019
      7 C6          9.0790   29.3090   12.3530 C.2       1 CC7         0.0739
      8 N1          8.6740   30.5960   12.7440 N.am      1 CC7        -0.1467
      9 C1'         9.4330   31.7930   12.4090 C.3       1 CC7         0.2113
     10 O4'         9.0060   32.0570   11.0650 O.3       1 CC7        -0.3348
     11 C4'        10.1340   32.5570   10.4090 C.3       1 CC7         0.1243
     12 C5'        10.0490   32.3200    8.9070 C.3       1 CC7         0.1128
     13 O5'        11.3270   32.5710    8.3130 O.3       1 CC7        -0.2514
     14 P          12.6700   31.9050    8.9540 P.3       1 CC7         0.2557
     15 O2P        12.5170   30.3360    8.7810 O.co2     1 CC7        -0.6177
     16 O1P        13.8910   32.5090    8.3770 O.co2     1 CC7        -0.6177
     17 O3'        12.4840   32.0200   10.4900 O.3       1 CC7        -0.2453
     18 C3'        11.1870   31.5810   10.9030 C.3       1 CC7         0.1541
     19 C2'        10.9430   31.6450   12.3850 C.3       1 CC7         0.1453
     20 O2'        11.4810   32.8460   12.8880 O.3       1 CC7        -0.3831
     21 H1          5.9033   29.8649   14.2895 H         1 CC7         0.2412
     22 H2          6.5989   26.5463   13.5308 H         1 CC7         0.0340
     23 H3          8.5568   27.2194   12.4513 H         1 CC7         0.0330
     24 H4          9.9922   29.1573   11.7795 H         1 CC7         0.1288
     25 H5          9.1643   32.6121   13.0923 H         1 CC7         0.1013
     26 H6         10.3415   33.6098   10.6508 H         1 CC7         0.0655
     27 H7          9.3016   32.9986    8.4701 H         1 CC7         0.0647
     28 H8          9.7539   31.2777    8.7160 H         1 CC7         0.0647
     29 H9         11.0144   30.5637   10.5220 H         1 CC7         0.0712
     30 H10        11.3139   30.7638   12.9289 H         1 CC7         0.0681
     31 H11        12.4149   32.8700   12.7156 H         1 CC7         0.2102
@<TRIPOS>BOND
     1    1    2 2  
     2    2    3 am 
     3    2    8 am 
     4    3    4 1  
     5    4    5 2  
     6    4    6 1  
     7    6    7 2  
     8    7    8 1  
     9    8    9 1  
    10    9   10 1  
    11    9   19 1  
    12   10   11 1  
    13   11   12 1  
    14   11   18 1  
    15   12   13 1  
    16   13   14 1  
    17   14   15 ar 
    18   14   16 ar 
    19   14   17 1  
    20   17   18 1  
    21   18   19 1  
    22   19   20 1  
    23    3   21 1  
    24    5   22 1  
    25    6   23 1  
    26    7   24 1  
    27    9   25 1  
    28   11   26 1  
    29   12   27 1  
    30   12   28 1  
    31   18   29 1  
    32   19   30 1  
    33   20   31 1  
@<TRIPOS>SUBSTRUCTURE
     1 CC7         1

