5ywx_ligand
  -I-interpret- 

 44 47  0  0  0  0  0  0  0  0999 V2000
   -6.1570    6.8280  -14.3780 C   0  0  0  0  0
   -5.4640    4.6210  -13.7180 C   0  0  0  0  0
   -5.9570    7.2560  -13.0760 C   0  0  0  0  0
   -5.4880    6.3470  -12.1260 C   0  0  0  0  0
   -7.1680   -3.1150  -16.7400 C   0  0  0  0  0
   -4.6720    1.0370  -13.2710 C   0  0  0  0  0
   -5.9410    5.4960  -14.7000 C   0  0  0  0  0
   -4.9810   -0.9640  -14.7500 C   0  0  0  0  0
   -5.2810    3.1790  -14.0020 C   0  0  0  0  0
   -7.4700   -4.4260  -17.1610 C   0  0  0  0  0
   -4.8350   -7.0220  -18.2590 O   0  0  0  0  0
   -5.9530   -7.4480  -18.0600 C   0  0  0  0  0
   -6.4870   -8.6920  -18.7220 C   0  0  0  0  0
   -7.9890   -8.5440  -18.4980 C   0  0  0  0  0
   -8.1620   -7.1570  -17.8670 C   0  0  0  0  0
   -6.8640   -6.8530  -17.2180 N   0  0  0  0  0
   -6.6140   -5.4890  -16.8570 C   0  0  0  0  0
   -5.4750   -5.1850  -16.1000 C   0  0  0  0  0
   -5.1860   -3.8590  -15.6920 C   0  0  0  0  0
   -6.0410   -2.8100  -15.9900 C   0  0  0  0  0
   -5.8710   -1.4970  -15.6210 N   0  0  0  0  0
   -4.1490   -1.5670  -14.0890 O   0  0  0  0  0
   -5.0670    0.5250  -14.5000 C   0  0  0  0  0
   -4.7910    2.3490  -13.0410 N   0  0  0  0  0
   -5.5730    1.3880  -15.4560 C   0  0  0  0  0
   -5.6750    2.6910  -15.2000 N   0  0  0  0  0
   -5.2700    5.0460  -12.4690 N   0  0  0  0  0
   -6.4816    7.5324  -15.1438 H   0  0  0  0  0
   -6.1631    8.2893  -12.7967 H   0  0  0  0  0
   -5.2954    6.6790  -11.1058 H   0  0  0  0  0
   -7.8473   -2.3081  -17.0147 H   0  0  0  0  0
   -4.2695    0.3770  -12.5026 H   0  0  0  0  0
   -6.1410    5.1345  -15.7087 H   0  0  0  0  0
   -8.3808   -4.6131  -17.7298 H   0  0  0  0  0
   -6.0757   -9.6134  -18.3096 H   0  0  0  0  0
   -6.2115   -8.7762  -19.7732 H   0  0  0  0  0
   -8.3809   -9.3319  -17.8548 H   0  0  0  0  0
   -8.5472   -8.6362  -19.4297 H   0  0  0  0  0
   -8.9810   -7.1445  -17.1478 H   0  0  0  0  0
   -8.4202   -6.4072  -18.6148 H   0  0  0  0  0
   -4.7943   -5.9882  -15.8179 H   0  0  0  0  0
   -4.2722   -3.6601  -15.1321 H   0  0  0  0  0
   -6.5032   -0.8310  -16.0650 H   0  0  0  0  0
   -5.8898    0.9993  -16.4238 H   0  0  0  0  0
  1  3  4  0  0  0
  7  1  4  0  0  0
  2  7  4  0  0  0
  9  2  1  0  0  0
  2 27  4  0  0  0
  4  3  4  0  0  0
 27  4  4  0  0  0
  5 10  4  0  0  0
 20  5  4  0  0  0
 23  6  4  0  0  0
  6 24  4  0  0  0
 21  8  1  0  0  0
  8 22  2  0  0  0
  8 23  1  0  0  0
 24  9  4  0  0  0
  9 26  4  0  0  0
 10 17  4  0  0  0
 12 11  2  0  0  0
 12 13  1  0  0  0
 16 12  1  0  0  0
 14 13  1  0  0  0
 15 14  1  0  0  0
 16 15  1  0  0  0
 17 16  1  0  0  0
 18 17  4  0  0  0
 19 18  4  0  0  0
 20 19  4  0  0  0
 20 21  1  0  0  0
 23 25  4  0  0  0
 25 26  4  0  0  0
  1 28  1  0  0  0
  3 29  1  0  0  0
  4 30  1  0  0  0
  5 31  1  0  0  0
  6 32  1  0  0  0
  7 33  1  0  0  0
 10 34  1  0  0  0
 13 35  1  0  0  0
 13 36  1  0  0  0
 14 37  1  0  0  0
 14 38  1  0  0  0
 15 39  1  0  0  0
 15 40  1  0  0  0
 18 41  1  0  0  0
 19 42  1  0  0  0
 21 43  1  0  0  0
 25 44  1  0  0  0
M  END
$$$$
