5c7n_ligand
  -I-interpret- 

 48 50  0  0  0  0  0  0  0  0999 V2000
   13.1220    1.9570   -3.5690 C   0  0  0  0  0
   14.5100    1.5230   -5.5020 N   0  0  0  0  0
   12.3480    0.6060   -6.9320 C   0  0  0  0  0
   10.0500    0.0770   -7.3890 C   0  0  0  0  0
    6.8180   -0.7760   -8.7670 C   0  0  0  0  0
   12.2090    1.0570   -5.6140 C   0  0  0  0  0
   17.0580    1.4040   -7.1680 C   0  0  0  0  0
   11.5790    2.3660   -1.7480 C   0  0  0  0  0
   12.3650    3.2040    0.3640 C   0  0  0  0  0
   12.6250    2.7910   -0.9400 C   0  0  0  0  0
   13.9250    2.8040   -1.4440 C   0  0  0  0  0
   14.8670    3.2260   -0.5800 N   0  0  0  0  0
   16.3520    3.7920   -1.1220 S   0  0  0  0  0
   17.3060    4.3660    0.2660 C   0  0  0  0  0
   17.1350    2.6750   -1.8270 O   0  0  0  0  0
   16.1400    4.9600   -2.0880 O   0  0  0  0  0
   14.1790    2.3870   -2.7570 C   0  0  0  0  0
   13.3090    1.5210   -4.8910 C   0  0  0  0  0
   14.5760    1.0980   -6.7460 N   0  0  0  0  0
   13.5620    0.6430   -7.4800 C   0  0  0  0  0
   11.3650    0.1620   -7.7440 N   0  0  0  0  0
    9.1490   -0.3420   -8.3170 O   0  0  0  0  0
    7.8220   -0.0570   -7.8670 C   0  0  0  0  0
    9.6320    0.3250   -6.2580 O   0  0  0  0  0
   14.0380    0.2990   -8.6850 N   0  0  0  0  0
   15.2680    0.5090   -8.7250 N   0  0  0  0  0
   15.6330    1.0040   -7.5440 C   0  0  0  0  0
   11.8280    1.9530   -3.0510 C   0  0  0  0  0
    6.9383   -0.4289   -9.7932 H   0  0  0  0  0
    6.9962   -1.8504   -8.7222 H   0  0  0  0  0
    5.8058   -0.5598   -8.4253 H   0  0  0  0  0
   11.2253    1.0456   -5.1446 H   0  0  0  0  0
   17.0809    2.4629   -6.9107 H   0  0  0  0  0
   17.3859    0.8137   -6.3124 H   0  0  0  0  0
   17.7208    1.2198   -8.0135 H   0  0  0  0  0
   10.5607    2.3563   -1.3594 H   0  0  0  0  0
   11.6800    4.0517    0.3455 H   0  0  0  0  0
   11.9138    2.3827    0.9207 H   0  0  0  0  0
   13.2984    3.4998    0.8430 H   0  0  0  0  0
   14.6753    3.2015    0.4215 H   0  0  0  0  0
   17.4756    3.5390    0.9555 H   0  0  0  0  0
   18.2636    4.7491   -0.0865 H   0  0  0  0  0
   16.7611    5.1602    0.7762 H   0  0  0  0  0
   15.1972    2.3972   -3.1459 H   0  0  0  0  0
   11.6227   -0.1297   -8.6868 H   0  0  0  0  0
    7.7032   -0.4016   -6.8398 H   0  0  0  0  0
    7.6454    1.0178   -7.9092 H   0  0  0  0  0
   10.9997    1.6212   -3.6770 H   0  0  0  0  0
  1 17  4  0  0  0
 18  1  1  0  0  0
  1 28  4  0  0  0
 18  2  4  0  0  0
 19  2  4  0  0  0
  3  6  4  0  0  0
  3 20  4  0  0  0
 21  3  1  0  0  0
  4 21  1  0  0  0
 22  4  1  0  0  0
  4 24  2  0  0  0
 23  5  1  0  0  0
  6 18  4  0  0  0
 27  7  1  0  0  0
  8 10  4  0  0  0
 28  8  4  0  0  0
 10  9  1  0  0  0
 11 10  4  0  0  0
 11 12  1  0  0  0
 17 11  4  0  0  0
 12 13  1  0  0  0
 13 14  1  0  0  0
 13 15  2  0  0  0
 13 16  2  0  0  0
 20 19  4  0  0  0
 19 27  4  0  0  0
 20 25  4  0  0  0
 22 23  1  0  0  0
 25 26  4  0  0  0
 26 27  4  0  0  0
  5 29  1  0  0  0
  5 30  1  0  0  0
  5 31  1  0  0  0
  6 32  1  0  0  0
  7 33  1  0  0  0
  7 34  1  0  0  0
  7 35  1  0  0  0
  8 36  1  0  0  0
  9 37  1  0  0  0
  9 38  1  0  0  0
  9 39  1  0  0  0
 12 40  1  0  0  0
 14 41  1  0  0  0
 14 42  1  0  0  0
 14 43  1  0  0  0
 17 44  1  0  0  0
 21 45  1  0  0  0
 23 46  1  0  0  0
 23 47  1  0  0  0
 28 48  1  0  0  0
M  END
$$$$
