1q6k_ligand
  -I-interpret- 

 40 40  0  0  0  0  0  0  0  0999 V2000
   74.0060   -9.5770  134.8660 N   0  0  0  0  0
   74.6420  -10.5640  133.9230 C   0  0  0  0  0
   76.0590  -10.0470  133.4990 C   0  0  0  0  0
   77.1530  -10.6140  133.6790 O   0  0  0  0  0
   73.4450  -12.1480  132.2310 C   0  0  0  0  0
   72.9940  -12.4000  130.7750 C   0  0  0  0  0
   72.2040  -11.2040  130.2010 C   0  0  0  0  0
   73.0620   -9.9340  130.1850 C   0  0  0  0  0
   73.9480   -9.7260  131.4440 C   0  0  0  0  0
   73.6970  -10.6950  132.6510 C   0  0  0  0  0
   73.2600   -9.8590  135.9960 C   0  0  0  0  0
   73.2230  -10.9600  136.5700 O   0  0  0  0  0
   72.5150   -8.7540  136.4410 O   0  0  0  0  0
   71.2700   -7.1310  137.6900 C   0  0  0  0  0
   71.8710   -8.5670  137.7430 C   0  0  0  0  0
   72.9250   -8.5410  138.8700 C   0  0  0  0  0
   70.7390   -9.6040  137.9350 C   0  0  0  0  0
   74.1405   -8.5899  134.6468 H   0  0  0  0  0
   74.7629  -11.5359  134.4014 H   0  0  0  0  0
   76.0907   -9.0838  132.9898 H   0  0  0  0  0
   74.4049  -12.6542  132.3332 H   0  0  0  0  0
   72.6241  -12.4969  132.8575 H   0  0  0  0  0
   72.3439  -13.2749  130.7654 H   0  0  0  0  0
   73.8836  -12.5472  130.1626 H   0  0  0  0  0
   71.3313  -11.0279  130.8298 H   0  0  0  0  0
   71.9089  -11.4389  129.1784 H   0  0  0  0  0
   72.3742   -9.0895  130.1406 H   0  0  0  0  0
   73.7383  -10.0212  129.3346 H   0  0  0  0  0
   73.7186   -8.7253  131.8101 H   0  0  0  0  0
   74.9735   -9.9072  131.1222 H   0  0  0  0  0
   72.7575  -10.3013  133.0390 H   0  0  0  0  0
   72.0706   -6.4092  137.5282 H   0  0  0  0  0
   70.5523   -7.0689  136.8720 H   0  0  0  0  0
   70.7680   -6.9136  138.6328 H   0  0  0  0  0
   73.4709   -9.4844  138.8770 H   0  0  0  0  0
   73.6197   -7.7191  138.6971 H   0  0  0  0  0
   72.4262   -8.4012  139.8290 H   0  0  0  0  0
   69.9955   -9.4783  137.1479 H   0  0  0  0  0
   71.1568  -10.6095  137.8847 H   0  0  0  0  0
   70.2700   -9.4522  138.9072 H   0  0  0  0  0
  2  1  1  0  0  0
  1 11  1  0  0  0
  2  3  1  0  0  0
 10  2  1  0  0  0
  3  4  2  0  0  0
  5  6  1  0  0  0
  5 10  1  0  0  0
  6  7  1  0  0  0
  7  8  1  0  0  0
  8  9  1  0  0  0
  9 10  1  0  0  0
 11 12  2  0  0  0
 11 13  1  0  0  0
 13 15  1  0  0  0
 15 14  1  0  0  0
 15 16  1  0  0  0
 15 17  1  0  0  0
  1 18  1  0  0  0
  2 19  1  0  0  0
  3 20  1  0  0  0
  5 21  1  0  0  0
  5 22  1  0  0  0
  6 23  1  0  0  0
  6 24  1  0  0  0
  7 25  1  0  0  0
  7 26  1  0  0  0
  8 27  1  0  0  0
  8 28  1  0  0  0
  9 29  1  0  0  0
  9 30  1  0  0  0
 10 31  1  0  0  0
 14 32  1  0  0  0
 14 33  1  0  0  0
 14 34  1  0  0  0
 16 35  1  0  0  0
 16 36  1  0  0  0
 16 37  1  0  0  0
 17 38  1  0  0  0
 17 39  1  0  0  0
 17 40  1  0  0  0
M  END
$$$$
