4ccd_ligand
  -I-interpret- 

 22 22  0  0  0  0  0  0  0  0999 V2000
   77.2510   90.5140   18.2130 C   0  0  0  0  0
   76.8220   90.3300   19.6520 C   0  0  0  0  0
   77.9510   90.3010   20.5570 C   0  0  0  0  0
   78.9410   89.3040   20.2000 C   0  0  0  0  0
   79.4050   89.4280   18.7750 C   0  0  0  0  0
   80.3200   88.3470   18.3240 C   0  0  0  0  0
   77.5260   90.1080   21.9390 O   0  0  0  0  0
   78.3780   88.0190   20.4240 O   0  0  0  0  0
   78.1930   89.4600   17.8780 O   0  0  0  0  0
   80.8620   88.5340   17.0500 O   0  0  0  0  0
   77.7209   91.4892   18.0853 H   0  0  0  0  0
   76.3834   90.4622   17.5552 H   0  0  0  0  0
   76.2979   89.3776   19.7315 H   0  0  0  0  0
   76.1867   91.1717   19.9277 H   0  0  0  0  0
   78.4255   91.2779   20.4644 H   0  0  0  0  0
   79.8228   89.4577   20.8221 H   0  0  0  0  0
   79.9850   90.3491   18.7173 H   0  0  0  0  0
   79.7329   87.4294   18.2873 H   0  0  0  0  0
   81.1553   88.3260   19.0240 H   0  0  0  0  0
   76.8710   90.7718   22.1669 H   0  0  0  0  0
   78.0863   87.9533   21.3362 H   0  0  0  0  0
   81.4377   87.7959   16.8369 H   0  0  0  0  0
  1  2  1  0  0  0
  1  9  1  0  0  0
  2  3  1  0  0  0
  3  4  1  0  0  0
  3  7  1  0  0  0
  4  5  1  0  0  0
  4  8  1  0  0  0
  5  6  1  0  0  0
  5  9  1  0  0  0
  6 10  1  0  0  0
  1 11  1  0  0  0
  1 12  1  0  0  0
  2 13  1  0  0  0
  2 14  1  0  0  0
  3 15  1  0  0  0
  4 16  1  0  0  0
  5 17  1  0  0  0
  6 18  1  0  0  0
  6 19  1  0  0  0
  7 20  1  0  0  0
  8 21  1  0  0  0
 10 22  1  0  0  0
M  END
$$$$
