3e6k_ligand

Created by X-TOOL on Fri Nov 18 15:04:19 2016
 32 30  0  0  0  0  0  0  0  0999 V2000
   24.3930   -8.5970    4.1210  N 0  3  0  4  0  4
   24.1980   -8.7220    5.5910  C 0  0  0  2  0  4
   25.1950   -9.8240    6.0510  C 0  5  0  1  0  3
   25.3420  -10.2190    7.1710  O 0  0  0  1  0  1
   25.9080  -10.3160    5.0130  O 0  0  0  1  0  1
   22.7160   -9.1240    5.9090  C 0  0  0  3  0  4
   22.3140  -10.5610    5.5820  C 0  0  0  3  0  4
   20.8170  -10.7990    5.5050  C 0  0  0  3  0  4
   20.4880  -12.2860    5.3790  C 0  0  0  4  0  5
   18.9680  -12.6990    5.2750  B 0  0  0  1  0  3
   18.8290  -14.1220    5.5250  O 0  0  0  3  0  2
   18.4720  -12.4750    3.9360  O 0  0  0  3  0  3
   18.0820  -11.9940    6.1780  O 0  0  0  3  0  3
   23.7703   -7.8922    3.7582  H 0  0  0  1  0  1
   24.1939   -9.4809    3.6792  H 0  0  0  1  0  1
   25.3469   -8.3331    3.9298  H 0  0  0  1  0  1
   24.4296   -7.7696    6.0903  H 0  0  0  1  0  1
   22.0578   -8.4544    5.3360  H 0  0  0  1  0  1
   22.5510   -8.9676    6.9852  H 0  0  0  1  0  1
   22.7256  -11.2180    6.3624  H 0  0  0  1  0  1
   22.7536  -10.8269    4.6094  H 0  0  0  1  0  1
   20.4163  -10.2695    4.6281  H 0  0  0  1  0  1
   20.3458  -10.4056    6.4178  H 0  0  0  1  0  1
   20.7505  -12.6353    4.3695  H 0  0  0  1  0  1
   19.4126  -12.4395    5.5520  H 0  0  0  1  0  1
   21.0641  -12.8534    6.1248  H 0  0  0  1  0  1
   19.7467  -13.8763    5.5193  H 0  0  0  1  0  1
   18.6341  -14.6365    4.7505  H 0  0  0  1  0  1
   19.0309  -12.9246    3.3131  H 0  0  0  1  0  1
   19.0309  -12.9247    3.3131  H 0  0  0  1  0  1
   18.3780  -12.1189    7.0721  H 0  0  0  1  0  1
   18.3780  -12.1189    7.0720  H 0  0  0  1  0  1
  1  2  1  0  0  2
  2  3  1  0  0  2
  2  6  1  0  0  2
  3  4  2  0  0  2
  3  5  2  0  0  2
  6  7  1  0  0  2
  7  8  1  0  0  2
  8  9  1  0  0  2
  9 10  1  0  0  2
 10 12  1  0  0  2
 10 13  1  0  0  2
  1 14  1  0  0  2
  1 15  1  0  0  2
  1 16  1  0  0  2
  2 17  1  0  0  2
  6 18  1  0  0  2
  6 19  1  0  0  2
  7 20  1  0  0  2
  7 21  1  0  0  2
  8 22  1  0  0  2
  8 23  1  0  0  2
  9 24  1  0  0  2
  9 25  1  0  0  2
  9 26  1  0  0  2
 11 27  1  0  0  2
 11 28  1  0  0  2
 12 29  1  0  0  2
 12 30  1  0  0  2
 13 31  1  0  0  2
 13 32  1  0  0  2
M  END
> <MOLECULAR_FORMULA>
C6H19NO5B

> <MOLECULAR_WEIGHT>
195.9

> <NUM_HB_ATOMS>
6  

> <NUM_ROTOR>
5  

> <XLOGP2>
-2.98

$$$$
