#	Name:			3e6k_ligand
#	Creating user name:	wangrx
#	Creation time:		Wed Aug  4 16:37:34 2021

#	Modifying user name:	wangrx
#	Modification time:	Wed Aug  4 16:38:11 2021

@<TRIPOS>MOLECULE
3e6k_ligand
   30    29     1     0     0
SMALL
GAST_HUCK


@<TRIPOS>ATOM
      1 N          24.3930   -8.5970    4.1210 N.4       1 ABH         0.2327 
      2 CA         24.1980   -8.7220    5.5910 C.3       1 ABH         0.0282 
      3 C          25.1950   -9.8240    6.0510 C.2       1 ABH         0.0844 
      4 O          25.3420  -10.2190    7.1710 O.co2     1 ABH        -0.5643 
      5 OT         25.9080  -10.3160    5.0130 O.co2     1 ABH        -0.5643 
      6 CB         22.7160   -9.1240    5.9090 C.3       1 ABH         0.0001 
      7 CG         22.3140  -10.5610    5.5820 C.3       1 ABH        -0.0736 
      8 CD         20.8170  -10.7990    5.5050 C.3       1 ABH        -0.1824 
      9 CE         20.4880  -12.2860    5.3790 C.3       1 ABH        -0.3457 
     10 B          18.9680  -12.6990    5.2750 B         1 ABH         3.0000 
     11 O2         18.8290  -14.1220    5.5250 O.3       1 ABH        -0.8710 
     12 O1         18.4720  -12.4750    3.9360 O.3       1 ABH        -0.4105 
     13 O3         18.0820  -11.9940    6.1780 O.3       1 ABH        -0.4105 
     14 H1         23.7703   -7.8922    3.7582 H         1 ABH         0.2010 
     15 H2         24.1939   -9.4809    3.6792 H         1 ABH         0.2010 
     16 H3         25.3469   -8.3331    3.9298 H         1 ABH         0.2010 
     17 H4         24.4296   -7.7696    6.0903 H         1 ABH         0.1024 
     18 H5         22.0578   -8.4544    5.3360 H         1 ABH         0.0338 
     19 H6         22.5510   -8.9676    6.9852 H         1 ABH         0.0338 
     20 H7         22.7256  -11.2180    6.3624 H         1 ABH         0.0244 
     21 H8         22.7536  -10.8269    4.6094 H         1 ABH         0.0244 
     22 H9         20.4163  -10.2695    4.6281 H         1 ABH        -0.0084 
     23 H10        20.3458  -10.4056    6.4178 H         1 ABH        -0.0084 
     24 H11        20.7505  -12.6353    4.3695 H         1 ABH        -0.2101 
     25 H13        21.0641  -12.8534    6.1248 H         1 ABH        -0.2101 
     26 H15        18.6341  -14.6365    4.7505 H         1 ABH        -0.1290 
     27 H16        19.0309  -12.9246    3.3131 H         1 ABH         0.2052 
     28 H17        19.0309  -12.9247    3.3131 H         1 ABH         0.2052 
     29 H18        18.3780  -12.1189    7.0721 H         1 ABH         0.2052 
     30 H19        18.3780  -12.1189    7.0720 H         1 ABH         0.2052 
@<TRIPOS>BOND
     1    1    2 1    
     2    2    3 1    
     3    2    6 1    
     4    3    4 ar   
     5    3    5 ar   
     6    6    7 1    
     7    7    8 1    
     8    8    9 1    
     9    9   10 1    
    10   10   12 1    
    11   10   13 1    
    12    1   14 1    
    13    1   15 1    
    14    1   16 1    
    15    2   17 1    
    16    6   18 1    
    17    6   19 1    
    18    7   20 1    
    19    7   21 1    
    20    8   22 1    
    21    8   23 1    
    22    9   24 1    
    23   10   11 1    
    24    9   25 1    
    25   11   26 1    
    26   12   27 1    
    27   12   28 1    
    28   13   29 1    
    29   13   30 1    
@<TRIPOS>SUBSTRUCTURE
     1 ABH         1 PERM              0 ****  ****    0 ROOT 
