1c12_ligand
  -I-interpret- 

 51 52  0  0  0  0  0  0  0  0999 V2000
   26.9270   62.5030  -10.7570 C   0  0  0  0  0
   27.3010   62.1280   -9.4520 C   0  0  0  0  0
   26.7680   62.8270   -8.3510 C   0  0  0  0  0
   26.1900   64.0210   -8.5340 C   0  0  0  0  0
   25.7490   64.4160   -9.7970 C   0  0  0  0  0
   26.1720   63.7000  -10.9170 C   0  0  0  0  0
   27.2110   62.6640   -6.9720 C   0  0  0  0  0
   26.5000   63.5520   -6.1160 C   0  0  0  0  0
   25.7730   64.5420   -7.1260 C   0  0  0  0  0
   24.2910   64.4450   -6.8940 C   0  0  0  0  0
   23.5320   65.3830   -7.8170 C   0  0  0  0  0
   23.8930   64.9020   -5.5050 C   0  0  0  0  0
   27.4390   64.2050   -5.2340 C   0  0  0  0  0
   26.8290   61.3240   -6.2400 C   0  0  0  0  0
   28.6570   62.6070   -6.7370 C   0  0  0  0  0
   27.3990   61.6090  -11.8910 C   0  0  0  0  0
   24.6860   65.1520  -12.4320 C   0  0  0  0  0
   23.4560   64.4000  -12.8000 C   0  0  0  0  0
   23.2500   64.4530  -14.2690 C   0  0  0  0  0
   22.0780   64.5390  -14.7490 O   0  0  0  0  0
   24.2630   64.4030  -15.0280 O   0  0  0  0  0
   25.8390   64.1960  -12.1920 C   0  0  0  0  0
   26.6210   63.9680  -13.1550 O   0  0  0  0  0
   27.9970   61.3039   -9.2951 H   0  0  0  0  0
   25.0833   65.2720   -9.9073 H   0  0  0  0  0
   25.7719   63.0778   -5.4579 H   0  0  0  0  0
   26.0414   65.5919   -7.0087 H   0  0  0  0  0
   24.0521   63.3944   -7.0592 H   0  0  0  0  0
   23.8488   66.4091   -7.6306 H   0  0  0  0  0
   23.7418   65.1192   -8.8536 H   0  0  0  0  0
   22.4627   65.2913   -7.6267 H   0  0  0  0  0
   24.3922   64.2798   -4.7622 H   0  0  0  0  0
   24.1887   65.9421   -5.3675 H   0  0  0  0  0
   22.8129   64.8117   -5.3898 H   0  0  0  0  0
   27.9578   63.4544   -4.6377 H   0  0  0  0  0
   28.1631   64.7645   -5.8262 H   0  0  0  0  0
   26.9023   64.8872   -4.5748 H   0  0  0  0  0
   27.1860   61.3592   -5.2107 H   0  0  0  0  0
   25.7456   61.2042   -6.2463 H   0  0  0  0  0
   27.2918   60.4839   -6.7579 H   0  0  0  0  0
   29.0871   63.5976   -6.8848 H   0  0  0  0  0
   28.8450   62.2765   -5.7155 H   0  0  0  0  0
   29.1101   61.9047   -7.4367 H   0  0  0  0  0
   28.4884   61.5743  -11.8952 H   0  0  0  0  0
   27.0027   60.6036  -11.7484 H   0  0  0  0  0
   27.0433   62.0099  -12.8401 H   0  0  0  0  0
   24.4970   65.7163  -11.5188 H   0  0  0  0  0
   24.9476   65.8256  -13.2481 H   0  0  0  0  0
   22.5976   64.8495  -12.3008 H   0  0  0  0  0
   23.5646   63.3606  -12.4901 H   0  0  0  0  0
   21.4407   64.5655  -14.0315 H   0  0  0  0  0
  1  2  4  0  0  0
  6  1  4  0  0  0
  1 16  1  0  0  0
  2  3  4  0  0  0
  4  3  4  0  0  0
  3  7  1  0  0  0
  5  4  4  0  0  0
  4  9  1  0  0  0
  6  5  4  0  0  0
 22  6  1  0  0  0
  8  7  1  0  0  0
  7 14  1  0  0  0
  7 15  1  0  0  0
  9  8  1  0  0  0
  8 13  1  0  0  0
  9 10  1  0  0  0
 10 11  1  0  0  0
 10 12  1  0  0  0
 17 18  1  0  0  0
 17 22  1  0  0  0
 18 19  1  0  0  0
 19 20  1  0  0  0
 19 21  2  0  0  0
 22 23  2  0  0  0
  2 24  1  0  0  0
  5 25  1  0  0  0
  8 26  1  0  0  0
  9 27  1  0  0  0
 10 28  1  0  0  0
 11 29  1  0  0  0
 11 30  1  0  0  0
 11 31  1  0  0  0
 12 32  1  0  0  0
 12 33  1  0  0  0
 12 34  1  0  0  0
 13 35  1  0  0  0
 13 36  1  0  0  0
 13 37  1  0  0  0
 14 38  1  0  0  0
 14 39  1  0  0  0
 14 40  1  0  0  0
 15 41  1  0  0  0
 15 42  1  0  0  0
 15 43  1  0  0  0
 16 44  1  0  0  0
 16 45  1  0  0  0
 16 46  1  0  0  0
 17 47  1  0  0  0
 17 48  1  0  0  0
 18 49  1  0  0  0
 18 50  1  0  0  0
 20 51  1  0  0  0
M  END
$$$$
