6d9x_ligand
  -I-interpret- 

 23 25  0  0  0  0  0  0  0  0999 V2000
   -9.7590   24.4710    1.9190 C   0  0  0  0  0
   -9.0450   26.5180    0.8760 C   0  0  0  0  0
   -8.9450   25.5940    1.9060 C   0  0  0  0  0
  -10.6700   24.2810    0.8960 C   0  0  0  0  0
   -9.9630   26.3300   -0.1470 C   0  0  0  0  0
  -12.4590   23.8360   -1.4950 N   0  0  0  0  0
  -11.7940   24.9830   -1.2360 C   0  0  0  0  0
  -13.2450   25.2870   -2.9220 N   0  0  0  0  0
  -13.3280   24.0410   -2.5300 C   0  0  0  0  0
  -12.2950   25.9380   -2.1360 C   0  0  0  0  0
  -10.7690   25.2010   -0.1430 C   0  0  0  0  0
  -14.0990   25.5250   -3.9520 C   0  0  0  0  0
  -14.3010   23.3590   -3.3370 C   0  0  0  0  0
  -14.7890   24.3350   -4.2510 C   0  0  0  0  0
   -9.6814   23.7448    2.7282 H   0  0  0  0  0
   -8.3991   27.3960    0.8705 H   0  0  0  0  0
   -8.2239   25.7511    2.7082 H   0  0  0  0  0
  -11.3159   23.4030    0.9038 H   0  0  0  0  0
  -10.0503   27.0640   -0.9480 H   0  0  0  0  0
  -11.9987   26.9846   -2.2063 H   0  0  0  0  0
  -14.2283   26.4795   -4.4622 H   0  0  0  0  0
  -14.6023   22.3140   -3.2647 H   0  0  0  0  0
  -15.5431   24.1904   -5.0246 H   0  0  0  0  0
  1  3  4  0  0  0
  4  1  4  0  0  0
  2  3  4  0  0  0
  5  2  4  0  0  0
 11  4  4  0  0  0
 11  5  4  0  0  0
  7  6  4  0  0  0
  6  9  4  0  0  0
  7 10  4  0  0  0
  7 11  1  0  0  0
  9  8  4  0  0  0
  8 10  4  0  0  0
  8 12  4  0  0  0
  9 13  4  0  0  0
 12 14  4  0  0  0
 13 14  4  0  0  0
  1 15  1  0  0  0
  2 16  1  0  0  0
  3 17  1  0  0  0
  4 18  1  0  0  0
  5 19  1  0  0  0
 10 20  1  0  0  0
 12 21  1  0  0  0
 13 22  1  0  0  0
 14 23  1  0  0  0
M  END
$$$$
