3os3_ligand
  -I-interpret- 

 51 52  0  0  0  0  0  0  0  0999 V2000
   10.3520   39.9670   -4.0330 C   0  0  0  0  0
   10.8010   39.1920   -2.9090 C   0  0  0  0  0
   10.0600   38.0610   -2.4880 C   0  0  0  0  0
    8.8900   37.7030   -3.1790 C   0  0  0  0  0
    5.0930   42.2850   -7.0380 C   0  0  0  0  0
    2.8890   43.4460   -7.7720 C   0  0  0  0  0
    7.4540   41.8220   -7.3590 C   0  0  0  0  0
   12.4970   38.3300    1.0000 C   0  0  0  0  0
    9.1590   39.6080   -4.7480 C   0  0  0  0  0
    8.7350   40.3840   -5.8700 N   0  0  0  0  0
    7.4930   40.9880   -6.2110 C   0  0  0  0  0
    8.1760   36.6490   -2.8080 F   0  0  0  0  0
    8.4520   38.4590   -4.2820 C   0  0  0  0  0
    7.3500   38.0690   -4.9010 F   0  0  0  0  0
    6.2770   40.8330   -5.4800 C   0  0  0  0  0
    5.0890   41.4690   -5.8910 C   0  0  0  0  0
    3.9030   42.9180   -7.4400 C   0  0  0  0  0
    6.2710   42.4630   -7.7850 C   0  0  0  0  0
    8.5650   41.9960   -8.0690 F   0  0  0  0  0
   10.4980   37.2420   -1.3530 C   0  0  0  0  0
   10.5830   37.6750   -0.1340 N   0  3  0  0  0
   11.7960   37.1980    0.4310 O   0  0  0  0  0
   11.7930   38.7880    2.2640 C   0  0  0  0  0
   12.3240   38.0480    3.3640 O   0  0  0  0  0
   11.1690   41.1330   -4.4430 C   0  0  0  0  0
   11.0330   41.5480   -5.5920 O   0  0  0  0  0
   12.0730   41.6930   -3.5450 N   0  0  0  0  0
   13.0530   42.6130   -4.0400 O   0  0  0  0  0
   14.2940   41.9210   -4.0560 C   0  0  0  0  0
   14.6330   41.6270   -5.4900 C   0  0  0  0  0
   15.6180   42.5490   -5.8890 O   0  0  0  0  0
   11.7116   39.4747   -2.3808 H   0  0  0  0  0
   12.5089   39.1465    0.2780 H   0  0  0  0  0
   13.5184   38.0367    1.2424 H   0  0  0  0  0
    9.4675   40.5348   -6.5636 H   0  0  0  0  0
    6.2673   40.2100   -4.5857 H   0  0  0  0  0
    4.1695   41.3296   -5.3225 H   0  0  0  0  0
    6.2705   43.0864   -8.6792 H   0  0  0  0  0
   11.5363   37.0232   -1.6023 H   0  0  0  0  0
    9.7138   36.4880   -1.2851 H   0  0  0  0  0
    9.7893   37.3383    0.4110 H   0  0  0  0  0
   10.5727   38.6949   -0.1255 H   0  0  0  0  0
   10.7202   38.6148    2.1790 H   0  0  0  0  0
   11.9549   39.8550    2.4173 H   0  0  0  0  0
   11.8895   38.3249    4.1740 H   0  0  0  0  0
   12.0383   41.4531   -2.5542 H   0  0  0  0  0
   14.2200   40.9951   -3.4857 H   0  0  0  0  0
   15.0741   42.5294   -3.5983 H   0  0  0  0  0
   13.7470   41.7199   -6.1180 H   0  0  0  0  0
   15.0018   40.6065   -5.5931 H   0  0  0  0  0
   15.8558   42.3853   -6.8046 H   0  0  0  0  0
  2  1  4  0  0  0
  1  9  4  0  0  0
  1 25  1  0  0  0
  3  2  4  0  0  0
  3  4  4  0  0  0
 20  3  1  0  0  0
  4 12  1  0  0  0
  4 13  4  0  0  0
 16  5  4  0  0  0
  5 17  1  0  0  0
 18  5  4  0  0  0
 17  6  3  0  0  0
 11  7  4  0  0  0
  7 18  4  0  0  0
  7 19  1  0  0  0
 22  8  1  0  0  0
  8 23  1  0  0  0
  9 10  1  0  0  0
 13  9  4  0  0  0
 10 11  1  0  0  0
 11 15  4  0  0  0
 13 14  1  0  0  0
 15 16  4  0  0  0
 21 20  1  0  0  0
 21 22  1  0  0  0
 23 24  1  0  0  0
 25 26  2  0  0  0
 25 27  1  0  0  0
 27 28  1  0  0  0
 28 29  1  0  0  0
 29 30  1  0  0  0
 30 31  1  0  0  0
  2 32  1  0  0  0
  8 33  1  0  0  0
  8 34  1  0  0  0
 10 35  1  0  0  0
 15 36  1  0  0  0
 16 37  1  0  0  0
 18 38  1  0  0  0
 20 39  1  0  0  0
 20 40  1  0  0  0
 21 41  1  0  0  0
 21 42  1  0  0  0
 23 43  1  0  0  0
 23 44  1  0  0  0
 24 45  1  0  0  0
 27 46  1  0  0  0
 29 47  1  0  0  0
 29 48  1  0  0  0
 30 49  1  0  0  0
 30 50  1  0  0  0
 31 51  1  0  0  0
M  END
$$$$
