2yiu_ligand
  -I-interpret- 

 79 80  0  0  0  0  0  0  0  0999 V2000
    3.5990  -39.4940  -40.1990 C   0  0  0  0  0
    3.1510  -38.8960  -41.3970 C   0  0  0  0  0
    2.5660  -39.7300  -42.5270 C   0  0  0  0  0
    3.2310  -37.5110  -41.5880 C   0  0  0  0  0
    3.8100  -36.7450  -40.5900 C   0  0  0  0  0
    4.0470  -35.3670  -40.7580 C   0  0  0  0  0
    4.3530  -33.3520  -42.0850 C   0  0  0  0  0
    4.6470  -34.6990  -39.6860 C   0  0  0  0  0
    5.0220  -35.3360  -38.5150 C   0  0  0  0  0
    5.7730  -33.1980  -37.5220 C   0  0  0  0  0
    4.7830  -36.6870  -38.3730 C   0  0  0  0  0
    4.1980  -37.3790  -39.4150 C   0  0  0  0  0
    3.6570  -41.0010  -39.8190 C   0  0  0  0  0
    2.3540  -41.6460  -39.3720 C   0  0  0  0  0
    2.5890  -42.9780  -38.5740 C   0  0  0  0  0
    1.2580  -43.6810  -38.2520 C   0  0  0  0  0
    0.1920  -42.9900  -37.3530 C   0  0  0  0  0
   -0.9770  -43.9330  -37.0680 C   0  0  0  0  0
   -1.9830  -43.0930  -36.6000 C   0  0  0  0  0
   -2.3660  -43.0760  -35.2590 C   0  0  0  0  0
   -3.3440  -42.1800  -34.8320 C   0  0  0  0  0
   -3.7530  -42.1510  -33.5010 C   0  0  0  0  0
   -4.7300  -41.2580  -33.0480 C   0  0  0  0  0
   -5.0970  -41.2760  -31.7290 C   0  0  0  0  0
   -6.1780  -40.2890  -31.3180 C   0  0  0  0  0
    3.4530  -44.0220  -39.2730 C   0  0  0  0  0
    0.4130  -45.3460  -39.6080 C   0  0  0  0  0
    0.7610  -42.5050  -36.0350 C   0  0  0  0  0
   -1.4910  -46.0120  -36.1170 C   0  0  0  0  0
   -5.4570  -40.2470  -33.9380 C   0  0  0  0  0
    4.0790  -38.6940  -39.2220 O   0  0  0  0  0
    2.8420  -36.9680  -42.6240 O   0  0  0  0  0
    3.6870  -34.6520  -41.9230 O   0  0  0  0  0
    5.6200  -34.6760  -37.4710 O   0  0  0  0  0
    5.1750  -37.3500  -37.2440 O   0  0  0  0  0
    0.7430  -43.9440  -39.5930 O   0  0  0  0  0
   -0.4990  -44.9720  -36.1340 O   0  0  0  0  0
    3.3102  -40.4494  -42.8688 H   0  0  0  0  0
    1.6846  -40.2605  -42.1666 H   0  0  0  0  0
    2.2855  -39.0755  -43.3523 H   0  0  0  0  0
    4.1087  -32.7119  -41.2372 H   0  0  0  0  0
    5.4318  -33.5010  -42.1304 H   0  0  0  0  0
    4.0107  -32.8822  -43.0071 H   0  0  0  0  0
    4.8278  -33.6279  -39.7762 H   0  0  0  0  0
    6.3753  -32.9261  -38.3888 H   0  0  0  0  0
    4.7896  -32.7347  -37.6015 H   0  0  0  0  0
    6.2659  -32.8535  -36.6129 H   0  0  0  0  0
    4.3326  -41.0689  -38.9663 H   0  0  0  0  0
    3.9558  -41.5271  -40.7257 H   0  0  0  0  0
    1.7725  -41.8843  -40.2626 H   0  0  0  0  0
    1.8387  -40.9454  -38.7150 H   0  0  0  0  0
    3.1152  -42.6334  -37.6838 H   0  0  0  0  0
    1.4623  -44.5322  -37.6026 H   0  0  0  0  0
   -0.1546  -42.1220  -37.9138 H   0  0  0  0  0
   -1.3729  -44.4927  -37.9154 H   0  0  0  0  0
   -2.4866  -42.4287  -37.3023 H   0  0  0  0  0
   -1.9025  -43.7603  -34.5484 H   0  0  0  0  0
   -3.7945  -41.4933  -35.5486 H   0  0  0  0  0
   -3.2991  -42.8436  -32.7922 H   0  0  0  0  0
   -4.6398  -41.9596  -31.0137 H   0  0  0  0  0
   -5.8377  -39.2737  -31.5217 H   0  0  0  0  0
   -7.0865  -40.4899  -31.8858 H   0  0  0  0  0
   -6.3821  -40.3983  -30.2529 H   0  0  0  0  0
    2.9850  -44.3072  -40.2152 H   0  0  0  0  0
    4.4401  -43.6031  -39.4683 H   0  0  0  0  0
    3.5493  -44.8993  -38.6334 H   0  0  0  0  0
    1.3094  -45.9312  -39.4025 H   0  0  0  0  0
   -0.3381  -45.5493  -38.8447 H   0  0  0  0  0
    0.0189  -45.6147  -40.5881 H   0  0  0  0  0
    1.1656  -43.3524  -35.4816 H   0  0  0  0  0
    1.5544  -41.7827  -36.2271 H   0  0  0  0  0
   -0.0291  -42.0322  -35.4516 H   0  0  0  0  0
   -2.4422  -45.5996  -35.7806 H   0  0  0  0  0
   -1.6053  -46.4198  -37.1214 H   0  0  0  0  0
   -1.1752  -46.8025  -35.4362 H   0  0  0  0  0
   -6.5265  -40.4570  -33.9256 H   0  0  0  0  0
   -5.2788  -39.2396  -33.5618 H   0  0  0  0  0
   -5.0815  -40.3270  -34.9582 H   0  0  0  0  0
    4.9298  -38.2753  -37.3163 H   0  0  0  0  0
  1  2  2  0  0  0
  1 13  1  0  0  0
  1 31  1  0  0  0
  2  3  1  0  0  0
  2  4  1  0  0  0
  4  5  1  0  0  0
  4 32  2  0  0  0
  5  6  4  0  0  0
  5 12  4  0  0  0
  6  8  4  0  0  0
  6 33  1  0  0  0
 33  7  1  0  0  0
  8  9  4  0  0  0
  9 11  4  0  0  0
  9 34  1  0  0  0
 34 10  1  0  0  0
 11 12  4  0  0  0
 11 35  1  0  0  0
 12 31  1  0  0  0
 13 14  1  0  0  0
 14 15  1  0  0  0
 15 16  1  0  0  0
 15 26  1  0  0  0
 16 17  1  0  0  0
 16 36  1  0  0  0
 17 18  1  0  0  0
 17 28  1  0  0  0
 18 19  1  0  0  0
 18 37  1  0  0  0
 19 20  2  0  0  0
 20 21  1  0  0  0
 21 22  2  0  0  0
 22 23  1  0  0  0
 23 24  2  0  0  0
 23 30  1  0  0  0
 24 25  1  0  0  0
 36 27  1  0  0  0
 37 29  1  0  0  0
  3 38  1  0  0  0
  3 39  1  0  0  0
  3 40  1  0  0  0
  7 41  1  0  0  0
  7 42  1  0  0  0
  7 43  1  0  0  0
  8 44  1  0  0  0
 10 45  1  0  0  0
 10 46  1  0  0  0
 10 47  1  0  0  0
 13 48  1  0  0  0
 13 49  1  0  0  0
 14 50  1  0  0  0
 14 51  1  0  0  0
 15 52  1  0  0  0
 16 53  1  0  0  0
 17 54  1  0  0  0
 18 55  1  0  0  0
 19 56  1  0  0  0
 20 57  1  0  0  0
 21 58  1  0  0  0
 22 59  1  0  0  0
 24 60  1  0  0  0
 25 61  1  0  0  0
 25 62  1  0  0  0
 25 63  1  0  0  0
 26 64  1  0  0  0
 26 65  1  0  0  0
 26 66  1  0  0  0
 27 67  1  0  0  0
 27 68  1  0  0  0
 27 69  1  0  0  0
 28 70  1  0  0  0
 28 71  1  0  0  0
 28 72  1  0  0  0
 29 73  1  0  0  0
 29 74  1  0  0  0
 29 75  1  0  0  0
 30 76  1  0  0  0
 30 77  1  0  0  0
 30 78  1  0  0  0
 35 79  1  0  0  0
M  END
$$$$
