4za0_ligand
  -I-interpret- 

 15 14  0  0  0  0  0  0  0  0999 V2000
  -15.9250  -18.7840   24.8910 C   0  0  0  0  0
  -17.3650  -18.9890   24.4650 C   0  0  0  0  0
  -18.0450  -18.0010   23.7080 N   0  0  0  0  0
  -19.3480  -18.2280   23.3470 O   0  0  0  0  0
  -17.9550  -20.0050   24.7750 O   0  0  0  0  0
  -14.3480  -19.3300   22.7490 O   0  0  0  0  0
  -15.6130  -21.2220   23.7030 O   0  0  0  0  0
  -13.6600  -20.3190   24.8930 O   0  0  0  0  0
  -14.8420  -19.9640   24.0290 P   0  0  0  0  0
  -15.8443  -18.9448   25.9660 H   0  0  0  0  0
  -15.6191  -17.7686   24.6389 H   0  0  0  0  0
  -17.5736  -17.1379   23.4373 H   0  0  0  0  0
  -19.6742  -17.4792   22.8426 H   0  0  0  0  0
  -15.0986  -19.1023   22.1956 H   0  0  0  0  0
  -16.3674  -21.0000   23.1523 H   0  0  0  0  0
  1  2  1  0  0  0
  1  9  1  0  0  0
  2  3  1  0  0  0
  2  5  2  0  0  0
  3  4  1  0  0  0
  9  6  1  0  0  0
  9  7  1  0  0  0
  9  8  2  0  0  0
  1 10  1  0  0  0
  1 11  1  0  0  0
  3 12  1  0  0  0
  4 13  1  0  0  0
  6 14  1  0  0  0
  7 15  1  0  0  0
M  END
$$$$
