### 
### Created by X-TOOL on Mon Sep 10 21:13:26 2018
### 

@<TRIPOS>MOLECULE
4za0_ligand
   13    12     1     0     0
SMALL
GAST_HUCK


@<TRIPOS>ATOM
      1 C1        -15.9250  -18.7840   24.8910 C.3       1 PAH         0.1101
      2 C2        -17.3650  -18.9890   24.4650 C.2       1 PAH         0.2153
      3 N3        -18.0450  -18.0010   23.7080 N.am      1 PAH        -0.1631
      4 O3        -19.3480  -18.2280   23.3470 O.3       1 PAH        -0.2717
      5 O2        -17.9550  -20.0050   24.7750 O.2       1 PAH        -0.3954
      6 O1P       -14.3480  -19.3300   22.7490 O.co2     1 PAH        -0.5606
      7 O2P       -15.6130  -21.2220   23.7030 O.co2     1 PAH        -0.5606
      8 O3P       -13.6600  -20.3190   24.8930 O.co2     1 PAH        -0.5606
      9 P         -14.8420  -19.9640   24.0290 P.3       1 PAH         0.0776
     10 H1        -15.8413  -18.9400   25.9766 H         1 PAH         0.0691
     11 H2        -15.6151  -17.7581   24.6430 H         1 PAH         0.0691
     12 H3        -17.5828  -17.1549   23.4426 H         1 PAH         0.2217
     13 H4        -19.8770  -18.3397   24.1281 H         1 PAH         0.2490
@<TRIPOS>BOND
     1    1    2 1  
     2    1    9 1  
     3    2    3 am 
     4    2    5 2  
     5    3    4 1  
     6    9    6 ar 
     7    9    7 ar 
     8    9    8 ar 
     9    1   10 1  
    10    1   11 1  
    11    3   12 1  
    12    4   13 1  
@<TRIPOS>SUBSTRUCTURE
     1 PAH         1

