### 
### Created by X-TOOL on Mon Sep 10 21:12:46 2018
### 

@<TRIPOS>MOLECULE
1bq3_ligand
   42    42     1     0     0
SMALL
GAST_HUCK


@<TRIPOS>ATOM
      1 C1         27.6080    9.9270   97.7430 C.3       1 IHP         0.1556
      2 C2         28.3080    8.5460   97.9070 C.3       1 IHP         0.1556
      3 C3         28.0040    7.8640   99.2770 C.3       1 IHP         0.1556
      4 C4         26.5620    8.0510   99.7700 C.3       1 IHP         0.1556
      5 C5         26.1170    9.5060   99.7550 C.3       1 IHP         0.1556
      6 C6         26.1540   10.0120   98.2930 C.3       1 IHP         0.1556
      7 O11        27.6000   10.2670   96.3760 O.3       1 IHP        -0.2668
      8 P1         28.4570   11.5210   95.8820 P.3       1 IHP         0.2013
      9 O21        27.8710   12.6700   96.6110 O.co2     1 IHP        -0.5537
     10 O31        29.8370   11.1840   96.2910 O.co2     1 IHP        -0.5537
     11 O41        28.2400   11.5260   94.4160 O.co2     1 IHP        -0.5537
     12 O12        28.1390    7.7030   96.7630 O.3       1 IHP        -0.2668
     13 P2         29.3870    7.3060   95.7900 P.3       1 IHP         0.2013
     14 O22        30.3510    6.6340   96.6910 O.co2     1 IHP        -0.5537
     15 O32        29.8690    8.5950   95.2390 O.co2     1 IHP        -0.5537
     16 O42        28.7710    6.4070   94.7890 O.co2     1 IHP        -0.5537
     17 O13        28.3820    6.4980   99.3000 O.3       1 IHP        -0.2668
     18 P3         29.4470    6.0600  100.4150 P.3       1 IHP         0.2013
     19 O23        29.2690    4.5940  100.5290 O.co2     1 IHP        -0.5537
     20 O33        29.0350    6.8200  101.6220 O.co2     1 IHP        -0.5537
     21 O43        30.7370    6.4900   99.8330 O.co2     1 IHP        -0.5537
     22 O14        25.6520    7.1240   99.1730 O.3       1 IHP        -0.2668
     23 P4         24.8810    6.0010  100.0490 P.3       1 IHP         0.2013
     24 O24        25.8540    4.8870  100.1570 O.co2     1 IHP        -0.5537
     25 O34        24.5830    6.6720  101.3330 O.co2     1 IHP        -0.5537
     26 O44        23.6790    5.6840   99.2410 O.co2     1 IHP        -0.5537
     27 O15        24.7890    9.6180  100.2890 O.3       1 IHP        -0.2668
     28 P5         24.4650   10.0580  101.8180 P.3       1 IHP         0.2013
     29 O25        22.9890   10.1390  101.8250 O.co2     1 IHP        -0.5537
     30 O35        25.0270    8.9720  102.6530 O.co2     1 IHP        -0.5537
     31 O45        25.1410   11.3600  101.9970 O.co2     1 IHP        -0.5537
     32 O16        25.8150   11.4050   98.2850 O.3       1 IHP        -0.2668
     33 P6         24.4100   11.9670   97.7320 P.3       1 IHP         0.2013
     34 O26        23.6510   12.2880   98.9600 O.co2     1 IHP        -0.5537
     35 O36        23.8510   10.8430   96.9470 O.co2     1 IHP        -0.5537
     36 O46        24.7780   13.1580   96.9300 O.co2     1 IHP        -0.5537
     37 H1         28.2097   10.6687   98.2888 H         1 IHP         0.0710
     38 H2         29.3847    8.7692   97.9370 H         1 IHP         0.0710
     39 H3         28.6437    8.3740  100.0123 H         1 IHP         0.0710
     40 H4         26.5825    7.7764  100.8350 H         1 IHP         0.0710
     41 H5         26.8042   10.1073  100.3684 H         1 IHP         0.0710
     42 H6         25.4615    9.4298   97.6674 H         1 IHP         0.0710
@<TRIPOS>BOND
     1    1    2 1  
     2    1    6 1  
     3    1    7 1  
     4    2    3 1  
     5    2   12 1  
     6    3    4 1  
     7    3   17 1  
     8    4    5 1  
     9    4   22 1  
    10    5    6 1  
    11    5   27 1  
    12    6   32 1  
    13    7    8 1  
    14    8    9 ar 
    15    8   10 ar 
    16    8   11 ar 
    17   12   13 1  
    18   13   14 ar 
    19   13   15 ar 
    20   13   16 ar 
    21   17   18 1  
    22   18   19 ar 
    23   18   20 ar 
    24   18   21 ar 
    25   22   23 1  
    26   23   24 ar 
    27   23   25 ar 
    28   23   26 ar 
    29   27   28 1  
    30   28   29 ar 
    31   28   30 ar 
    32   28   31 ar 
    33   32   33 1  
    34   33   34 ar 
    35   33   35 ar 
    36   33   36 ar 
    37    1   37 1  
    38    2   38 1  
    39    3   39 1  
    40    4   40 1  
    41    5   41 1  
    42    6   42 1  
@<TRIPOS>SUBSTRUCTURE
     1 IHP         1

