1bq3_ligand
  -I-interpret- 

 54 54  0  0  0  0  0  0  0  0999 V2000
   27.6080    9.9270   97.7430 C   0  0  0  0  0
   28.3080    8.5460   97.9070 C   0  0  0  0  0
   28.0040    7.8640   99.2770 C   0  0  0  0  0
   26.5620    8.0510   99.7700 C   0  0  0  0  0
   26.1170    9.5060   99.7550 C   0  0  0  0  0
   26.1540   10.0120   98.2930 C   0  0  0  0  0
   27.6000   10.2670   96.3760 O   0  0  0  0  0
   28.4570   11.5210   95.8820 P   0  0  0  0  0
   27.8710   12.6700   96.6110 O   0  0  0  0  0
   29.8370   11.1840   96.2910 O   0  0  0  0  0
   28.2400   11.5260   94.4160 O   0  0  0  0  0
   28.1390    7.7030   96.7630 O   0  0  0  0  0
   29.3870    7.3060   95.7900 P   0  0  0  0  0
   30.3510    6.6340   96.6910 O   0  0  0  0  0
   29.8690    8.5950   95.2390 O   0  0  0  0  0
   28.7710    6.4070   94.7890 O   0  0  0  0  0
   28.3820    6.4980   99.3000 O   0  0  0  0  0
   29.4470    6.0600  100.4150 P   0  0  0  0  0
   29.2690    4.5940  100.5290 O   0  0  0  0  0
   29.0350    6.8200  101.6220 O   0  0  0  0  0
   30.7370    6.4900   99.8330 O   0  0  0  0  0
   25.6520    7.1240   99.1730 O   0  0  0  0  0
   24.8810    6.0010  100.0490 P   0  0  0  0  0
   25.8540    4.8870  100.1570 O   0  0  0  0  0
   24.5830    6.6720  101.3330 O   0  0  0  0  0
   23.6790    5.6840   99.2410 O   0  0  0  0  0
   24.7890    9.6180  100.2890 O   0  0  0  0  0
   24.4650   10.0580  101.8180 P   0  0  0  0  0
   22.9890   10.1390  101.8250 O   0  0  0  0  0
   25.0270    8.9720  102.6530 O   0  0  0  0  0
   25.1410   11.3600  101.9970 O   0  0  0  0  0
   25.8150   11.4050   98.2850 O   0  0  0  0  0
   24.4100   11.9670   97.7320 P   0  0  0  0  0
   23.6510   12.2880   98.9600 O   0  0  0  0  0
   23.8510   10.8430   96.9470 O   0  0  0  0  0
   24.7780   13.1580   96.9300 O   0  0  0  0  0
   28.1868   10.6252   98.3476 H   0  0  0  0  0
   29.3797    8.7416   97.9445 H   0  0  0  0  0
   28.6334    8.3973   99.9895 H   0  0  0  0  0
   26.5476    7.7882  100.8277 H   0  0  0  0  0
   26.7833   10.1095  100.3713 H   0  0  0  0  0
   25.4679    9.4110   97.6962 H   0  0  0  0  0
   26.9791   12.8280   96.2930 H   0  0  0  0  0
   27.3258   11.7522   94.2297 H   0  0  0  0  0
   30.7087    7.2746   97.3102 H   0  0  0  0  0
   30.2532    9.1199   95.9451 H   0  0  0  0  0
   28.4100    4.4061  100.9142 H   0  0  0  0  0
   28.1933    6.4839  101.9385 H   0  0  0  0  0
   25.9964    4.5027   99.2889 H   0  0  0  0  0
   23.9470    5.2524   98.4265 H   0  0  0  0  0
   22.6209    9.2606  101.7045 H   0  0  0  0  0
   24.5433    8.1595  102.4872 H   0  0  0  0  0
   24.3947   10.6955   96.1697 H   0  0  0  0  0
   25.2660   12.8798   96.1515 H   0  0  0  0  0
  1  2  1  0  0  0
  1  6  1  0  0  0
  1  7  1  0  0  0
  2  3  1  0  0  0
  2 12  1  0  0  0
  3  4  1  0  0  0
  3 17  1  0  0  0
  4  5  1  0  0  0
  4 22  1  0  0  0
  5  6  1  0  0  0
  5 27  1  0  0  0
  6 32  1  0  0  0
  7  8  1  0  0  0
  8  9  1  0  0  0
  8 10  2  0  0  0
  8 11  1  0  0  0
 12 13  1  0  0  0
 13 14  1  0  0  0
 13 15  1  0  0  0
 13 16  2  0  0  0
 17 18  1  0  0  0
 18 19  1  0  0  0
 18 20  1  0  0  0
 18 21  2  0  0  0
 22 23  1  0  0  0
 23 24  1  0  0  0
 23 25  2  0  0  0
 23 26  1  0  0  0
 27 28  1  0  0  0
 28 29  1  0  0  0
 28 30  1  0  0  0
 28 31  2  0  0  0
 32 33  1  0  0  0
 33 34  2  0  0  0
 33 35  1  0  0  0
 33 36  1  0  0  0
  1 37  1  0  0  0
  2 38  1  0  0  0
  3 39  1  0  0  0
  4 40  1  0  0  0
  5 41  1  0  0  0
  6 42  1  0  0  0
  9 43  1  0  0  0
 11 44  1  0  0  0
 14 45  1  0  0  0
 15 46  1  0  0  0
 19 47  1  0  0  0
 20 48  1  0  0  0
 24 49  1  0  0  0
 26 50  1  0  0  0
 29 51  1  0  0  0
 30 52  1  0  0  0
 35 53  1  0  0  0
 36 54  1  0  0  0
M  END
$$$$
