3rqf_ligand
  -I-interpret- 

192191  0  0  0  0  0  0  0  0999 V2000
  -25.0760  -26.0950    5.8450 N   0  3  0  0  0
  -24.8700  -25.4090    4.5340 C   0  0  0  0  0
  -25.1690  -23.9090    4.6090 C   0  0  0  0  0
  -24.4430  -23.0980    4.0290 O   0  0  0  0  0
  -25.7170  -26.0700    3.4410 C   0  0  0  0  0
  -27.1020  -25.9710    3.7300 O   0  0  0  0  0
  -26.2340  -23.5560    5.3320 N   0  0  0  0  0
  -26.6680  -22.1630    5.5020 C   0  0  0  0  0
  -25.6380  -21.2870    6.2150 C   0  0  0  0  0
  -25.6530  -20.0610    6.0780 O   0  0  0  0  0
  -28.0020  -22.1080    6.2530 C   0  0  0  0  0
  -29.2290  -22.3460    5.3790 C   0  0  0  0  0
  -29.6510  -21.1160    4.5800 C   0  0  0  0  0
  -29.2150  -19.9910    4.9120 O   0  0  0  0  0
  -30.4310  -21.2800    3.6180 O   0  0  0  0  0
  -24.7550  -21.9280    6.9770 N   0  0  0  0  0
  -23.6630  -21.2490    7.6680 C   0  0  0  0  0
  -22.6400  -20.6940    6.6730 C   0  0  0  0  0
  -22.1460  -19.5750    6.8390 O   0  0  0  0  0
  -22.9820  -22.2090    8.6530 C   0  0  0  0  0
  -23.8620  -22.9590    9.6630 C   0  0  0  0  0
  -23.1840  -24.2440   10.1220 C   0  0  0  0  0
  -24.2270  -22.0810   10.8550 C   0  0  0  0  0
  -22.3360  -21.4820    5.6410 N   0  0  0  0  0
  -21.3890  -21.0920    4.5940 C   0  0  0  0  0
  -22.0050  -20.1520    3.5590 C   0  0  0  0  0
  -21.3020  -19.3230    2.9770 O   0  0  0  0  0
  -20.8160  -22.3300    3.8950 C   0  0  0  0  0
  -19.7490  -23.0300    4.7190 C   0  0  0  0  0
  -18.7500  -22.3770    5.0930 O   0  0  0  0  0
  -19.9010  -24.2430    4.9790 O   0  0  0  0  0
  -23.3120  -20.2860    3.3360 N   0  0  0  0  0
  -24.0350  -19.4790    2.3450 C   0  0  0  0  0
  -23.9670  -17.9810    2.6320 C   0  0  0  0  0
  -23.9930  -17.1660    1.7080 O   0  0  0  0  0
  -25.4960  -19.9220    2.2460 C   0  0  0  0  0
  -25.6930  -21.2900    1.6160 C   0  0  0  0  0
  -27.1640  -21.6540    1.5370 C   0  0  0  0  0
  -27.3550  -23.0730    1.2450 N   0  0  0  0  0
  -28.5360  -23.6870    1.2050 C   0  0  0  0  0
  -29.6560  -23.0120    1.4370 N   0  0  0  0  0
  -28.5950  -24.9840    0.9330 N   0  0  0  0  0
  -23.8850  -17.6320    3.9140 N   0  0  0  0  0
  -23.7470  -16.2430    4.3420 C   0  0  0  0  0
  -22.3760  -15.6670    4.0000 C   0  0  0  0  0
  -22.2840  -14.5850    3.4180 O   0  0  0  0  0
  -24.0080  -16.1130    5.8450 C   0  0  0  0  0
  -25.4410  -15.8220    6.2950 C   0  0  0  0  0
  -25.6520  -16.2690    7.7330 C   0  0  0  0  0
  -25.7750  -14.3420    6.1310 C   0  0  0  0  0
  -21.3210  -16.3980    4.3590 N   0  0  0  0  0
  -19.9420  -15.9470    4.1550 C   0  0  0  0  0
  -19.5850  -15.7440    2.6830 C   0  0  0  0  0
  -18.8160  -14.8400    2.3490 O   0  0  0  0  0
  -18.9480  -16.9190    4.8030 C   0  0  0  0  0
  -18.8830  -17.0480    6.3290 C   0  0  0  0  0
  -17.8940  -18.1400    6.7040 C   0  0  0  0  0
  -18.5040  -15.7300    7.0050 C   0  0  0  0  0
  -20.1460  -16.5850    1.8150 N   0  0  0  0  0
  -19.8940  -16.5070    0.3750 C   0  0  0  0  0
  -20.4600  -15.2280   -0.2380 C   0  0  0  0  0
  -19.7800  -14.5530   -1.0140 O   0  0  0  0  0
  -20.4530  -17.7410   -0.3450 C   0  0  0  0  0
  -19.7670  -19.0890   -0.0880 C   0  0  0  0  0
  -20.6340  -20.2410   -0.5780 C   0  0  0  0  0
  -18.3780  -19.1440   -0.7240 C   0  0  0  0  0
  -21.6990  -14.8980    0.1230 N   0  0  0  0  0
  -22.3630  -13.6940   -0.3790 C   0  0  0  0  0
  -21.8300  -12.4140    0.2670 C   0  0  0  0  0
  -21.9530  -11.3290   -0.3040 O   0  0  0  0  0
  -23.8830  -13.7970   -0.2080 C   0  0  0  0  0
  -24.5540  -14.7580   -1.1900 C   0  0  0  0  0
  -26.0650  -14.8290   -1.0240 C   0  0  0  0  0
  -26.5480  -14.8600    0.1290 O   0  0  0  0  0
  -26.7730  -14.8660   -2.0540 O   0  0  0  0  0
  -21.2390  -12.5470    1.4540 N   0  0  0  0  0
  -20.6090  -11.4180    2.1370 C   0  0  0  0  0
  -19.2230  -11.1080    1.5710 C   0  0  0  0  0
  -18.7890   -9.9540    1.5770 O   0  0  0  0  0
  -20.5280  -11.6660    3.6470 C   0  0  0  0  0
  -21.8170  -11.5270    4.4640 C   0  0  0  0  0
  -21.6480  -12.1740    5.8270 C   0  0  0  0  0
  -22.2450  -10.0710    4.6100 C   0  0  0  0  0
  -18.5360  -12.1420    1.0870 N   0  0  0  0  0
  -17.2320  -11.9820    0.4430 C   0  0  0  0  0
  -17.3580  -11.7420   -1.0570 C   0  0  0  0  0
  -17.9517  -10.7224   -1.4992 O   0  0  0  0  0
  -16.3420  -13.1990    0.7110 C   0  0  0  0  0
  -15.6210  -13.1160    2.0470 C   0  0  0  0  0
  -14.9840  -12.1100    2.3630 O   0  0  0  0  0
  -15.7060  -14.1840    2.8330 N   0  0  0  0  0
  -16.8626  -12.5730   -1.8642 O   0  0  0  0  0
  -24.5049  -25.6414    6.5581 H   0  0  0  0  0
  -26.0599  -26.0360    6.1073 H   0  0  0  0  0
  -24.8033  -27.0743    5.7615 H   0  0  0  0  0
  -23.8153  -25.5150    4.2799 H   0  0  0  0  0
  -25.4492  -27.1251    3.3857 H   0  0  0  0  0
  -25.5228  -25.5611    2.4969 H   0  0  0  0  0
  -27.6049  -26.3928    3.0294 H   0  0  0  0  0
  -26.7738  -24.2906    5.7896 H   0  0  0  0  0
  -26.7856  -21.7575    4.4971 H   0  0  0  0  0
  -28.0945  -21.1038    6.6666 H   0  0  0  0  0
  -27.9818  -22.9030    6.9984 H   0  0  0  0  0
  -30.0561  -22.6096    6.0382 H   0  0  0  0  0
  -28.9774  -23.1310    4.6658 H   0  0  0  0  0
  -28.6346  -20.0852    5.6709 H   0  0  0  0  0
  -24.8453  -22.9385    7.0829 H   0  0  0  0  0
  -24.0823  -20.4097    8.2229 H   0  0  0  0  0
  -22.3237  -21.5829    9.2553 H   0  0  0  0  0
  -22.5318  -22.9844    8.0332 H   0  0  0  0  0
  -24.7904  -23.2224    9.1562 H   0  0  0  0  0
  -23.0091  -24.8887    9.2607 H   0  0  0  0  0
  -22.2325  -24.0021   10.5956 H   0  0  0  0  0
  -23.8271  -24.7572   10.8369 H   0  0  0  0  0
  -23.3164  -21.7628   11.3626 H   0  0  0  0  0
  -24.7746  -21.2057   10.5057 H   0  0  0  0  0
  -24.8500  -22.6491   11.5458 H   0  0  0  0  0
  -22.7828  -22.3968    5.5780 H   0  0  0  0  0
  -20.5863  -20.5473    5.0911 H   0  0  0  0  0
  -20.3567  -22.0039    2.9618 H   0  0  0  0  0
  -21.6334  -23.0341    3.7399 H   0  0  0  0  0
  -18.8303  -21.4697    4.7898 H   0  0  0  0  0
  -23.8317  -20.9778    3.8761 H   0  0  0  0  0
  -23.5354  -19.6487    1.3912 H   0  0  0  0  0
  -26.0079  -19.1994    1.6104 H   0  0  0  0  0
  -25.8837  -19.9785    3.2632 H   0  0  0  0  0
  -25.1845  -22.0320    2.2317 H   0  0  0  0  0
  -25.2862  -21.2682    0.6050 H   0  0  0  0  0
  -27.6185  -21.0740    0.7338 H   0  0  0  0  0
  -27.6236  -21.4370    2.5012 H   0  0  0  0  0
  -26.5237  -23.6337    1.0583 H   0  0  0  0  0
  -30.5560  -23.4910    1.4056 H   0  0  0  0  0
  -29.6162  -22.0146    1.6466 H   0  0  0  0  0
  -27.7377  -25.5074    0.7554 H   0  0  0  0  0
  -23.9199  -18.3630    4.6245 H   0  0  0  0  0
  -24.4933  -15.6669    3.7949 H   0  0  0  0  0
  -23.4201  -15.2547    6.1701 H   0  0  0  0  0
  -23.7608  -17.0861    6.2693 H   0  0  0  0  0
  -26.1188  -16.3905    5.6581 H   0  0  0  0  0
  -25.4680  -17.3406    7.8097 H   0  0  0  0  0
  -24.9612  -15.7329    8.3838 H   0  0  0  0  0
  -26.6775  -16.0528    8.0326 H   0  0  0  0  0
  -25.0902  -13.7472    6.7355 H   0  0  0  0  0
  -25.6732  -14.0619    5.0825 H   0  0  0  0  0
  -26.7993  -14.1636    6.4583 H   0  0  0  0  0
  -21.4799  -17.3073    4.7929 H   0  0  0  0  0
  -19.8703  -14.9728    4.6387 H   0  0  0  0  0
  -17.9681  -16.5339    4.5209 H   0  0  0  0  0
  -19.2677  -17.9031    4.4605 H   0  0  0  0  0
  -19.8783  -17.3130    6.6857 H   0  0  0  0  0
  -18.2190  -19.0867    6.2724 H   0  0  0  0  0
  -16.9075  -17.8830    6.3183 H   0  0  0  0  0
  -17.8489  -18.2305    7.7893 H   0  0  0  0  0
  -17.5246  -15.4095    6.6499 H   0  0  0  0  0
  -19.2469  -14.9709    6.7603 H   0  0  0  0  0
  -18.4713  -15.8734    8.0850 H   0  0  0  0  0
  -20.7732  -17.3087    2.1662 H   0  0  0  0  0
  -18.8126  -16.4831    0.2404 H   0  0  0  0  0
  -20.3187  -17.5437   -1.4085 H   0  0  0  0  0
  -21.4719  -17.8574    0.0244 H   0  0  0  0  0
  -19.6386  -19.1915    0.9895 H   0  0  0  0  0
  -21.5879  -20.2260   -0.0507 H   0  0  0  0  0
  -20.8075  -20.1336   -1.6487 H   0  0  0  0  0
  -20.1250  -21.1851   -0.3841 H   0  0  0  0  0
  -18.4671  -19.0025   -1.8011 H   0  0  0  0  0
  -17.7554  -18.3546   -0.3028 H   0  0  0  0  0
  -17.9245  -20.1140   -0.5200 H   0  0  0  0  0
  -22.2018  -15.5045    0.7708 H   0  0  0  0  0
  -22.1333  -13.6298   -1.4426 H   0  0  0  0  0
  -24.2974  -12.8056   -0.3907 H   0  0  0  0  0
  -24.0710  -14.1766    0.7963 H   0  0  0  0  0
  -24.1544  -15.7544   -1.0014 H   0  0  0  0  0
  -24.3496  -14.3958   -2.1975 H   0  0  0  0  0
  -25.8375  -14.8217    0.7735 H   0  0  0  0  0
  -21.2257  -13.4644    1.8997 H   0  0  0  0  0
  -21.2391  -10.5463    1.9605 H   0  0  0  0  0
  -19.8554  -10.8995    4.0320 H   0  0  0  0  0
  -20.2261  -12.7078    3.7549 H   0  0  0  0  0
  -22.6088  -12.0434    3.9213 H   0  0  0  0  0
  -21.4186  -13.2319    5.6996 H   0  0  0  0  0
  -20.8327  -11.6858    6.3609 H   0  0  0  0  0
  -22.5718  -12.0671    6.3956 H   0  0  0  0  0
  -21.4582   -9.5113    5.1157 H   0  0  0  0  0
  -22.4190   -9.6440    3.6223 H   0  0  0  0  0
  -23.1627  -10.0204    5.1960 H   0  0  0  0  0
  -18.9331  -13.0780    1.1683 H   0  0  0  0  0
  -16.7671  -11.0981    0.8797 H   0  0  0  0  0
  -18.2690  -10.1939   -0.7632 H   0  0  0  0  0
  -15.5874  -13.2412   -0.0744 H   0  0  0  0  0
  -16.9800  -14.0826    0.7294 H   0  0  0  0  0
  -15.2329  -14.1911    3.7366 H   0  0  0  0  0
  -16.2443  -14.9967    2.5327 H   0  0  0  0  0
  1  2  1  0  0  0
  2  3  1  0  0  0
  2  5  1  0  0  0
  3  4  2  0  0  0
  3  7  1  0  0  0
  5  6  1  0  0  0
  7  8  1  0  0  0
  8  9  1  0  0  0
  8 11  1  0  0  0
  9 10  2  0  0  0
  9 16  1  0  0  0
 11 12  1  0  0  0
 12 13  1  0  0  0
 13 14  1  0  0  0
 13 15  2  0  0  0
 16 17  1  0  0  0
 17 18  1  0  0  0
 17 20  1  0  0  0
 18 19  2  0  0  0
 18 24  1  0  0  0
 20 21  1  0  0  0
 21 22  1  0  0  0
 21 23  1  0  0  0
 24 25  1  0  0  0
 25 26  1  0  0  0
 25 28  1  0  0  0
 26 27  2  0  0  0
 26 32  1  0  0  0
 28 29  1  0  0  0
 29 30  1  0  0  0
 29 31  2  0  0  0
 32 33  1  0  0  0
 33 34  1  0  0  0
 33 36  1  0  0  0
 34 35  2  0  0  0
 34 43  1  0  0  0
 36 37  1  0  0  0
 37 38  1  0  0  0
 38 39  1  0  0  0
 39 40  1  0  0  0
 40 41  1  0  0  0
 40 42  2  0  0  0
 43 44  1  0  0  0
 44 45  1  0  0  0
 44 47  1  0  0  0
 45 46  2  0  0  0
 45 51  1  0  0  0
 47 48  1  0  0  0
 48 49  1  0  0  0
 48 50  1  0  0  0
 51 52  1  0  0  0
 52 53  1  0  0  0
 52 55  1  0  0  0
 53 54  2  0  0  0
 53 59  1  0  0  0
 55 56  1  0  0  0
 56 57  1  0  0  0
 56 58  1  0  0  0
 59 60  1  0  0  0
 60 61  1  0  0  0
 60 63  1  0  0  0
 61 62  2  0  0  0
 61 67  1  0  0  0
 63 64  1  0  0  0
 64 65  1  0  0  0
 64 66  1  0  0  0
 67 68  1  0  0  0
 68 69  1  0  0  0
 68 71  1  0  0  0
 69 70  2  0  0  0
 69 76  1  0  0  0
 71 72  1  0  0  0
 72 73  1  0  0  0
 73 74  1  0  0  0
 73 75  2  0  0  0
 76 77  1  0  0  0
 77 78  1  0  0  0
 77 80  1  0  0  0
 78 79  2  0  0  0
 78 84  1  0  0  0
 80 81  1  0  0  0
 81 82  1  0  0  0
 81 83  1  0  0  0
 84 85  1  0  0  0
 85 86  1  0  0  0
 85 88  1  0  0  0
 86 87  1  0  0  0
 88 89  1  0  0  0
 89 90  2  0  0  0
 89 91  1  0  0  0
 86 92  2  0  0  0
  1 93  1  0  0  0
  1 94  1  0  0  0
  1 95  1  0  0  0
  2 96  1  0  0  0
  5 97  1  0  0  0
  5 98  1  0  0  0
  6 99  1  0  0  0
  7100  1  0  0  0
  8101  1  0  0  0
 11102  1  0  0  0
 11103  1  0  0  0
 12104  1  0  0  0
 12105  1  0  0  0
 14106  1  0  0  0
 16107  1  0  0  0
 17108  1  0  0  0
 20109  1  0  0  0
 20110  1  0  0  0
 21111  1  0  0  0
 22112  1  0  0  0
 22113  1  0  0  0
 22114  1  0  0  0
 23115  1  0  0  0
 23116  1  0  0  0
 23117  1  0  0  0
 24118  1  0  0  0
 25119  1  0  0  0
 28120  1  0  0  0
 28121  1  0  0  0
 30122  1  0  0  0
 32123  1  0  0  0
 33124  1  0  0  0
 36125  1  0  0  0
 36126  1  0  0  0
 37127  1  0  0  0
 37128  1  0  0  0
 38129  1  0  0  0
 38130  1  0  0  0
 39131  1  0  0  0
 41132  1  0  0  0
 41133  1  0  0  0
 42134  1  0  0  0
 43135  1  0  0  0
 44136  1  0  0  0
 47137  1  0  0  0
 47138  1  0  0  0
 48139  1  0  0  0
 49140  1  0  0  0
 49141  1  0  0  0
 49142  1  0  0  0
 50143  1  0  0  0
 50144  1  0  0  0
 50145  1  0  0  0
 51146  1  0  0  0
 52147  1  0  0  0
 55148  1  0  0  0
 55149  1  0  0  0
 56150  1  0  0  0
 57151  1  0  0  0
 57152  1  0  0  0
 57153  1  0  0  0
 58154  1  0  0  0
 58155  1  0  0  0
 58156  1  0  0  0
 59157  1  0  0  0
 60158  1  0  0  0
 63159  1  0  0  0
 63160  1  0  0  0
 64161  1  0  0  0
 65162  1  0  0  0
 65163  1  0  0  0
 65164  1  0  0  0
 66165  1  0  0  0
 66166  1  0  0  0
 66167  1  0  0  0
 67168  1  0  0  0
 68169  1  0  0  0
 71170  1  0  0  0
 71171  1  0  0  0
 72172  1  0  0  0
 72173  1  0  0  0
 74174  1  0  0  0
 76175  1  0  0  0
 77176  1  0  0  0
 80177  1  0  0  0
 80178  1  0  0  0
 81179  1  0  0  0
 82180  1  0  0  0
 82181  1  0  0  0
 82182  1  0  0  0
 83183  1  0  0  0
 83184  1  0  0  0
 83185  1  0  0  0
 84186  1  0  0  0
 85187  1  0  0  0
 87188  1  0  0  0
 88189  1  0  0  0
 88190  1  0  0  0
 91191  1  0  0  0
 91192  1  0  0  0
M  END
$$$$
