### 
### Created by X-TOOL on Mon Sep 10 21:13:08 2018
### 

@<TRIPOS>MOLECULE
3rqf_ligand
  189   188     1     0     0
SMALL
GAST_HUCK


@<TRIPOS>ATOM
      1 N         -25.0760  -26.0950    5.8450 N.4       1 SER         0.2396
      2 CA        -24.8700  -25.4090    4.5340 C.3       1 SER         0.0885
      3 C         -25.1690  -23.9090    4.6090 C.2       1 SER         0.2290
      4 O         -24.4430  -23.0980    4.0290 O.2       1 SER        -0.3906
      5 CB        -25.7170  -26.0700    3.4410 C.3       1 SER         0.1041
      6 OG        -27.1020  -25.9710    3.7300 O.3       1 SER        -0.3870
      7 N         -26.2340  -23.5560    5.3320 N.am      1 GLU        -0.2608
      8 CA        -26.6680  -22.1630    5.5020 C.3       1 GLU         0.1326
      9 C         -25.6380  -21.2870    6.2150 C.2       1 GLU         0.2040
     10 O         -25.6530  -20.0610    6.0780 O.2       1 GLU        -0.3944
     11 CB        -28.0020  -22.1080    6.2530 C.3       1 GLU        -0.0008
     12 CG        -29.2290  -22.3460    5.3790 C.3       1 GLU         0.0044
     13 CD        -29.6510  -21.1160    4.5800 C.2       1 GLU         0.0350
     14 OE1       -29.2150  -19.9910    4.9120 O.co2     1 GLU        -0.5690
     15 OE2       -30.4310  -21.2800    3.6180 O.co2     1 GLU        -0.5690
     16 N         -24.7550  -21.9280    6.9770 N.am      1 LEU        -0.2637
     17 CA        -23.6630  -21.2490    7.6680 C.3       1 LEU         0.1312
     18 C         -22.6400  -20.6940    6.6730 C.2       1 LEU         0.2040
     19 O         -22.1460  -19.5750    6.8390 O.2       1 LEU        -0.3944
     20 CB        -22.9820  -22.2090    8.6530 C.3       1 LEU        -0.0101
     21 CG        -23.8620  -22.9590    9.6630 C.3       1 LEU        -0.0425
     22 CD1       -23.1840  -24.2440   10.1220 C.3       1 LEU        -0.0625
     23 CD2       -24.2270  -22.0810   10.8550 C.3       1 LEU        -0.0625
     24 N         -22.3360  -21.4820    5.6410 N.am      1 ASP        -0.2622
     25 CA        -21.3890  -21.0920    4.5940 C.3       1 ASP         0.1423
     26 C         -22.0050  -20.1520    3.5590 C.2       1 ASP         0.2056
     27 O         -21.3020  -19.3230    2.9770 O.2       1 ASP        -0.3943
     28 CB        -20.8160  -22.3300    3.8950 C.3       1 ASP         0.0406
     29 CG        -19.7490  -23.0300    4.7190 C.2       1 ASP         0.0393
     30 OD1       -18.7500  -22.3770    5.0930 O.co2     1 ASP        -0.5688
     31 OD2       -19.9010  -24.2430    4.9790 O.co2     1 ASP        -0.5688
     32 N         -23.3120  -20.2860    3.3360 N.am      1 ARG        -0.2636
     33 CA        -24.0350  -19.4790    2.3450 C.3       1 ARG         0.1311
     34 C         -23.9670  -17.9810    2.6320 C.2       1 ARG         0.2039
     35 O         -23.9930  -17.1660    1.7080 O.2       1 ARG        -0.3944
     36 CB        -25.4960  -19.9220    2.2460 C.3       1 ARG        -0.0092
     37 CG        -25.6930  -21.2900    1.6160 C.3       1 ARG        -0.0156
     38 CD        -27.1640  -21.6540    1.5370 C.3       1 ARG         0.0627
     39 NE        -27.3550  -23.0730    1.2450 N.pl3     1 ARG        -0.2723
     40 CZ        -28.5360  -23.6870    1.2050 C.cat     1 ARG         0.2882
     41 NH1       -29.6560  -23.0120    1.4370 N.pl3     1 ARG        -0.2849
     42 NH2       -28.5950  -24.9840    0.9330 N.pl3     1 ARG        -0.2849
     43 N         -23.8850  -17.6320    3.9140 N.am      1 LEU        -0.2637
     44 CA        -23.7470  -16.2430    4.3420 C.3       1 LEU         0.1312
     45 C         -22.3760  -15.6670    4.0000 C.2       1 LEU         0.2039
     46 O         -22.2840  -14.5850    3.4180 O.2       1 LEU        -0.3944
     47 CB        -24.0080  -16.1130    5.8450 C.3       1 LEU        -0.0101
     48 CG        -25.4410  -15.8220    6.2950 C.3       1 LEU        -0.0425
     49 CD1       -25.6520  -16.2690    7.7330 C.3       1 LEU        -0.0625
     50 CD2       -25.7750  -14.3420    6.1310 C.3       1 LEU        -0.0625
     51 N         -21.3210  -16.3980    4.3590 N.am      1 LEU        -0.2637
     52 CA        -19.9420  -15.9470    4.1550 C.3       1 LEU         0.1312
     53 C         -19.5850  -15.7440    2.6830 C.2       1 LEU         0.2039
     54 O         -18.8160  -14.8400    2.3490 O.2       1 LEU        -0.3944
     55 CB        -18.9480  -16.9190    4.8030 C.3       1 LEU        -0.0101
     56 CG        -18.8830  -17.0480    6.3290 C.3       1 LEU        -0.0425
     57 CD1       -17.8940  -18.1400    6.7040 C.3       1 LEU        -0.0625
     58 CD2       -18.5040  -15.7300    7.0050 C.3       1 LEU        -0.0625
     59 N         -20.1460  -16.5850    1.8150 N.am      1 LEU        -0.2637
     60 CA        -19.8940  -16.5070    0.3750 C.3       1 LEU         0.1312
     61 C         -20.4600  -15.2280   -0.2380 C.2       1 LEU         0.2039
     62 O         -19.7800  -14.5530   -1.0140 O.2       1 LEU        -0.3944
     63 CB        -20.4530  -17.7410   -0.3450 C.3       1 LEU        -0.0101
     64 CG        -19.7670  -19.0890   -0.0880 C.3       1 LEU        -0.0425
     65 CD1       -20.6340  -20.2410   -0.5780 C.3       1 LEU        -0.0625
     66 CD2       -18.3780  -19.1440   -0.7240 C.3       1 LEU        -0.0625
     67 N         -21.6990  -14.8980    0.1230 N.am      1 GLU        -0.2636
     68 CA        -22.3630  -13.6940   -0.3790 C.3       1 GLU         0.1325
     69 C         -21.8300  -12.4140    0.2670 C.2       1 GLU         0.2040
     70 O         -21.9530  -11.3290   -0.3040 O.2       1 GLU        -0.3944
     71 CB        -23.8830  -13.7970   -0.2080 C.3       1 GLU        -0.0008
     72 CG        -24.5540  -14.7580   -1.1900 C.3       1 GLU         0.0044
     73 CD        -26.0650  -14.8290   -1.0240 C.2       1 GLU         0.0350
     74 OE1       -26.5480  -14.8600    0.1290 O.co2     1 GLU        -0.5690
     75 OE2       -26.7730  -14.8660   -2.0540 O.co2     1 GLU        -0.5690
     76 N         -21.2390  -12.5470    1.4540 N.am      1 LEU        -0.2637
     77 CA        -20.6090  -11.4180    2.1370 C.3       1 LEU         0.1312
     78 C         -19.2230  -11.1080    1.5710 C.2       1 LEU         0.2035
     79 O         -18.7890   -9.9540    1.5770 O.2       1 LEU        -0.3944
     80 CB        -20.5280  -11.6660    3.6470 C.3       1 LEU        -0.0101
     81 CG        -21.8170  -11.5270    4.4640 C.3       1 LEU        -0.0425
     82 CD1       -21.6480  -12.1740    5.8270 C.3       1 LEU        -0.0625
     83 CD2       -22.2450  -10.0710    4.6100 C.3       1 LEU        -0.0625
     84 N         -18.5360  -12.1420    1.0870 N.am      1 ASN        -0.2674
     85 CA        -17.2320  -11.9820    0.4430 C.3       1 ASN         0.1110
     86 C         -17.3580  -11.7420   -1.0570 C.2       1 ASN         0.0624
     87 O         -17.9517  -10.7224   -1.4992 O.co2     1 ASN        -0.5665
     88 CB        -16.3420  -13.1990    0.7110 C.3       1 ASN         0.0718
     89 CG        -15.6210  -13.1160    2.0470 C.2       1 ASN         0.1774
     90 OD1       -14.9840  -12.1100    2.3630 O.2       1 ASN        -0.3971
     91 ND2       -15.7060  -14.1840    2.8330 N.am      1 ASN        -0.3007
     92 H         -24.5049  -25.6414    6.5581 H         1 SER         0.2016
     93 H         -26.0599  -26.0360    6.1073 H         1 SER         0.2016
     94 H         -24.8033  -27.0743    5.7615 H         1 SER         0.2016
     95 H         -23.8153  -25.5150    4.2799 H         1 SER         0.1122
     96 H         -25.4492  -27.1251    3.3857 H         1 SER         0.0640
     97 H         -25.5228  -25.5611    2.4969 H         1 SER         0.0640
     98 H         -27.6049  -26.3928    3.0294 H         1 SER         0.2099
     99 H         -26.7738  -24.2906    5.7896 H         1 GLU         0.1885
    100 H         -26.7856  -21.7575    4.4971 H         1 GLU         0.0801
    101 H         -28.0945  -21.1038    6.6666 H         1 GLU         0.0330
    102 H         -27.9818  -22.9030    6.9984 H         1 GLU         0.0330
    103 H         -30.0561  -22.6096    6.0382 H         1 GLU         0.0433
    104 H         -28.9774  -23.1310    4.6658 H         1 GLU         0.0433
    105 H         -24.8453  -22.9385    7.0829 H         1 LEU         0.1883
    106 H         -24.0823  -20.4097    8.2229 H         1 LEU         0.0800
    107 H         -22.3237  -21.5829    9.2553 H         1 LEU         0.0315
    108 H         -22.5318  -22.9844    8.0332 H         1 LEU         0.0315
    109 H         -24.7904  -23.2224    9.1562 H         1 LEU         0.0298
    110 H         -23.0091  -24.8887    9.2607 H         1 LEU         0.0232
    111 H         -22.2325  -24.0021   10.5956 H         1 LEU         0.0232
    112 H         -23.8271  -24.7572   10.8369 H         1 LEU         0.0232
    113 H         -23.3164  -21.7628   11.3626 H         1 LEU         0.0232
    114 H         -24.7746  -21.2057   10.5057 H         1 LEU         0.0232
    115 H         -24.8500  -22.6491   11.5458 H         1 LEU         0.0232
    116 H         -22.7828  -22.3968    5.5780 H         1 ASP         0.1884
    117 H         -20.5863  -20.5473    5.0911 H         1 ASP         0.0819
    118 H         -20.3567  -22.0039    2.9618 H         1 ASP         0.0478
    119 H         -21.6334  -23.0341    3.7399 H         1 ASP         0.0478
    120 H         -23.8317  -20.9778    3.8761 H         1 ARG         0.1883
    121 H         -23.5354  -19.6487    1.3912 H         1 ARG         0.0800
    122 H         -26.0079  -19.1994    1.6104 H         1 ARG         0.0313
    123 H         -25.8837  -19.9785    3.2632 H         1 ARG         0.0313
    124 H         -25.1845  -22.0320    2.2317 H         1 ARG         0.0301
    125 H         -25.2862  -21.2682    0.6050 H         1 ARG         0.0301
    126 H         -27.6185  -21.0740    0.7338 H         1 ARG         0.0689
    127 H         -27.6236  -21.4370    2.5012 H         1 ARG         0.0689
    128 H         -26.5237  -23.6337    1.0583 H         1 ARG         0.2642
    129 H         -29.6161  -22.0149    1.6480 H         1 ARG         0.2615
    130 H         -30.5561  -23.4907    1.4042 H         1 ARG         0.2615
    131 H         -27.7377  -25.5074    0.7554 H         1 ARG         0.2615
    132 H         -29.4977  -25.4579    0.9014 H         1 ARG         0.2615
    133 H         -23.9199  -18.3630    4.6245 H         1 LEU         0.1883
    134 H         -24.4933  -15.6669    3.7949 H         1 LEU         0.0800
    135 H         -23.4201  -15.2547    6.1701 H         1 LEU         0.0315
    136 H         -23.7608  -17.0861    6.2693 H         1 LEU         0.0315
    137 H         -26.1188  -16.3905    5.6581 H         1 LEU         0.0298
    138 H         -25.4680  -17.3406    7.8097 H         1 LEU         0.0232
    139 H         -24.9612  -15.7329    8.3838 H         1 LEU         0.0232
    140 H         -26.6775  -16.0528    8.0326 H         1 LEU         0.0232
    141 H         -25.0902  -13.7472    6.7355 H         1 LEU         0.0232
    142 H         -25.6732  -14.0619    5.0825 H         1 LEU         0.0232
    143 H         -26.7993  -14.1636    6.4583 H         1 LEU         0.0232
    144 H         -21.4799  -17.3073    4.7929 H         1 LEU         0.1883
    145 H         -19.8703  -14.9728    4.6387 H         1 LEU         0.0800
    146 H         -17.9681  -16.5339    4.5209 H         1 LEU         0.0315
    147 H         -19.2677  -17.9031    4.4605 H         1 LEU         0.0315
    148 H         -19.8783  -17.3130    6.6857 H         1 LEU         0.0298
    149 H         -18.2190  -19.0867    6.2724 H         1 LEU         0.0232
    150 H         -16.9075  -17.8830    6.3183 H         1 LEU         0.0232
    151 H         -17.8489  -18.2305    7.7893 H         1 LEU         0.0232
    152 H         -17.5246  -15.4095    6.6499 H         1 LEU         0.0232
    153 H         -19.2469  -14.9709    6.7603 H         1 LEU         0.0232
    154 H         -18.4713  -15.8734    8.0850 H         1 LEU         0.0232
    155 H         -20.7732  -17.3087    2.1662 H         1 LEU         0.1883
    156 H         -18.8126  -16.4831    0.2404 H         1 LEU         0.0800
    157 H         -20.3187  -17.5437   -1.4085 H         1 LEU         0.0315
    158 H         -21.4719  -17.8574    0.0244 H         1 LEU         0.0315
    159 H         -19.6386  -19.1915    0.9895 H         1 LEU         0.0298
    160 H         -21.5879  -20.2260   -0.0507 H         1 LEU         0.0232
    161 H         -20.8075  -20.1336   -1.6487 H         1 LEU         0.0232
    162 H         -20.1250  -21.1851   -0.3841 H         1 LEU         0.0232
    163 H         -18.4671  -19.0025   -1.8011 H         1 LEU         0.0232
    164 H         -17.7554  -18.3546   -0.3028 H         1 LEU         0.0232
    165 H         -17.9245  -20.1140   -0.5200 H         1 LEU         0.0232
    166 H         -22.2018  -15.5045    0.7708 H         1 GLU         0.1883
    167 H         -22.1333  -13.6298   -1.4426 H         1 GLU         0.0801
    168 H         -24.2974  -12.8056   -0.3907 H         1 GLU         0.0330
    169 H         -24.0710  -14.1766    0.7963 H         1 GLU         0.0330
    170 H         -24.1544  -15.7544   -1.0014 H         1 GLU         0.0433
    171 H         -24.3496  -14.3958   -2.1975 H         1 GLU         0.0433
    172 H         -21.2257  -13.4644    1.8997 H         1 LEU         0.1883
    173 H         -21.2391  -10.5463    1.9605 H         1 LEU         0.0800
    174 H         -19.8554  -10.8995    4.0320 H         1 LEU         0.0315
    175 H         -20.2261  -12.7078    3.7549 H         1 LEU         0.0315
    176 H         -22.6088  -12.0434    3.9213 H         1 LEU         0.0298
    177 H         -21.4186  -13.2319    5.6996 H         1 LEU         0.0232
    178 H         -20.8327  -11.6858    6.3609 H         1 LEU         0.0232
    179 H         -22.5718  -12.0671    6.3956 H         1 LEU         0.0232
    180 H         -21.4582   -9.5113    5.1157 H         1 LEU         0.0232
    181 H         -22.4190   -9.6440    3.6223 H         1 LEU         0.0232
    182 H         -23.1627  -10.0204    5.1960 H         1 LEU         0.0232
    183 H         -18.9331  -13.0780    1.1683 H         1 ASN         0.1877
    184 H         -16.7671  -11.0981    0.8797 H         1 ASN         0.0752
    185 O         -16.8626  -12.5730   -1.8642 O.co2     1 ASN        -0.5665
    186 H         -15.5874  -13.2412   -0.0744 H         1 ASN         0.0544
    187 H         -16.9800  -14.0826    0.7294 H         1 ASN         0.0544
    188 H         -15.2329  -14.1911    3.7366 H         1 ASN         0.1814
    189 H         -16.2443  -14.9967    2.5327 H         1 ASN         0.1814
@<TRIPOS>BOND
     1    1    2 1  
     2    2    3 1  
     3    2    5 1  
     4    3    4 2  
     5    3    7 am 
     6    5    6 1  
     7    7    8 1  
     8    8    9 1  
     9    8   11 1  
    10    9   10 2  
    11    9   16 am 
    12   11   12 1  
    13   12   13 1  
    14   13   14 ar 
    15   13   15 ar 
    16   16   17 1  
    17   17   18 1  
    18   17   20 1  
    19   18   19 2  
    20   18   24 am 
    21   20   21 1  
    22   21   22 1  
    23   21   23 1  
    24   24   25 1  
    25   25   26 1  
    26   25   28 1  
    27   26   27 2  
    28   26   32 am 
    29   28   29 1  
    30   29   30 ar 
    31   29   31 ar 
    32   32   33 1  
    33   33   34 1  
    34   33   36 1  
    35   34   35 2  
    36   34   43 am 
    37   36   37 1  
    38   37   38 1  
    39   38   39 1  
    40   39   40 ar 
    41   40   41 ar 
    42   40   42 ar 
    43   43   44 1  
    44   44   45 1  
    45   44   47 1  
    46   45   46 2  
    47   45   51 am 
    48   47   48 1  
    49   48   49 1  
    50   48   50 1  
    51   51   52 1  
    52   52   53 1  
    53   52   55 1  
    54   53   54 2  
    55   53   59 am 
    56   55   56 1  
    57   56   57 1  
    58   56   58 1  
    59   59   60 1  
    60   60   61 1  
    61   60   63 1  
    62   61   62 2  
    63   61   67 am 
    64   63   64 1  
    65   64   65 1  
    66   64   66 1  
    67   67   68 1  
    68   68   69 1  
    69   68   71 1  
    70   69   70 2  
    71   69   76 am 
    72   71   72 1  
    73   72   73 1  
    74   73   74 ar 
    75   73   75 ar 
    76   76   77 1  
    77   77   78 1  
    78   77   80 1  
    79   78   79 2  
    80   78   84 am 
    81   80   81 1  
    82   81   82 1  
    83   81   83 1  
    84   84   85 1  
    85   85   86 1  
    86   85   88 1  
    87   86   87 ar 
    88   88   89 1  
    89   89   90 2  
    90   89   91 am 
    91    1   92 1  
    92    1   93 1  
    93    1   94 1  
    94    2   95 1  
    95    5   96 1  
    96    5   97 1  
    97    6   98 1  
    98    7   99 1  
    99    8  100 1  
   100   11  101 1  
   101   11  102 1  
   102   12  103 1  
   103   12  104 1  
   104   16  105 1  
   105   17  106 1  
   106   20  107 1  
   107   20  108 1  
   108   21  109 1  
   109   22  110 1  
   110   22  111 1  
   111   22  112 1  
   112   23  113 1  
   113   23  114 1  
   114   23  115 1  
   115   24  116 1  
   116   25  117 1  
   117   28  118 1  
   118   28  119 1  
   119   32  120 1  
   120   33  121 1  
   121   36  122 1  
   122   36  123 1  
   123   37  124 1  
   124   37  125 1  
   125   38  126 1  
   126   38  127 1  
   127   39  128 1  
   128   41  129 1  
   129   41  130 1  
   130   42  131 1  
   131   42  132 1  
   132   43  133 1  
   133   44  134 1  
   134   47  135 1  
   135   47  136 1  
   136   48  137 1  
   137   49  138 1  
   138   49  139 1  
   139   49  140 1  
   140   50  141 1  
   141   50  142 1  
   142   50  143 1  
   143   51  144 1  
   144   52  145 1  
   145   55  146 1  
   146   55  147 1  
   147   56  148 1  
   148   57  149 1  
   149   57  150 1  
   150   57  151 1  
   151   58  152 1  
   152   58  153 1  
   153   58  154 1  
   154   59  155 1  
   155   60  156 1  
   156   63  157 1  
   157   63  158 1  
   158   64  159 1  
   159   65  160 1  
   160   65  161 1  
   161   65  162 1  
   162   66  163 1  
   163   66  164 1  
   164   66  165 1  
   165   67  166 1  
   166   68  167 1  
   167   71  168 1  
   168   71  169 1  
   169   72  170 1  
   170   72  171 1  
   171   76  172 1  
   172   77  173 1  
   173   80  174 1  
   174   80  175 1  
   175   81  176 1  
   176   82  177 1  
   177   82  178 1  
   178   82  179 1  
   179   83  180 1  
   180   83  181 1  
   181   83  182 1  
   182   84  183 1  
   183   85  184 1  
   184   86  185 ar 
   185   88  186 1  
   186   88  187 1  
   187   91  188 1  
   188   91  189 1  
@<TRIPOS>SUBSTRUCTURE
     1 SER         1

