5msb_ligand
  -I-interpret- 

 27 27  0  0  0  0  0  0  0  0999 V2000
   29.5060    5.9510   10.6330 O   0  0  0  0  0
   28.1760    6.7820   10.9000 S   0  0  0  0  0
   27.9670    7.2570   12.3190 O   0  0  0  0  0
   28.2710    8.1360    9.7940 C   0  0  0  0  0
   29.6750    8.6630    9.5610 C   0  0  0  0  0
   29.9150    9.6980   10.4510 O   0  0  0  0  0
   26.7650    5.6550   10.7180 C   0  0  0  0  0
   25.7620    5.3210   11.6550 C   0  0  0  0  0
   25.6750    5.9250   12.8520 F   0  0  0  0  0
   24.7590    4.3800   11.3990 C   0  0  0  0  0
   23.8890    4.1240   12.3750 F   0  0  0  0  0
   24.7590    3.7420   10.1850 C   0  0  0  0  0
   23.6840    2.3210    9.8980 S   0  0  0  0  0
   24.6690    1.2410    9.8860 O   0  0  0  0  0
   22.6240    2.1160   11.0210 N   0  0  0  0  0
   23.0390    2.5760    8.6210 O   0  0  0  0  0
   25.7480    4.0320    9.2660 C   0  0  0  0  0
   25.7430    3.4290    8.0890 F   0  0  0  0  0
   26.6940    5.0220    9.4920 C   0  0  0  0  0
   27.5570    5.2510    8.4680 F   0  0  0  0  0
   27.6949    8.9491   10.2358 H   0  0  0  0  0
   27.8978    7.7874    8.8310 H   0  0  0  0  0
   29.7690    9.0258    8.5374 H   0  0  0  0  0
   30.4006    7.8648    9.7173 H   0  0  0  0  0
   30.8016   10.0390   10.3120 H   0  0  0  0  0
   22.6796    1.3013   11.6322 H   0  0  0  0  0
   21.8743    2.7964   11.1451 H   0  0  0  0  0
  1  2  2  0  0  0
  2  3  2  0  0  0
  2  4  1  0  0  0
  2  7  1  0  0  0
  4  5  1  0  0  0
  5  6  1  0  0  0
  7  8  4  0  0  0
  7 19  4  0  0  0
  8  9  1  0  0  0
  8 10  4  0  0  0
 10 11  1  0  0  0
 10 12  4  0  0  0
 12 13  1  0  0  0
 12 17  4  0  0  0
 13 14  2  0  0  0
 13 15  1  0  0  0
 13 16  2  0  0  0
 17 18  1  0  0  0
 17 19  4  0  0  0
 19 20  1  0  0  0
  4 21  1  0  0  0
  4 22  1  0  0  0
  5 23  1  0  0  0
  5 24  1  0  0  0
  6 25  1  0  0  0
 15 26  1  0  0  0
 15 27  1  0  0  0
M  END
$$$$
