6f1x_ligand
  -I-interpret- 

 34 36  0  0  0  0  0  0  0  0999 V2000
    2.2370  -26.0460   17.8610 C   0  0  0  0  0
    1.3170  -25.2320   17.1880 C   0  0  0  0  0
    1.8290  -24.2770   16.3090 C   0  0  0  0  0
    3.2950  -19.7460   12.4890 C   0  0  0  0  0
    4.3830  -19.6670   11.4290 C   0  0  0  0  0
    3.1900  -24.1940   16.1830 C   0  0  0  0  0
    3.5760  -25.8520   17.6330 C   0  0  0  0  0
   -0.1310  -25.3460   17.2860 C   0  0  0  0  0
   -0.8800  -25.4350   16.0720 C   0  0  0  0  0
   -2.2680  -25.5470   16.0680 C   0  0  0  0  0
   -2.9420  -25.5920   17.2800 C   0  0  0  0  0
   -2.2240  -25.5430   18.4760 C   0  0  0  0  0
   -0.8350  -25.4160   18.4770 C   0  0  0  0  0
    1.2870  -23.2550   15.4700 C   0  0  0  0  0
    2.3220  -22.5990   14.8260 C   0  0  0  0  0
   -3.1870  -25.6220   14.5790 Cl  0  0  0  0  0
    2.1820  -21.4800   13.8980 C   0  0  0  0  0
    1.0960  -20.9510   13.6930 O   0  0  0  0  0
    3.4700  -23.2000   15.2910 N   0  0  0  0  0
    3.2900  -21.0140   13.2200 N   0  0  0  0  0
    4.1160  -24.9340   16.7870 N   0  0  0  0  0
    1.8963  -26.8175   18.5515 H   0  0  0  0  0
    2.3342  -19.6539   11.9825 H   0  0  0  0  0
    3.4798  -18.9504   13.2107 H   0  0  0  0  0
    5.3585  -19.7776   11.9025 H   0  0  0  0  0
    4.2383  -20.4656   10.7014 H   0  0  0  0  0
    4.3291  -18.7014   10.9261 H   0  0  0  0  0
    4.2696  -26.4913   18.1792 H   0  0  0  0  0
   -0.3487  -25.4146   15.1205 H   0  0  0  0  0
   -4.0294  -25.6654   17.2981 H   0  0  0  0  0
   -2.7574  -25.6050   19.4245 H   0  0  0  0  0
   -0.2980  -25.3714   19.4245 H   0  0  0  0  0
    0.2271  -23.0281   15.3554 H   0  0  0  0  0
    4.1408  -21.5766   13.2287 H   0  0  0  0  0
  2  1  4  0  0  0
  7  1  4  0  0  0
  3  2  4  0  0  0
  2  8  1  0  0  0
  6  3  4  0  0  0
 14  3  4  0  0  0
  4  5  1  0  0  0
 20  4  1  0  0  0
 19  6  4  0  0  0
  6 21  4  0  0  0
 21  7  4  0  0  0
  8  9  4  0  0  0
  8 13  4  0  0  0
  9 10  4  0  0  0
 10 11  4  0  0  0
 10 16  1  0  0  0
 12 11  4  0  0  0
 13 12  4  0  0  0
 15 14  4  0  0  0
 17 15  1  0  0  0
 15 19  4  0  0  0
 17 18  2  0  0  0
 17 20  1  0  0  0
  1 22  1  0  0  0
  4 23  1  0  0  0
  4 24  1  0  0  0
  5 25  1  0  0  0
  5 26  1  0  0  0
  5 27  1  0  0  0
  7 28  1  0  0  0
  9 29  1  0  0  0
 11 30  1  0  0  0
 12 31  1  0  0  0
 13 32  1  0  0  0
 14 33  1  0  0  0
 20 34  1  0  0  0
M  END
$$$$
