2c4w_ligand
  -I-interpret- 

 32 35  0  0  0  0  0  0  0  0999 V2000
   33.0870   57.8780  109.8870 O   0  0  0  0  0
   31.6470   58.0050  110.2620 S   0  0  0  0  0
   31.1140   59.3340  109.8890 O   0  0  0  0  0
   30.6260   56.8700  109.5830 N   0  0  0  0  0
   30.8750   55.5660  109.7500 C   0  0  0  0  0
   31.7640   55.0150  110.5700 N   0  0  0  0  0
   31.5650   53.6740  110.3680 N   0  0  0  0  0
   30.6580   53.4780  109.4810 N   0  0  0  0  0
   30.2260   54.6860  109.0690 N   0  0  0  0  0
   31.4810   57.9970  111.9800 C   0  0  0  0  0
   32.5500   58.4330  112.7610 C   0  0  0  0  0
   30.2620   57.6820  112.5850 C   0  0  0  0  0
   30.1160   57.7660  113.9630 C   0  0  0  0  0
   31.1630   58.1830  114.7640 C   0  0  0  0  0
   30.9570   58.2930  116.1110 O   0  0  0  0  0
   31.9640   58.6750  116.9350 C   0  0  0  0  0
   31.7260   58.7760  118.3600 C   0  0  0  0  0
   32.7230   59.1860  119.1770 C   0  0  0  0  0
   33.9230   59.5620  118.7280 C   0  0  0  0  0
   34.2860   59.4450  117.4360 C   0  0  0  0  0
   33.2900   59.0270  116.4390 C   0  0  0  0  0
   33.5530   59.0050  114.9910 C   0  0  0  0  0
   32.4440   58.5390  114.1350 C   0  0  0  0  0
   34.6920   59.2830  114.5290 O   0  0  0  0  0
   29.8148   57.1705  109.0425 H   0  0  0  0  0
   33.4907   58.6963  112.2773 H   0  0  0  0  0
   29.4186   57.3677  111.9702 H   0  0  0  0  0
   29.1629   57.4995  114.4198 H   0  0  0  0  0
   30.7490   58.5231  118.7718 H   0  0  0  0  0
   32.5384   59.2106  120.2510 H   0  0  0  0  0
   34.6382   59.9808  119.4359 H   0  0  0  0  0
   35.3107   59.6587  117.1321 H   0  0  0  0  0
  1  2  2  0  0  0
  2  3  2  0  0  0
  2  4  1  0  0  0
  2 10  1  0  0  0
  4  5  1  0  0  0
  5  6  4  0  0  0
  5  9  4  0  0  0
  6  7  4  0  0  0
  7  8  4  0  0  0
  8  9  4  0  0  0
 10 11  4  0  0  0
 10 12  4  0  0  0
 11 23  4  0  0  0
 12 13  4  0  0  0
 13 14  4  0  0  0
 14 15  1  0  0  0
 14 23  4  0  0  0
 15 16  1  0  0  0
 16 17  4  0  0  0
 16 21  4  0  0  0
 17 18  4  0  0  0
 18 19  4  0  0  0
 19 20  4  0  0  0
 20 21  4  0  0  0
 21 22  1  0  0  0
 22 23  1  0  0  0
 22 24  2  0  0  0
  4 25  1  0  0  0
 11 26  1  0  0  0
 12 27  1  0  0  0
 13 28  1  0  0  0
 17 29  1  0  0  0
 18 30  1  0  0  0
 19 31  1  0  0  0
 20 32  1  0  0  0
M  END
$$$$
