### 
### Created by X-TOOL on Mon Sep 10 21:13:05 2018
### 

@<TRIPOS>MOLECULE
3qxh_ligand
   39    41     1     0     0
SMALL
GAST_HUCK


@<TRIPOS>ATOM
      1 PB         10.0950  -26.6360  -21.7690 P.3       1 ADP         0.2069
      2 O1B        10.4970  -26.2550  -20.3400 O.co2     1 ADP        -0.5891
      3 O2B         8.7250  -27.2420  -21.9080 O.co2     1 ADP        -0.5891
      4 O3B        10.3810  -25.5540  -22.7800 O.co2     1 ADP        -0.5891
      5 PA         11.8460  -28.9250  -21.3280 P.3       1 ADP         0.3276
      6 O1A        13.1810  -28.4680  -20.8340 O.co2     1 ADP        -0.5556
      7 O2A        10.9070  -29.4630  -20.3350 O.co2     1 ADP        -0.5556
      8 O3A        11.1390  -27.7890  -22.1820 O.3       1 ADP        -0.1548
      9 O5'        12.1960  -30.0090  -22.4490 O.3       1 ADP        -0.2436
     10 C5'        11.1420  -30.7190  -23.1750 C.3       1 ADP         0.1132
     11 C4'        11.5950  -32.1660  -23.3850 C.3       1 ADP         0.1189
     12 O4'        12.7790  -32.2120  -24.1910 O.3       1 ADP        -0.3364
     13 C3'        11.9220  -32.8550  -22.1130 C.3       1 ADP         0.1149
     14 O3'        11.5160  -34.2740  -22.2030 O.3       1 ADP        -0.3864
     15 C2'        13.4050  -32.7030  -21.9950 C.3       1 ADP         0.1385
     16 O2'        14.0630  -33.6950  -21.1560 O.3       1 ADP        -0.3836
     17 C1'        13.8150  -32.7900  -23.4660 C.3       1 ADP         0.2010
     18 N9         15.0370  -32.0060  -23.7310 N.pl3     1 ADP        -0.1919
     19 C8         15.1000  -30.6250  -23.7530 C.2       1 ADP         0.1123
     20 N7         16.3300  -30.2150  -24.0280 N.2       1 ADP        -0.2958
     21 C5         17.0910  -31.3290  -24.2410 C.ar      1 ADP         0.1045
     22 C6         18.4530  -31.4970  -24.6080 C.ar      1 ADP         0.1298
     23 N6         19.2890  -30.5180  -24.7930 N.pl3     1 ADP        -0.3152
     24 N1         18.8380  -32.8190  -24.7310 N.ar      1 ADP        -0.2698
     25 C2         17.9870  -33.8090  -24.5550 C.ar      1 ADP         0.0533
     26 N3         16.6940  -33.7100  -24.1900 N.ar      1 ADP        -0.2714
     27 C4         16.2370  -32.4400  -24.0660 C.ar      1 ADP         0.1613
     28 H          10.9625  -30.2397  -24.1374 H         1 ADP         0.0648
     29 H          10.2139  -30.6967  -22.6038 H         1 ADP         0.0648
     30 H          10.7562  -32.6672  -23.8681 H         1 ADP         0.0651
     31 H          11.4074  -32.4473  -21.2429 H         1 ADP         0.0648
     32 H          11.7280  -34.7192  -21.3793 H         1 ADP         0.2100
     33 H          13.7021  -31.7853  -21.4873 H         1 ADP         0.0676
     34 H          15.0070  -33.5216  -21.1378 H         1 ADP         0.2101
     35 H          14.0066  -33.8286  -23.7357 H         1 ADP         0.0996
     36 H          14.2534  -29.9635  -23.5692 H         1 ADP         0.1349
     37 H          18.9790  -29.5534  -24.6750 H         1 ADP         0.1820
     38 H          20.2546  -30.7148  -25.0561 H         1 ADP         0.1820
     39 H          18.3699  -34.8157  -24.7226 H         1 ADP         0.0996
@<TRIPOS>BOND
     1    1    2 ar 
     2    1    3 ar 
     3    1    4 ar 
     4    8    1 1  
     5    5    6 ar 
     6    5    7 ar 
     7    5    8 1  
     8    5    9 1  
     9    9   10 1  
    10   10   11 1  
    11   11   12 1  
    12   11   13 1  
    13   12   17 1  
    14   13   14 1  
    15   13   15 1  
    16   15   16 1  
    17   15   17 1  
    18   17   18 1  
    19   18   19 1  
    20   18   27 1  
    21   19   20 2  
    22   20   21 1  
    23   21   22 ar 
    24   21   27 ar 
    25   22   23 1  
    26   22   24 ar 
    27   24   25 ar 
    28   25   26 ar 
    29   26   27 ar 
    30   10   28 1  
    31   10   29 1  
    32   11   30 1  
    33   13   31 1  
    34   14   32 1  
    35   15   33 1  
    36   16   34 1  
    37   17   35 1  
    38   19   36 1  
    39   23   37 1  
    40   23   38 1  
    41   25   39 1  
@<TRIPOS>SUBSTRUCTURE
     1 ADP         1

