3qxh_ligand
  -I-interpret- 

 42 44  0  0  0  0  0  0  0  0999 V2000
   10.0950  -26.6360  -21.7690 P   0  0  0  0  0
   10.4970  -26.2550  -20.3400 O   0  0  0  0  0
    8.7250  -27.2420  -21.9080 O   0  0  0  0  0
   10.3810  -25.5540  -22.7800 O   0  0  0  0  0
   11.8460  -28.9250  -21.3280 P   0  0  0  0  0
   13.1810  -28.4680  -20.8340 O   0  0  0  0  0
   10.9070  -29.4630  -20.3350 O   0  0  0  0  0
   11.1390  -27.7890  -22.1820 O   0  0  0  0  0
   12.1960  -30.0090  -22.4490 O   0  0  0  0  0
   11.1420  -30.7190  -23.1750 C   0  0  0  0  0
   11.5950  -32.1660  -23.3850 C   0  0  0  0  0
   12.7790  -32.2120  -24.1910 O   0  0  0  0  0
   11.9220  -32.8550  -22.1130 C   0  0  0  0  0
   11.5160  -34.2740  -22.2030 O   0  0  0  0  0
   13.4050  -32.7030  -21.9950 C   0  0  0  0  0
   14.0630  -33.6950  -21.1560 O   0  0  0  0  0
   13.8150  -32.7900  -23.4660 C   0  0  0  0  0
   15.0370  -32.0060  -23.7310 N   0  0  0  0  0
   15.1000  -30.6250  -23.7530 C   0  0  0  0  0
   16.3300  -30.2150  -24.0280 N   0  0  0  0  0
   17.0910  -31.3290  -24.2410 C   0  0  0  0  0
   18.4530  -31.4970  -24.6080 C   0  0  0  0  0
   19.2890  -30.5180  -24.7930 N   0  0  0  0  0
   18.8380  -32.8190  -24.7310 N   0  0  0  0  0
   17.9870  -33.8090  -24.5550 C   0  0  0  0  0
   16.6940  -33.7100  -24.1900 N   0  0  0  0  0
   16.2370  -32.4400  -24.0660 C   0  0  0  0  0
   11.3801  -25.8785  -20.3468 H   0  0  0  0  0
   11.2661  -25.2106  -22.6378 H   0  0  0  0  0
   13.6992  -28.1403  -21.5727 H   0  0  0  0  0
   10.9625  -30.2397  -24.1374 H   0  0  0  0  0
   10.2139  -30.6967  -22.6038 H   0  0  0  0  0
   10.7562  -32.6672  -23.8681 H   0  0  0  0  0
   11.4074  -32.4473  -21.2429 H   0  0  0  0  0
   11.7280  -34.7192  -21.3793 H   0  0  0  0  0
   13.7021  -31.7853  -21.4873 H   0  0  0  0  0
   15.0070  -33.5216  -21.1378 H   0  0  0  0  0
   14.0066  -33.8286  -23.7357 H   0  0  0  0  0
   14.2534  -29.9635  -23.5692 H   0  0  0  0  0
   18.9790  -29.5534  -24.6750 H   0  0  0  0  0
   20.2546  -30.7148  -25.0561 H   0  0  0  0  0
   18.3699  -34.8157  -24.7226 H   0  0  0  0  0
  1  2  1  0  0  0
  1  3  2  0  0  0
  1  4  1  0  0  0
  8  1  1  0  0  0
  5  6  1  0  0  0
  5  7  2  0  0  0
  5  8  1  0  0  0
  5  9  1  0  0  0
  9 10  1  0  0  0
 10 11  1  0  0  0
 11 12  1  0  0  0
 11 13  1  0  0  0
 12 17  1  0  0  0
 13 14  1  0  0  0
 13 15  1  0  0  0
 15 16  1  0  0  0
 15 17  1  0  0  0
 17 18  1  0  0  0
 18 19  4  0  0  0
 18 27  4  0  0  0
 19 20  4  0  0  0
 20 21  4  0  0  0
 21 22  4  0  0  0
 21 27  4  0  0  0
 22 23  1  0  0  0
 22 24  4  0  0  0
 24 25  4  0  0  0
 25 26  4  0  0  0
 26 27  4  0  0  0
  2 28  1  0  0  0
  4 29  1  0  0  0
  6 30  1  0  0  0
 10 31  1  0  0  0
 10 32  1  0  0  0
 11 33  1  0  0  0
 13 34  1  0  0  0
 14 35  1  0  0  0
 15 36  1  0  0  0
 16 37  1  0  0  0
 17 38  1  0  0  0
 19 39  1  0  0  0
 23 40  1  0  0  0
 23 41  1  0  0  0
 25 42  1  0  0  0
M  END
$$$$
