3d5m_ligand
  -I-interpret- 

 62 65  0  0  0  0  0  0  0  0999 V2000
   93.9240   63.8280   52.5060 C   0  0  0  0  0
   92.6050   63.5130   52.1630 C   0  0  0  0  0
   94.3780   64.6020   50.2760 C   0  0  0  0  0
   96.5650   62.5440   57.1740 C   0  0  0  0  0
   94.8120   64.3810   51.5780 C   0  0  0  0  0
   92.1620   63.7460   50.8600 C   0  0  0  0  0
   97.0750   61.7570   56.0270 C   0  0  0  0  0
   97.1160   61.4490   53.5310 C   0  0  0  0  0
   96.9690   62.2050   52.2390 C   0  0  0  0  0
   98.6450   60.8040   50.9240 C   0  0  0  0  0
   98.8840   61.4870   63.6980 C   0  0  0  0  0
   96.2420   64.6780   51.9860 C   0  0  0  0  0
   98.3230   62.2230   51.4700 C   0  0  0  0  0
   92.5580   64.6150   48.3060 Cl  0  0  0  0  0
   93.0570   64.2950   49.9240 C   0  0  0  0  0
   90.8860   63.4300   50.5460 F   0  0  0  0  0
   96.6130   63.5230   52.7820 N   0  0  0  0  0
   99.4910   62.7170   52.3670 C   0  0  0  0  0
   98.3300   63.1600   50.2410 C   0  0  0  0  0
   97.4580   60.1310   53.5190 O   0  0  0  0  0
   96.5940   63.5530   54.1640 C   0  0  0  0  0
   96.3400   64.5140   54.8680 O   0  0  0  0  0
   96.8900   62.1780   54.6350 C   0  0  0  0  0
   95.7860   63.6910   57.2610 C   0  0  0  0  0
   97.7880   60.7100   56.3330 N   0  0  0  0  0
   97.9240   60.5160   57.9640 S   0  0  0  0  0
   99.3150   60.7330   58.3250 O   0  0  0  0  0
   97.1720   59.3680   58.4120 O   0  0  0  0  0
   96.9850   61.9290   58.3490 C   0  0  0  0  0
   96.6570   62.4080   59.6040 C   0  0  0  0  0
   95.8720   63.5690   59.6960 C   0  0  0  0  0
   95.4420   64.2070   58.5210 C   0  0  0  0  0
   97.1320   61.7100   60.8150 C   0  0  0  0  0
   97.0610   62.4990   62.0140 N   0  0  0  0  0
   97.1290   61.5700   63.4350 S   0  0  0  0  0
   96.6860   60.2160   63.1350 O   0  0  0  0  0
   96.5810   62.3050   64.5500 O   0  0  0  0  0
   94.2684   63.6376   53.5225 H   0  0  0  0  0
   91.9295   63.0896   52.9063 H   0  0  0  0  0
   95.0618   65.0120   49.5328 H   0  0  0  0  0
   96.2566   61.8060   51.5169 H   0  0  0  0  0
   98.7143   60.1031   51.7559 H   0  0  0  0  0
   97.8518   60.4882   50.2463 H   0  0  0  0  0
   99.5939   60.8289   50.3882 H   0  0  0  0  0
   99.0939   60.8163   64.5312 H   0  0  0  0  0
   99.3678   61.1111   62.7965 H   0  0  0  0  0
   99.2633   62.4829   63.9271 H   0  0  0  0  0
   96.3336   65.6133   52.5383 H   0  0  0  0  0
   96.8996   64.8239   51.1290 H   0  0  0  0  0
   99.2796   63.7292   52.7117 H   0  0  0  0  0
   99.5938   62.0534   53.2256 H   0  0  0  0  0
  100.4163   62.7138   51.7909 H   0  0  0  0  0
   97.5617   62.8398   49.5372 H   0  0  0  0  0
   98.1266   64.1812   50.5632 H   0  0  0  0  0
   99.3066   63.1175   49.7589 H   0  0  0  0  0
   97.5646   59.8375   52.6112 H   0  0  0  0  0
   95.4429   64.1889   56.3541 H   0  0  0  0  0
   95.5987   63.9716   60.6714 H   0  0  0  0  0
   94.8360   65.1105   58.5876 H   0  0  0  0  0
   98.1813   61.4629   60.6537 H   0  0  0  0  0
   96.4873   60.8433   60.9610 H   0  0  0  0  0
   96.9780   63.5156   62.0122 H   0  0  0  0  0
  1  2  4  0  0  0
  5  1  4  0  0  0
  2  6  4  0  0  0
  5  3  4  0  0  0
  3 15  4  0  0  0
  4  7  1  0  0  0
  4 24  4  0  0  0
 29  4  4  0  0  0
 12  5  1  0  0  0
 15  6  4  0  0  0
  6 16  1  0  0  0
  7 23  1  0  0  0
 25  7  2  0  0  0
  8  9  1  0  0  0
  8 20  1  0  0  0
 23  8  2  0  0  0
  9 13  1  0  0  0
 17  9  1  0  0  0
 13 10  1  0  0  0
 35 11  1  0  0  0
 17 12  1  0  0  0
 13 18  1  0  0  0
 13 19  1  0  0  0
 15 14  1  0  0  0
 21 17  1  0  0  0
 21 22  2  0  0  0
 23 21  1  0  0  0
 32 24  4  0  0  0
 26 25  1  0  0  0
 26 27  2  0  0  0
 26 28  2  0  0  0
 29 26  1  0  0  0
 30 29  4  0  0  0
 30 31  4  0  0  0
 33 30  1  0  0  0
 31 32  4  0  0  0
 34 33  1  0  0  0
 34 35  1  0  0  0
 35 36  2  0  0  0
 35 37  2  0  0  0
  1 38  1  0  0  0
  2 39  1  0  0  0
  3 40  1  0  0  0
  9 41  1  0  0  0
 10 42  1  0  0  0
 10 43  1  0  0  0
 10 44  1  0  0  0
 11 45  1  0  0  0
 11 46  1  0  0  0
 11 47  1  0  0  0
 12 48  1  0  0  0
 12 49  1  0  0  0
 18 50  1  0  0  0
 18 51  1  0  0  0
 18 52  1  0  0  0
 19 53  1  0  0  0
 19 54  1  0  0  0
 19 55  1  0  0  0
 20 56  1  0  0  0
 24 57  1  0  0  0
 31 58  1  0  0  0
 32 59  1  0  0  0
 33 60  1  0  0  0
 33 61  1  0  0  0
 34 62  1  0  0  0
M  END
$$$$
