3ihz_ligand
  -I-interpret- 

132135  0  0  0  0  0  0  0  0999 V2000
   -6.8790   -7.9670  -27.3520 C   0  0  0  0  0
   -6.2480   -8.1560  -26.0120 C   0  0  0  0  0
   -6.7740   -7.0780  -25.0390 C   0  0  0  0  0
   -6.1320   -5.6930  -25.2100 C   0  0  0  0  0
   -4.6070   -5.8330  -25.2740 C   0  0  0  0  0
   -4.1170   -6.8060  -26.3570 C   0  0  0  0  0
   -4.0810   -9.2080  -25.8730 C   0  0  0  0  0
   -2.6970   -9.3120  -25.8920 C   0  0  0  0  0
   -1.9370   -9.5600  -27.1670 C   0  0  0  0  0
   -2.6390  -10.5320  -28.0950 C   0  0  0  0  0
   -1.9800  -10.4620  -29.4730 C   0  0  0  0  0
   -1.9150   -9.0340  -30.0050 C   0  0  0  0  0
   -1.1480   -8.1980  -28.9810 C   0  0  0  0  0
   -1.0010   -6.7060  -29.3370 C   0  0  0  0  0
   -2.2650   -6.0270  -29.8410 C   0  0  0  0  0
   -2.2140   -4.4820  -29.8830 C   0  0  0  0  0
   -1.6710   -4.0070  -31.2340 C   0  0  0  0  0
   -2.7620   -4.1010  -32.2780 C   0  0  0  0  0
   -2.7810   -5.2270  -33.2130 C   0  0  0  0  0
   -3.8880   -5.4280  -34.1930 C   0  0  0  0  0
   -4.9330   -6.2320  -33.5030 C   0  0  0  0  0
   -6.1050   -5.5650  -32.8410 C   0  0  0  0  0
   -6.8840   -6.4830  -31.9080 C   0  0  0  0  0
   -6.2090   -6.7460  -30.5400 C   0  0  0  0  0
   -6.9660   -7.7410  -29.6400 C   0  0  0  0  0
   -6.9890   -9.1030  -30.2870 C   0  0  0  0  0
   -8.3000   -9.6550  -30.6760 C   0  0  0  0  0
   -8.4570  -11.0030  -31.3410 C   0  0  0  0  0
   -9.7300  -11.6780  -30.7840 C   0  0  0  0  0
   -9.9480  -13.0130  -31.4590 C   0  0  0  0  0
  -10.0840  -12.8350  -32.9700 C   0  0  0  0  0
   -8.8390  -12.1650  -33.5250 C   0  0  0  0  0
   -8.6490  -10.8030  -32.8570 C   0  0  0  0  0
   -2.6350  -11.9780  -27.5660 C   0  0  0  0  0
   -1.3470   -3.8260  -28.7990 C   0  0  0  0  0
   -3.8130   -3.0330  -32.3450 C   0  0  0  0  0
   -3.3170   -6.1940  -35.3830 C   0  0  0  0  0
   -2.3440   -5.2640  -36.1020 C   0  0  0  0  0
   -2.3360   -5.1450  -37.5740 C   0  0  0  0  0
   -5.9990   -5.4310  -29.7610 C   0  0  0  0  0
   -5.7030   -9.8770  -30.5490 C   0  0  0  0  0
   -2.0540   -9.5710  -32.2920 C   0  0  0  0  0
    1.3100   -6.6070  -29.6480 C   0  0  0  0  0
  -11.0740  -13.9990  -29.6430 C   0  0  0  0  0
   -4.7880   -8.1030  -26.1140 N   0  0  0  0  0
   -6.2240   -7.9100  -28.4260 O   0  0  0  0  0
   -8.2430   -7.8050  -27.3760 O   0  0  0  0  0
   -4.7390  -10.3430  -25.5210 O   0  0  0  0  0
   -2.0230   -9.2590  -24.7040 O   0  0  0  0  0
   -1.8540   -8.2940  -27.7530 O   0  0  0  0  0
   -0.6400  -10.0880  -26.8390 O   0  0  0  0  0
   -1.2640   -8.9890  -31.2660 O   0  0  0  0  0
    0.0360   -6.5130  -30.2830 O   0  0  0  0  0
   -4.7670   -7.5910  -33.4660 O   0  0  0  0  0
   -8.1490   -5.9050  -31.6850 O   0  0  0  0  0
  -11.1650  -13.5830  -31.0060 O   0  0  0  0  0
  -10.2540  -14.1230  -33.5650 O   0  0  0  0  0
   -6.5152   -9.1400  -25.6266 H   0  0  0  0  0
   -6.5357   -7.4165  -24.0307 H   0  0  0  0  0
   -7.8391   -6.9615  -25.2393 H   0  0  0  0  0
   -6.4012   -5.0634  -24.3619 H   0  0  0  0  0
   -6.4918   -5.2402  -26.1339 H   0  0  0  0  0
   -4.2765   -6.2250  -24.3121 H   0  0  0  0  0
   -4.2007   -4.8502  -25.5129 H   0  0  0  0  0
   -3.0339   -6.9189  -26.3107 H   0  0  0  0  0
   -4.3584   -6.4285  -27.3506 H   0  0  0  0  0
   -2.7146   -8.4176  -26.5147 H   0  0  0  0  0
   -3.6865  -10.2373  -28.1586 H   0  0  0  0  0
   -2.5757  -11.0565  -30.1657 H   0  0  0  0  0
   -0.9610  -10.8381  -29.3824 H   0  0  0  0  0
   -2.9218   -8.6418  -30.1484 H   0  0  0  0  0
   -0.1336   -8.5949  -28.9405 H   0  0  0  0  0
   -0.7602   -6.2291  -28.3869 H   0  0  0  0  0
   -3.0609   -6.2940  -29.1458 H   0  0  0  0  0
   -2.4110   -6.3623  -30.8678 H   0  0  0  0  0
   -3.2461   -4.1773  -29.7096 H   0  0  0  0  0
   -0.8309   -4.6358  -31.5291 H   0  0  0  0  0
   -1.3386   -2.9725  -31.1483 H   0  0  0  0  0
   -1.9590   -5.9426  -33.1927 H   0  0  0  0  0
   -4.3160   -4.4895  -34.5453 H   0  0  0  0  0
   -6.0004   -6.0350  -33.6023 H   0  0  0  0  0
   -6.7869   -5.2461  -33.6293 H   0  0  0  0  0
   -5.7160   -4.7430  -32.2401 H   0  0  0  0  0
   -6.9408   -7.4529  -32.4021 H   0  0  0  0  0
   -5.2506   -7.2018  -30.7888 H   0  0  0  0  0
   -7.9736   -7.3607  -29.4718 H   0  0  0  0  0
   -9.1944   -9.0653  -30.4752 H   0  0  0  0  0
   -7.5747  -11.6138  -31.1498 H   0  0  0  0  0
  -10.5891  -11.0353  -30.9765 H   0  0  0  0  0
   -9.6120  -11.8344  -29.7118 H   0  0  0  0  0
   -9.0946  -13.6482  -31.2217 H   0  0  0  0  0
  -10.9451  -12.2061  -33.1961 H   0  0  0  0  0
   -8.9499  -12.0286  -34.6007 H   0  0  0  0  0
   -7.9701  -12.7916  -33.3238 H   0  0  0  0  0
   -7.7708  -10.3106  -33.2746 H   0  0  0  0  0
   -9.5275  -10.1829  -33.0353 H   0  0  0  0  0
   -1.6060  -12.3172  -27.4471 H   0  0  0  0  0
   -3.1439  -12.0125  -26.6027 H   0  0  0  0  0
   -3.1523  -12.6243  -28.2750 H   0  0  0  0  0
   -1.7302   -4.0975  -27.8154 H   0  0  0  0  0
   -0.3187   -4.1736  -28.8983 H   0  0  0  0  0
   -1.3787   -2.7428  -28.9164 H   0  0  0  0  0
   -3.7817   -2.5551  -33.3242 H   0  0  0  0  0
   -4.7945   -3.4806  -32.1890 H   0  0  0  0  0
   -3.6239   -2.2898  -31.5704 H   0  0  0  0  0
   -4.1163   -6.5041  -36.0561 H   0  0  0  0  0
   -2.8049   -7.0954  -35.0463 H   0  0  0  0  0
   -1.3644   -5.6816  -35.8692 H   0  0  0  0  0
   -2.6344   -4.2700  -35.7620 H   0  0  0  0  0
   -2.1221   -6.1187  -38.0148 H   0  0  0  0  0
   -3.3112   -4.7970  -37.9144 H   0  0  0  0  0
   -1.5688   -4.4318  -37.8754 H   0  0  0  0  0
   -5.3620   -4.7639  -30.3418 H   0  0  0  0  0
   -6.9640   -4.9546  -29.5880 H   0  0  0  0  0
   -5.5232   -5.6487  -28.8048 H   0  0  0  0  0
   -5.7422  -10.8322  -30.0254 H   0  0  0  0  0
   -5.5976  -10.0522  -31.6197 H   0  0  0  0  0
   -4.8524   -9.2984  -30.1887 H   0  0  0  0  0
   -2.2533  -10.6144  -32.0476 H   0  0  0  0  0
   -2.9963   -9.0294  -32.3746 H   0  0  0  0  0
   -1.5167   -9.5145  -33.2387 H   0  0  0  0  0
    1.3864   -5.8426  -28.8747 H   0  0  0  0  0
    1.4180   -7.5936  -29.1973 H   0  0  0  0  0
    2.0956   -6.4564  -30.3885 H   0  0  0  0  0
  -10.2855  -14.7451  -29.5440 H   0  0  0  0  0
  -10.8419  -13.1379  -29.0164 H   0  0  0  0  0
  -12.0254  -14.4305  -29.3319 H   0  0  0  0  0
   -1.0808   -9.3429  -24.8679 H   0  0  0  0  0
   -0.7404  -10.9555  -26.4402 H   0  0  0  0  0
   -5.5034   -7.9895  -32.9964 H   0  0  0  0  0
   -8.6581   -6.4687  -31.0979 H   0  0  0  0  0
  -10.3409  -14.0259  -34.5161 H   0  0  0  0  0
  2  1  1  0  0  0
  1 46  1  0  0  0
  1 47  2  0  0  0
  2  3  1  0  0  0
 45  2  1  0  0  0
  3  4  1  0  0  0
  5  4  1  0  0  0
  6  5  1  0  0  0
 45  6  1  0  0  0
  7  8  1  0  0  0
  7 45  1  0  0  0
  7 48  2  0  0  0
  8  9  1  0  0  0
  8 49  1  0  0  0
  9 10  1  0  0  0
  9 50  1  0  0  0
  9 51  1  0  0  0
 10 11  1  0  0  0
 10 34  1  0  0  0
 11 12  1  0  0  0
 12 13  1  0  0  0
 12 52  1  0  0  0
 13 14  1  0  0  0
 13 50  1  0  0  0
 14 15  1  0  0  0
 14 53  1  0  0  0
 15 16  1  0  0  0
 16 17  1  0  0  0
 16 35  1  0  0  0
 17 18  1  0  0  0
 18 19  2  0  0  0
 18 36  1  0  0  0
 19 20  1  0  0  0
 20 21  1  0  0  0
 20 37  1  0  0  0
 21 22  1  0  0  0
 21 54  1  0  0  0
 22 23  1  0  0  0
 23 24  1  0  0  0
 23 55  1  0  0  0
 24 25  1  0  0  0
 24 40  1  0  0  0
 25 26  1  0  0  0
 25 46  1  0  0  0
 26 27  2  0  0  0
 26 41  1  0  0  0
 27 28  1  0  0  0
 28 29  1  0  0  0
 28 33  1  0  0  0
 29 30  1  0  0  0
 30 31  1  0  0  0
 30 56  1  0  0  0
 31 32  1  0  0  0
 31 57  1  0  0  0
 32 33  1  0  0  0
 37 38  1  0  0  0
 38 39  1  0  0  0
 52 42  1  0  0  0
 53 43  1  0  0  0
 56 44  1  0  0  0
  2 58  1  0  0  0
  3 59  1  0  0  0
  3 60  1  0  0  0
  4 61  1  0  0  0
  4 62  1  0  0  0
  5 63  1  0  0  0
  5 64  1  0  0  0
  6 65  1  0  0  0
  6 66  1  0  0  0
  8 67  1  0  0  0
 10 68  1  0  0  0
 11 69  1  0  0  0
 11 70  1  0  0  0
 12 71  1  0  0  0
 13 72  1  0  0  0
 14 73  1  0  0  0
 15 74  1  0  0  0
 15 75  1  0  0  0
 16 76  1  0  0  0
 17 77  1  0  0  0
 17 78  1  0  0  0
 19 79  1  0  0  0
 20 80  1  0  0  0
 21 81  1  0  0  0
 22 82  1  0  0  0
 22 83  1  0  0  0
 23 84  1  0  0  0
 24 85  1  0  0  0
 25 86  1  0  0  0
 27 87  1  0  0  0
 28 88  1  0  0  0
 29 89  1  0  0  0
 29 90  1  0  0  0
 30 91  1  0  0  0
 31 92  1  0  0  0
 32 93  1  0  0  0
 32 94  1  0  0  0
 33 95  1  0  0  0
 33 96  1  0  0  0
 34 97  1  0  0  0
 34 98  1  0  0  0
 34 99  1  0  0  0
 35100  1  0  0  0
 35101  1  0  0  0
 35102  1  0  0  0
 36103  1  0  0  0
 36104  1  0  0  0
 36105  1  0  0  0
 37106  1  0  0  0
 37107  1  0  0  0
 38108  1  0  0  0
 38109  1  0  0  0
 39110  1  0  0  0
 39111  1  0  0  0
 39112  1  0  0  0
 40113  1  0  0  0
 40114  1  0  0  0
 40115  1  0  0  0
 41116  1  0  0  0
 41117  1  0  0  0
 41118  1  0  0  0
 42119  1  0  0  0
 42120  1  0  0  0
 42121  1  0  0  0
 43122  1  0  0  0
 43123  1  0  0  0
 43124  1  0  0  0
 44125  1  0  0  0
 44126  1  0  0  0
 44127  1  0  0  0
 49128  1  0  0  0
 51129  1  0  0  0
 54130  1  0  0  0
 55131  1  0  0  0
 57132  1  0  0  0
M  END
$$$$
