5aqn_ligand
  -I-interpret- 

 20 22  0  0  0  0  0  0  0  0999 V2000
  -28.1910   18.3280   63.6880 O   0  0  0  0  0
  -28.7610   17.8340   62.7220 C   0  0  0  0  0
  -29.4780   18.6130   61.8590 N   0  0  0  0  0
  -30.1410   18.1420   60.7920 C   0  0  0  0  0
  -30.1890   16.9020   60.4350 N   0  0  0  0  0
  -29.4770   16.1030   61.2820 C   0  0  0  0  0
  -28.7660   16.4520   62.3910 C   0  0  0  0  0
  -28.1850   15.3770   63.0310 O   0  0  0  0  0
  -28.5560   14.2770   62.2890 C   0  0  0  0  0
  -29.3360   14.6600   61.2080 C   0  0  0  0  0
  -28.2320   12.9650   62.5560 C   0  0  0  0  0
  -28.7090   11.9950   61.6930 C   0  0  0  0  0
  -29.4820   12.3450   60.5960 C   0  0  0  0  0
  -29.7990   13.6710   60.3460 C   0  0  0  0  0
  -29.5115   19.6168   62.0371 H   0  0  0  0  0
  -30.6816   18.8626   60.1783 H   0  0  0  0  0
  -27.6203   12.7001   63.4184 H   0  0  0  0  0
  -28.4753   10.9463   61.8767 H   0  0  0  0  0
  -29.8445   11.5683   59.9226 H   0  0  0  0  0
  -30.4063   13.9368   59.4808 H   0  0  0  0  0
  1  2  2  0  0  0
  2  3  1  0  0  0
  2  7  1  0  0  0
  3  4  1  0  0  0
  4  5  2  0  0  0
  5  6  1  0  0  0
  6  7  4  0  0  0
  6 10  4  0  0  0
  7  8  4  0  0  0
  8  9  4  0  0  0
  9 10  4  0  0  0
  9 11  4  0  0  0
 10 14  4  0  0  0
 11 12  4  0  0  0
 12 13  4  0  0  0
 13 14  4  0  0  0
  3 15  1  0  0  0
  4 16  1  0  0  0
 11 17  1  0  0  0
 12 18  1  0  0  0
 13 19  1  0  0  0
 14 20  1  0  0  0
M  END
$$$$
