4h4e_ligand
  -I-interpret- 

 27 26  0  0  0  0  0  0  0  0999 V2000
  -10.5450    0.9300   16.0220 O   0  0  0  0  0
   -9.3790    0.8190   16.9860 P   0  0  0  0  0
   -9.7070    1.0280   18.4300 O   0  0  0  0  0
   -8.2300    1.7740   16.5720 O   0  0  0  0  0
   -8.6520   -0.5960   16.9280 O   0  0  0  0  0
   -9.1760   -2.0680   16.6240 P   0  0  0  0  0
  -10.5650   -2.2810   17.1670 O   0  0  0  0  0
   -8.1120   -2.9750   17.1110 O   0  0  0  0  0
   -9.3700   -2.1860   14.9880 O   0  0  0  0  0
   -8.2030   -2.2580   14.1160 C   0  0  0  0  0
   -7.5290   -0.9590   14.2090 C   0  0  0  0  0
   -6.2660   -0.6310   14.4140 C   0  0  0  0  0
   -5.0290   -1.4210   14.5930 C   0  0  0  0  0
   -5.9090    0.8440   14.5410 C   0  0  0  0  0
   -5.1610    1.1610   12.9940 S   0  0  0  0  0
  -10.2335    0.7808   15.1263 H   0  0  0  0  0
   -8.0210    1.6383   15.6449 H   0  0  0  0  0
  -11.1613   -1.6364   16.7791 H   0  0  0  0  0
   -8.4977   -2.4707   13.0884 H   0  0  0  0  0
   -7.5372   -3.0646   14.4228 H   0  0  0  0  0
   -8.1945   -0.1045   14.0860 H   0  0  0  0  0
   -5.1344   -2.0661   15.4653 H   0  0  0  0  0
   -4.8579   -2.0316   13.7065 H   0  0  0  0  0
   -4.1860   -0.7456   14.7388 H   0  0  0  0  0
   -5.2615    1.0631   15.3900 H   0  0  0  0  0
   -6.7676    1.4829   14.7479 H   0  0  0  0  0
   -4.7825    2.4348   12.9390 H   0  0  0  0  0
  1  2  1  0  0  0
  2  3  2  0  0  0
  2  4  1  0  0  0
  2  5  1  0  0  0
  5  6  1  0  0  0
  6  7  1  0  0  0
  6  8  2  0  0  0
  6  9  1  0  0  0
  9 10  1  0  0  0
 10 11  1  0  0  0
 11 12  2  0  0  0
 12 13  1  0  0  0
 12 14  1  0  0  0
 14 15  1  0  0  0
  1 16  1  0  0  0
  4 17  1  0  0  0
  7 18  1  0  0  0
 10 19  1  0  0  0
 10 20  1  0  0  0
 11 21  1  0  0  0
 13 22  1  0  0  0
 13 23  1  0  0  0
 13 24  1  0  0  0
 14 25  1  0  0  0
 14 26  1  0  0  0
 15 27  1  0  0  0
M  END
$$$$
