### 
### Created by X-TOOL on Mon Sep 10 21:13:13 2018
### 

@<TRIPOS>MOLECULE
4h4e_ligand
   24    23     1     0     0
SMALL
GAST_HUCK


@<TRIPOS>ATOM
      1 O13       -10.5450    0.9300   16.0220 O.co2     1 10G        -0.5891
      2 P12        -9.3790    0.8190   16.9860 P.3       1 10G         0.2070
      3 O14        -9.7070    1.0280   18.4300 O.co2     1 10G        -0.5891
      4 O15        -8.2300    1.7740   16.5720 O.co2     1 10G        -0.5891
      5 O11        -8.6520   -0.5960   16.9280 O.3       1 10G        -0.1547
      6 P8         -9.1760   -2.0680   16.6240 P.3       1 10G         0.3288
      7 O9        -10.5650   -2.2810   17.1670 O.co2     1 10G        -0.5555
      8 O10        -8.1120   -2.9750   17.1110 O.co2     1 10G        -0.5555
      9 O7         -9.3700   -2.1860   14.9880 O.3       1 10G        -0.2411
     10 C6         -8.2030   -2.2580   14.1160 C.3       1 10G         0.0917
     11 C5         -7.5290   -0.9590   14.2090 C.2       1 10G        -0.0776
     12 C3         -6.2660   -0.6310   14.4140 C.2       1 10G        -0.0720
     13 C4         -5.0290   -1.4210   14.5930 C.3       1 10G        -0.0395
     14 C1         -5.9090    0.8440   14.5410 C.3       1 10G         0.0152
     15 S2         -5.1610    1.1610   12.9940 S.3       1 10G        -0.1660
     16 H1         -8.5155   -2.4499   13.0789 H         1 10G         0.0696
     17 H2         -7.5285   -3.0601   14.4501 H         1 10G         0.0696
     18 H3         -8.1939   -0.1053   14.0861 H         1 10G         0.0268
     19 H4         -4.1774   -0.7404   14.7402 H         1 10G         0.0376
     20 H5         -4.8551   -2.0377   13.6989 H         1 10G         0.0376
     21 H6         -5.1341   -2.0725   15.4731 H         1 10G         0.0376
     22 H7         -5.2061    1.0167   15.3693 H         1 10G         0.0520
     23 H8         -6.8066    1.4629   14.6868 H         1 10G         0.0520
     24 H9         -4.8741    2.1264   12.9524 H         1 10G         0.1040
@<TRIPOS>BOND
     1    1    2 ar 
     2    2    3 ar 
     3    2    4 ar 
     4    2    5 1  
     5    5    6 1  
     6    6    7 ar 
     7    6    8 ar 
     8    6    9 1  
     9    9   10 1  
    10   10   11 1  
    11   11   12 2  
    12   12   13 1  
    13   12   14 1  
    14   14   15 1  
    15   10   16 1  
    16   10   17 1  
    17   11   18 1  
    18   13   19 1  
    19   13   20 1  
    20   13   21 1  
    21   14   22 1  
    22   14   23 1  
    23   15   24 1  
@<TRIPOS>SUBSTRUCTURE
     1 10G         1

