184l_ligand
  -I-interpret- 

 24 24  0  0  0  0  0  0  0  0999 V2000
   27.3570    6.7720    3.3880 C   0  0  0  0  0
   27.3210    7.2930    4.6580 C   0  0  0  0  0
   26.5680    6.6500    5.6700 C   0  0  0  0  0
   25.8310    5.5260    5.3590 C   0  0  0  0  0
   25.8870    4.9870    4.0770 C   0  0  0  0  0
   26.6640    5.6070    3.0880 C   0  0  0  0  0
   28.1350    7.4950    2.3350 C   0  0  0  0  0
   27.1650    8.3380    1.5330 C   0  0  0  0  0
   27.8680    8.7990    0.2910 C   0  0  0  0  0
   26.6640    9.5080    2.3390 C   0  0  0  0  0
   27.8736    8.2040    4.8876 H   0  0  0  0  0
   26.5706    7.0403    6.6877 H   0  0  0  0  0
   25.2038    5.0593    6.1185 H   0  0  0  0  0
   25.3265    4.0823    3.8416 H   0  0  0  0  0
   26.7236    5.1763    2.0885 H   0  0  0  0  0
   28.6415    6.7820    1.6845 H   0  0  0  0  0
   28.8934    8.1284    2.7951 H   0  0  0  0  0
   26.2907    7.7440    1.2669 H   0  0  0  0  0
   28.7414    9.3897    0.5674 H   0  0  0  0  0
   28.1831    7.9320   -0.2896 H   0  0  0  0  0
   27.1887    9.4091   -0.3043 H   0  0  0  0  0
   26.1532    9.1419    3.2296 H   0  0  0  0  0
   27.5074   10.1327    2.6332 H   0  0  0  0  0
   25.9701   10.0930    1.7353 H   0  0  0  0  0
  1  2  4  0  0  0
  1  6  4  0  0  0
  1  7  1  0  0  0
  2  3  4  0  0  0
  3  4  4  0  0  0
  4  5  4  0  0  0
  5  6  4  0  0  0
  7  8  1  0  0  0
  8  9  1  0  0  0
  8 10  1  0  0  0
  2 11  1  0  0  0
  3 12  1  0  0  0
  4 13  1  0  0  0
  5 14  1  0  0  0
  6 15  1  0  0  0
  7 16  1  0  0  0
  7 17  1  0  0  0
  8 18  1  0  0  0
  9 19  1  0  0  0
  9 20  1  0  0  0
  9 21  1  0  0  0
 10 22  1  0  0  0
 10 23  1  0  0  0
 10 24  1  0  0  0
M  END
$$$$
