3nuy_ligand
  -I-interpret- 

 17 18  0  0  0  0  0  0  0  0999 V2000
  -40.5750   17.1150   13.4840 C   0  0  0  0  0
  -41.7140   17.6080   12.9000 C   0  0  0  0  0
  -40.2130   15.8140   13.1980 C   0  0  0  0  0
  -42.4780   16.8280   12.0630 C   0  0  0  0  0
  -42.4270   13.5070   10.7620 C   0  0  0  0  0
  -40.9880   15.0370   12.3580 C   0  0  0  0  0
  -42.1340   15.5230   11.7760 C   0  0  0  0  0
  -40.6420   13.7340   12.0660 C   0  0  0  0  0
  -42.8660   14.7510   10.9660 N   0  0  0  0  0
  -41.3330   12.9220   11.2630 N   0  0  0  0  0
  -39.5000   13.2310   12.6270 O   0  0  0  0  0
  -39.9745   17.7313   14.1530 H   0  0  0  0  0
  -42.0188   18.6347   13.1024 H   0  0  0  0  0
  -39.3079   15.3958   13.6386 H   0  0  0  0  0
  -43.3772   17.2514   11.6155 H   0  0  0  0  0
  -43.0375   12.8892   10.1035 H   0  0  0  0  0
  -41.0576   11.9623   11.0545 H   0  0  0  0  0
  2  1  4  0  0  0
  3  1  4  0  0  0
  4  2  4  0  0  0
  6  3  4  0  0  0
  7  4  4  0  0  0
  9  5  2  0  0  0
  5 10  1  0  0  0
  7  6  4  0  0  0
  6  8  1  0  0  0
  7  9  1  0  0  0
  8 10  1  0  0  0
  8 11  2  0  0  0
  1 12  1  0  0  0
  2 13  1  0  0  0
  3 14  1  0  0  0
  4 15  1  0  0  0
  5 16  1  0  0  0
 10 17  1  0  0  0
M  END
$$$$
