2oi0_ligand
  -I-interpret- 

 37 38  0  0  0  0  0  0  0  0999 V2000
   46.0850   28.4790    2.5260 C   0  0  0  0  0
   45.1140   28.8150    1.5370 C   0  0  0  0  0
   43.3680   28.5170    3.1750 C   0  0  0  0  0
   44.3110   28.1830    4.1440 C   0  0  0  0  0
   45.6660   28.1620    3.8390 C   0  0  0  0  0
   46.4720   27.8170    4.9230 O   0  0  0  0  0
   47.9140   27.7740    4.7600 C   0  0  0  0  0
   48.5850   23.9670    3.0390 C   0  0  0  0  0
   48.4120   25.3010    3.6900 C   0  0  0  0  0
   48.2690   26.3640    4.1920 C   0  0  0  0  0
   43.7530   28.8330    1.8840 C   0  0  0  0  0
   42.9950   28.7670   -0.4940 O   0  0  0  0  0
   41.1530   28.7870    1.1990 O   0  0  0  0  0
   42.4650   29.2650    0.7610 S   0  0  0  0  0
   40.8840   31.5860    0.4110 C   0  0  0  0  0
   42.2240   31.0160    0.7550 N   0  0  0  0  0
   42.4910   31.6260    2.0950 C   0  0  0  0  0
   41.2000   31.4320    2.8880 C   0  0  0  0  0
   41.1580   31.9760    4.5860 S   0  0  0  0  0
   40.2900   31.9010    1.7620 C   0  0  0  0  0
   47.1447   28.4666    2.2712 H   0  0  0  0  0
   45.4253   29.0558    0.5205 H   0  0  0  0  0
   42.3102   28.5297    3.4377 H   0  0  0  0  0
   43.9820   27.9353    5.1532 H   0  0  0  0  0
   48.4145   27.9422    5.7136 H   0  0  0  0  0
   48.2483   28.5581    4.0806 H   0  0  0  0  0
   47.6167   23.6039    2.6947 H   0  0  0  0  0
   49.2612   24.0636    2.1896 H   0  0  0  0  0
   49.0029   23.2640    3.7596 H   0  0  0  0  0
   40.2696   30.8981   -0.1698 H   0  0  0  0  0
   40.9513   32.4616   -0.2346 H   0  0  0  0  0
   42.7569   32.6798    2.0113 H   0  0  0  0  0
   43.3409   31.1550    2.5890 H   0  0  0  0  0
   40.9070   30.4622    3.2902 H   0  0  0  0  0
   39.9584   31.7229    5.1014 H   0  0  0  0  0
   39.3341   31.3847    1.8501 H   0  0  0  0  0
   40.1651   32.9808    1.8433 H   0  0  0  0  0
  1  2  4  0  0  0
  5  1  4  0  0  0
  2 11  4  0  0  0
  4  3  4  0  0  0
  3 11  4  0  0  0
  5  4  4  0  0  0
  6  5  1  0  0  0
  7  6  1  0  0  0
 10  7  1  0  0  0
  9  8  1  0  0  0
  9 10  3  0  0  0
 11 14  1  0  0  0
 14 12  2  0  0  0
 14 13  2  0  0  0
 14 16  1  0  0  0
 16 15  1  0  0  0
 15 20  1  0  0  0
 16 17  1  0  0  0
 17 18  1  0  0  0
 18 19  1  0  0  0
 18 20  1  0  0  0
  1 21  1  0  0  0
  2 22  1  0  0  0
  3 23  1  0  0  0
  4 24  1  0  0  0
  7 25  1  0  0  0
  7 26  1  0  0  0
  8 27  1  0  0  0
  8 28  1  0  0  0
  8 29  1  0  0  0
 15 30  1  0  0  0
 15 31  1  0  0  0
 17 32  1  0  0  0
 17 33  1  0  0  0
 18 34  1  0  0  0
 19 35  1  0  0  0
 20 36  1  0  0  0
 20 37  1  0  0  0
M  END
$$$$
