6dai_ligand
  -I-interpret- 

 37 40  0  0  0  0  0  0  0  0999 V2000
   -8.6530   24.4600    3.1680 C   0  0  0  0  0
   -7.8570   25.5330    3.9560 C   0  0  0  0  0
   -7.7310   26.7030    3.0760 N   0  0  0  0  0
   -9.2210   25.1780    1.9720 C   0  0  0  0  0
   -8.6920   26.4920    1.9310 C   0  0  0  0  0
   -9.0890   27.4810    0.8020 C   0  0  0  0  0
  -10.0500   27.0290   -0.2690 C   0  0  0  0  0
  -10.6090   25.6460   -0.2180 C   0  0  0  0  0
  -11.6160   25.2130   -1.2710 C   0  0  0  0  0
  -12.3580   26.0730   -2.0840 C   0  0  0  0  0
  -13.1490   25.3200   -2.8390 N   0  0  0  0  0
  -14.1930   25.3870   -3.9150 C   0  0  0  0  0
  -14.6510   23.9900   -4.2200 C   0  0  0  0  0
  -13.8530   23.0940   -3.3510 C   0  0  0  0  0
  -12.9370   23.9830   -2.4950 C   0  0  0  0  0
  -11.9820   23.9380   -1.5360 N   0  0  0  0  0
  -10.2380   24.6970    0.8940 C   0  0  0  0  0
   -6.6290   27.6490    3.0620 C   0  0  0  0  0
   -9.4398   24.0176    3.7790 H   0  0  0  0  0
   -8.0145   23.6288    2.8688 H   0  0  0  0  0
   -6.8748   25.1550    4.2396 H   0  0  0  0  0
   -8.3733   25.7972    4.8789 H   0  0  0  0  0
   -8.1589   27.6879    0.2727 H   0  0  0  0  0
   -9.6034   28.2951    1.3126 H   0  0  0  0  0
   -9.4705   27.0595   -1.1917 H   0  0  0  0  0
  -10.9157   27.6818   -0.1575 H   0  0  0  0  0
   -9.5923   25.3433   -0.4684 H   0  0  0  0  0
  -12.2986   27.1613   -2.0963 H   0  0  0  0  0
  -14.5571   26.2959   -4.3940 H   0  0  0  0  0
  -15.4170   23.6944   -4.9370 H   0  0  0  0  0
  -13.2623   22.4035   -3.9530 H   0  0  0  0  0
  -14.5062   22.4948   -2.7167 H   0  0  0  0  0
  -11.1658   24.5172    1.4371 H   0  0  0  0  0
   -9.7535   23.8545    0.4004 H   0  0  0  0  0
   -5.9479   27.3994    2.2484 H   0  0  0  0  0
   -7.0185   28.6564    2.9153 H   0  0  0  0  0
   -6.0965   27.5986    4.0117 H   0  0  0  0  0
  1  2  1  0  0  0
  1  4  1  0  0  0
  2  3  1  0  0  0
  3  5  1  0  0  0
  3 18  1  0  0  0
  4  5  2  0  0  0
  4 17  1  0  0  0
  5  6  1  0  0  0
  6  7  1  0  0  0
  7  8  1  0  0  0
  8  9  1  0  0  0
  8 17  1  0  0  0
  9 10  4  0  0  0
  9 16  4  0  0  0
 10 11  4  0  0  0
 11 12  1  0  0  0
 11 15  4  0  0  0
 12 13  2  0  0  0
 13 14  1  0  0  0
 14 15  1  0  0  0
 15 16  4  0  0  0
  1 19  1  0  0  0
  1 20  1  0  0  0
  2 21  1  0  0  0
  2 22  1  0  0  0
  6 23  1  0  0  0
  6 24  1  0  0  0
  7 25  1  0  0  0
  7 26  1  0  0  0
  8 27  1  0  0  0
 10 28  1  0  0  0
 12 29  1  0  0  0
 13 30  1  0  0  0
 14 31  1  0  0  0
 14 32  1  0  0  0
 17 33  1  0  0  0
 17 34  1  0  0  0
 18 35  1  0  0  0
 18 36  1  0  0  0
 18 37  1  0  0  0
M  END
$$$$
