3eou_ligand
  -I-interpret- 

 32 34  0  0  0  0  0  0  0  0999 V2000
   17.4350   17.2730   17.1900 N   0  0  0  0  0
   18.7470   17.7350   16.9230 C   0  0  0  0  0
   19.1750   17.9330   15.6550 N   0  0  0  0  0
   18.1810   17.9520   14.5810 C   0  0  0  0  0
   19.4640   17.9620   18.0350 N   0  0  0  0  0
   18.7130   17.6390   19.0890 C   0  0  0  0  0
   17.4830   17.2240   18.6070 C   0  0  0  0  0
   16.4410   16.8670   19.4740 C   0  0  0  0  0
   15.1400   16.2910   18.8360 C   0  0  0  0  0
   16.7040   16.8480   20.8560 C   0  0  0  0  0
   15.7570   16.5270   21.7740 N   0  0  0  0  0
   15.9310   16.5810   23.1540 C   0  0  0  0  0
   14.9620   16.2230   23.9160 N   0  0  0  0  0
   17.1400   16.9710   23.6300 N   0  0  0  0  0
   18.1460   17.3540   22.8230 C   0  0  0  0  0
   19.2250   17.7310   23.2310 O   0  0  0  0  0
   17.9530   17.2900   21.3240 C   0  0  0  0  0
   18.9710   17.7100   20.4570 C   0  0  0  0  0
   15.3820   14.8130   18.3600 C   0  0  0  0  0
   14.4500   14.4410   17.3430 O   0  0  0  0  0
   20.1659   18.0657   15.4525 H   0  0  0  0  0
   17.6583   16.9959   14.5545 H   0  0  0  0  0
   17.4656   18.7537   14.7640 H   0  0  0  0  0
   18.6814   18.1205   13.6274 H   0  0  0  0  0
   14.8608   16.9024   17.9779 H   0  0  0  0  0
   14.3419   16.3021   19.5783 H   0  0  0  0  0
   14.8478   16.2228   21.4258 H   0  0  0  0  0
   15.0827   16.2236   24.9288 H   0  0  0  0  0
   19.9246   18.0768   20.8366 H   0  0  0  0  0
   15.2524   14.1464   19.2126 H   0  0  0  0  0
   16.3905   14.7383   17.9531 H   0  0  0  0  0
   14.6194   13.5361   17.0708 H   0  0  0  0  0
  1  2  4  0  0  0
  1  7  4  0  0  0
  2  3  1  0  0  0
  2  5  4  0  0  0
  3  4  1  0  0  0
  5  6  4  0  0  0
  6  7  4  0  0  0
  6 18  4  0  0  0
  7  8  4  0  0  0
  8  9  1  0  0  0
  8 10  4  0  0  0
  9 19  1  0  0  0
 10 11  1  0  0  0
 10 17  4  0  0  0
 11 12  1  0  0  0
 12 13  2  0  0  0
 12 14  4  0  0  0
 14 15  1  0  0  0
 15 16  2  0  0  0
 15 17  1  0  0  0
 17 18  4  0  0  0
 19 20  1  0  0  0
  3 21  1  0  0  0
  4 22  1  0  0  0
  4 23  1  0  0  0
  4 24  1  0  0  0
  9 25  1  0  0  0
  9 26  1  0  0  0
 11 27  1  0  0  0
 13 28  1  0  0  0
 18 29  1  0  0  0
 19 30  1  0  0  0
 19 31  1  0  0  0
 20 32  1  0  0  0
M  END
$$$$
