5uc1_ligand
  -I-interpret- 

 67 71  0  0  0  0  0  0  0  0999 V2000
  -28.2960    4.9500   20.2670 O   0  0  0  0  0
  -27.5550    5.0210   21.2380 C   0  0  0  0  0
  -27.7760    4.1140   22.4460 C   0  0  0  0  0
  -26.4780    6.0200   21.3130 C   0  0  0  0  0
  -25.7030    6.1970   22.4110 C   0  0  0  0  0
  -24.6880    7.3000   22.4250 C   0  0  0  0  0
  -25.8650    5.3910   23.6420 C   0  0  0  0  0
  -26.6310    4.0890   23.4670 C   0  0  0  0  0
  -25.3380    5.7770   24.8310 C   0  0  0  0  0
  -25.4430    4.8950   26.0850 C   0  0  0  0  0
  -24.2850    3.9060   26.1980 C   0  0  0  0  0
  -24.2390    3.0430   27.2920 C   0  0  0  0  0
  -23.2140    2.1240   27.4650 C   0  0  0  0  0
  -22.1510    2.0270   26.5210 C   0  0  0  0  0
  -21.1070    1.1090   26.6620 N   0  0  0  0  0
  -19.9900    1.1250   25.7260 C   0  0  0  0  0
  -21.3810   -0.1890   27.2750 C   0  0  0  0  0
  -22.2100    2.8900   25.4110 C   0  0  0  0  0
  -23.2420    3.8130   25.2610 C   0  0  0  0  0
  -25.6700    5.7150   27.3830 C   0  0  0  0  0
  -24.8280    6.9930   27.5160 C   0  0  0  0  0
  -23.3260    6.6860   27.6770 C   0  0  0  0  0
  -25.2340    8.0040   28.6630 C   0  0  0  0  0
  -26.6800    8.0810   28.8330 C   0  0  0  0  0
  -27.8750    8.1370   28.9420 C   0  0  0  0  0
  -29.3230    8.2230   29.0600 C   0  0  0  0  0
  -24.6130    7.6110   29.9020 O   0  0  0  0  0
  -24.7300    9.3830   28.1280 C   0  0  0  0  0
  -24.5930    9.2520   26.5740 C   0  0  0  0  0
  -25.1180    7.8280   26.2600 C   0  0  0  0  0
  -24.6400    7.1290   24.9820 C   0  0  0  0  0
  -24.8230    8.0340   23.7560 C   0  0  0  0  0
  -27.8718    3.0990   22.0603 H   0  0  0  0  0
  -28.6514    4.4991   22.9689 H   0  0  0  0  0
  -26.2939    6.6493   20.4423 H   0  0  0  0  0
  -24.8588    7.9846   21.5941 H   0  0  0  0  0
  -23.6827    6.8932   22.3153 H   0  0  0  0  0
  -25.9108    3.3571   23.1013 H   0  0  0  0  0
  -27.0868    3.8699   24.4326 H   0  0  0  0  0
  -26.3433    4.2934   25.9602 H   0  0  0  0  0
  -25.0343    3.0918   28.0358 H   0  0  0  0  0
  -23.2220    1.4673   28.3349 H   0  0  0  0  0
  -20.3612    0.9493   24.7163 H   0  0  0  0  0
  -19.4955    2.0954   25.7690 H   0  0  0  0  0
  -19.2809    0.3422   25.9952 H   0  0  0  0  0
  -21.7524   -0.0394   28.2888 H   0  0  0  0  0
  -22.1313   -0.7165   26.6859 H   0  0  0  0  0
  -20.4630   -0.7758   27.3059 H   0  0  0  0  0
  -21.4302    2.8348   24.6514 H   0  0  0  0  0
  -23.2406    4.4781   24.3975 H   0  0  0  0  0
  -25.3838    5.0679   28.2121 H   0  0  0  0  0
  -26.7131    6.0312   27.3711 H   0  0  0  0  0
  -23.1735    6.0843   28.5730 H   0  0  0  0  0
  -22.9732    6.1364   26.8043 H   0  0  0  0  0
  -22.7730    7.6210   27.7672 H   0  0  0  0  0
  -29.5955    9.1937   29.4743 H   0  0  0  0  0
  -29.7741    8.1076   28.0744 H   0  0  0  0  0
  -29.6801    7.4319   29.7193 H   0  0  0  0  0
  -24.8630    8.2279   30.5937 H   0  0  0  0  0
  -23.7720    9.6433   28.5780 H   0  0  0  0  0
  -25.4319   10.1758   28.3868 H   0  0  0  0  0
  -23.5649    9.3925   26.2401 H   0  0  0  0  0
  -25.1564   10.0218   26.0467 H   0  0  0  0  0
  -26.1773    7.9300   26.0243 H   0  0  0  0  0
  -23.5703    6.9345   25.0591 H   0  0  0  0  0
  -25.8322    8.4433   23.8012 H   0  0  0  0  0
  -24.0402    8.7917   23.7909 H   0  0  0  0  0
  1  2  2  0  0  0
  2  3  1  0  0  0
  2  4  1  0  0  0
  3  8  1  0  0  0
  4  5  2  0  0  0
  5  6  1  0  0  0
  5  7  1  0  0  0
  6 32  1  0  0  0
  7  8  1  0  0  0
  7  9  2  0  0  0
  9 10  1  0  0  0
  9 31  1  0  0  0
 10 11  1  0  0  0
 10 20  1  0  0  0
 11 12  4  0  0  0
 11 19  4  0  0  0
 12 13  4  0  0  0
 13 14  4  0  0  0
 14 15  1  0  0  0
 14 18  4  0  0  0
 15 16  1  0  0  0
 15 17  1  0  0  0
 18 19  4  0  0  0
 20 21  1  0  0  0
 21 22  1  0  0  0
 21 23  1  0  0  0
 21 30  1  0  0  0
 23 24  1  0  0  0
 23 27  1  0  0  0
 23 28  1  0  0  0
 24 25  3  0  0  0
 25 26  1  0  0  0
 28 29  1  0  0  0
 29 30  1  0  0  0
 30 31  1  0  0  0
 31 32  1  0  0  0
  3 33  1  0  0  0
  3 34  1  0  0  0
  4 35  1  0  0  0
  6 36  1  0  0  0
  6 37  1  0  0  0
  8 38  1  0  0  0
  8 39  1  0  0  0
 10 40  1  0  0  0
 12 41  1  0  0  0
 13 42  1  0  0  0
 16 43  1  0  0  0
 16 44  1  0  0  0
 16 45  1  0  0  0
 17 46  1  0  0  0
 17 47  1  0  0  0
 17 48  1  0  0  0
 18 49  1  0  0  0
 19 50  1  0  0  0
 20 51  1  0  0  0
 20 52  1  0  0  0
 22 53  1  0  0  0
 22 54  1  0  0  0
 22 55  1  0  0  0
 26 56  1  0  0  0
 26 57  1  0  0  0
 26 58  1  0  0  0
 27 59  1  0  0  0
 28 60  1  0  0  0
 28 61  1  0  0  0
 29 62  1  0  0  0
 29 63  1  0  0  0
 30 64  1  0  0  0
 31 65  1  0  0  0
 32 66  1  0  0  0
 32 67  1  0  0  0
M  END
$$$$
