6dyu_ligand
  -I-interpret- 

 40 42  0  0  0  0  0  0  0  0999 V2000
   -0.9390  -16.8700  -42.1960 O   0  0  0  0  0
    0.1370  -17.8270  -42.1980 C   0  0  0  0  0
    0.7740  -17.8980  -40.8280 C   0  0  0  0  0
   -0.2770  -18.6300  -40.1080 N   0  3  0  0  0
   -0.8770  -19.6290  -41.0180 C   0  0  0  0  0
   -0.4070  -19.2410  -42.4070 C   0  0  0  0  0
    0.6160  -20.2720  -42.8220 C   0  0  0  0  0
    0.9740  -20.1520  -44.5240 S   0  0  0  0  0
   -0.3940  -21.0030  -45.3100 C   0  0  0  0  0
   -0.1260  -21.1100  -46.7370 C   0  0  0  0  0
    0.1330  -21.1400  -47.9750 C   0  0  0  0  0
    0.1430  -19.1610  -38.8070 C   0  0  0  0  0
    1.0820  -20.3300  -38.7140 C   0  0  0  0  0
    2.5250  -20.4160  -38.9470 C   0  0  0  0  0
    3.3960  -19.5090  -39.4380 N   0  0  0  0  0
    0.7190  -21.5870  -38.2460 C   0  0  0  0  0
    1.8000  -22.4180  -38.2240 N   0  0  0  0  0
    2.8990  -21.7870  -38.6300 C   0  0  0  0  0
    4.3210  -22.1140  -38.8170 C   0  0  0  0  0
    4.7710  -23.3480  -38.5350 N   0  0  0  0  0
    5.1210  -21.1450  -39.2920 N   0  0  0  0  0
    4.6740  -19.8910  -39.5800 C   0  0  0  0  0
   -0.5817  -15.9888  -42.0640 H   0  0  0  0  0
    0.8292  -17.5154  -42.9803 H   0  0  0  0  0
    1.0319  -16.9311  -40.3960 H   0  0  0  0  0
    1.7548  -18.3731  -40.8068 H   0  0  0  0  0
   -1.0067  -17.9693  -39.8405 H   0  0  0  0  0
   -1.9648  -19.6311  -40.9493 H   0  0  0  0  0
   -0.5692  -20.6422  -40.7595 H   0  0  0  0  0
   -1.1492  -19.2269  -43.2052 H   0  0  0  0  0
    0.2128  -21.2643  -42.6197 H   0  0  0  0  0
    1.5335  -20.0987  -42.2597 H   0  0  0  0  0
   -1.3163  -20.4447  -45.1493 H   0  0  0  0  0
   -0.5042  -21.9986  -44.8803 H   0  0  0  0  0
   -0.7812  -19.5286  -38.3611 H   0  0  0  0  0
    0.6980  -18.3398  -38.3534 H   0  0  0  0  0
   -0.2883  -21.8691  -37.9395 H   0  0  0  0  0
    4.1264  -24.0596  -38.1907 H   0  0  0  0  0
    5.7573  -23.5733  -38.6651 H   0  0  0  0  0
    5.3936  -19.1584  -39.9456 H   0  0  0  0  0
  1  2  1  0  0  0
  2  3  1  0  0  0
  2  6  1  0  0  0
  3  4  1  0  0  0
  4  5  1  0  0  0
  4 12  1  0  0  0
  5  6  1  0  0  0
  6  7  1  0  0  0
  7  8  1  0  0  0
  8  9  1  0  0  0
  9 10  1  0  0  0
 10 11  3  0  0  0
 12 13  1  0  0  0
 13 14  4  0  0  0
 13 16  4  0  0  0
 14 15  4  0  0  0
 14 18  4  0  0  0
 15 22  4  0  0  0
 16 17  4  0  0  0
 17 18  4  0  0  0
 18 19  4  0  0  0
 19 20  1  0  0  0
 19 21  4  0  0  0
 21 22  4  0  0  0
  1 23  1  0  0  0
  2 24  1  0  0  0
  3 25  1  0  0  0
  3 26  1  0  0  0
  4 27  1  0  0  0
  5 28  1  0  0  0
  5 29  1  0  0  0
  6 30  1  0  0  0
  7 31  1  0  0  0
  7 32  1  0  0  0
  9 33  1  0  0  0
  9 34  1  0  0  0
 12 35  1  0  0  0
 12 36  1  0  0  0
 16 37  1  0  0  0
 20 38  1  0  0  0
 20 39  1  0  0  0
 22 40  1  0  0  0
M  END
$$$$
