3o1d_ligand
  -I-interpret- 

184185  0  0  0  0  0  0  0  0999 V2000
   25.3360   29.7000   28.1980 N   0  3  0  0  0
   25.2330   31.0110   27.5630 C   0  0  0  0  0
   23.8420   31.6010   27.7650 C   0  0  0  0  0
   22.8390   30.9880   27.3960 O   0  0  0  0  0
   25.5630   30.9150   26.0770 C   0  0  0  0  0
   23.7900   32.7910   28.3550 N   0  0  0  0  0
   22.5220   33.4440   28.6560 C   0  0  0  0  0
   22.4080   34.7870   27.9490 C   0  0  0  0  0
   22.3550   35.8340   28.5960 O   0  0  0  0  0
   22.3680   33.6380   30.1650 C   0  0  0  0  0
   22.3650   32.3570   30.9390 C   0  0  0  0  0
   21.2510   31.5510   31.0370 N   0  0  0  0  0
   23.3400   31.7410   31.6460 C   0  0  0  0  0
   21.5410   30.4930   31.7730 C   0  0  0  0  0
   22.8020   30.5830   32.1560 N   0  0  0  0  0
   22.3610   34.7420   26.6200 N   0  0  0  0  0
   22.3020   35.9430   25.7910 C   0  0  0  0  0
   21.3790   37.0090   26.3740 C   0  0  0  0  0
   21.8050   38.1270   26.6590 O   0  0  0  0  0
   21.8260   35.5910   24.3790 C   0  0  0  0  0
   22.4840   34.3640   23.7530 C   0  0  0  0  0
   23.9360   34.6070   23.3740 C   0  0  0  0  0
   24.8730   34.2370   24.5090 C   0  0  0  0  0
   26.2970   34.4070   24.1220 N   0  3  0  0  0
   20.1130   36.6500   26.5500 N   0  0  0  0  0
   19.0850   37.6040   26.9490 C   0  0  0  0  0
   19.2720   38.1300   28.3710 C   0  0  0  0  0
   19.2600   39.3420   28.5880 O   0  0  0  0  0
   17.6760   37.0050   26.7890 C   0  0  0  0  0
   17.5060   36.4530   25.3710 C   0  0  0  0  0
   16.6110   38.0460   27.1050 C   0  0  0  0  0
   16.1510   35.8330   25.1030 C   0  0  0  0  0
   19.4300   37.2250   29.3360 N   0  0  0  0  0
   19.6570   37.6310   30.7220 C   0  0  0  0  0
   20.8520   38.5650   30.8340 C   0  0  0  0  0
   20.7700   39.6100   31.4760 O   0  0  0  0  0
   19.8550   36.4210   31.6370 C   0  0  0  0  0
   18.5910   35.7430   32.1620 C   0  0  0  0  0
   18.9680   34.5790   33.0570 C   0  0  0  0  0
   17.7260   36.7410   32.9160 C   0  0  0  0  0
   21.9630   38.1910   30.2070 N   0  0  0  0  0
   23.1590   39.0200   30.2630 C   0  0  0  0  0
   22.8680   40.3890   29.6600 C   0  0  0  0  0
   23.3210   41.4130   30.1670 O   0  0  0  0  0
   24.3330   38.3540   29.5420 C   0  0  0  0  0
   25.6640   38.9380   29.9000 C   0  0  0  0  0
   26.2190   40.0020   29.2210 N   0  0  0  0  0
   26.5480   38.6130   30.8740 C   0  0  0  0  0
   27.3870   40.3050   29.7580 C   0  0  0  0  0
   27.6110   39.4770   30.7620 N   0  0  0  0  0
   22.0960   40.3970   28.5780 N   0  0  0  0  0
   21.7120   41.6440   27.9310 C   0  0  0  0  0
   20.8660   42.4990   28.8640 C   0  0  0  0  0
   21.1650   43.6720   29.0760 O   0  0  0  0  0
   20.9530   41.3810   26.6260 C   0  0  0  0  0
   20.6410   42.6450   25.8320 C   0  0  0  0  0
   21.8960   43.4950   25.6430 C   0  0  0  0  0
   21.7090   44.5700   24.6710 N   0  0  0  0  0
   22.6760   45.3870   24.2610 C   0  0  0  0  0
   23.9090   45.2600   24.7350 N   0  0  0  0  0
   22.4090   46.3340   23.3720 N   0  0  0  0  0
   19.8120   41.9060   29.4200 N   0  0  0  0  0
   18.8770   42.6330   30.2770 C   0  0  0  0  0
   19.5120   43.0930   31.5850 C   0  0  0  0  0
   19.0670   44.0720   32.1860 O   0  0  0  0  0
   17.6470   41.7780   30.5860 C   0  0  0  0  0
   16.7420   41.3650   29.4280 C   0  0  0  0  0
   15.6210   40.4930   29.9670 C   0  0  0  0  0
   16.1890   42.5840   28.6990 C   0  0  0  0  0
   20.5420   42.3860   32.0340 N   0  0  0  0  0
   21.2450   42.7960   33.2440 C   0  0  0  0  0
   22.1310   43.9940   32.9430 C   0  0  0  0  0
   23.0490   44.3100   33.6990 O   0  0  0  0  0
   22.0650   41.6410   33.8130 C   0  0  0  0  0
   21.2010   40.6340   34.5700 C   0  0  0  0  0
   21.9160   39.3050   34.7650 C   0  0  0  0  0
   20.7630   41.2320   35.9010 C   0  0  0  0  0
   21.8240   44.6620   31.8350 N   0  0  0  0  0
   22.6440   45.7410   31.3080 C   0  0  0  0  0
   23.9680   45.1730   30.8090 C   0  0  0  0  0
   24.5320   44.2570   31.4110 O   0  0  0  0  0
   22.8840   46.8170   32.3650 C   0  0  0  0  0
   23.3830   48.1340   31.7980 C   0  0  0  0  0
   23.8340   49.0920   32.8790 C   0  0  0  0  0
   24.6630   48.7480   33.7200 O   0  0  0  0  0
   23.2880   50.3020   32.8650 N   0  0  0  0  0
   24.4932   45.6467   29.7662 O   0  0  0  0  0
   25.1120   29.7852   29.1894 H   0  0  0  0  0
   24.6809   29.0562   27.7543 H   0  0  0  0  0
   26.2868   29.3461   28.0922 H   0  0  0  0  0
   25.9574   31.6753   28.0342 H   0  0  0  0  0
   24.8315   30.2745   25.5843 H   0  0  0  0  0
   25.5327   31.9106   25.6343 H   0  0  0  0  0
   26.5598   30.4915   25.9541 H   0  0  0  0  0
   24.6610   33.2599   28.6039 H   0  0  0  0  0
   21.7229   32.7979   28.2925 H   0  0  0  0  0
   21.4071   34.1237   30.3348 H   0  0  0  0  0
   23.2213   34.2235   30.5071 H   0  0  0  0  0
   24.3610   32.0962   31.7853 H   0  0  0  0  0
   20.8557   29.6828   32.0221 H   0  0  0  0  0
   22.3664   33.8310   26.1612 H   0  0  0  0  0
   23.3122   36.3510   25.7593 H   0  0  0  0  0
   22.0815   36.4392   23.7439 H   0  0  0  0  0
   20.7618   35.3683   24.4558 H   0  0  0  0  0
   21.9369   34.1183   22.8428 H   0  0  0  0  0
   22.4598   33.5594   24.4879 H   0  0  0  0  0
   24.0632   35.6663   23.1510 H   0  0  0  0  0
   24.1769   33.9876   22.5100 H   0  0  0  0  0
   24.7084   33.1899   24.7632 H   0  0  0  0  0
   24.6656   34.8936   25.3540 H   0  0  0  0  0
   26.8946   34.1497   24.9075 H   0  0  0  0  0
   26.5052   33.8068   23.3240 H   0  0  0  0  0
   26.4656   35.3808   23.8697 H   0  0  0  0  0
   19.8510   35.6755   26.4013 H   0  0  0  0  0
   19.1919   38.4546   26.2758 H   0  0  0  0  0
   17.5554   36.1848   27.4967 H   0  0  0  0  0
   18.2500   35.6671   25.2411 H   0  0  0  0  0
   17.6165   37.2923   24.6844 H   0  0  0  0  0
   16.7343   38.3898   28.1320 H   0  0  0  0  0
   16.7158   38.8897   26.4229 H   0  0  0  0  0
   15.6231   37.6011   26.9855 H   0  0  0  0  0
   15.9903   35.0028   25.7908 H   0  0  0  0  0
   15.3741   36.5834   25.2494 H   0  0  0  0  0
   16.1165   35.4679   24.0765 H   0  0  0  0  0
   19.3920   36.2325   29.1039 H   0  0  0  0  0
   18.7640   38.1651   31.0467 H   0  0  0  0  0
   20.3832   36.7923   32.5152 H   0  0  0  0  0
   20.3699   35.6715   31.0360 H   0  0  0  0  0
   18.0141   35.3652   31.3179 H   0  0  0  0  0
   19.5542   33.8586   32.4864 H   0  0  0  0  0
   19.5577   34.9448   33.8976 H   0  0  0  0  0
   18.0622   34.0996   33.4283 H   0  0  0  0  0
   18.2885   37.1440   33.7582 H   0  0  0  0  0
   17.4414   37.5523   32.2460 H   0  0  0  0  0
   16.8302   36.2395   33.2824 H   0  0  0  0  0
   21.9779   37.3163   29.6825 H   0  0  0  0  0
   23.4420   39.1426   31.3085 H   0  0  0  0  0
   24.1872   38.5034   28.4722 H   0  0  0  0  0
   24.3458   37.3049   29.8376 H   0  0  0  0  0
   26.4369   37.8156   31.6088 H   0  0  0  0  0
   28.0527   41.1027   29.4285 H   0  0  0  0  0
   21.7659   39.5120   28.1931 H   0  0  0  0  0
   22.6271   42.1858   27.6921 H   0  0  0  0  0
   20.0016   40.9191   26.8900 H   0  0  0  0  0
   21.5875   40.7523   26.0013 H   0  0  0  0  0
   19.9017   43.2292   26.3800 H   0  0  0  0  0
   20.2617   42.3578   24.8513 H   0  0  0  0  0
   22.6882   42.8440   25.2732 H   0  0  0  0  0
   22.1389   43.9507   26.6029 H   0  0  0  0  0
   20.7758   44.7028   24.2812 H   0  0  0  0  0
   24.6456   45.8890   24.4153 H   0  0  0  0  0
   24.1201   44.5334   25.4190 H   0  0  0  0  0
   21.4634   46.4355   23.0034 H   0  0  0  0  0
   19.6518   40.9144   29.2428 H   0  0  0  0  0
   18.5806   43.5215   29.7195 H   0  0  0  0  0
   17.0228   42.3968   31.2306 H   0  0  0  0  0
   18.0409   40.8447   30.9885 H   0  0  0  0  0
   17.3232   40.7972   28.7014 H   0  0  0  0  0
   16.0462   39.6065   30.4376 H   0  0  0  0  0
   15.0461   41.0559   30.7023 H   0  0  0  0  0
   14.9692   40.1931   29.1465 H   0  0  0  0  0
   15.6093   43.1901   29.3952 H   0  0  0  0  0
   17.0151   43.1742   28.3022 H   0  0  0  0  0
   15.5486   42.2564   27.8801 H   0  0  0  0  0
   20.8432   41.5519   31.5301 H   0  0  0  0  0
   20.5114   43.0832   33.9973 H   0  0  0  0  0
   22.7925   42.0547   34.5114 H   0  0  0  0  0
   22.5395   41.1211   32.9808 H   0  0  0  0  0
   20.3154   40.4229   33.9706 H   0  0  0  0  0
   22.1625   38.8803   33.7919 H   0  0  0  0  0
   22.8311   39.4664   35.3347 H   0  0  0  0  0
   21.2648   38.6197   35.3076 H   0  0  0  0  0
   21.6434   41.4736   36.4966 H   0  0  0  0  0
   20.1863   42.1387   35.7183 H   0  0  0  0  0
   20.1471   40.5100   36.4371 H   0  0  0  0  0
   20.9746   44.4058   31.3318 H   0  0  0  0  0
   22.1166   46.2095   30.4771 H   0  0  0  0  0
   23.6528   46.4424   33.0408 H   0  0  0  0  0
   21.9282   47.0140   32.8506 H   0  0  0  0  0
   22.5614   48.6006   31.2545 H   0  0  0  0  0
   24.2380   47.9228   31.1557 H   0  0  0  0  0
   23.5526   50.9891   33.5709 H   0  0  0  0  0
   22.6039   50.5446   32.1483 H   0  0  0  0  0
   23.9362   46.3471   29.4185 H   0  0  0  0  0
  1  2  1  0  0  0
  2  3  1  0  0  0
  2  5  1  0  0  0
  3  4  2  0  0  0
  3  6  1  0  0  0
  6  7  1  0  0  0
  7  8  1  0  0  0
  7 10  1  0  0  0
  8  9  2  0  0  0
  8 16  1  0  0  0
 10 11  1  0  0  0
 11 12  4  0  0  0
 11 13  4  0  0  0
 12 14  4  0  0  0
 13 15  4  0  0  0
 14 15  4  0  0  0
 16 17  1  0  0  0
 17 18  1  0  0  0
 17 20  1  0  0  0
 18 19  2  0  0  0
 18 25  1  0  0  0
 20 21  1  0  0  0
 21 22  1  0  0  0
 22 23  1  0  0  0
 23 24  1  0  0  0
 25 26  1  0  0  0
 26 27  1  0  0  0
 26 29  1  0  0  0
 27 28  2  0  0  0
 27 33  1  0  0  0
 29 30  1  0  0  0
 29 31  1  0  0  0
 30 32  1  0  0  0
 33 34  1  0  0  0
 34 35  1  0  0  0
 34 37  1  0  0  0
 35 36  2  0  0  0
 35 41  1  0  0  0
 37 38  1  0  0  0
 38 39  1  0  0  0
 38 40  1  0  0  0
 41 42  1  0  0  0
 42 43  1  0  0  0
 42 45  1  0  0  0
 43 44  2  0  0  0
 43 51  1  0  0  0
 45 46  1  0  0  0
 46 47  4  0  0  0
 46 48  4  0  0  0
 47 49  4  0  0  0
 48 50  4  0  0  0
 49 50  4  0  0  0
 51 52  1  0  0  0
 52 53  1  0  0  0
 52 55  1  0  0  0
 53 54  2  0  0  0
 53 62  1  0  0  0
 55 56  1  0  0  0
 56 57  1  0  0  0
 57 58  1  0  0  0
 58 59  1  0  0  0
 59 60  1  0  0  0
 59 61  2  0  0  0
 62 63  1  0  0  0
 63 64  1  0  0  0
 63 66  1  0  0  0
 64 65  2  0  0  0
 64 70  1  0  0  0
 66 67  1  0  0  0
 67 68  1  0  0  0
 67 69  1  0  0  0
 70 71  1  0  0  0
 71 72  1  0  0  0
 71 74  1  0  0  0
 72 73  2  0  0  0
 72 78  1  0  0  0
 74 75  1  0  0  0
 75 76  1  0  0  0
 75 77  1  0  0  0
 78 79  1  0  0  0
 79 80  1  0  0  0
 79 82  1  0  0  0
 80 81  2  0  0  0
 82 83  1  0  0  0
 83 84  1  0  0  0
 84 85  2  0  0  0
 84 86  1  0  0  0
 80 87  1  0  0  0
  1 88  1  0  0  0
  1 89  1  0  0  0
  1 90  1  0  0  0
  2 91  1  0  0  0
  5 92  1  0  0  0
  5 93  1  0  0  0
  5 94  1  0  0  0
  6 95  1  0  0  0
  7 96  1  0  0  0
 10 97  1  0  0  0
 10 98  1  0  0  0
 13 99  1  0  0  0
 14100  1  0  0  0
 16101  1  0  0  0
 17102  1  0  0  0
 20103  1  0  0  0
 20104  1  0  0  0
 21105  1  0  0  0
 21106  1  0  0  0
 22107  1  0  0  0
 22108  1  0  0  0
 23109  1  0  0  0
 23110  1  0  0  0
 24111  1  0  0  0
 24112  1  0  0  0
 24113  1  0  0  0
 25114  1  0  0  0
 26115  1  0  0  0
 29116  1  0  0  0
 30117  1  0  0  0
 30118  1  0  0  0
 31119  1  0  0  0
 31120  1  0  0  0
 31121  1  0  0  0
 32122  1  0  0  0
 32123  1  0  0  0
 32124  1  0  0  0
 33125  1  0  0  0
 34126  1  0  0  0
 37127  1  0  0  0
 37128  1  0  0  0
 38129  1  0  0  0
 39130  1  0  0  0
 39131  1  0  0  0
 39132  1  0  0  0
 40133  1  0  0  0
 40134  1  0  0  0
 40135  1  0  0  0
 41136  1  0  0  0
 42137  1  0  0  0
 45138  1  0  0  0
 45139  1  0  0  0
 48140  1  0  0  0
 49141  1  0  0  0
 51142  1  0  0  0
 52143  1  0  0  0
 55144  1  0  0  0
 55145  1  0  0  0
 56146  1  0  0  0
 56147  1  0  0  0
 57148  1  0  0  0
 57149  1  0  0  0
 58150  1  0  0  0
 60151  1  0  0  0
 60152  1  0  0  0
 61153  1  0  0  0
 62154  1  0  0  0
 63155  1  0  0  0
 66156  1  0  0  0
 66157  1  0  0  0
 67158  1  0  0  0
 68159  1  0  0  0
 68160  1  0  0  0
 68161  1  0  0  0
 69162  1  0  0  0
 69163  1  0  0  0
 69164  1  0  0  0
 70165  1  0  0  0
 71166  1  0  0  0
 74167  1  0  0  0
 74168  1  0  0  0
 75169  1  0  0  0
 76170  1  0  0  0
 76171  1  0  0  0
 76172  1  0  0  0
 77173  1  0  0  0
 77174  1  0  0  0
 77175  1  0  0  0
 78176  1  0  0  0
 79177  1  0  0  0
 82178  1  0  0  0
 82179  1  0  0  0
 83180  1  0  0  0
 83181  1  0  0  0
 86182  1  0  0  0
 86183  1  0  0  0
 87184  1  0  0  0
M  END
$$$$
