### 
### Created by X-TOOL on Mon Sep 10 21:13:07 2018
### 

@<TRIPOS>MOLECULE
3o1d_ligand
  186   187     1     0     0
SMALL
GAST_HUCK


@<TRIPOS>ATOM
      1 N          25.3360   29.7000   28.1980 N.4       1 LYS         0.2377
      2 CA         25.2330   31.0110   27.5630 C.3       1 LYS         0.0621
      3 C          23.8420   31.6010   27.7650 C.2       1 LYS         0.2265
      4 O          22.8390   30.9880   27.3960 O.2       1 LYS        -0.3907
      5 CB         25.5630   30.9150   26.0770 C.3       1 LYS        -0.0040
      6 N          23.7900   32.7910   28.3550 N.am      1 HIS        -0.2598
      7 CA         22.5220   33.4440   28.6560 C.3       1 HIS         0.1370
      8 C          22.4080   34.7870   27.9490 C.2       1 HIS         0.2054
      9 O          22.3550   35.8340   28.5960 O.2       1 HIS        -0.3942
     10 CB         22.3680   33.6380   30.1650 C.3       1 HIS         0.0145
     11 CG         22.3650   32.3570   30.9390 C.2       1 HIS        -0.0027
     12 ND1        21.2510   31.5510   31.0370 N.2       1 HIS        -0.3252
     13 CD2        23.3400   31.7410   31.6460 C.2       1 HIS         0.0291
     14 CE1        21.5410   30.4930   31.7730 C.2       1 HIS         0.0907
     15 NE2        22.8020   30.5830   32.1560 N.pl3     1 HIS        -0.2752
     16 N          22.3610   34.7420   26.6200 N.am      1 LYS        -0.2636
     17 CA         22.3020   35.9430   25.7910 C.3       1 LYS         0.1310
     18 C          21.3790   37.0090   26.3740 C.2       1 LYS         0.2039
     19 O          21.8050   38.1270   26.6590 O.2       1 LYS        -0.3944
     20 CB         21.8260   35.5910   24.3790 C.3       1 LYS        -0.0122
     21 CG         22.4840   34.3640   23.7530 C.3       1 LYS        -0.0440
     22 CD         23.9360   34.6070   23.3740 C.3       1 LYS        -0.0124
     23 CE         24.8730   34.2370   24.5090 C.3       1 LYS        -0.0354
     24 NZ         26.2970   34.4070   24.1220 N.4       1 LYS         0.2185
     25 N          20.1130   36.6500   26.5500 N.am      1 ILE        -0.2635
     26 CA         19.0850   37.6040   26.9490 C.3       1 ILE         0.1335
     27 C          19.2720   38.1300   28.3710 C.2       1 ILE         0.2042
     28 O          19.2600   39.3420   28.5880 O.2       1 ILE        -0.3944
     29 CB         17.6760   37.0050   26.7890 C.3       1 ILE        -0.0037
     30 CG1        17.5060   36.4530   25.3710 C.3       1 ILE        -0.0491
     31 CG2        16.6110   38.0460   27.1050 C.3       1 ILE        -0.0582
     32 CD1        16.1510   35.8330   25.1030 C.3       1 ILE        -0.0648
     33 N          19.4300   37.2250   29.3360 N.am      1 LEU        -0.2637
     34 CA         19.6570   37.6310   30.7220 C.3       1 LEU         0.1312
     35 C          20.8520   38.5650   30.8340 C.2       1 LEU         0.2040
     36 O          20.7700   39.6100   31.4760 O.2       1 LEU        -0.3944
     37 CB         19.8550   36.4210   31.6370 C.3       1 LEU        -0.0101
     38 CG         18.5910   35.7430   32.1620 C.3       1 LEU        -0.0425
     39 CD1        18.9680   34.5790   33.0570 C.3       1 LEU        -0.0625
     40 CD2        17.7260   36.7410   32.9160 C.3       1 LEU        -0.0625
     41 N          21.9630   38.1910   30.2070 N.am      1 HIS        -0.2625
     42 CA         23.1590   39.0200   30.2630 C.3       1 HIS         0.1369
     43 C          22.8680   40.3890   29.6600 C.2       1 HIS         0.2054
     44 O          23.3210   41.4130   30.1670 O.2       1 HIS        -0.3942
     45 CB         24.3330   38.3540   29.5420 C.3       1 HIS         0.0145
     46 CG         25.6640   38.9380   29.9000 C.2       1 HIS        -0.0027
     47 ND1        26.2190   40.0020   29.2210 N.2       1 HIS        -0.3252
     48 CD2        26.5480   38.6130   30.8740 C.2       1 HIS         0.0291
     49 CE1        27.3870   40.3050   29.7580 C.2       1 HIS         0.0907
     50 NE2        27.6110   39.4770   30.7620 N.pl3     1 HIS        -0.2752
     51 N          22.0960   40.3970   28.5780 N.am      1 ARG        -0.2636
     52 CA         21.7120   41.6440   27.9310 C.3       1 ARG         0.1311
     53 C          20.8660   42.4990   28.8640 C.2       1 ARG         0.2039
     54 O          21.1650   43.6720   29.0760 O.2       1 ARG        -0.3944
     55 CB         20.9530   41.3810   26.6260 C.3       1 ARG        -0.0092
     56 CG         20.6410   42.6450   25.8320 C.3       1 ARG        -0.0156
     57 CD         21.8960   43.4950   25.6430 C.3       1 ARG         0.0627
     58 NE         21.7090   44.5700   24.6710 N.pl3     1 ARG        -0.2723
     59 CZ         22.6760   45.3870   24.2610 C.cat     1 ARG         0.2882
     60 NH1        23.9090   45.2600   24.7350 N.pl3     1 ARG        -0.2849
     61 NH2        22.4090   46.3340   23.3720 N.pl3     1 ARG        -0.2849
     62 N          19.8120   41.9060   29.4200 N.am      1 LEU        -0.2637
     63 CA         18.8770   42.6330   30.2770 C.3       1 LEU         0.1312
     64 C          19.5120   43.0930   31.5850 C.2       1 LEU         0.2039
     65 O          19.0670   44.0720   32.1860 O.2       1 LEU        -0.3944
     66 CB         17.6470   41.7780   30.5860 C.3       1 LEU        -0.0101
     67 CG         16.7420   41.3650   29.4280 C.3       1 LEU        -0.0425
     68 CD1        15.6210   40.4930   29.9670 C.3       1 LEU        -0.0625
     69 CD2        16.1890   42.5840   28.6990 C.3       1 LEU        -0.0625
     70 N          20.5420   42.3860   32.0340 N.am      1 LEU        -0.2637
     71 CA         21.2450   42.7960   33.2440 C.3       1 LEU         0.1312
     72 C          22.1310   43.9940   32.9430 C.2       1 LEU         0.2034
     73 O          23.0490   44.3100   33.6990 O.2       1 LEU        -0.3944
     74 CB         22.0650   41.6410   33.8130 C.3       1 LEU        -0.0101
     75 CG         21.2010   40.6340   34.5700 C.3       1 LEU        -0.0425
     76 CD1        21.9160   39.3050   34.7650 C.3       1 LEU        -0.0625
     77 CD2        20.7630   41.2320   35.9010 C.3       1 LEU        -0.0625
     78 N          21.8240   44.6620   31.8350 N.am      1 GLN        -0.2693
     79 CA         22.6440   45.7410   31.3080 C.3       1 GLN         0.0964
     80 C          23.9680   45.1730   30.8090 C.2       1 GLN         0.0602
     81 O          24.5320   44.2570   31.4110 O.co2     1 GLN        -0.5666
     82 CB         22.8840   46.8170   32.3650 C.3       1 GLN        -0.0010
     83 CG         23.3830   48.1340   31.7980 C.3       1 GLN         0.0407
     84 CD         23.8340   49.0920   32.8790 C.2       1 GLN         0.1737
     85 OE1        24.6630   48.7480   33.7200 O.2       1 GLN        -0.3973
     86 NE2        23.2880   50.3020   32.8650 N.am      1 GLN        -0.3009
     87 H          25.1120   29.7852   29.1894 H         1 LYS         0.2015
     88 H          24.6809   29.0562   27.7543 H         1 LYS         0.2015
     89 H          26.2868   29.3461   28.0922 H         1 LYS         0.2015
     90 H          25.9574   31.6753   28.0342 H         1 LYS         0.1095
     91 H          24.8315   30.2745   25.5843 H         1 LYS         0.0310
     92 H          25.5327   31.9106   25.6343 H         1 LYS         0.0310
     93 H          26.5598   30.4915   25.9541 H         1 LYS         0.0310
     94 H          24.6610   33.2599   28.6039 H         1 HIS         0.1886
     95 H          21.7229   32.7979   28.2925 H         1 HIS         0.0817
     96 H          21.4071   34.1237   30.3348 H         1 HIS         0.0420
     97 H          23.2213   34.2235   30.5071 H         1 HIS         0.0420
     98 H          24.3610   32.0962   31.7853 H         1 HIS         0.0729
     99 H          20.8557   29.6828   32.0221 H         1 HIS         0.1199
    100 H          23.2959   29.9043   32.7355 H         1 HIS         0.2361
    101 H          22.3664   33.8310   26.1612 H         1 LYS         0.1883
    102 H          23.3122   36.3510   25.7593 H         1 LYS         0.0800
    103 H          22.0815   36.4392   23.7439 H         1 LYS         0.0312
    104 H          20.7618   35.3683   24.4558 H         1 LYS         0.0312
    105 H          21.9369   34.1183   22.8428 H         1 LYS         0.0269
    106 H          22.4598   33.5594   24.4879 H         1 LYS         0.0269
    107 H          24.0632   35.6663   23.1510 H         1 LYS         0.0317
    108 H          24.1769   33.9876   22.5100 H         1 LYS         0.0317
    109 H          24.7084   33.1899   24.7632 H         1 LYS         0.0813
    110 H          24.6656   34.8936   25.3540 H         1 LYS         0.0813
    111 H          26.8946   34.1497   24.9075 H         1 LYS         0.1994
    112 H          26.5052   33.8068   23.3240 H         1 LYS         0.1994
    113 H          26.4656   35.3808   23.8697 H         1 LYS         0.1994
    114 H          19.8510   35.6755   26.4013 H         1 ILE         0.1883
    115 H          19.1919   38.4546   26.2758 H         1 ILE         0.0803
    116 H          17.5554   36.1848   27.4967 H         1 ILE         0.0345
    117 H          18.2500   35.6671   25.2411 H         1 ILE         0.0267
    118 H          17.6165   37.2923   24.6844 H         1 ILE         0.0267
    119 H          16.7343   38.3898   28.1320 H         1 ILE         0.0235
    120 H          16.7158   38.8897   26.4229 H         1 ILE         0.0235
    121 H          15.6231   37.6011   26.9855 H         1 ILE         0.0235
    122 H          15.9903   35.0028   25.7908 H         1 ILE         0.0230
    123 H          15.3741   36.5834   25.2494 H         1 ILE         0.0230
    124 H          16.1165   35.4679   24.0765 H         1 ILE         0.0230
    125 H          19.3920   36.2325   29.1039 H         1 LEU         0.1883
    126 H          18.7640   38.1651   31.0467 H         1 LEU         0.0800
    127 H          20.3832   36.7923   32.5152 H         1 LEU         0.0315
    128 H          20.3699   35.6715   31.0360 H         1 LEU         0.0315
    129 H          18.0141   35.3652   31.3179 H         1 LEU         0.0298
    130 H          19.5542   33.8586   32.4864 H         1 LEU         0.0232
    131 H          19.5577   34.9448   33.8976 H         1 LEU         0.0232
    132 H          18.0622   34.0996   33.4283 H         1 LEU         0.0232
    133 H          18.2885   37.1440   33.7582 H         1 LEU         0.0232
    134 H          17.4414   37.5523   32.2460 H         1 LEU         0.0232
    135 H          16.8302   36.2395   33.2824 H         1 LEU         0.0232
    136 H          21.9779   37.3163   29.6825 H         1 HIS         0.1885
    137 H          23.4420   39.1426   31.3085 H         1 HIS         0.0817
    138 H          24.1872   38.5034   28.4722 H         1 HIS         0.0420
    139 H          24.3458   37.3049   29.8376 H         1 HIS         0.0420
    140 H          26.4369   37.8156   31.6088 H         1 HIS         0.0729
    141 H          28.0527   41.1027   29.4285 H         1 HIS         0.1199
    142 H          28.4388   39.4784   31.3579 H         1 HIS         0.2361
    143 H          21.7659   39.5120   28.1931 H         1 ARG         0.1883
    144 H          22.6271   42.1858   27.6921 H         1 ARG         0.0800
    145 H          20.0016   40.9191   26.8900 H         1 ARG         0.0313
    146 H          21.5875   40.7523   26.0013 H         1 ARG         0.0313
    147 H          19.9017   43.2292   26.3800 H         1 ARG         0.0301
    148 H          20.2617   42.3578   24.8513 H         1 ARG         0.0301
    149 H          22.6882   42.8440   25.2732 H         1 ARG         0.0689
    150 H          22.1389   43.9507   26.6029 H         1 ARG         0.0689
    151 H          20.7758   44.7028   24.2812 H         1 ARG         0.2642
    152 H          24.1204   44.5326   25.4181 H         1 ARG         0.2615
    153 H          24.6453   45.8898   24.4162 H         1 ARG         0.2615
    154 H          21.4634   46.4355   23.0034 H         1 ARG         0.2615
    155 H          23.1493   46.9610   23.0568 H         1 ARG         0.2615
    156 H          19.6518   40.9144   29.2428 H         1 LEU         0.1883
    157 H          18.5806   43.5215   29.7195 H         1 LEU         0.0800
    158 H          17.0228   42.3968   31.2306 H         1 LEU         0.0315
    159 H          18.0409   40.8447   30.9885 H         1 LEU         0.0315
    160 H          17.3232   40.7972   28.7014 H         1 LEU         0.0298
    161 H          16.0462   39.6065   30.4376 H         1 LEU         0.0232
    162 H          15.0461   41.0559   30.7023 H         1 LEU         0.0232
    163 H          14.9692   40.1931   29.1465 H         1 LEU         0.0232
    164 H          15.6093   43.1901   29.3952 H         1 LEU         0.0232
    165 H          17.0151   43.1742   28.3022 H         1 LEU         0.0232
    166 H          15.5486   42.2564   27.8801 H         1 LEU         0.0232
    167 H          20.8432   41.5519   31.5301 H         1 LEU         0.1883
    168 H          20.5114   43.0832   33.9973 H         1 LEU         0.0800
    169 H          22.7925   42.0547   34.5114 H         1 LEU         0.0315
    170 H          22.5395   41.1211   32.9808 H         1 LEU         0.0315
    171 H          20.3154   40.4229   33.9706 H         1 LEU         0.0298
    172 H          22.1625   38.8803   33.7919 H         1 LEU         0.0232
    173 H          22.8311   39.4664   35.3347 H         1 LEU         0.0232
    174 H          21.2648   38.6197   35.3076 H         1 LEU         0.0232
    175 H          21.6434   41.4736   36.4966 H         1 LEU         0.0232
    176 H          20.1863   42.1387   35.7183 H         1 LEU         0.0232
    177 H          20.1471   40.5100   36.4371 H         1 LEU         0.0232
    178 H          20.9746   44.4058   31.3318 H         1 GLN         0.1875
    179 H          22.1166   46.2095   30.4771 H         1 GLN         0.0727
    180 O          24.4932   45.6467   29.7662 O.co2     1 GLN        -0.5666
    181 H          23.6528   46.4424   33.0408 H         1 GLN         0.0330
    182 H          21.9282   47.0140   32.8506 H         1 GLN         0.0330
    183 H          22.5614   48.6006   31.2545 H         1 GLN         0.0504
    184 H          24.2380   47.9228   31.1557 H         1 GLN         0.0504
    185 H          23.5526   50.9891   33.5709 H         1 GLN         0.1814
    186 H          22.6039   50.5446   32.1483 H         1 GLN         0.1814
@<TRIPOS>BOND
     1    1    2 1  
     2    2    3 1  
     3    2    5 1  
     4    3    4 2  
     5    3    6 am 
     6    6    7 1  
     7    7    8 1  
     8    7   10 1  
     9    8    9 2  
    10    8   16 am 
    11   10   11 1  
    12   11   12 1  
    13   11   13 2  
    14   12   14 2  
    15   13   15 1  
    16   14   15 1  
    17   16   17 1  
    18   17   18 1  
    19   17   20 1  
    20   18   19 2  
    21   18   25 am 
    22   20   21 1  
    23   21   22 1  
    24   22   23 1  
    25   23   24 1  
    26   25   26 1  
    27   26   27 1  
    28   26   29 1  
    29   27   28 2  
    30   27   33 am 
    31   29   30 1  
    32   29   31 1  
    33   30   32 1  
    34   33   34 1  
    35   34   35 1  
    36   34   37 1  
    37   35   36 2  
    38   35   41 am 
    39   37   38 1  
    40   38   39 1  
    41   38   40 1  
    42   41   42 1  
    43   42   43 1  
    44   42   45 1  
    45   43   44 2  
    46   43   51 am 
    47   45   46 1  
    48   46   47 1  
    49   46   48 2  
    50   47   49 2  
    51   48   50 1  
    52   49   50 1  
    53   51   52 1  
    54   52   53 1  
    55   52   55 1  
    56   53   54 2  
    57   53   62 am 
    58   55   56 1  
    59   56   57 1  
    60   57   58 1  
    61   58   59 ar 
    62   59   60 ar 
    63   59   61 ar 
    64   62   63 1  
    65   63   64 1  
    66   63   66 1  
    67   64   65 2  
    68   64   70 am 
    69   66   67 1  
    70   67   68 1  
    71   67   69 1  
    72   70   71 1  
    73   71   72 1  
    74   71   74 1  
    75   72   73 2  
    76   72   78 am 
    77   74   75 1  
    78   75   76 1  
    79   75   77 1  
    80   78   79 1  
    81   79   80 1  
    82   79   82 1  
    83   80   81 ar 
    84   82   83 1  
    85   83   84 1  
    86   84   85 2  
    87   84   86 am 
    88    1   87 1  
    89    1   88 1  
    90    1   89 1  
    91    2   90 1  
    92    5   91 1  
    93    5   92 1  
    94    5   93 1  
    95    6   94 1  
    96    7   95 1  
    97   10   96 1  
    98   10   97 1  
    99   13   98 1  
   100   14   99 1  
   101   15  100 1  
   102   16  101 1  
   103   17  102 1  
   104   20  103 1  
   105   20  104 1  
   106   21  105 1  
   107   21  106 1  
   108   22  107 1  
   109   22  108 1  
   110   23  109 1  
   111   23  110 1  
   112   24  111 1  
   113   24  112 1  
   114   24  113 1  
   115   25  114 1  
   116   26  115 1  
   117   29  116 1  
   118   30  117 1  
   119   30  118 1  
   120   31  119 1  
   121   31  120 1  
   122   31  121 1  
   123   32  122 1  
   124   32  123 1  
   125   32  124 1  
   126   33  125 1  
   127   34  126 1  
   128   37  127 1  
   129   37  128 1  
   130   38  129 1  
   131   39  130 1  
   132   39  131 1  
   133   39  132 1  
   134   40  133 1  
   135   40  134 1  
   136   40  135 1  
   137   41  136 1  
   138   42  137 1  
   139   45  138 1  
   140   45  139 1  
   141   48  140 1  
   142   49  141 1  
   143   50  142 1  
   144   51  143 1  
   145   52  144 1  
   146   55  145 1  
   147   55  146 1  
   148   56  147 1  
   149   56  148 1  
   150   57  149 1  
   151   57  150 1  
   152   58  151 1  
   153   60  152 1  
   154   60  153 1  
   155   61  154 1  
   156   61  155 1  
   157   62  156 1  
   158   63  157 1  
   159   66  158 1  
   160   66  159 1  
   161   67  160 1  
   162   68  161 1  
   163   68  162 1  
   164   68  163 1  
   165   69  164 1  
   166   69  165 1  
   167   69  166 1  
   168   70  167 1  
   169   71  168 1  
   170   74  169 1  
   171   74  170 1  
   172   75  171 1  
   173   76  172 1  
   174   76  173 1  
   175   76  174 1  
   176   77  175 1  
   177   77  176 1  
   178   77  177 1  
   179   78  178 1  
   180   79  179 1  
   181   80  180 ar 
   182   82  181 1  
   183   82  182 1  
   184   83  183 1  
   185   83  184 1  
   186   86  185 1  
   187   86  186 1  
@<TRIPOS>SUBSTRUCTURE
     1 LYS         1

