4bs0_ligand
  -I-interpret- 

 15 16  0  0  0  0  0  0  0  0999 V2000
   22.9000   -2.6910  -18.3860 O   0  0  0  0  0
   23.8030   -2.1460  -19.2090 N   0  0  0  0  0
   24.9800   -1.9180  -18.7730 O   0  0  0  0  0
   23.4390   -1.6670  -20.5130 C   0  0  0  0  0
   24.3930   -0.9750  -21.2370 C   0  0  0  0  0
   24.0540   -0.4500  -22.4260 C   0  0  0  0  0
   22.6840   -0.5410  -22.8580 C   0  0  0  0  0
   22.0250   -0.1900  -24.0010 N   0  0  0  0  0
   21.7870   -1.2790  -22.0980 C   0  0  0  0  0
   22.1280   -1.8600  -20.8720 C   0  0  0  0  0
   20.5650   -1.2470  -22.7830 N   0  0  0  0  0
   20.7440   -0.5990  -23.9130 N   0  0  0  0  0
   25.4046   -0.8575  -20.8486 H   0  0  0  0  0
   24.8024    0.0359  -23.0520 H   0  0  0  0  0
   21.4183   -2.4148  -20.2583 H   0  0  0  0  0
  1  2  2  0  0  0
  2  3  2  0  0  0
  2  4  1  0  0  0
  4  5  4  0  0  0
  4 10  4  0  0  0
  5  6  4  0  0  0
  6  7  4  0  0  0
  7  8  4  0  0  0
  7  9  4  0  0  0
  8 12  4  0  0  0
  9 10  4  0  0  0
  9 11  4  0  0  0
 11 12  4  0  0  0
  5 13  1  0  0  0
  6 14  1  0  0  0
 10 15  1  0  0  0
M  END
$$$$
