3i9g_ligand
  -I-interpret- 

 64 63  0  0  0  0  0  0  0  0999 V2000
    1.1760   14.7560   38.5570 C   0  0  0  0  0
    2.5760   15.0240   38.4680 O   0  0  0  0  0
    0.6880   14.3200   37.1820 C   0  0  0  0  0
    1.3870   13.0990   36.7580 N   0  3  0  0  0
    0.9260   15.4380   36.1540 C   0  0  0  0  0
    0.0420   16.5200   36.4520 O   0  0  0  0  0
    0.6190   14.9580   34.7490 C   0  0  0  0  0
    1.5760   15.0020   33.8280 C   0  0  0  0  0
    1.2970   14.5280   32.4220 C   0  0  0  0  0
    1.7270   15.6480   31.4700 C   0  0  0  0  0
    0.5170   16.1000   30.6910 C   0  0  0  0  0
   -0.2110   17.3160   31.2030 C   0  0  0  0  0
   -0.6850   18.0290   29.9490 C   0  0  0  0  0
   -2.1900   17.9870   29.6930 C   0  0  0  0  0
   -2.4610   18.5280   28.2870 C   0  0  0  0  0
   -3.4740   19.6620   28.3910 C   0  0  0  0  0
   -3.5330   20.6290   27.1900 C   0  0  0  0  0
   -2.7350   21.9200   27.4140 C   0  0  0  0  0
   -3.1600   22.7410   28.6320 C   0  0  0  0  0
   -2.2580   23.9510   28.7960 C   0  0  0  0  0
   -2.8160   24.9620   29.7800 C   0  0  0  0  0
    3.6270   14.2890   39.4550 P   0  0  0  0  0
    3.0530   14.3370   40.8090 O   0  0  0  0  0
    4.8970   15.0190   39.1860 O   0  0  0  0  0
    3.7750   12.8800   38.8880 O   0  0  0  0  0
    0.6424   15.6506   38.8782 H   0  0  0  0  0
    0.9904   13.9690   39.2879 H   0  0  0  0  0
   -0.3808   14.1148   37.2430 H   0  0  0  0  0
    1.2257   12.3610   37.4433 H   0  0  0  0  0
    1.0318   12.8037   35.8486 H   0  0  0  0  0
    2.3870   13.2878   36.6888 H   0  0  0  0  0
    1.9707   15.7446   36.2069 H   0  0  0  0  0
    0.2186   16.8410   37.3393 H   0  0  0  0  0
   -0.3728   14.5821   34.4978 H   0  0  0  0  0
    2.5643   15.3810   34.0882 H   0  0  0  0  0
    0.2376   14.3044   32.2964 H   0  0  0  0  0
    1.8489   13.6123   32.2100 H   0  0  0  0  0
    2.4954   15.2839   30.7881 H   0  0  0  0  0
    2.1390   16.4826   32.0373 H   0  0  0  0  0
   -0.1977   15.2790   30.7485 H   0  0  0  0  0
    0.8839   16.3680   29.7002 H   0  0  0  0  0
    0.4305   17.9491   31.8160 H   0  0  0  0  0
   -1.0388   17.0506   31.8606 H   0  0  0  0  0
   -0.2142   17.5203   29.1078 H   0  0  0  0  0
   -0.4219   19.0795   30.0728 H   0  0  0  0  0
   -2.7095   18.5969   30.4320 H   0  0  0  0  0
   -2.5517   16.9618   29.7725 H   0  0  0  0  0
   -2.8556   17.7341   27.6529 H   0  0  0  0  0
   -1.5349   18.8962   27.8455 H   0  0  0  0  0
   -3.1757   20.2608   29.2516 H   0  0  0  0  0
   -4.4551   19.1911   28.4532 H   0  0  0  0  0
   -4.5763   20.9072   27.0408 H   0  0  0  0  0
   -3.0984   20.1167   26.3317 H   0  0  0  0  0
   -2.9009   22.5478   26.5385 H   0  0  0  0  0
   -1.6992   21.6242   27.5804 H   0  0  0  0  0
   -3.0843   22.1185   29.5235 H   0  0  0  0  0
   -4.1863   23.0800   28.4909 H   0  0  0  0  0
   -2.1702   24.4392   27.8254 H   0  0  0  0  0
   -1.2972   23.6052   29.1774 H   0  0  0  0  0
   -3.7869   25.3114   29.4287 H   0  0  0  0  0
   -2.9292   24.4920   30.7569 H   0  0  0  0  0
   -2.1313   25.8065   29.8588 H   0  0  0  0  0
    5.1465   14.8968   38.2671 H   0  0  0  0  0
    4.1537   12.9289   38.0072 H   0  0  0  0  0
  1  2  1  0  0  0
  1  3  1  0  0  0
  2 22  1  0  0  0
  3  4  1  0  0  0
  3  5  1  0  0  0
  5  6  1  0  0  0
  5  7  1  0  0  0
  7  8  2  0  0  0
  8  9  1  0  0  0
  9 10  1  0  0  0
 10 11  1  0  0  0
 11 12  1  0  0  0
 12 13  1  0  0  0
 13 14  1  0  0  0
 14 15  1  0  0  0
 15 16  1  0  0  0
 16 17  1  0  0  0
 17 18  1  0  0  0
 18 19  1  0  0  0
 19 20  1  0  0  0
 20 21  1  0  0  0
 22 23  2  0  0  0
 22 24  1  0  0  0
 22 25  1  0  0  0
  1 26  1  0  0  0
  1 27  1  0  0  0
  3 28  1  0  0  0
  4 29  1  0  0  0
  4 30  1  0  0  0
  4 31  1  0  0  0
  5 32  1  0  0  0
  6 33  1  0  0  0
  7 34  1  0  0  0
  8 35  1  0  0  0
  9 36  1  0  0  0
  9 37  1  0  0  0
 10 38  1  0  0  0
 10 39  1  0  0  0
 11 40  1  0  0  0
 11 41  1  0  0  0
 12 42  1  0  0  0
 12 43  1  0  0  0
 13 44  1  0  0  0
 13 45  1  0  0  0
 14 46  1  0  0  0
 14 47  1  0  0  0
 15 48  1  0  0  0
 15 49  1  0  0  0
 16 50  1  0  0  0
 16 51  1  0  0  0
 17 52  1  0  0  0
 17 53  1  0  0  0
 18 54  1  0  0  0
 18 55  1  0  0  0
 19 56  1  0  0  0
 19 57  1  0  0  0
 20 58  1  0  0  0
 20 59  1  0  0  0
 21 60  1  0  0  0
 21 61  1  0  0  0
 21 62  1  0  0  0
 24 63  1  0  0  0
 25 64  1  0  0  0
M  END
$$$$
