6hot_ligand
  -I-interpret- 

 23 23  0  0  0  0  0  0  0  0999 V2000
  -22.8600   14.2130  -13.2270 C   0  0  0  0  0
  -22.6250   13.7790  -14.5320 C   0  0  0  0  0
  -22.4590   12.4080  -14.7760 C   0  0  0  0  0
  -22.2150   11.8610  -16.0490 O   0  0  0  0  0
  -22.5340   11.5270  -13.7030 C   0  0  0  0  0
  -22.3590   10.1740  -13.9840 O   0  0  0  0  0
  -22.7670   11.9680  -12.4110 C   0  0  0  0  0
  -22.9420   13.3160  -12.1710 C   0  0  0  0  0
  -23.0480   15.6780  -12.8940 C   0  0  0  0  0
  -22.8850   16.6440  -13.8130 C   0  0  0  0  0
  -23.0970   18.0760  -13.3820 C   0  0  0  0  0
  -23.0220   18.9760  -14.1990 O   0  0  0  0  0
  -22.2170   12.7390  -17.1660 C   0  0  0  0  0
  -22.5711   14.4961  -15.3511 H   0  0  0  0  0
  -22.4315    9.6676  -13.1716 H   0  0  0  0  0
  -22.8119   11.2545  -11.5882 H   0  0  0  0  0
  -23.1429   13.6730  -11.1609 H   0  0  0  0  0
  -23.3241   15.9574  -11.8772 H   0  0  0  0  0
  -22.6080   16.4017  -14.8390 H   0  0  0  0  0
  -23.3172   18.3040  -12.3391 H   0  0  0  0  0
  -23.1918   13.2200  -17.2467 H   0  0  0  0  0
  -21.4461   13.4978  -17.0315 H   0  0  0  0  0
  -22.0146   12.1705  -18.0737 H   0  0  0  0  0
  1  2  4  0  0  0
  1  8  4  0  0  0
  1  9  1  0  0  0
  2  3  4  0  0  0
  3  4  1  0  0  0
  3  5  4  0  0  0
  4 13  1  0  0  0
  5  6  1  0  0  0
  5  7  4  0  0  0
  7  8  4  0  0  0
  9 10  2  0  0  0
 10 11  1  0  0  0
 11 12  2  0  0  0
  2 14  1  0  0  0
  6 15  1  0  0  0
  7 16  1  0  0  0
  8 17  1  0  0  0
  9 18  1  0  0  0
 10 19  1  0  0  0
 11 20  1  0  0  0
 13 21  1  0  0  0
 13 22  1  0  0  0
 13 23  1  0  0  0
M  END
$$$$
