5oa2_ligand
  -I-interpret- 

 90 94  0  0  0  0  0  0  0  0999 V2000
   90.3300   16.8190   77.1100 C   0  0  0  0  0
   91.7550   16.7100   77.7180 C   0  0  0  0  0
   92.5830   17.9730   77.4340 C   0  0  0  0  0
   89.4560   15.6280   77.5370 C   0  0  0  0  0
   95.9090    4.4960   82.6280 C   0  0  0  0  0
   95.3830    3.2260   82.4180 C   0  0  0  0  0
   94.3240    2.7670   83.1960 C   0  0  0  0  0
   93.8360    1.5440   82.9670 N   0  0  0  0  0
   93.0890    1.3200   81.7450 O   0  0  0  0  0
   94.0790    0.4630   83.9610 O   0  0  0  0  0
   93.7860    3.5900   84.1930 C   0  0  0  0  0
   94.3150    4.8690   84.4080 C   0  0  0  0  0
   95.3760    5.3330   83.6150 C   0  0  0  0  0
   95.9470    6.5730   83.7870 C   0  0  0  0  0
   94.9380    7.5720   84.0830 O   0  0  0  0  0
   95.5860    8.7680   84.5000 C   0  0  0  0  0
   94.7120    9.9560   84.0900 C   0  0  0  0  0
   95.0810   10.9810   83.3330 C   0  0  0  0  0
   93.4560   10.1440   84.4640 N   0  0  0  0  0
   93.0790   11.2260   83.9480 N   0  0  0  0  0
   94.0060   11.7600   83.2540 N   0  0  0  0  0
   93.8830   13.0760   82.5450 C   0  0  0  0  0
   92.5490   13.2940   81.8170 C   0  0  0  0  0
   92.5310   12.4960   80.6320 O   0  0  0  0  0
   94.0360   14.0510   83.6140 O   0  0  0  0  0
   94.0180   15.4010   83.1410 C   0  0  0  0  0
   94.4320   16.3560   84.2640 C   0  0  0  0  0
   93.5610   16.1940   85.3710 O   0  0  0  0  0
   92.6160   15.6850   82.6090 C   0  0  0  0  0
   92.4870   17.0570   82.1910 O   0  0  0  0  0
   92.3860   14.7720   81.4190 C   0  0  0  0  0
   91.0520   15.0070   80.9230 O   0  0  0  0  0
   91.0040   15.2800   79.5010 C   0  0  0  0  0
   89.5440   15.3810   79.0600 C   0  0  0  0  0
   88.8950   14.1500   79.3740 O   0  0  0  0  0
   91.6840   16.5080   79.1640 O   0  0  0  0  0
   91.8820   19.1280   77.8930 O   0  0  0  0  0
   90.4350   16.8600   75.6760 O   0  0  0  0  0
   88.0640   15.8850   77.1730 O   0  0  0  0  0
   87.4500   14.7380   76.5390 C   0  0  0  0  0
   88.0660   14.4760   75.2630 O   0  0  0  0  0
   87.6180   13.2410   74.7110 C   0  0  0  0  0
   88.4820   12.9680   73.4680 C   0  0  0  0  0
   88.6710   14.1890   72.7300 O   0  0  0  0  0
   86.1420   13.4160   74.3640 C   0  0  0  0  0
   85.5990   12.2160   73.7550 O   0  0  0  0  0
   85.3510   13.7530   75.6150 C   0  0  0  0  0
   84.0200   14.0950   75.2230 O   0  0  0  0  0
   85.9560   14.9670   76.3250 C   0  0  0  0  0
   85.3320   15.1620   77.5780 O   0  0  0  0  0
   89.8584   17.7309   77.4762 H   0  0  0  0  0
   92.2402   15.8539   77.2491 H   0  0  0  0  0
   92.7513   18.0582   76.3604 H   0  0  0  0  0
   93.5375   17.9014   77.9555 H   0  0  0  0  0
   89.8233   14.7404   77.0219 H   0  0  0  0  0
   96.7436    4.8426   82.0186 H   0  0  0  0  0
   95.8019    2.5870   81.6406 H   0  0  0  0  0
   92.9548    3.2350   84.8023 H   0  0  0  0  0
   93.9024    5.5044   85.1917 H   0  0  0  0  0
   96.4582    6.8538   82.8662 H   0  0  0  0  0
   96.6464    6.5237   84.6216 H   0  0  0  0  0
   96.5665    8.8454   84.0302 H   0  0  0  0  0
   95.7243    8.7610   85.5812 H   0  0  0  0  0
   96.0555   11.1487   82.8744 H   0  0  0  0  0
   94.6236   13.1469   81.7484 H   0  0  0  0  0
   91.7340   13.0120   82.4836 H   0  0  0  0  0
   91.6990   12.6276   80.1715 H   0  0  0  0  0
   94.7350   15.5520   82.3340 H   0  0  0  0  0
   94.3746   17.3837   83.9052 H   0  0  0  0  0
   95.4537   16.1327   84.5712 H   0  0  0  0  0
   93.8229   16.7938   86.0733 H   0  0  0  0  0
   91.8824   15.5063   83.3951 H   0  0  0  0  0
   91.5979   17.2078   81.8617 H   0  0  0  0  0
   93.1238   14.9882   80.6463 H   0  0  0  0  0
   91.5097   14.4634   78.9857 H   0  0  0  0  0
   89.0645   16.2129   79.5758 H   0  0  0  0  0
   87.9752   14.1963   79.1031 H   0  0  0  0  0
   92.4058   19.9118   77.7119 H   0  0  0  0  0
   90.9817   17.6056   75.4175 H   0  0  0  0  0
   87.5927   13.8828   77.1996 H   0  0  0  0  0
   87.7137   12.3957   75.3925 H   0  0  0  0  0
   87.9811   12.2366   72.8337 H   0  0  0  0  0
   89.4520   12.5812   73.7804 H   0  0  0  0  0
   89.2106   14.0133   71.9557 H   0  0  0  0  0
   86.0606   14.2328   73.6469 H   0  0  0  0  0
   84.6719   12.3549   73.5481 H   0  0  0  0  0
   85.3670   12.8950   76.2871 H   0  0  0  0  0
   83.5037   14.3117   76.0028 H   0  0  0  0  0
   85.8001   15.8510   75.7067 H   0  0  0  0  0
   84.3920   15.3064   77.4471 H   0  0  0  0  0
  1  2  1  0  0  0
  4  1  1  0  0  0
  1 38  1  0  0  0
  2  3  1  0  0  0
  2 36  1  0  0  0
  3 37  1  0  0  0
 34  4  1  0  0  0
  4 39  1  0  0  0
  5  6  4  0  0  0
 13  5  4  0  0  0
  6  7  4  0  0  0
  7  8  1  0  0  0
 11  7  4  0  0  0
  8  9  2  0  0  0
  8 10  2  0  0  0
 12 11  4  0  0  0
 13 12  4  0  0  0
 14 13  1  0  0  0
 15 14  1  0  0  0
 16 15  1  0  0  0
 17 16  1  0  0  0
 18 17  4  0  0  0
 19 17  4  0  0  0
 21 18  4  0  0  0
 20 19  4  0  0  0
 21 20  4  0  0  0
 22 21  1  0  0  0
 23 22  1  0  0  0
 22 25  1  0  0  0
 23 24  1  0  0  0
 31 23  1  0  0  0
 26 25  1  0  0  0
 26 27  1  0  0  0
 29 26  1  0  0  0
 27 28  1  0  0  0
 29 30  1  0  0  0
 31 29  1  0  0  0
 32 31  1  0  0  0
 33 32  1  0  0  0
 33 34  1  0  0  0
 33 36  1  0  0  0
 34 35  1  0  0  0
 39 40  1  0  0  0
 40 41  1  0  0  0
 40 49  1  0  0  0
 41 42  1  0  0  0
 42 43  1  0  0  0
 42 45  1  0  0  0
 43 44  1  0  0  0
 45 46  1  0  0  0
 45 47  1  0  0  0
 47 48  1  0  0  0
 47 49  1  0  0  0
 49 50  1  0  0  0
  1 51  1  0  0  0
  2 52  1  0  0  0
  3 53  1  0  0  0
  3 54  1  0  0  0
  4 55  1  0  0  0
  5 56  1  0  0  0
  6 57  1  0  0  0
 11 58  1  0  0  0
 12 59  1  0  0  0
 14 60  1  0  0  0
 14 61  1  0  0  0
 16 62  1  0  0  0
 16 63  1  0  0  0
 18 64  1  0  0  0
 22 65  1  0  0  0
 23 66  1  0  0  0
 24 67  1  0  0  0
 26 68  1  0  0  0
 27 69  1  0  0  0
 27 70  1  0  0  0
 28 71  1  0  0  0
 29 72  1  0  0  0
 30 73  1  0  0  0
 31 74  1  0  0  0
 33 75  1  0  0  0
 34 76  1  0  0  0
 35 77  1  0  0  0
 37 78  1  0  0  0
 38 79  1  0  0  0
 40 80  1  0  0  0
 42 81  1  0  0  0
 43 82  1  0  0  0
 43 83  1  0  0  0
 44 84  1  0  0  0
 45 85  1  0  0  0
 46 86  1  0  0  0
 47 87  1  0  0  0
 48 88  1  0  0  0
 49 89  1  0  0  0
 50 90  1  0  0  0
M  END
$$$$
