3fql_ligand
  -I-interpret- 

 54 57  0  0  0  0  0  0  0  0999 V2000
  -14.2680   -9.6220   12.1590 C   0  0  0  0  0
  -14.4440   -9.7210   10.6420 C   0  0  0  0  0
  -13.1480  -10.1830   11.2940 C   0  0  0  0  0
  -18.4190  -16.0240    9.0740 C   0  0  0  0  0
  -17.6810  -17.1960    9.1660 C   0  0  0  0  0
  -18.2820  -18.3960    8.8350 C   0  0  0  0  0
  -19.5960  -18.4120    8.3880 C   0  0  0  0  0
  -20.3120  -17.2320    8.2490 C   0  0  0  0  0
  -19.7190  -16.0230    8.5820 C   0  0  0  0  0
  -15.4080  -10.7340   10.1300 C   0  0  0  0  0
  -16.4030  -10.3250    9.2180 C   0  0  0  0  0
  -17.3260  -11.2420    8.7130 C   0  0  0  0  0
  -15.3580  -12.0760   10.5580 C   0  0  0  0  0
  -16.2900  -12.9650   10.0380 C   0  0  0  0  0
  -17.2530  -12.5480    9.1340 C   0  0  0  0  0
  -18.1320  -13.5750    8.7270 O   0  0  0  0  0
  -17.7650  -14.7460    9.3480 C   0  0  0  0  0
  -16.5990  -14.4110   10.2110 C   0  0  0  0  0
  -15.7860  -15.3060   11.0950 C   0  0  0  0  0
  -14.5900  -15.3970   10.8810 O   0  0  0  0  0
  -16.3400  -16.0160   12.0780 N   0  0  0  0  0
  -15.6070  -16.9150   12.9650 C   0  0  0  0  0
  -16.5250   -9.0050    8.6980 N   0  0  0  0  0
  -15.9290   -8.7640    7.3020 S   0  0  0  0  0
  -15.1660   -7.5600    7.2420 O   0  0  0  0  0
  -15.0750   -9.8250    6.8270 O   0  0  0  0  0
  -17.2130   -8.6880    6.2330 C   0  0  0  0  0
  -20.1480  -19.6000    8.0610 F   0  0  0  0  0
  -17.2530   -7.9290    9.3200 C   0  0  0  0  0
  -17.5750   -8.2540   10.7640 C   0  0  0  0  0
  -18.0160   -7.0550   11.3900 O   0  0  0  0  0
  -14.8129   -9.8856   13.0655 H   0  0  0  0  0
  -14.3997   -8.8862   12.9523 H   0  0  0  0  0
  -14.6837   -9.0303    9.8335 H   0  0  0  0  0
  -12.4913  -11.0528   11.2747 H   0  0  0  0  0
  -12.0749  -10.0457   11.1607 H   0  0  0  0  0
  -16.6420  -17.1704    9.4947 H   0  0  0  0  0
  -17.7248  -19.3285    8.9249 H   0  0  0  0  0
  -21.3372  -17.2548    7.8793 H   0  0  0  0  0
  -20.2639  -15.0869    8.4598 H   0  0  0  0  0
  -18.0885  -10.9289    7.9998 H   0  0  0  0  0
  -14.6087  -12.4070   11.2771 H   0  0  0  0  0
  -17.3459  -15.9249   12.2204 H   0  0  0  0  0
  -15.1292  -17.6965   12.3741 H   0  0  0  0  0
  -14.8472  -16.3504   13.5053 H   0  0  0  0  0
  -16.2994  -17.3668   13.6753 H   0  0  0  0  0
  -17.8532   -7.8457    6.4954 H   0  0  0  0  0
  -16.8333   -8.5556    5.2199 H   0  0  0  0  0
  -17.7864   -9.6133    6.2895 H   0  0  0  0  0
  -18.1873   -7.7804    8.7786 H   0  0  0  0  0
  -16.6379   -7.0295    9.2930 H   0  0  0  0  0
  -16.6921   -8.6436   11.2708 H   0  0  0  0  0
  -18.3517   -9.0169   10.8167 H   0  0  0  0  0
  -18.2272   -7.2342   12.3092 H   0  0  0  0  0
  2  1  1  0  0  0
  3  1  1  0  0  0
  2  3  1  0  0  0
 10  2  1  0  0  0
  4  5  4  0  0  0
  4  9  4  0  0  0
 17  4  1  0  0  0
  5  6  4  0  0  0
  6  7  4  0  0  0
  8  7  4  0  0  0
  7 28  1  0  0  0
  9  8  4  0  0  0
 11 10  4  0  0  0
 13 10  4  0  0  0
 12 11  4  0  0  0
 11 23  1  0  0  0
 15 12  4  0  0  0
 14 13  4  0  0  0
 15 14  4  0  0  0
 14 18  4  0  0  0
 16 15  4  0  0  0
 16 17  4  0  0  0
 17 18  4  0  0  0
 18 19  1  0  0  0
 19 20  2  0  0  0
 19 21  1  0  0  0
 21 22  1  0  0  0
 23 24  1  0  0  0
 23 29  1  0  0  0
 24 25  2  0  0  0
 24 26  2  0  0  0
 24 27  1  0  0  0
 29 30  1  0  0  0
 30 31  1  0  0  0
  1 32  1  0  0  0
  1 33  1  0  0  0
  2 34  1  0  0  0
  3 35  1  0  0  0
  3 36  1  0  0  0
  5 37  1  0  0  0
  6 38  1  0  0  0
  8 39  1  0  0  0
  9 40  1  0  0  0
 12 41  1  0  0  0
 13 42  1  0  0  0
 21 43  1  0  0  0
 22 44  1  0  0  0
 22 45  1  0  0  0
 22 46  1  0  0  0
 27 47  1  0  0  0
 27 48  1  0  0  0
 27 49  1  0  0  0
 29 50  1  0  0  0
 29 51  1  0  0  0
 30 52  1  0  0  0
 30 53  1  0  0  0
 31 54  1  0  0  0
M  END
$$$$
