6mh7_ligand
  -I-interpret- 

 61 65  0  0  0  0  0  0  0  0999 V2000
   21.2770  -21.4860   35.3580 C   0  0  0  0  0
   22.8540  -22.3400   30.3010 C   0  0  0  0  0
   21.5360  -20.7090   29.0630 C   0  0  0  0  0
   19.2620  -19.9540   29.9230 C   0  0  0  0  0
   20.6860  -21.6270   31.1510 C   0  0  0  0  0
   21.4330  -22.5370   36.2710 C   0  0  0  0  0
   22.3800  -18.8670   34.1110 C   0  0  0  0  0
   24.4050  -17.8260   33.0100 C   0  0  0  0  0
   16.8670  -22.5920   40.3130 F   0  0  0  0  0
   17.6350  -21.9200   39.4890 C   0  0  0  0  0
   18.2090  -20.6870   39.8690 C   0  0  0  0  0
   19.0370  -19.9910   38.9960 C   0  0  0  0  0
   17.8760  -22.4360   38.2080 C   0  0  0  0  0
   18.6860  -21.7320   37.3240 C   0  0  0  0  0
   19.2980  -20.5120   37.7070 C   0  0  0  0  0
   20.1090  -19.7760   36.8120 C   0  0  0  0  0
   20.9630  -20.1690   35.7590 C   0  0  0  0  0
   21.5110  -21.7450   34.0450 N   0  0  0  0  0
   21.8380  -22.9900   33.6020 C   0  0  0  0  0
   22.0660  -23.2620   32.3020 N   0  0  0  0  0
   21.8490  -22.4020   31.2830 C   0  0  0  0  0
   22.6930  -21.4970   29.2110 C   0  0  0  0  0
   21.4120  -19.8410   27.8690 C   0  0  0  0  0
   20.5070  -20.7720   30.0380 C   0  0  0  0  0
   21.9460  -24.0230   34.4730 N   0  0  0  0  0
   21.7590  -23.8220   35.7990 C   0  0  0  0  0
   21.4400  -19.0340   35.2020 N   0  0  0  0  0
   23.4880  -17.7860   34.2430 C   0  0  0  0  0
   23.5880  -17.5500   31.8190 N   0  3  0  0  0
   22.5760  -18.6080   31.5940 C   0  0  0  0  0
   21.5930  -18.6670   32.7900 C   0  0  0  0  0
   20.9070  -17.9970   35.8850 C   0  0  0  0  0
   20.0940  -18.4260   36.8640 N   0  0  0  0  0
   23.7526  -22.9497   30.3956 H   0  0  0  0  0
   19.5239  -18.8960   29.9097 H   0  0  0  0  0
   18.7427  -20.2127   29.0002 H   0  0  0  0  0
   18.6143  -20.1586   30.7755 H   0  0  0  0  0
   19.9112  -21.6846   31.9155 H   0  0  0  0  0
   21.3029  -22.3608   37.3388 H   0  0  0  0  0
   22.9569  -19.7916   34.1298 H   0  0  0  0  0
   24.8733  -18.8065   32.9236 H   0  0  0  0  0
   25.1926  -17.0785   33.1050 H   0  0  0  0  0
   18.0006  -20.2768   40.8571 H   0  0  0  0  0
   19.4842  -19.0459   39.3040 H   0  0  0  0  0
   17.4307  -23.3841   37.9066 H   0  0  0  0  0
   18.8530  -22.1243   36.3208 H   0  0  0  0  0
   22.4296  -24.1863   32.0700 H   0  0  0  0  0
   23.4768  -21.4439   28.4554 H   0  0  0  0  0
   22.2360  -19.1276   27.8529 H   0  0  0  0  0
   21.4443  -20.4558   26.9695 H   0  0  0  0  0
   20.4648  -19.3032   27.9092 H   0  0  0  0  0
   21.8606  -24.6522   36.4980 H   0  0  0  0  0
   24.0787  -17.9831   35.1376 H   0  0  0  0  0
   23.0245  -16.8021   34.3153 H   0  0  0  0  0
   24.2040  -17.5157   31.0068 H   0  0  0  0  0
   23.1021  -16.6643   31.9600 H   0  0  0  0  0
   23.0794  -19.5699   31.4968 H   0  0  0  0  0
   22.0195  -18.3832   30.6842 H   0  0  0  0  0
   21.0343  -17.7325   32.8425 H   0  0  0  0  0
   20.9069  -19.5024   32.6504 H   0  0  0  0  0
   21.1106  -16.9481   35.6693 H   0  0  0  0  0
  1  6  4  0  0  0
  1 17  1  0  0  0
 18  1  4  0  0  0
 21  2  4  0  0  0
  2 22  4  0  0  0
 22  3  4  0  0  0
  3 23  1  0  0  0
 24  3  4  0  0  0
 24  4  1  0  0  0
 21  5  4  0  0  0
  5 24  4  0  0  0
  6 26  4  0  0  0
 27  7  1  0  0  0
  7 28  1  0  0  0
  7 31  1  0  0  0
 28  8  1  0  0  0
  8 29  1  0  0  0
 10  9  1  0  0  0
 11 10  4  0  0  0
 13 10  4  0  0  0
 12 11  4  0  0  0
 15 12  4  0  0  0
 14 13  4  0  0  0
 15 14  4  0  0  0
 16 15  1  0  0  0
 17 16  4  0  0  0
 16 33  4  0  0  0
 17 27  4  0  0  0
 19 18  4  0  0  0
 20 19  1  0  0  0
 19 25  4  0  0  0
 20 21  1  0  0  0
 25 26  4  0  0  0
 27 32  4  0  0  0
 29 30  1  0  0  0
 30 31  1  0  0  0
 32 33  4  0  0  0
  2 34  1  0  0  0
  4 35  1  0  0  0
  4 36  1  0  0  0
  4 37  1  0  0  0
  5 38  1  0  0  0
  6 39  1  0  0  0
  7 40  1  0  0  0
  8 41  1  0  0  0
  8 42  1  0  0  0
 11 43  1  0  0  0
 12 44  1  0  0  0
 13 45  1  0  0  0
 14 46  1  0  0  0
 20 47  1  0  0  0
 22 48  1  0  0  0
 23 49  1  0  0  0
 23 50  1  0  0  0
 23 51  1  0  0  0
 26 52  1  0  0  0
 28 53  1  0  0  0
 28 54  1  0  0  0
 29 55  1  0  0  0
 29 56  1  0  0  0
 30 57  1  0  0  0
 30 58  1  0  0  0
 31 59  1  0  0  0
 31 60  1  0  0  0
 32 61  1  0  0  0
M  END
$$$$
