4jh0_ligand
  -I-interpret- 

 48 50  0  0  0  0  0  0  0  0999 V2000
   48.1730   50.1170   35.3990 C   0  0  0  0  0
   47.1440   50.8880   34.7480 C   0  0  0  0  0
   47.4070   51.4600   33.4580 C   0  0  0  0  0
   48.5600   51.2460   32.7850 N   0  0  0  0  0
   49.3750   49.9770   34.7070 C   0  0  0  0  0
   49.5200   50.5450   33.4480 C   0  0  0  0  0
   50.8990   50.3260   32.9490 C   0  0  0  0  0
   51.4650   49.5310   34.0270 N   0  0  0  0  0
   50.6310   49.3320   35.0640 C   0  0  0  0  0
   52.6410   48.6600   33.9380 C   0  0  0  0  0
   52.2580   47.4020   33.1460 C   0  0  0  0  0
   46.4890   52.3870   32.7320 C   0  0  0  0  0
   48.0560   49.6090   36.7950 C   0  0  0  0  0
   45.7540   51.0100   35.3220 C   0  0  0  0  0
   45.6990   51.8600   36.5090 N   0  3  0  0  0
   47.4410   48.3470   37.0770 C   0  0  0  0  0
   47.3590   47.9240   38.4580 C   0  0  0  0  0
   47.8810   48.7450   39.5120 C   0  0  0  0  0
   48.4800   50.0440   39.2760 C   0  0  0  0  0
   48.5310   50.4060   37.8950 C   0  0  0  0  0
   49.2330   51.9130   37.6040 Cl  0  0  0  0  0
   47.8160   48.1780   41.1200 Cl  0  0  0  0  0
   53.3280   46.5760   32.8840 N   0  0  0  0  0
   53.2030   45.2730   32.1460 C   0  0  0  0  0
   51.0660   47.1990   32.8010 O   0  0  0  0  0
   50.9730   48.7140   36.0820 O   0  0  0  0  0
   54.6110   46.9730   33.5230 C   0  0  0  0  0
   51.4456   51.2475   32.7485 H   0  0  0  0  0
   50.9419   49.8394   31.9746 H   0  0  0  0  0
   52.9745   48.3825   34.9379 H   0  0  0  0  0
   53.4538   49.1832   33.4343 H   0  0  0  0  0
   45.5360   51.8882   32.5555 H   0  0  0  0  0
   46.3266   53.2809   33.3342 H   0  0  0  0  0
   46.9365   52.6663   31.7782 H   0  0  0  0  0
   45.4261   50.0120   35.6128 H   0  0  0  0  0
   45.1187   51.4620   34.5603 H   0  0  0  0  0
   44.7387   51.9040   36.8500 H   0  0  0  0  0
   46.3009   51.4691   37.2338 H   0  0  0  0  0
   46.0191   52.7982   36.2690 H   0  0  0  0  0
   47.0463   47.7235   36.2748 H   0  0  0  0  0
   46.8942   46.9684   38.7009 H   0  0  0  0  0
   48.8553   50.6829   40.0754 H   0  0  0  0  0
   52.5288   44.6118   32.6904 H   0  0  0  0  0
   52.8049   45.4587   31.1484 H   0  0  0  0  0
   54.1849   44.8067   32.0658 H   0  0  0  0  0
   54.8954   47.9668   33.1772 H   0  0  0  0  0
   54.4876   46.9853   34.6059 H   0  0  0  0  0
   55.3870   46.2569   33.2526 H   0  0  0  0  0
  1  2  4  0  0  0
  1  5  4  0  0  0
  1 13  1  0  0  0
  2  3  4  0  0  0
  2 14  1  0  0  0
  3  4  4  0  0  0
  3 12  1  0  0  0
  4  6  4  0  0  0
  5  6  4  0  0  0
  5  9  1  0  0  0
  6  7  1  0  0  0
  7  8  1  0  0  0
  8  9  1  0  0  0
  8 10  1  0  0  0
  9 26  2  0  0  0
 10 11  1  0  0  0
 11 23  1  0  0  0
 11 25  2  0  0  0
 13 16  4  0  0  0
 13 20  4  0  0  0
 14 15  1  0  0  0
 16 17  4  0  0  0
 17 18  4  0  0  0
 18 19  4  0  0  0
 18 22  1  0  0  0
 19 20  4  0  0  0
 20 21  1  0  0  0
 23 24  1  0  0  0
 23 27  1  0  0  0
  7 28  1  0  0  0
  7 29  1  0  0  0
 10 30  1  0  0  0
 10 31  1  0  0  0
 12 32  1  0  0  0
 12 33  1  0  0  0
 12 34  1  0  0  0
 14 35  1  0  0  0
 14 36  1  0  0  0
 15 37  1  0  0  0
 15 38  1  0  0  0
 15 39  1  0  0  0
 16 40  1  0  0  0
 17 41  1  0  0  0
 19 42  1  0  0  0
 24 43  1  0  0  0
 24 44  1  0  0  0
 24 45  1  0  0  0
 27 46  1  0  0  0
 27 47  1  0  0  0
 27 48  1  0  0  0
M  END
$$$$
