2xbx_ligand
  -I-interpret- 

 58 61  0  0  0  0  0  0  0  0999 V2000
    9.1560   70.2050    2.7760 S   0  0  0  0  0
    9.5790   66.3220    2.6170 C   0  0  0  0  0
   10.1310   66.6000    4.0140 C   0  0  0  0  0
    9.6270   68.5610    2.8280 N   0  0  0  0  0
    8.8080   65.0470    2.3840 C   0  0  0  0  0
    6.8600   58.8990    3.0480 N   0  0  0  0  0
   11.4700   65.9120    4.1040 C   0  0  0  0  0
   10.2760   68.1260    4.0480 C   0  0  0  0  0
    8.7270   67.5540    2.3150 C   0  0  0  0  0
    5.7550   58.5690    2.1910 C   0  0  0  0  0
    7.3430   60.2100    3.0040 C   0  0  0  0  0
    9.0090   64.0560    3.1350 N   0  0  0  0  0
    8.1540   60.5430    1.9470 C   0  0  0  0  0
   12.1710   65.9950    5.2990 N   0  0  0  0  0
    8.3560   62.7490    3.0380 C   0  0  0  0  0
    8.6500   61.8500    1.9940 C   0  0  0  0  0
   10.2900   70.9980    3.3660 O   0  0  0  0  0
    8.7570   70.5200    1.3810 O   0  0  0  0  0
    7.4320   57.9600    3.9870 C   0  0  0  0  0
    7.9920   64.9220    1.4220 O   0  0  0  0  0
   11.8310   65.1250    3.2380 O   0  0  0  0  0
    5.3060   57.2250    2.2240 C   0  0  0  0  0
    5.3770   59.4290    1.3520 O   0  0  0  0  0
    6.9800   61.0620    4.0340 C   0  0  0  0  0
    7.4990   62.3760    4.0660 C   0  0  0  0  0
    6.9140   56.6950    4.0070 C   0  0  0  0  0
    5.8340   56.3470    3.1190 C   0  0  0  0  0
   13.3500   65.2380    5.6910 C   0  0  0  0  0
    7.8170   70.2470    3.8950 C   0  0  0  0  0
    9.4710   62.2150    0.9720 F   0  0  0  0  0
   15.4740   63.7690    6.5750 C   0  0  0  0  0
   16.6610   62.6960    7.1880 Cl  0  0  0  0  0
   13.7780   65.3470    7.0160 C   0  0  0  0  0
   14.0020   64.4110    4.7780 C   0  0  0  0  0
   15.1010   63.6660    5.2060 C   0  0  0  0  0
   14.8630   64.5980    7.4570 C   0  0  0  0  0
   10.4218   66.1519    1.9471 H   0  0  0  0  0
    9.5147   66.2457    4.8402 H   0  0  0  0  0
   11.3175   68.4432    4.1004 H   0  0  0  0  0
    9.8259   68.5663    4.9377 H   0  0  0  0  0
    7.7303   67.5511    2.7561 H   0  0  0  0  0
    8.4370   67.6759    1.2714 H   0  0  0  0  0
    9.6924   64.1754    3.8827 H   0  0  0  0  0
    8.3908   59.8486    1.1409 H   0  0  0  0  0
   11.8183   66.6651    5.9824 H   0  0  0  0  0
    8.2447   58.2495    4.6531 H   0  0  0  0  0
    4.5343   56.8935    1.5292 H   0  0  0  0  0
    6.2991   60.7215    4.8141 H   0  0  0  0  0
    7.2374   63.0693    4.8654 H   0  0  0  0  0
    7.3174   55.9508    4.6937 H   0  0  0  0  0
    5.4230   55.3385    3.1663 H   0  0  0  0  0
    8.1250   69.8098    4.8448 H   0  0  0  0  0
    7.5089   71.2806    4.0523 H   0  0  0  0  0
    6.9839   69.6766    3.4843 H   0  0  0  0  0
   13.2623   66.0180    7.7030 H   0  0  0  0  0
   13.6585   64.3473    3.7455 H   0  0  0  0  0
   15.6539   63.0281    4.5165 H   0  0  0  0  0
   15.2138   64.6752    8.4861 H   0  0  0  0  0
  4  1  1  0  0  0
  1 17  2  0  0  0
  1 18  2  0  0  0
  1 29  1  0  0  0
  3  2  1  0  0  0
  2  5  1  0  0  0
  2  9  1  0  0  0
  7  3  1  0  0  0
  3  8  1  0  0  0
  8  4  1  0  0  0
  4  9  1  0  0  0
  5 12  1  0  0  0
  5 20  2  0  0  0
  6 10  1  0  0  0
 11  6  1  0  0  0
  6 19  1  0  0  0
 14  7  1  0  0  0
  7 21  2  0  0  0
 10 22  1  0  0  0
 10 23  2  0  0  0
 13 11  4  0  0  0
 24 11  4  0  0  0
 12 15  1  0  0  0
 16 13  4  0  0  0
 28 14  1  0  0  0
 15 16  4  0  0  0
 15 25  4  0  0  0
 16 30  1  0  0  0
 19 26  2  0  0  0
 22 27  2  0  0  0
 25 24  4  0  0  0
 26 27  1  0  0  0
 33 28  4  0  0  0
 28 34  4  0  0  0
 31 32  1  0  0  0
 31 35  4  0  0  0
 36 31  4  0  0  0
 33 36  4  0  0  0
 34 35  4  0  0  0
  2 37  1  0  0  0
  3 38  1  0  0  0
  8 39  1  0  0  0
  8 40  1  0  0  0
  9 41  1  0  0  0
  9 42  1  0  0  0
 12 43  1  0  0  0
 13 44  1  0  0  0
 14 45  1  0  0  0
 19 46  1  0  0  0
 22 47  1  0  0  0
 24 48  1  0  0  0
 25 49  1  0  0  0
 26 50  1  0  0  0
 27 51  1  0  0  0
 29 52  1  0  0  0
 29 53  1  0  0  0
 29 54  1  0  0  0
 33 55  1  0  0  0
 34 56  1  0  0  0
 35 57  1  0  0  0
 36 58  1  0  0  0
M  END
$$$$
