4bzs_ligand
  -I-interpret- 

 71 72  0  0  0  0  0  0  0  0999 V2000
   32.0990   13.6600    9.7450 C   0  0  0  0  0
   32.9940   12.8810   10.4840 C   0  0  0  0  0
   32.7490   11.5230   10.6820 C   0  0  0  0  0
   33.6160   10.7570   11.4060 O   0  0  0  0  0
   31.6050   10.9460   10.1380 C   0  0  0  0  0
   30.7170   11.7220    9.3960 C   0  0  0  0  0
   30.9500   13.0810    9.1950 C   0  0  0  0  0
   30.0400   13.8490    8.4440 C   0  0  0  0  0
   28.9070   14.3850    9.3400 C   0  0  0  0  0
   27.6140   15.2730    8.3600 P   0  0  0  0  0
   28.3740   16.0580    7.3930 O   0  0  0  0  0
   26.7750   14.2140    7.8020 O   0  0  0  0  0
   26.9470   16.0890    9.3870 O   0  0  0  0  0
   28.2780   13.2550   10.0410 N   0  0  0  0  0
   28.1480   13.2450   11.3760 C   0  0  0  0  0
   28.5550   14.1460   12.1090 O   0  0  0  0  0
   27.4880   12.0060   11.9870 C   0  0  0  0  0
   28.2420   11.7820   13.2280 N   0  0  0  0  0
   28.9050   10.6430   13.4860 C   0  0  0  0  0
   28.9140    9.6590   12.7490 O   0  0  0  0  0
   29.7030   10.6580   14.7960 C   0  0  0  0  0
   31.2040   10.6380   14.4660 C   0  0  0  0  0
   31.6480   12.0700   14.1400 C   0  0  0  0  0
   31.9960   10.1030   15.6570 C   0  0  0  0  0
   33.4720   10.1520   15.2330 C   0  0  0  0  0
   29.3400    9.5060   15.6280 N   0  0  0  0  0
   28.8700    9.6660   16.8720 C   0  0  0  0  0
   28.5630    8.3680   17.6120 C   0  0  0  0  0
   28.6860   10.7560   17.4120 O   0  0  0  0  0
   26.0230   12.2930   12.2530 C   0  0  0  0  0
   25.3820   11.0540   12.4620 C   0  0  0  0  0
   24.5210   10.5160   11.5010 C   0  0  0  0  0
   23.8820    9.2950   11.7180 C   0  0  0  0  0
   24.0900    8.5980   12.9050 C   0  0  0  0  0
   23.4760    7.4050   13.1290 O   0  0  0  0  0
   24.9350    9.1280   13.8700 C   0  0  0  0  0
   25.5710   10.3460   13.6500 C   0  0  0  0  0
   32.2967   14.7216    9.5968 H   0  0  0  0  0
   33.8883   13.3379   10.9077 H   0  0  0  0  0
   33.2920    9.8539   11.4396 H   0  0  0  0  0
   31.4037    9.8860   10.2927 H   0  0  0  0  0
   29.8280   11.2597    8.9669 H   0  0  0  0  0
   29.6060   13.2195    7.6672 H   0  0  0  0  0
   30.5710   14.6939    8.0055 H   0  0  0  0  0
   29.3422   15.0922   10.0461 H   0  0  0  0  0
   26.3196   13.7593    8.5144 H   0  0  0  0  0
   26.4671   15.5149    9.9884 H   0  0  0  0  0
   27.9332   12.4619    9.5002 H   0  0  0  0  0
   27.5107   11.1275   11.3422 H   0  0  0  0  0
   28.2628   12.5258   13.9256 H   0  0  0  0  0
   29.4692   11.5627   15.3572 H   0  0  0  0  0
   31.3882    9.9869   13.6115 H   0  0  0  0  0
   31.0825   12.4384   13.2841 H   0  0  0  0  0
   31.4638   12.7112   15.0020 H   0  0  0  0  0
   32.7120   12.0741   13.9032 H   0  0  0  0  0
   31.6903    9.0887   15.9135 H   0  0  0  0  0
   31.8200   10.7007   16.5514 H   0  0  0  0  0
   33.6158    9.5297   14.3497 H   0  0  0  0  0
   33.7487   11.1809   15.0031 H   0  0  0  0  0
   34.0949    9.7800   16.0464 H   0  0  0  0  0
   29.4476    8.5641   15.2517 H   0  0  0  0  0
   29.1713    8.3134   18.5149 H   0  0  0  0  0
   27.5072    8.3461   17.8818 H   0  0  0  0  0
   28.7920    7.5202   16.9663 H   0  0  0  0  0
   25.5765   12.8165   11.4076 H   0  0  0  0  0
   25.9118   12.9333   13.1281 H   0  0  0  0  0
   24.3468   11.0570   10.5709 H   0  0  0  0  0
   23.2183    8.8858   10.9563 H   0  0  0  0  0
   23.7332    7.0710   13.9915 H   0  0  0  0  0
   25.1009    8.5888   14.8026 H   0  0  0  0  0
   26.2278   10.7540   14.4183 H   0  0  0  0  0
  1  2  4  0  0  0
  1  7  4  0  0  0
  2  3  4  0  0  0
  3  4  1  0  0  0
  3  5  4  0  0  0
  5  6  4  0  0  0
  6  7  4  0  0  0
  7  8  1  0  0  0
  8  9  1  0  0  0
  9 10  1  0  0  0
  9 14  1  0  0  0
 10 11  2  0  0  0
 10 12  1  0  0  0
 10 13  1  0  0  0
 14 15  1  0  0  0
 15 16  2  0  0  0
 15 17  1  0  0  0
 17 18  1  0  0  0
 17 30  1  0  0  0
 18 19  1  0  0  0
 19 20  2  0  0  0
 19 21  1  0  0  0
 21 22  1  0  0  0
 21 26  1  0  0  0
 22 23  1  0  0  0
 22 24  1  0  0  0
 24 25  1  0  0  0
 26 27  1  0  0  0
 27 28  1  0  0  0
 27 29  2  0  0  0
 30 31  1  0  0  0
 31 32  4  0  0  0
 31 37  4  0  0  0
 32 33  4  0  0  0
 33 34  4  0  0  0
 34 35  1  0  0  0
 34 36  4  0  0  0
 36 37  4  0  0  0
  1 38  1  0  0  0
  2 39  1  0  0  0
  4 40  1  0  0  0
  5 41  1  0  0  0
  6 42  1  0  0  0
  8 43  1  0  0  0
  8 44  1  0  0  0
  9 45  1  0  0  0
 12 46  1  0  0  0
 13 47  1  0  0  0
 14 48  1  0  0  0
 17 49  1  0  0  0
 18 50  1  0  0  0
 21 51  1  0  0  0
 22 52  1  0  0  0
 23 53  1  0  0  0
 23 54  1  0  0  0
 23 55  1  0  0  0
 24 56  1  0  0  0
 24 57  1  0  0  0
 25 58  1  0  0  0
 25 59  1  0  0  0
 25 60  1  0  0  0
 26 61  1  0  0  0
 28 62  1  0  0  0
 28 63  1  0  0  0
 28 64  1  0  0  0
 30 65  1  0  0  0
 30 66  1  0  0  0
 32 67  1  0  0  0
 33 68  1  0  0  0
 35 69  1  0  0  0
 36 70  1  0  0  0
 37 71  1  0  0  0
M  END
$$$$
