### 
### Created by X-TOOL on Mon Sep 10 21:13:20 2018
### 

@<TRIPOS>MOLECULE
4bzs_ligand
   69    70     1     0     0
SMALL
GAST_HUCK


@<TRIPOS>ATOM
      1 CAR        32.0990   13.6600    9.7450 C.ar      1 K26        -0.0686
      2 CAN        32.9940   12.8810   10.4840 C.ar      1 K26        -0.0398
      3 CBD        32.7490   11.5230   10.6820 C.ar      1 K26         0.0805
      4 OAI        33.6160   10.7570   11.4060 O.3       1 K26        -0.3376
      5 CAO        31.6050   10.9460   10.1380 C.ar      1 K26        -0.0398
      6 CAS        30.7170   11.7220    9.3960 C.ar      1 K26        -0.0686
      7 CBF        30.9500   13.0810    9.1950 C.ar      1 K26        -0.0501
      8 CAV        30.0400   13.8490    8.4440 C.3       1 K26         0.0145
      9 CBI        28.9070   14.3850    9.3400 C.3       1 K26         0.1207
     10 PBK        27.6140   15.2730    8.3600 P.3       1 K26         0.0863
     11 OAJ        28.3740   16.0580    7.3930 O.co2     1 K26        -0.5606
     12 OAK        26.7750   14.2140    7.8020 O.co2     1 K26        -0.5606
     13 OAG        26.9470   16.0890    9.3870 O.co2     1 K26        -0.5606
     14 NAY        28.2780   13.2550   10.0410 N.am      1 K26        -0.2653
     15 C          28.1480   13.2450   11.3760 C.2       1 K26         0.2049
     16 O          28.5550   14.1460   12.1090 O.2       1 K26        -0.3943
     17 CA         27.4880   12.0060   11.9870 C.3       1 K26         0.1389
     18 N          28.2420   11.7820   13.2280 N.am      1 K26        -0.2621
     19 CBB        28.9050   10.6430   13.4860 C.2       1 K26         0.2043
     20 OAF        28.9140    9.6590   12.7490 O.2       1 K26        -0.3944
     21 CBJ        29.7030   10.6580   14.7960 C.3       1 K26         0.1334
     22 CBG        31.2040   10.6380   14.4660 C.3       1 K26        -0.0037
     23 CAC        31.6480   12.0700   14.1400 C.3       1 K26        -0.0582
     24 CAT        31.9960   10.1030   15.6570 C.3       1 K26        -0.0491
     25 CAA        33.4720   10.1520   15.2330 C.3       1 K26        -0.0648
     26 NAX        29.3400    9.5060   15.6280 N.am      1 K26        -0.2656
     27 CAZ        28.8700    9.6660   16.8720 C.2       1 K26         0.1751
     28 CAB        28.5630    8.3680   17.6120 C.3       1 K26         0.0258
     29 OAD        28.6860   10.7560   17.4120 O.2       1 K26        -0.3972
     30 CB         26.0230   12.2930   12.2530 C.3       1 K26         0.0163
     31 CG         25.3820   11.0540   12.4620 C.ar      1 K26        -0.0493
     32 CD1        24.5210   10.5160   11.5010 C.ar      1 K26        -0.0685
     33 CE1        23.8820    9.2950   11.7180 C.ar      1 K26        -0.0398
     34 CZ         24.0900    8.5980   12.9050 C.ar      1 K26         0.0805
     35 OH         23.4760    7.4050   13.1290 O.3       1 K26        -0.3376
     36 CE2        24.9350    9.1280   13.8700 C.ar      1 K26        -0.0398
     37 CD2        25.5710   10.3460   13.6500 C.ar      1 K26        -0.0685
     38 H          32.2957   14.7158    9.5976 H         1 K26         0.0530
     39 H          33.8834   13.3353   10.9054 H         1 K26         0.0525
     40 H          33.2954    9.8633   11.4392 H         1 K26         0.2458
     41 H          31.4048    9.8918   10.2918 H         1 K26         0.0525
     42 H          29.8329   11.2623    8.9693 H         1 K26         0.0530
     43 H          29.6066   13.2215    7.6512 H         1 K26         0.0442
     44 H          30.5728   14.6975    7.9900 H         1 K26         0.0442
     45 H          29.3354   15.0806   10.0766 H         1 K26         0.0771
     46 H          27.9400   12.4774    9.5108 H         1 K26         0.1870
     47 H          27.5767   11.1376   11.3176 H         1 K26         0.0821
     48 H          28.2624   12.5112   13.9120 H         1 K26         0.1885
     49 H          29.4698   11.5801   15.3485 H         1 K26         0.0803
     50 H          31.3802    9.9908   13.5942 H         1 K26         0.0345
     51 H          32.7217   12.0755   13.9008 H         1 K26         0.0235
     52 H          31.4627   12.7182   15.0092 H         1 K26         0.0235
     53 H          31.0781   12.4430   13.2763 H         1 K26         0.0235
     54 H          31.6964    9.0690   15.8831 H         1 K26         0.0267
     55 H          31.8305   10.7347   16.5422 H         1 K26         0.0267
     56 H          34.1017    9.7768   16.0532 H         1 K26         0.0230
     57 H          33.7525   11.1899   15.0007 H         1 K26         0.0230
     58 H          33.6185    9.5243   14.3416 H         1 K26         0.0230
     59 H          29.4455    8.5825   15.2591 H         1 K26         0.1883
     60 H          28.1848    8.6004   18.6184 H         1 K26         0.0467
     61 H          29.4807    7.7673   17.6949 H         1 K26         0.0467
     62 H          27.8021    7.8003   17.0564 H         1 K26         0.0467
     63 H          25.5772   12.8058   11.3880 H         1 K26         0.0453
     64 H          25.9200   12.9252   13.1472 H         1 K26         0.0453
     65 H          24.3478   11.0541   10.5760 H         1 K26         0.0530
     66 H          23.2219    8.8880   10.9605 H         1 K26         0.0525
     67 H          23.7306    7.0744   13.9825 H         1 K26         0.2458
     68 H          25.1000    8.5918   14.7975 H         1 K26         0.0525
     69 H          26.2242   10.7518   14.4140 H         1 K26         0.0530
@<TRIPOS>BOND
     1    1    2 ar 
     2    1    7 ar 
     3    2    3 ar 
     4    3    4 1  
     5    3    5 ar 
     6    5    6 ar 
     7    6    7 ar 
     8    7    8 1  
     9    8    9 1  
    10    9   10 1  
    11    9   14 1  
    12   10   11 ar 
    13   10   12 ar 
    14   10   13 ar 
    15   14   15 am 
    16   15   16 2  
    17   15   17 1  
    18   17   18 1  
    19   17   30 1  
    20   18   19 am 
    21   19   20 2  
    22   19   21 1  
    23   21   22 1  
    24   21   26 1  
    25   22   23 1  
    26   22   24 1  
    27   24   25 1  
    28   26   27 am 
    29   27   28 1  
    30   27   29 2  
    31   30   31 1  
    32   31   32 ar 
    33   31   37 ar 
    34   32   33 ar 
    35   33   34 ar 
    36   34   35 1  
    37   34   36 ar 
    38   36   37 ar 
    39    1   38 1  
    40    2   39 1  
    41    4   40 1  
    42    5   41 1  
    43    6   42 1  
    44    8   43 1  
    45    8   44 1  
    46    9   45 1  
    47   14   46 1  
    48   17   47 1  
    49   18   48 1  
    50   21   49 1  
    51   22   50 1  
    52   23   51 1  
    53   23   52 1  
    54   23   53 1  
    55   24   54 1  
    56   24   55 1  
    57   25   56 1  
    58   25   57 1  
    59   25   58 1  
    60   26   59 1  
    61   28   60 1  
    62   28   61 1  
    63   28   62 1  
    64   30   63 1  
    65   30   64 1  
    66   32   65 1  
    67   33   66 1  
    68   35   67 1  
    69   36   68 1  
    70   37   69 1  
@<TRIPOS>SUBSTRUCTURE
     1 K26         1

