3o5x_ligand
  -I-interpret- 

 69 74  0  0  0  0  0  0  0  0999 V2000
   27.7690    3.8870   -0.0110 C   0  0  0  0  0
   28.6990    4.5120    0.8080 N   0  0  0  0  0
   24.3590    2.6430   -0.5970 O   0  0  0  0  0
   26.3930    3.5860    0.2170 C   0  0  0  0  0
   31.7020    2.9690   -2.1170 N   0  0  0  0  0
   24.6490    2.3840   -3.5750 O   0  0  0  0  0
   25.6650    2.9240   -0.8190 C   0  0  0  0  0
   32.3380    3.3190   -3.2660 N   0  0  0  0  0
   26.0570    0.7180   -3.4810 O   0  0  0  0  0
   26.3060    2.5600   -2.0610 C   0  0  0  0  0
   31.8530    4.3730   -3.9570 N   0  0  0  0  0
   34.6400    6.8730   -6.1510 O   0  0  0  0  0
   27.6870    2.8790   -2.2630 C   0  0  0  0  0
   34.9450    6.7200   -3.9340 N   0  0  0  0  0
   28.4300    3.5510   -1.2270 C   0  0  0  0  0
   25.6260    1.9080   -3.0620 C   0  0  0  0  0
   29.7770    4.0070   -1.1150 C   0  0  0  0  0
   29.9300    4.5960    0.1530 C   0  0  0  0  0
   28.4050    5.0160    2.1800 C   0  0  0  0  0
   31.0640    5.1560    0.6610 C   0  0  0  0  0
   31.3840    6.5210    0.3760 C   0  0  0  0  0
   32.5680    7.1010    0.9080 C   0  0  0  0  0
   33.4350    6.3230    1.7280 C   0  0  0  0  0
   33.1190    4.9640    2.0150 C   0  0  0  0  0
   31.9390    4.3810    1.4830 C   0  0  0  0  0
   30.7260    3.8840   -2.0750 C   0  0  0  0  0
   30.8210    4.7300   -3.1880 C   0  0  0  0  0
   32.3230    4.9810   -5.2180 C   0  0  0  0  0
   32.6520    6.4550   -4.9720 C   0  0  0  0  0
   34.1450    6.6910   -5.0700 C   0  0  0  0  0
   35.2070    5.5980   -3.1990 C   0  0  0  0  0
   34.6840    5.4850   -1.8800 C   0  0  0  0  0
   34.9450    4.3230   -1.1040 C   0  0  0  0  0
   35.7330    3.2630   -1.6420 C   0  0  0  0  0
   36.2620    3.3760   -2.9670 C   0  0  0  0  0
   36.0010    4.5370   -3.7410 C   0  0  0  0  0
   35.9730    2.1600   -0.9010 C   0  0  0  0  0
   36.9560    2.1840    0.1370 C   0  0  0  0  0
   37.1980    1.0140    0.9110 C   0  0  0  0  0
   36.4620   -0.1790    0.6530 C   0  0  0  0  0
   35.4840   -0.2040   -0.3770 C   0  0  0  0  0
   35.2360    0.9570   -1.1540 C   0  0  0  0  0
   23.9925    2.2016   -1.3667 H   0  0  0  0  0
   25.9100    3.8540    1.1567 H   0  0  0  0  0
   26.8392    0.4689   -2.9834 H   0  0  0  0  0
   28.1763    2.6137   -3.2001 H   0  0  0  0  0
   35.3502    7.6084   -3.6389 H   0  0  0  0  0
   27.6161    5.7664    2.1287 H   0  0  0  0  0
   28.0793    4.1869    2.8082 H   0  0  0  0  0
   29.3054    5.4618    2.6026 H   0  0  0  0  0
   30.7194    7.1169   -0.2496 H   0  0  0  0  0
   32.8122    8.1404    0.6886 H   0  0  0  0  0
   34.3420    6.7685    2.1366 H   0  0  0  0  0
   33.7837    4.3713    2.6435 H   0  0  0  0  0
   31.7000    3.3403    1.7019 H   0  0  0  0  0
   30.1480    5.5616   -3.3966 H   0  0  0  0  0
   31.5438    4.9011   -5.9760 H   0  0  0  0  0
   33.2148    4.4597   -5.5660 H   0  0  0  0  0
   32.3156    6.7301   -3.9724 H   0  0  0  0  0
   32.1484    7.0601   -5.7259 H   0  0  0  0  0
   34.0814    6.2922   -1.4636 H   0  0  0  0  0
   34.5416    4.2418   -0.0946 H   0  0  0  0  0
   36.8662    2.5694   -3.3824 H   0  0  0  0  0
   36.4057    4.6209   -4.7496 H   0  0  0  0  0
   37.5189    3.0961    0.3352 H   0  0  0  0  0
   37.9474    1.0305    1.7023 H   0  0  0  0  0
   36.6498   -1.0735    1.2469 H   0  0  0  0  0
   34.9224   -1.1178   -0.5710 H   0  0  0  0  0
   34.4848    0.9341   -1.9435 H   0  0  0  0  0
  2  1  4  0  0  0
  1  4  4  0  0  0
 15  1  4  0  0  0
 18  2  4  0  0  0
  2 19  1  0  0  0
  7  3  1  0  0  0
  4  7  4  0  0  0
  8  5  4  0  0  0
 26  5  4  0  0  0
 16  6  2  0  0  0
 10  7  4  0  0  0
 11  8  4  0  0  0
 16  9  1  0  0  0
 13 10  4  0  0  0
 10 16  1  0  0  0
 11 27  4  0  0  0
 28 11  1  0  0  0
 30 12  2  0  0  0
 15 13  4  0  0  0
 30 14  1  0  0  0
 14 31  1  0  0  0
 17 15  4  0  0  0
 17 18  4  0  0  0
 26 17  1  0  0  0
 18 20  1  0  0  0
 20 21  4  0  0  0
 20 25  4  0  0  0
 21 22  4  0  0  0
 22 23  4  0  0  0
 24 23  4  0  0  0
 25 24  4  0  0  0
 27 26  4  0  0  0
 29 28  1  0  0  0
 29 30  1  0  0  0
 31 32  4  0  0  0
 31 36  4  0  0  0
 32 33  4  0  0  0
 33 34  4  0  0  0
 34 35  4  0  0  0
 34 37  1  0  0  0
 35 36  4  0  0  0
 37 38  4  0  0  0
 37 42  4  0  0  0
 38 39  4  0  0  0
 39 40  4  0  0  0
 40 41  4  0  0  0
 41 42  4  0  0  0
  3 43  1  0  0  0
  4 44  1  0  0  0
  9 45  1  0  0  0
 13 46  1  0  0  0
 14 47  1  0  0  0
 19 48  1  0  0  0
 19 49  1  0  0  0
 19 50  1  0  0  0
 21 51  1  0  0  0
 22 52  1  0  0  0
 23 53  1  0  0  0
 24 54  1  0  0  0
 25 55  1  0  0  0
 27 56  1  0  0  0
 28 57  1  0  0  0
 28 58  1  0  0  0
 29 59  1  0  0  0
 29 60  1  0  0  0
 32 61  1  0  0  0
 33 62  1  0  0  0
 35 63  1  0  0  0
 36 64  1  0  0  0
 38 65  1  0  0  0
 39 66  1  0  0  0
 40 67  1  0  0  0
 41 68  1  0  0  0
 42 69  1  0  0  0
M  END
$$$$
