4u01_ligand
  -I-interpret- 

 98104  0  0  0  0  0  0  0  0999 V2000
   56.9890   29.1580  -20.6080 C   0  0  0  0  0
   56.6930   28.2590  -19.5880 C   0  0  0  0  0
   56.1980   29.1770  -21.7520 C   0  0  0  0  0
   55.6100   27.3900  -19.7230 C   0  0  0  0  0
   55.1280   28.3070  -21.8760 C   0  0  0  0  0
   54.8290   27.4160  -20.8680 C   0  0  0  0  0
   57.1470   27.3170  -17.4410 C   0  0  0  0  0
   57.6370   30.4320  -23.3770 C   0  0  0  0  0
   54.2300   25.6790  -18.9200 O   0  0  0  0  0
   57.9390   27.3040  -16.2280 C   0  0  0  0  0
   58.4470   26.9630  -14.0860 C   0  0  0  0  0
   59.4420   27.8550  -14.4410 C   0  0  0  0  0
   57.3300   25.2030  -12.6100 C   0  0  0  0  0
   53.8140   24.6340  -18.0540 C   0  0  0  0  0
   52.2990   24.5150  -18.0130 C   0  0  0  0  0
   49.6950   22.1370  -16.0000 C   0  0  0  0  0
   48.3520   21.6910  -17.9670 C   0  0  0  0  0
   48.3110   20.4510  -18.8700 C   0  0  0  0  0
   49.3230   19.3320  -18.5800 C   0  0  0  0  0
   49.7840   18.8340  -19.9650 C   0  0  0  0  0
   50.6330   17.5790  -19.9520 C   0  0  0  0  0
   51.9570   17.5480  -20.2000 C   0  0  0  0  0
   55.2120   16.4500  -16.1010 O   0  0  0  0  0
   56.1570   17.3380  -16.7300 S   0  0  0  0  0
   57.0030   16.5340  -17.5820 O   0  0  0  0  0
   57.1720   18.1580  -15.4750 C   0  0  0  0  0
   58.2520   17.2370  -14.9130 C   0  0  0  0  0
   58.5810   18.5150  -15.7720 C   0  0  0  0  0
   56.4040   18.8440  -14.3430 C   0  0  0  0  0
   55.4050   18.4720  -17.6270 N   0  0  0  0  0
   54.8390   18.1560  -18.8290 C   0  0  0  0  0
   54.9430   17.0220  -19.2100 O   0  0  0  0  0
   54.1530   19.1400  -19.7450 C   0  0  0  0  0
   54.1620   18.8710  -21.1910 C   0  0  0  0  0
   52.8300   18.7740  -20.4940 C   0  0  0  0  0
   49.6680   22.1580  -17.4730 N   0  0  0  0  0
   50.7550   22.5940  -18.2470 C   0  0  0  0  0
   50.6760   22.5840  -19.4760 O   0  0  0  0  0
   52.0750   23.0610  -17.6220 C   0  0  0  0  0
   54.1980   20.5280  -19.3100 N   0  0  0  0  0
   53.1320   21.0650  -18.6440 C   0  0  0  0  0
   52.1770   20.3770  -18.3720 O   0  0  0  0  0
   53.1650   22.3750  -18.2790 N   0  0  0  0  0
   54.2760   23.2840  -18.5760 C   0  0  0  0  0
   55.3060   26.4960  -18.7200 C   0  0  0  0  0
   56.3960   30.0450  -22.7900 O   0  0  0  0  0
   58.0150   29.9890  -20.4840 F   0  0  0  0  0
   56.0810   26.4610  -17.5700 C   0  0  0  0  0
   57.4510   28.2270  -18.4310 N   0  0  0  0  0
   59.1900   28.2430  -15.9580 S   0  0  0  0  0
   57.6840   26.5690  -15.1410 N   0  0  0  0  0
   58.4410   26.2510  -12.7380 C   0  0  0  0  0
   58.3630   27.2790  -11.5940 C   0  0  0  0  0
   54.5170   28.3270  -22.7784 H   0  0  0  0  0
   53.9835   26.7358  -20.9705 H   0  0  0  0  0
   58.2650   30.9013  -22.6197 H   0  0  0  0  0
   58.1407   29.5503  -23.7731 H   0  0  0  0  0
   57.4503   31.1392  -24.1852 H   0  0  0  0  0
   60.2451   28.2211  -13.8013 H   0  0  0  0  0
   56.3606   25.6865  -12.7306 H   0  0  0  0  0
   57.4575   24.4441  -13.3819 H   0  0  0  0  0
   57.3846   24.7357  -11.6268 H   0  0  0  0  0
   54.2346   24.8769  -17.0782 H   0  0  0  0  0
   51.8311   24.7718  -18.9634 H   0  0  0  0  0
   51.8410   25.2140  -17.3132 H   0  0  0  0  0
   48.9149   22.7933  -15.6142 H   0  0  0  0  0
   49.5220   21.1196  -15.6492 H   0  0  0  0  0
   50.6680   22.4826  -15.6508 H   0  0  0  0  0
   47.7930   21.4130  -17.0735 H   0  0  0  0  0
   47.9717   22.5061  -18.5826 H   0  0  0  0  0
   48.5469   20.8088  -19.8722 H   0  0  0  0  0
   47.3280   20.0063  -18.7150 H   0  0  0  0  0
   48.8774   18.5295  -17.9922 H   0  0  0  0  0
   50.1608   19.6926  -17.9832 H   0  0  0  0  0
   50.4018   19.6244  -20.3912 H   0  0  0  0  0
   48.8813   18.5944  -20.5270 H   0  0  0  0  0
   50.1377   16.6347  -19.7261 H   0  0  0  0  0
   52.4465   16.5741  -20.1909 H   0  0  0  0  0
   58.5049   16.1786  -14.8496 H   0  0  0  0  0
   58.5425   16.7531  -13.9805 H   0  0  0  0  0
   59.2321   19.3879  -15.7254 H   0  0  0  0  0
   59.1929   18.7890  -16.6314 H   0  0  0  0  0
   55.7539   19.6128  -14.7605 H   0  0  0  0  0
   55.8019   18.1051  -13.8143 H   0  0  0  0  0
   57.1111   19.3010  -13.6507 H   0  0  0  0  0
   55.3564   19.4319  -17.2856 H   0  0  0  0  0
   54.7419   18.2516  -21.8751 H   0  0  0  0  0
   54.5525   19.3613  -22.0828 H   0  0  0  0  0
   51.8425   19.2002  -20.6709 H   0  0  0  0  0
   52.0363   22.8916  -16.5459 H   0  0  0  0  0
   55.0219   21.0980  -19.5014 H   0  0  0  0  0
   55.2048   22.9607  -18.1060 H   0  0  0  0  0
   54.5047   23.3147  -19.6413 H   0  0  0  0  0
   55.8448   25.7570  -16.7721 H   0  0  0  0  0
   59.3802   25.7023  -12.6676 H   0  0  0  0  0
   59.2264   27.9425  -11.6439 H   0  0  0  0  0
   57.4481   27.8630  -11.6938 H   0  0  0  0  0
   58.3595   26.7565  -10.6374 H   0  0  0  0  0
  2  1  4  0  0  0
  1  3  4  0  0  0
  1 47  1  0  0  0
  4  2  4  0  0  0
  2 49  4  0  0  0
  5  3  4  0  0  0
  3 46  1  0  0  0
  4  6  4  0  0  0
 45  4  4  0  0  0
  6  5  4  0  0  0
  7 10  1  0  0  0
  7 48  4  0  0  0
 49  7  4  0  0  0
 46  8  1  0  0  0
 14  9  1  0  0  0
  9 45  1  0  0  0
 10 50  4  0  0  0
 10 51  4  0  0  0
 11 12  4  0  0  0
 51 11  4  0  0  0
 11 52  1  0  0  0
 50 12  4  0  0  0
 52 13  1  0  0  0
 15 14  1  0  0  0
 14 44  1  0  0  0
 39 15  1  0  0  0
 36 16  1  0  0  0
 17 18  1  0  0  0
 36 17  1  0  0  0
 18 19  1  0  0  0
 19 20  1  0  0  0
 20 21  1  0  0  0
 21 22  2  0  0  0
 22 35  1  0  0  0
 24 23  2  0  0  0
 24 25  2  0  0  0
 24 26  1  0  0  0
 30 24  1  0  0  0
 26 27  1  0  0  0
 26 28  1  0  0  0
 26 29  1  0  0  0
 28 27  1  0  0  0
 31 30  1  0  0  0
 31 32  2  0  0  0
 33 31  1  0  0  0
 34 33  1  0  0  0
 35 33  1  0  0  0
 33 40  1  0  0  0
 35 34  1  0  0  0
 37 36  1  0  0  0
 37 38  2  0  0  0
 37 39  1  0  0  0
 39 43  1  0  0  0
 40 41  1  0  0  0
 41 42  2  0  0  0
 41 43  1  0  0  0
 43 44  1  0  0  0
 45 48  4  0  0  0
 52 53  1  0  0  0
  5 54  1  0  0  0
  6 55  1  0  0  0
  8 56  1  0  0  0
  8 57  1  0  0  0
  8 58  1  0  0  0
 12 59  1  0  0  0
 13 60  1  0  0  0
 13 61  1  0  0  0
 13 62  1  0  0  0
 14 63  1  0  0  0
 15 64  1  0  0  0
 15 65  1  0  0  0
 16 66  1  0  0  0
 16 67  1  0  0  0
 16 68  1  0  0  0
 17 69  1  0  0  0
 17 70  1  0  0  0
 18 71  1  0  0  0
 18 72  1  0  0  0
 19 73  1  0  0  0
 19 74  1  0  0  0
 20 75  1  0  0  0
 20 76  1  0  0  0
 21 77  1  0  0  0
 22 78  1  0  0  0
 27 79  1  0  0  0
 27 80  1  0  0  0
 28 81  1  0  0  0
 28 82  1  0  0  0
 29 83  1  0  0  0
 29 84  1  0  0  0
 29 85  1  0  0  0
 30 86  1  0  0  0
 34 87  1  0  0  0
 34 88  1  0  0  0
 35 89  1  0  0  0
 39 90  1  0  0  0
 40 91  1  0  0  0
 44 92  1  0  0  0
 44 93  1  0  0  0
 48 94  1  0  0  0
 52 95  1  0  0  0
 53 96  1  0  0  0
 53 97  1  0  0  0
 53 98  1  0  0  0
M  END
$$$$
