4lm3_ligand
  -I-interpret- 

 23 24  0  0  0  0  0  0  0  0999 V2000
    4.9360   12.2290   45.1140 C   0  0  0  0  0
    4.9810   11.6270   43.7500 C   0  0  0  0  0
    4.5920   13.5010   45.2750 C   0  0  0  0  0
    4.6740   12.3770   42.6990 C   0  0  0  0  0
    4.2430   14.3450   44.0880 C   0  0  0  0  0
    4.2840   13.8130   42.8790 C   0  0  0  0  0
    4.4390   11.8050   41.5200 O   0  0  0  0  0
    4.2460   12.6010   40.3230 C   0  0  0  0  0
    3.9340   14.5350   41.8090 O   0  0  0  0  0
    3.4290   13.8660   40.6190 C   0  0  0  0  0
    4.9710   14.1450   46.5620 C   0  0  0  0  0
    5.2940   15.6220   46.5790 C   0  0  0  0  0
    5.0290   13.4780   47.5930 O   0  0  0  0  0
    5.1869   11.6212   45.9833 H   0  0  0  0  0
    5.2630   10.5824   43.6179 H   0  0  0  0  0
    3.9577   15.3887   44.2201 H   0  0  0  0  0
    3.7039   12.0015   39.5917 H   0  0  0  0  0
    5.2234   12.9003   39.9445 H   0  0  0  0  0
    2.3895   13.5840   40.7866 H   0  0  0  0  0
    3.5100   14.5454   39.7705 H   0  0  0  0  0
    4.6101   16.1344   47.2556 H   0  0  0  0  0
    6.3194   15.7645   46.9201 H   0  0  0  0  0
    5.1845   16.0281   45.5734 H   0  0  0  0  0
  1  2  4  0  0  0
  1  3  4  0  0  0
  2  4  4  0  0  0
  3  5  4  0  0  0
  3 11  1  0  0  0
  4  6  4  0  0  0
  4  7  1  0  0  0
  5  6  4  0  0  0
  6  9  1  0  0  0
  7  8  1  0  0  0
  8 10  1  0  0  0
  9 10  1  0  0  0
 11 12  1  0  0  0
 11 13  2  0  0  0
  1 14  1  0  0  0
  2 15  1  0  0  0
  5 16  1  0  0  0
  8 17  1  0  0  0
  8 18  1  0  0  0
 10 19  1  0  0  0
 10 20  1  0  0  0
 12 21  1  0  0  0
 12 22  1  0  0  0
 12 23  1  0  0  0
M  END
$$$$
