2ow9_ligand
  -I-interpret- 

 44 47  0  0  0  0  0  0  0  0999 V2000
   52.4370   10.8670    9.5550 N   0  0  0  0  0
   49.2400   10.5110    7.6940 C   0  0  0  0  0
   51.1270   10.9560    9.2620 C   0  0  0  0  0
   53.0010   11.3130   10.7160 C   0  0  0  0  0
   55.0790   11.4280   11.8040 C   0  0  0  0  0
   54.3290   11.0920   10.7340 C   0  0  0  0  0
   47.3490    6.9380    9.2510 C   0  0  0  0  0
   46.8700    7.5450    8.0900 C   0  0  0  0  0
   47.4810    8.6990    7.5880 C   0  0  0  0  0
   49.0530    8.6340    9.4130 C   0  0  0  0  0
   56.8610   10.1720   14.2470 C   0  0  0  0  0
   48.5790    9.2550    8.2470 C   0  0  0  0  0
   54.6350   12.0970   12.7350 O   0  0  0  0  0
   56.4350   10.9240   11.9440 O   0  0  0  0  0
   57.1970   11.1560   13.1370 C   0  0  0  0  0
   57.5240   10.2740   15.4770 C   0  0  0  0  0
   57.2480    9.3910   16.5280 C   0  0  0  0  0
   55.8990    9.1730   14.0780 C   0  0  0  0  0
   55.6180    8.2850   15.1230 C   0  0  0  0  0
   56.2860    8.3900   16.3440 C   0  0  0  0  0
   53.3330   10.3140    8.7300 C   0  0  0  0  0
   54.9250   10.3220    9.3540 S   0  0  0  0  0
   52.9500    9.7940    7.4870 C   0  0  0  0  0
   51.5970    9.8550    7.1310 C   0  0  0  0  0
   51.1980    9.4030    6.0310 O   0  0  0  0  0
   50.3130   11.4770   10.0630 O   0  0  0  0  0
   50.6720   10.4450    8.0270 N   0  0  0  0  0
   48.4470    7.4840    9.9150 C   0  0  0  0  0
   48.7890   11.4016    8.1316 H   0  0  0  0  0
   49.1034   10.5680    6.6141 H   0  0  0  0  0
   52.4464   11.7877   11.5254 H   0  0  0  0  0
   46.8668    6.0402    9.6378 H   0  0  0  0  0
   46.0131    7.1169    7.5699 H   0  0  0  0  0
   47.0988    9.1653    6.6799 H   0  0  0  0  0
   49.9103    9.0588    9.9351 H   0  0  0  0  0
   58.2517   11.0352   12.8899 H   0  0  0  0  0
   56.9621   12.1583   13.4952 H   0  0  0  0  0
   58.2696   11.0564   15.6186 H   0  0  0  0  0
   57.7753    9.4816   17.4776 H   0  0  0  0  0
   55.3665    9.0849   13.1310 H   0  0  0  0  0
   54.8706    7.5043   14.9819 H   0  0  0  0  0
   56.0595    7.6947   17.1523 H   0  0  0  0  0
   53.6859    9.3534    6.8144 H   0  0  0  0  0
   48.8289    7.0140   10.8213 H   0  0  0  0  0
  1  3  1  0  0  0
  4  1  1  0  0  0
  1 21  1  0  0  0
  2 12  1  0  0  0
 27  2  1  0  0  0
  3 26  2  0  0  0
  3 27  1  0  0  0
  6  4  2  0  0  0
  5  6  1  0  0  0
  5 13  2  0  0  0
 14  5  1  0  0  0
  6 22  1  0  0  0
  8  7  4  0  0  0
 28  7  4  0  0  0
  9  8  4  0  0  0
 12  9  4  0  0  0
 12 10  4  0  0  0
 10 28  4  0  0  0
 15 11  1  0  0  0
 11 16  4  0  0  0
 11 18  4  0  0  0
 14 15  1  0  0  0
 16 17  4  0  0  0
 17 20  4  0  0  0
 18 19  4  0  0  0
 19 20  4  0  0  0
 21 22  1  0  0  0
 21 23  2  0  0  0
 23 24  1  0  0  0
 24 25  2  0  0  0
 24 27  1  0  0  0
  2 29  1  0  0  0
  2 30  1  0  0  0
  4 31  1  0  0  0
  7 32  1  0  0  0
  8 33  1  0  0  0
  9 34  1  0  0  0
 10 35  1  0  0  0
 15 36  1  0  0  0
 15 37  1  0  0  0
 16 38  1  0  0  0
 17 39  1  0  0  0
 18 40  1  0  0  0
 19 41  1  0  0  0
 20 42  1  0  0  0
 23 43  1  0  0  0
 28 44  1  0  0  0
M  END
$$$$
