2p98_ligand
  -I-interpret- 

 28 30  0  0  0  0  0  0  0  0999 V2000
   -1.4350    0.7620   10.3750 C   0  0  0  0  0
   -2.7440    0.5730   10.2310 N   0  0  0  0  0
   -3.8490    0.9390   11.0090 C   0  0  0  0  0
   -5.1300    0.6010   10.5880 C   0  0  0  0  0
   -5.3150   -0.0980    9.3990 C   0  0  0  0  0
   -6.5990   -0.4280    8.9820 C   0  0  0  0  0
   -6.7920   -1.1240    7.7940 C   0  0  0  0  0
   -5.6960   -1.4910    7.0190 C   0  0  0  0  0
   -4.4110   -1.1620    7.4340 C   0  0  0  0  0
   -4.2190   -0.4650    8.6230 C   0  0  0  0  0
   -2.9350   -0.1310    9.0360 C   0  0  0  0  0
   -1.7340   -0.3400    8.5050 N   0  0  0  0  0
   -0.8390    0.2080    9.3240 C   0  0  0  0  0
    0.6680    0.1970    9.0700 C   0  0  0  0  0
    1.0990    0.0330    7.9310 O   0  0  0  0  0
    1.4400    0.3330   10.1450 N   0  0  0  0  0
    2.2740    1.3960   10.3100 N   0  3  0  0  0
   -0.9429    1.2755   11.2010 H   0  0  0  0  0
   -3.7055    1.4865   11.9405 H   0  0  0  0  0
   -5.9925    0.8844   11.1913 H   0  0  0  0  0
   -7.4578   -0.1402    9.5885 H   0  0  0  0  0
   -7.8003   -1.3818    7.4701 H   0  0  0  0  0
   -5.8452   -2.0362    6.0870 H   0  0  0  0  0
   -3.5525   -1.4503    6.8274 H   0  0  0  0  0
    1.4057   -0.3836   10.8701 H   0  0  0  0  0
    2.7699    1.3032   11.1965 H   0  0  0  0  0
    2.9467    1.4210    9.5437 H   0  0  0  0  0
    1.7281    2.2576   10.3130 H   0  0  0  0  0
  1  2  4  0  0  0
  1 13  4  0  0  0
  2  3  4  0  0  0
  2 11  4  0  0  0
  3  4  4  0  0  0
  4  5  4  0  0  0
  5  6  4  0  0  0
  5 10  4  0  0  0
  6  7  4  0  0  0
  7  8  4  0  0  0
  8  9  4  0  0  0
  9 10  4  0  0  0
 10 11  4  0  0  0
 11 12  4  0  0  0
 12 13  4  0  0  0
 13 14  1  0  0  0
 14 15  2  0  0  0
 14 16  1  0  0  0
 16 17  1  0  0  0
  1 18  1  0  0  0
  3 19  1  0  0  0
  4 20  1  0  0  0
  6 21  1  0  0  0
  7 22  1  0  0  0
  8 23  1  0  0  0
  9 24  1  0  0  0
 16 25  1  0  0  0
 17 26  1  0  0  0
 17 27  1  0  0  0
 17 28  1  0  0  0
M  END
$$$$
