4pqn_ligand
  -I-interpret- 

 63 66  0  0  0  0  0  0  0  0999 V2000
  -14.6120   22.1410   33.1690 C   0  0  0  0  0
  -15.0530   21.9850   31.8420 C   0  0  0  0  0
  -14.3850   22.5940   30.8040 C   0  0  0  0  0
  -13.2030   23.2800   31.0650 C   0  0  0  0  0
  -12.7430   23.4280   32.3770 C   0  0  0  0  0
  -13.4640   22.8590   33.4320 C   0  0  0  0  0
  -14.8360   22.4380   29.3840 C   0  0  0  0  0
  -15.8750   23.4840   28.9660 C   0  0  0  0  0
  -16.0610   23.4440   27.4260 C   0  0  0  0  0
  -17.1260   24.3630   26.9830 N   0  3  0  0  0
  -17.4490   24.1670   25.5460 C   0  0  0  0  0
  -16.6960   25.7590   27.2080 C   0  0  0  0  0
  -15.2140   21.0050   29.1760 N   0  0  0  0  0
  -16.4980   20.5740   29.2870 N   0  0  0  0  0
  -16.4820   19.2400   29.0860 C   0  0  0  0  0
  -15.1630   18.8190   28.8820 C   0  0  0  0  0
  -14.4100   19.9640   28.9400 C   0  0  0  0  0
  -14.6460   17.5580   28.6340 N   0  0  0  0  0
  -15.2980   16.4110   28.6550 C   0  0  0  0  0
  -16.5070   16.3140   28.8320 O   0  0  0  0  0
  -14.4890   15.1670   28.5370 C   0  0  0  0  0
  -15.0580   13.8400   28.3950 C   0  0  0  0  0
  -13.9300   12.9450   28.3290 C   0  0  0  0  0
  -12.8430   13.7120   28.4780 N   0  0  0  0  0
  -13.1550   15.0530   28.6060 N   0  0  0  0  0
  -14.0500   11.4700   28.1630 C   0  0  0  0  0
  -15.4730   11.0070   28.4320 C   0  0  0  0  0
  -16.5150   11.9290   27.7810 C   0  0  0  0  0
  -16.4820   13.3720   28.2450 C   0  0  0  0  0
  -15.6200    9.6000   27.8900 C   0  0  0  0  0
  -15.7600   10.9770   29.9420 C   0  0  0  0  0
  -15.1766   21.6952   33.9879 H   0  0  0  0  0
  -15.9325   21.3757   31.6339 H   0  0  0  0  0
  -12.6312   23.7053   30.2402 H   0  0  0  0  0
  -11.8270   23.9841   32.5768 H   0  0  0  0  0
  -13.1197   22.9826   34.4588 H   0  0  0  0  0
  -14.0233   22.6585   28.6919 H   0  0  0  0  0
  -15.5326   24.4749   29.2644 H   0  0  0  0  0
  -16.8258   23.2653   29.4520 H   0  0  0  0  0
  -16.3401   22.4301   27.1393 H   0  0  0  0  0
  -15.1254   23.7506   26.9583 H   0  0  0  0  0
  -17.9659   24.1630   27.5261 H   0  0  0  0  0
  -16.5585   24.3541   24.9460 H   0  0  0  0  0
  -17.7871   23.1430   25.3873 H   0  0  0  0  0
  -18.2376   24.8607   25.2543 H   0  0  0  0  0
  -16.5017   25.9113   28.2697 H   0  0  0  0  0
  -15.7868   25.9539   26.6393 H   0  0  0  0  0
  -17.4835   26.4377   26.8804 H   0  0  0  0  0
  -17.3585   18.5921   29.0830 H   0  0  0  0  0
  -13.3286   20.0164   28.8138 H   0  0  0  0  0
  -13.6519   17.5109   28.4106 H   0  0  0  0  0
  -13.3827   10.9821   28.8735 H   0  0  0  0  0
  -13.7850   11.2102   27.1381 H   0  0  0  0  0
  -17.4942   11.5355   28.0538 H   0  0  0  0  0
  -16.2989   11.9394   26.7127 H   0  0  0  0  0
  -16.9856   13.9952   27.5060 H   0  0  0  0  0
  -16.9850   13.4476   29.2090 H   0  0  0  0  0
  -15.4213    9.6023   26.8183 H   0  0  0  0  0
  -14.9094    8.9428   28.3912 H   0  0  0  0  0
  -16.6348    9.2461   28.0719 H   0  0  0  0  0
  -15.0679   10.2896   30.4285 H   0  0  0  0  0
  -15.6310   11.9774   30.3550 H   0  0  0  0  0
  -16.7839   10.6427   30.1094 H   0  0  0  0  0
  1  2  4  0  0  0
  1  6  4  0  0  0
  2  3  4  0  0  0
  3  4  4  0  0  0
  3  7  1  0  0  0
  4  5  4  0  0  0
  5  6  4  0  0  0
  7  8  1  0  0  0
  7 13  1  0  0  0
  8  9  1  0  0  0
  9 10  1  0  0  0
 10 11  1  0  0  0
 10 12  1  0  0  0
 13 14  4  0  0  0
 13 17  4  0  0  0
 14 15  4  0  0  0
 15 16  4  0  0  0
 16 17  4  0  0  0
 16 18  1  0  0  0
 18 19  1  0  0  0
 19 20  2  0  0  0
 19 21  1  0  0  0
 21 22  4  0  0  0
 21 25  4  0  0  0
 22 23  4  0  0  0
 22 29  1  0  0  0
 23 24  4  0  0  0
 23 26  1  0  0  0
 24 25  4  0  0  0
 26 27  1  0  0  0
 27 28  1  0  0  0
 27 30  1  0  0  0
 27 31  1  0  0  0
 28 29  1  0  0  0
  1 32  1  0  0  0
  2 33  1  0  0  0
  4 34  1  0  0  0
  5 35  1  0  0  0
  6 36  1  0  0  0
  7 37  1  0  0  0
  8 38  1  0  0  0
  8 39  1  0  0  0
  9 40  1  0  0  0
  9 41  1  0  0  0
 10 42  1  0  0  0
 11 43  1  0  0  0
 11 44  1  0  0  0
 11 45  1  0  0  0
 12 46  1  0  0  0
 12 47  1  0  0  0
 12 48  1  0  0  0
 15 49  1  0  0  0
 17 50  1  0  0  0
 18 51  1  0  0  0
 26 52  1  0  0  0
 26 53  1  0  0  0
 28 54  1  0  0  0
 28 55  1  0  0  0
 29 56  1  0  0  0
 29 57  1  0  0  0
 30 58  1  0  0  0
 30 59  1  0  0  0
 30 60  1  0  0  0
 31 61  1  0  0  0
 31 62  1  0  0  0
 31 63  1  0  0  0
M  END
$$$$
