2yk9_ligand
  -I-interpret- 

 33 37  0  0  0  0  0  0  0  0999 V2000
    8.5650   10.3360   23.4420 C   0  0  0  0  0
    7.4890    9.7420   22.7970 C   0  0  0  0  0
    8.4020   11.5240   24.1480 C   0  0  0  0  0
    6.2270   10.3040   22.8680 C   0  0  0  0  0
   11.5690   14.6830   28.1450 C   0  0  0  0  0
   12.8560   14.7080   27.6500 C   0  0  0  0  0
   12.1460   14.4460   25.4870 C   0  0  0  0  0
    7.1370   12.1100   24.2230 C   0  0  0  0  0
    6.0390   11.4810   23.5950 C   0  0  0  0  0
   10.5450   14.5280   27.2130 C   0  0  0  0  0
   10.8000   14.3880   25.8500 C   0  0  0  0  0
    8.6590   14.3160   26.0820 C   0  0  0  0  0
    6.6390   13.3040   24.9400 C   0  0  0  0  0
    4.7970   12.2440   23.8900 C   0  0  0  0  0
    7.2080   14.2690   25.7920 C   0  0  0  0  0
    6.4000   15.2490   26.3950 C   0  0  0  0  0
    5.0280   15.2860   26.1720 C   0  0  0  0  0
    4.4410   14.3620   25.3290 C   0  0  0  0  0
   13.1530   14.5980   26.3500 N   0  0  0  0  0
    9.1650   14.4930   27.3340 N   0  0  0  0  0
    5.2310   13.3810   24.7390 C   0  0  0  0  0
    9.6050   14.2430   25.1550 N   0  0  0  0  0
    3.6480   11.9920   23.5050 O   0  0  0  0  0
    9.5478    9.8670   23.3950 H   0  0  0  0  0
    7.6399    8.8239   22.2291 H   0  0  0  0  0
    9.2549   11.9932   24.6384 H   0  0  0  0  0
    5.3860    9.8317   22.3604 H   0  0  0  0  0
   11.3634   14.7796   29.2111 H   0  0  0  0  0
   13.6772   14.8238   28.3574 H   0  0  0  0  0
   12.3915   14.3616   24.4284 H   0  0  0  0  0
    6.8568   15.9923   27.0483 H   0  0  0  0  0
    4.4160   16.0434   26.6619 H   0  0  0  0  0
    3.3703   14.4014   25.1285 H   0  0  0  0  0
  1  2  4  0  0  0
  3  1  4  0  0  0
  4  2  4  0  0  0
  8  3  4  0  0  0
  9  4  4  0  0  0
  5  6  4  0  0  0
 10  5  4  0  0  0
 19  6  4  0  0  0
 11  7  4  0  0  0
  7 19  4  0  0  0
  8  9  4  0  0  0
 13  8  1  0  0  0
  9 14  1  0  0  0
 11 10  4  0  0  0
 20 10  4  0  0  0
 22 11  4  0  0  0
 15 12  1  0  0  0
 12 20  4  0  0  0
 12 22  4  0  0  0
 13 15  4  0  0  0
 13 21  4  0  0  0
 14 21  1  0  0  0
 14 23  2  0  0  0
 15 16  4  0  0  0
 16 17  4  0  0  0
 17 18  4  0  0  0
 18 21  4  0  0  0
  1 24  1  0  0  0
  2 25  1  0  0  0
  3 26  1  0  0  0
  4 27  1  0  0  0
  5 28  1  0  0  0
  6 29  1  0  0  0
  7 30  1  0  0  0
 16 31  1  0  0  0
 17 32  1  0  0  0
 18 33  1  0  0  0
M  END
$$$$
