1xp9_ligand
  -I-interpret- 

 63 67  0  0  0  0  0  0  0  0999 V2000
   31.1360   -0.2850   28.6940 C   0  0  0  0  0
   31.2950   -1.7190   28.1530 C   0  0  0  0  0
   30.0630   -2.4370   28.4040 O   0  0  0  0  0
   28.8690   -1.9850   27.9520 C   0  0  0  0  0
   27.9440   -2.9910   27.6600 C   0  0  0  0  0
   26.6930   -2.6550   27.1630 C   0  0  0  0  0
   26.3510   -1.3020   27.0590 C   0  0  0  0  0
   25.1290   -1.0050   26.5700 O   0  0  0  0  0
   27.2910   -0.3120   27.3510 C   0  0  0  0  0
   28.5930   -0.6260   27.7340 C   0  0  0  0  0
   29.6230    0.4540   28.0710 S   0  0  0  0  0
   32.4330    0.4380   28.4150 C   0  0  0  0  0
   32.6620    1.2840   27.3150 C   0  0  0  0  0
   33.9100    1.8730   27.1470 C   0  0  0  0  0
   34.9420    1.6480   28.0870 C   0  0  0  0  0
   36.1450    2.2380   27.9740 O   0  0  0  0  0
   34.7100    0.8310   29.2040 C   0  0  0  0  0
   33.4530    0.2370   29.3560 C   0  0  0  0  0
   31.6520   -1.9240   26.6840 C   0  0  0  0  0
   32.4950   -2.9860   26.3360 C   0  0  0  0  0
   32.8720   -3.2650   25.0010 C   0  0  0  0  0
   32.4110   -2.4520   23.9480 C   0  0  0  0  0
   31.5630   -1.3830   24.3090 C   0  0  0  0  0
   31.1840   -1.1260   25.6300 C   0  0  0  0  0
   32.7620   -2.6460   22.6350 O   0  0  0  0  0
   33.3630   -3.9180   22.2850 C   0  0  0  0  0
   33.8170   -4.1220   20.7900 C   0  0  0  0  0
   34.6270   -2.8600   20.5950 C   0  0  0  0  0
   32.7160   -4.2020   19.7730 N   0  3  0  0  0
   33.0520   -3.9170   18.3300 C   0  0  0  0  0
   31.7550   -3.3470   17.6770 C   0  0  0  0  0
   30.7560   -3.3120   18.8490 C   0  0  0  0  0
   31.6690   -3.2350   20.0840 C   0  0  0  0  0
   30.9906   -0.2355   29.7731 H   0  0  0  0  0
   32.1720   -2.0848   28.6870 H   0  0  0  0  0
   28.2047   -4.0369   27.8223 H   0  0  0  0  0
   25.9897   -3.4304   26.8592 H   0  0  0  0  0
   25.0169   -0.0518   26.5491 H   0  0  0  0  0
   26.9981    0.7353   27.2773 H   0  0  0  0  0
   31.8645    1.4770   26.5974 H   0  0  0  0  0
   34.0943    2.5131   26.2842 H   0  0  0  0  0
   36.7054    1.9618   28.7029 H   0  0  0  0  0
   35.4957    0.6623   29.9404 H   0  0  0  0  0
   33.2624   -0.3949   30.2234 H   0  0  0  0  0
   32.8785   -3.6273   27.1296 H   0  0  0  0  0
   33.5223   -4.1132   24.7869 H   0  0  0  0  0
   31.1868   -0.7285   23.5227 H   0  0  0  0  0
   30.5146   -0.2928   25.8439 H   0  0  0  0  0
   32.5899   -4.6659   22.4612 H   0  0  0  0  0
   34.2739   -3.9854   22.8798 H   0  0  0  0  0
   34.3254   -5.0746   20.6412 H   0  0  0  0  0
   33.9874   -1.9914   20.7519 H   0  0  0  0  0
   35.4481   -2.8424   21.3116 H   0  0  0  0  0
   35.0272   -2.8397   19.5813 H   0  0  0  0  0
   32.4567   -5.1859   19.8444 H   0  0  0  0  0
   33.3802   -4.8225   17.8197 H   0  0  0  0  0
   33.8728   -3.2038   18.2541 H   0  0  0  0  0
   31.4029   -3.9538   16.8428 H   0  0  0  0  0
   31.9077   -2.3667   17.2256 H   0  0  0  0  0
   30.0964   -4.1796   18.8663 H   0  0  0  0  0
   30.0616   -2.4742   18.7857 H   0  0  0  0  0
   32.0572   -2.2323   20.2626 H   0  0  0  0  0
   31.1456   -3.4606   21.0131 H   0  0  0  0  0
  1  2  1  0  0  0
  1 11  1  0  0  0
  1 12  1  0  0  0
  2  3  1  0  0  0
  2 19  1  0  0  0
  3  4  1  0  0  0
  4  5  4  0  0  0
  4 10  4  0  0  0
  5  6  4  0  0  0
  6  7  4  0  0  0
  7  8  1  0  0  0
  7  9  4  0  0  0
  9 10  4  0  0  0
 10 11  1  0  0  0
 12 13  4  0  0  0
 12 18  4  0  0  0
 13 14  4  0  0  0
 14 15  4  0  0  0
 15 16  1  0  0  0
 15 17  4  0  0  0
 17 18  4  0  0  0
 19 20  4  0  0  0
 19 24  4  0  0  0
 20 21  4  0  0  0
 21 22  4  0  0  0
 22 23  4  0  0  0
 22 25  1  0  0  0
 23 24  4  0  0  0
 25 26  1  0  0  0
 26 27  1  0  0  0
 27 28  1  0  0  0
 27 29  1  0  0  0
 29 30  1  0  0  0
 29 33  1  0  0  0
 30 31  1  0  0  0
 31 32  1  0  0  0
 32 33  1  0  0  0
  1 34  1  0  0  0
  2 35  1  0  0  0
  5 36  1  0  0  0
  6 37  1  0  0  0
  8 38  1  0  0  0
  9 39  1  0  0  0
 13 40  1  0  0  0
 14 41  1  0  0  0
 16 42  1  0  0  0
 17 43  1  0  0  0
 18 44  1  0  0  0
 20 45  1  0  0  0
 21 46  1  0  0  0
 23 47  1  0  0  0
 24 48  1  0  0  0
 26 49  1  0  0  0
 26 50  1  0  0  0
 27 51  1  0  0  0
 28 52  1  0  0  0
 28 53  1  0  0  0
 28 54  1  0  0  0
 29 55  1  0  0  0
 30 56  1  0  0  0
 30 57  1  0  0  0
 31 58  1  0  0  0
 31 59  1  0  0  0
 32 60  1  0  0  0
 32 61  1  0  0  0
 33 62  1  0  0  0
 33 63  1  0  0  0
M  END
$$$$
