1d5j_ligand
  -I-interpret- 

 46 47  0  0  0  0  0  0  0  0999 V2000
   -7.1220   20.1440   30.1970 C   0  0  0  0  0
   -7.6020   18.7890   29.9880 C   0  0  0  0  0
   -6.6840   17.6950   30.2860 C   0  0  0  0  0
   -5.3460   18.0760   30.7490 C   0  0  0  0  0
   -4.9230   19.4570   30.9610 C   0  0  0  0  0
   -5.8240   20.5500   30.6810 C   0  0  0  0  0
   -4.3900   17.1480   30.8890 O   0  0  0  0  0
   -4.6050   15.8300   30.8560 C   0  0  0  0  0
   -8.3160   21.4080   29.7660 S   0  0  0  0  0
   -9.9100   20.7480   30.1940 O   0  0  0  0  0
   -8.0540   22.8590   30.5810 O   0  0  0  0  0
   -8.2880   22.0020   28.1290 N   0  0  0  0  0
   -7.2700   22.7380   27.3640 C   0  0  0  0  0
   -7.6030   24.2400   27.2370 C   0  0  0  0  0
   -9.4280   24.2800   27.2770 S   0  0  0  0  0
  -10.4670   23.0110   26.4660 C   0  0  0  0  0
  -10.4560   21.6300   27.1300 C   0  0  0  0  0
   -9.0470   21.1090   27.2530 C   0  0  0  0  0
   -7.2900   24.6330   25.8090 C   0  0  0  0  0
   -7.0590   25.5030   27.8950 C   0  0  0  0  0
   -5.8110   22.4030   27.6920 C   0  0  0  0  0
   -5.0430   23.3000   28.3020 N   0  0  0  0  0
   -3.6240   23.0260   27.8490 O   0  0  0  0  0
   -5.3140   21.3390   27.3190 O   0  0  0  0  0
   -8.6106   18.5968   29.6221 H   0  0  0  0  0
   -6.9768   16.6514   30.1707 H   0  0  0  0  0
   -3.9198   19.6645   31.3333 H   0  0  0  0  0
   -5.5472   21.5946   30.8232 H   0  0  0  0  0
   -5.2949   15.5556   31.6540 H   0  0  0  0  0
   -5.0352   15.5574   29.8923 H   0  0  0  0  0
   -3.6597   15.3054   30.9948 H   0  0  0  0  0
   -7.3387   22.3431   26.3504 H   0  0  0  0  0
  -10.0665   22.8764   25.4612 H   0  0  0  0  0
  -11.4943   23.3719   26.5153 H   0  0  0  0  0
  -11.0346   20.9395   26.5164 H   0  0  0  0  0
  -10.8885   21.7150   28.1269 H   0  0  0  0  0
   -9.0607   20.1035   27.6735 H   0  0  0  0  0
   -8.5798   21.0725   26.2689 H   0  0  0  0  0
   -7.7420   23.9121   25.1277 H   0  0  0  0  0
   -7.6938   25.6257   25.6099 H   0  0  0  0  0
   -6.2096   24.6432   25.6648 H   0  0  0  0  0
   -7.4182   26.3774   27.3524 H   0  0  0  0  0
   -7.4018   25.5491   28.9287 H   0  0  0  0  0
   -5.9694   25.4823   27.8728 H   0  0  0  0  0
   -5.3486   24.0284   28.9472 H   0  0  0  0  0
   -3.0293   23.6534   28.2664 H   0  0  0  0  0
  1  2  4  0  0  0
  1  6  4  0  0  0
  1  9  1  0  0  0
  2  3  4  0  0  0
  3  4  4  0  0  0
  4  5  4  0  0  0
  4  7  1  0  0  0
  5  6  4  0  0  0
  7  8  1  0  0  0
  9 10  2  0  0  0
  9 11  2  0  0  0
  9 12  1  0  0  0
 12 13  1  0  0  0
 12 18  1  0  0  0
 13 14  1  0  0  0
 13 21  1  0  0  0
 14 15  1  0  0  0
 14 19  1  0  0  0
 14 20  1  0  0  0
 15 16  1  0  0  0
 16 17  1  0  0  0
 17 18  1  0  0  0
 21 22  1  0  0  0
 21 24  2  0  0  0
 22 23  1  0  0  0
  2 25  1  0  0  0
  3 26  1  0  0  0
  5 27  1  0  0  0
  6 28  1  0  0  0
  8 29  1  0  0  0
  8 30  1  0  0  0
  8 31  1  0  0  0
 13 32  1  0  0  0
 16 33  1  0  0  0
 16 34  1  0  0  0
 17 35  1  0  0  0
 17 36  1  0  0  0
 18 37  1  0  0  0
 18 38  1  0  0  0
 19 39  1  0  0  0
 19 40  1  0  0  0
 19 41  1  0  0  0
 20 42  1  0  0  0
 20 43  1  0  0  0
 20 44  1  0  0  0
 22 45  1  0  0  0
 23 46  1  0  0  0
M  END
$$$$
