5dhp_ligand
  -I-interpret- 

 56 59  0  0  0  0  0  0  0  0999 V2000
   13.9090  -19.3180  -44.9090 C   0  0  0  0  0
   11.7160  -18.8050  -44.8200 C   0  0  0  0  0
   11.7070  -18.3160  -46.0970 C   0  0  0  0  0
   12.8690  -18.3270  -46.8020 C   0  0  0  0  0
   10.5210  -18.6950  -44.3590 N   0  0  0  0  0
    8.4730  -20.6380  -47.4560 C   0  0  0  0  0
    9.2360  -21.3190  -46.5350 C   0  0  0  0  0
   10.5420  -21.6140  -46.8370 C   0  0  0  0  0
   11.0670  -21.2240  -48.0560 C   0  0  0  0  0
   10.3000  -20.5430  -48.9670 C   0  0  0  0  0
    8.9990  -20.2320  -48.6630 C   0  0  0  0  0
    8.1150  -19.4990  -49.6770 C   0  0  0  0  0
    8.3630  -18.0120  -49.8180 C   0  0  0  0  0
    8.5330  -17.4490  -48.5000 N   0  0  0  0  0
    7.5170  -17.0870  -47.7780 C   0  0  0  0  0
    6.3800  -17.1520  -48.1860 O   0  0  0  0  0
    7.8690  -16.5330  -46.4100 C   0  0  0  0  0
    8.1490  -17.8060  -45.1400 S   0  0  0  0  0
    9.7850  -18.1430  -45.2960 C   0  0  0  0  0
   10.4940  -17.9120  -46.3680 N   0  0  0  0  0
   12.9460  -17.8690  -48.0130 N   0  0  0  0  0
   13.9640  -18.8280  -46.1920 N   0  0  0  0  0
   12.7950  -19.2980  -44.2530 N   0  0  0  0  0
   10.1660  -19.1270  -43.0420 C   0  0  0  0  0
    9.1210  -20.0760  -43.1320 O   0  0  0  0  0
    8.4640  -20.0220  -41.9150 C   0  0  0  0  0
    7.0790  -20.4880  -42.2230 C   0  0  0  0  0
    6.8940  -21.8060  -41.7760 O   0  0  0  0  0
    8.3300  -18.5280  -41.6620 C   0  0  0  0  0
    8.1730  -18.2480  -40.2940 O   0  0  0  0  0
    9.6420  -17.9860  -42.1950 C   0  0  0  0  0
   10.5190  -17.8390  -41.1510 O   0  0  0  0  0
   14.8068  -19.7245  -44.4434 H   0  0  0  0  0
    7.4311  -20.4153  -47.2258 H   0  0  0  0  0
    8.8088  -21.6201  -45.5785 H   0  0  0  0  0
   11.1620  -22.1526  -46.1203 H   0  0  0  0  0
   12.1036  -21.4609  -48.2958 H   0  0  0  0  0
   10.7225  -20.2503  -49.9282 H   0  0  0  0  0
    7.0893  -19.6069  -49.3243 H   0  0  0  0  0
    8.3332  -19.9400  -50.6496 H   0  0  0  0  0
    7.5175  -17.5396  -50.3181 H   0  0  0  0  0
    9.2586  -17.8391  -50.4148 H   0  0  0  0  0
    9.4751  -17.3327  -48.1266 H   0  0  0  0  0
    7.0235  -15.9295  -46.0799 H   0  0  0  0  0
    8.7997  -15.9760  -46.5181 H   0  0  0  0  0
   12.1172  -17.4844  -48.4665 H   0  0  0  0  0
   13.8353  -17.8934  -48.5119 H   0  0  0  0  0
   11.0653  -19.5402  -42.5853 H   0  0  0  0  0
    8.9397  -20.5771  -41.1065 H   0  0  0  0  0
    6.9253  -20.4546  -43.3016 H   0  0  0  0  0
    6.3654  -19.8383  -41.7162 H   0  0  0  0  0
    6.0002  -22.0899  -41.9813 H   0  0  0  0  0
    7.4541  -18.0853  -42.1363 H   0  0  0  0  0
    8.0916  -17.2995  -40.1699 H   0  0  0  0  0
    9.5283  -17.0368  -42.7186 H   0  0  0  0  0
   10.2237  -17.1220  -40.5851 H   0  0  0  0  0
  1 22  4  0  0  0
 23  1  4  0  0  0
  2  3  4  0  0  0
  5  2  4  0  0  0
  2 23  4  0  0  0
  3  4  4  0  0  0
  3 20  4  0  0  0
  4 21  1  0  0  0
  4 22  4  0  0  0
 19  5  4  0  0  0
  5 24  1  0  0  0
  6  7  4  0  0  0
 11  6  4  0  0  0
  7  8  4  0  0  0
  9  8  4  0  0  0
 10  9  4  0  0  0
 11 10  4  0  0  0
 12 11  1  0  0  0
 13 12  1  0  0  0
 14 13  1  0  0  0
 15 14  1  0  0  0
 15 16  2  0  0  0
 17 15  1  0  0  0
 18 17  1  0  0  0
 18 19  1  0  0  0
 19 20  4  0  0  0
 24 25  1  0  0  0
 24 31  1  0  0  0
 25 26  1  0  0  0
 26 27  1  0  0  0
 26 29  1  0  0  0
 27 28  1  0  0  0
 29 30  1  0  0  0
 29 31  1  0  0  0
 31 32  1  0  0  0
  1 33  1  0  0  0
  6 34  1  0  0  0
  7 35  1  0  0  0
  8 36  1  0  0  0
  9 37  1  0  0  0
 10 38  1  0  0  0
 12 39  1  0  0  0
 12 40  1  0  0  0
 13 41  1  0  0  0
 13 42  1  0  0  0
 14 43  1  0  0  0
 17 44  1  0  0  0
 17 45  1  0  0  0
 21 46  1  0  0  0
 21 47  1  0  0  0
 24 48  1  0  0  0
 26 49  1  0  0  0
 27 50  1  0  0  0
 27 51  1  0  0  0
 28 52  1  0  0  0
 29 53  1  0  0  0
 30 54  1  0  0  0
 31 55  1  0  0  0
 32 56  1  0  0  0
M  END
$$$$
