3d2t_ligand
  -I-interpret- 

 26 27  0  0  0  0  0  0  0  0999 V2000
    0.4510   40.5170    7.5950 F   0  0  0  0  0
    0.4980   41.6850    8.4420 C   0  0  0  0  0
    0.0120   41.5230    9.6890 C   0  0  0  0  0
    0.0760   42.5400   10.6580 C   0  0  0  0  0
   -0.4060   42.3580   11.9120 F   0  0  0  0  0
    0.6360   43.7390   10.3630 C   0  0  0  0  0
    1.0970   43.9330    9.1440 C   0  0  0  0  0
    1.0750   42.9210    8.0660 C   0  0  0  0  0
    1.5800   43.2020    6.7640 C   0  0  0  0  0
    0.8200   42.9120    5.5280 C   0  0  0  0  0
    1.2610   43.0800    4.3110 C   0  0  0  0  0
    0.3150   42.6970    3.1020 C   0  0  0  0  0
   -1.0880   42.5280    3.3410 O   0  0  0  0  0
    0.6960   42.5510    2.0580 O   0  0  0  0  0
    2.8350   43.7130    6.5430 C   0  0  0  0  0
    3.2730   43.9490    5.3300 C   0  0  0  0  0
    2.5560   43.6530    4.2500 C   0  0  0  0  0
    3.1400   43.9360    2.9710 O   0  0  0  0  0
   -0.4465   40.5707    9.9554 H   0  0  0  0  0
    0.7033   44.5238   11.1164 H   0  0  0  0  0
    1.5250   44.9087    8.9138 H   0  0  0  0  0
   -0.1927   42.5258    5.6434 H   0  0  0  0  0
   -1.2739   42.6815    4.2702 H   0  0  0  0  0
    3.4811   43.9271    7.3943 H   0  0  0  0  0
    4.2561   44.4022    5.2028 H   0  0  0  0  0
    4.0116   44.3184    3.0960 H   0  0  0  0  0
  1  2  1  0  0  0
  2  3  4  0  0  0
  2  8  4  0  0  0
  3  4  4  0  0  0
  4  5  1  0  0  0
  4  6  4  0  0  0
  6  7  4  0  0  0
  7  8  4  0  0  0
  8  9  1  0  0  0
  9 10  4  0  0  0
  9 15  4  0  0  0
 10 11  4  0  0  0
 11 12  1  0  0  0
 11 17  4  0  0  0
 12 13  1  0  0  0
 12 14  2  0  0  0
 15 16  4  0  0  0
 16 17  4  0  0  0
 17 18  1  0  0  0
  3 19  1  0  0  0
  6 20  1  0  0  0
  7 21  1  0  0  0
 10 22  1  0  0  0
 13 23  1  0  0  0
 15 24  1  0  0  0
 16 25  1  0  0  0
 18 26  1  0  0  0
M  END
$$$$
