5lwn_ligand
  -I-interpret- 

 59 63  0  0  0  0  0  0  0  0999 V2000
   16.1810   23.3560   26.9250 C   0  0  0  0  0
   14.7090   23.5070   27.2960 C   0  0  0  0  0
   14.2140   24.9340   27.1130 C   0  0  0  0  0
   15.0870   25.9300   27.8550 C   0  0  0  0  0
   16.5470   25.8100   27.4200 C   0  0  0  0  0
   17.0110   24.3880   27.6830 C   0  0  0  0  0
   19.1420   23.1440   28.1240 C   0  0  0  0  0
   18.8550   22.1410   29.0660 C   0  0  0  0  0
   17.7220   21.6820   29.8280 C   0  0  0  0  0
   21.4260   22.3200   27.9910 C   0  0  0  0  0
   19.3310   24.7210   26.5850 C   0  0  0  0  0
   19.1270   25.8410   25.6960 C   0  0  0  0  0
   18.2040   26.9060   23.9970 C   0  0  0  0  0
   16.3520   29.4340   24.3920 O   0  0  0  0  0
   16.7090   29.4740   23.2230 C   0  0  0  0  0
   17.0270   30.6260   22.6360 N   0  0  0  0  0
   17.5220   30.7470   21.2690 C   0  0  0  0  0
   16.9020   31.8750   23.3820 C   0  0  0  0  0
   16.7180   28.2080   22.4220 C   0  0  0  0  0
   16.2370   28.2300   21.0750 C   0  0  0  0  0
   15.8800   28.2840   19.9910 N   0  0  0  0  0
   17.2720   27.1010   22.9510 C   0  0  0  0  0
   19.1300   27.7370   24.5370 C   0  0  0  0  0
   19.7310   27.0520   25.6080 C   0  0  0  0  0
   18.1740   25.7260   24.7000 O   0  0  0  0  0
   18.4470   24.1370   27.4640 N   0  0  0  0  0
   16.3680   23.4210   25.4160 C   0  0  0  0  0
   20.5380   24.1880   26.6400 N   0  0  0  0  0
   20.4340   23.2020   27.6000 C   0  0  0  0  0
   21.1980   21.3420   28.8650 N   0  0  0  0  0
   19.9430   21.2780   29.3740 C   0  0  0  0  0
   19.4710   20.3620   30.2660 N   0  0  0  0  0
   18.1420   20.6030   30.5300 C   0  0  0  0  0
   16.5134   22.3598   27.2523 H   0  0  0  0  0
   14.5777   23.2189   28.3494 H   0  0  0  0  0
   14.1122   22.8402   26.6563 H   0  0  0  0  0
   13.1855   25.0066   27.4962 H   0  0  0  0  0
   14.2242   25.1803   26.0410 H   0  0  0  0  0
   15.0165   25.7351   28.9353 H   0  0  0  0  0
   14.7310   26.9488   27.6421 H   0  0  0  0  0
   17.1651   26.5147   27.9955 H   0  0  0  0  0
   16.6347   26.0368   26.3472 H   0  0  0  0  0
   16.8316   24.2122   28.7539 H   0  0  0  0  0
   16.7238   22.1173   29.8376 H   0  0  0  0  0
   22.4200   22.4288   27.5725 H   0  0  0  0  0
   17.7053   31.8067   21.0379 H   0  0  0  0  0
   16.7736   30.3437   20.5710 H   0  0  0  0  0
   18.4603   30.1820   21.1674 H   0  0  0  0  0
   16.5225   31.6622   24.3923 H   0  0  0  0  0
   16.2021   32.5448   22.8610 H   0  0  0  0  0
   17.8872   32.3588   23.4548 H   0  0  0  0  0
   16.9378   26.1763   22.4828 H   0  0  0  0  0
   19.3644   28.7468   24.2033 H   0  0  0  0  0
   20.5309   27.4240   26.2465 H   0  0  0  0  0
   15.7434   22.6534   24.9358 H   0  0  0  0  0
   17.4247   23.2408   25.1694 H   0  0  0  0  0
   16.0710   24.4157   25.0522 H   0  0  0  0  0
   20.0272   19.6012   30.6815 H   0  0  0  0  0
   17.5209   20.0138   31.2030 H   0  0  0  0  0
  1  2  1  0  0  0
  6  1  1  0  0  0
  1 27  1  0  0  0
  2  3  1  0  0  0
  4  3  1  0  0  0
  5  4  1  0  0  0
  6  5  1  0  0  0
 26  6  1  0  0  0
  7  8  4  0  0  0
 26  7  1  0  0  0
  7 29  4  0  0  0
  8  9  1  0  0  0
  8 31  4  0  0  0
  9 33  2  0  0  0
 29 10  4  0  0  0
 10 30  4  0  0  0
 12 11  1  0  0  0
 11 26  1  0  0  0
 11 28  2  0  0  0
 12 24  2  0  0  0
 25 12  1  0  0  0
 22 13  1  0  0  0
 13 23  2  0  0  0
 13 25  1  0  0  0
 15 14  2  0  0  0
 15 16  1  0  0  0
 19 15  1  0  0  0
 16 17  1  0  0  0
 16 18  1  0  0  0
 19 20  1  0  0  0
 19 22  2  0  0  0
 20 21  3  0  0  0
 23 24  1  0  0  0
 28 29  1  0  0  0
 30 31  4  0  0  0
 31 32  1  0  0  0
 32 33  1  0  0  0
  1 34  1  0  0  0
  2 35  1  0  0  0
  2 36  1  0  0  0
  3 37  1  0  0  0
  3 38  1  0  0  0
  4 39  1  0  0  0
  4 40  1  0  0  0
  5 41  1  0  0  0
  5 42  1  0  0  0
  6 43  1  0  0  0
  9 44  1  0  0  0
 10 45  1  0  0  0
 17 46  1  0  0  0
 17 47  1  0  0  0
 17 48  1  0  0  0
 18 49  1  0  0  0
 18 50  1  0  0  0
 18 51  1  0  0  0
 22 52  1  0  0  0
 23 53  1  0  0  0
 24 54  1  0  0  0
 27 55  1  0  0  0
 27 56  1  0  0  0
 27 57  1  0  0  0
 32 58  1  0  0  0
 33 59  1  0  0  0
M  END
$$$$
