5ti2_ligand
  -I-interpret- 

 38 40  0  0  0  0  0  0  0  0999 V2000
   50.3120   -3.5750    1.6430 C   0  0  0  0  0
   50.9700   -6.5280   -1.6240 C   0  0  0  0  0
   49.8200   -8.3380   -2.7900 C   0  0  0  0  0
   46.4610   -7.7730   -4.9920 C   0  0  0  0  0
   45.7820   -5.0770   -4.7300 C   0  0  0  0  0
   45.7010   -5.9020   -3.6110 C   0  0  0  0  0
   45.5020   -7.4200   -1.0550 O   0  0  0  0  0
   45.9410   -8.2900   -2.3410 S   0  0  0  0  0
   47.5340   -8.9110   -2.0480 N   0  0  0  0  0
   48.6760   -8.1510   -1.9880 C   0  0  0  0  0
   48.7110   -7.1480   -1.0090 C   0  0  0  0  0
   49.8370   -6.3190   -0.8020 C   0  0  0  0  0
   49.7500   -5.3430    0.1760 N   0  0  0  0  0
   48.5250   -5.1040    0.9290 C   0  0  0  0  0
   48.8330   -3.9310    1.8800 C   0  0  0  0  0
   50.7390   -4.4910    0.5850 C   0  0  0  0  0
   51.9030   -4.4260    0.1490 O   0  0  0  0  0
   50.9690   -7.5330   -2.6080 C   0  0  0  0  0
   46.0380   -7.2480   -3.7510 C   0  0  0  0  0
   46.5420   -6.9290   -6.1160 C   0  0  0  0  0
   46.1960   -5.5740   -5.9810 C   0  0  0  0  0
   45.4540   -3.8420   -4.5820 F   0  0  0  0  0
   44.9150   -9.4730   -2.6650 O   0  0  0  0  0
   50.9106   -3.6848    2.5473 H   0  0  0  0  0
   50.4424   -2.5307    1.3591 H   0  0  0  0  0
   51.8534   -5.9030   -1.4930 H   0  0  0  0  0
   49.8193   -9.1110   -3.5585 H   0  0  0  0  0
   46.7237   -8.8273   -5.0792 H   0  0  0  0  0
   45.3815   -5.5047   -2.6476 H   0  0  0  0  0
   47.6296   -9.9171   -1.9098 H   0  0  0  0  0
   47.8325   -7.0012   -0.3807 H   0  0  0  0  0
   48.2225   -5.9925    1.4831 H   0  0  0  0  0
   47.6936   -4.8663    0.2653 H   0  0  0  0  0
   48.1835   -3.0786    1.6810 H   0  0  0  0  0
   48.6533   -4.2059    2.9193 H   0  0  0  0  0
   51.8510   -7.6912   -3.2286 H   0  0  0  0  0
   46.8690   -7.3218   -7.0787 H   0  0  0  0  0
   46.2479   -4.9087   -6.8429 H   0  0  0  0  0
  1 15  1  0  0  0
 16  1  1  0  0  0
 12  2  4  0  0  0
  2 18  4  0  0  0
 10  3  4  0  0  0
 18  3  4  0  0  0
 19  4  4  0  0  0
  4 20  4  0  0  0
  6  5  4  0  0  0
  5 21  4  0  0  0
  5 22  1  0  0  0
 19  6  4  0  0  0
  8  7  2  0  0  0
  9  8  1  0  0  0
  8 19  1  0  0  0
  8 23  2  0  0  0
 10  9  1  0  0  0
 11 10  4  0  0  0
 12 11  4  0  0  0
 13 12  1  0  0  0
 13 14  1  0  0  0
 13 16  1  0  0  0
 14 15  1  0  0  0
 16 17  2  0  0  0
 20 21  4  0  0  0
  1 24  1  0  0  0
  1 25  1  0  0  0
  2 26  1  0  0  0
  3 27  1  0  0  0
  4 28  1  0  0  0
  6 29  1  0  0  0
  9 30  1  0  0  0
 11 31  1  0  0  0
 14 32  1  0  0  0
 14 33  1  0  0  0
 15 34  1  0  0  0
 15 35  1  0  0  0
 18 36  1  0  0  0
 20 37  1  0  0  0
 21 38  1  0  0  0
M  END
$$$$
