6mx3_ligand
  -I-interpret- 

 59 62  0  0  0  0  0  0  0  0999 V2000
   46.8530   17.9790   72.2080 C   0  0  0  0  0
   45.5050   17.6880   72.0740 C   0  0  0  0  0
   44.5750   18.1200   73.0190 C   0  0  0  0  0
   42.5520   17.9060   71.4930 C   0  0  0  0  0
   42.2440   18.6460   73.8370 C   0  0  0  0  0
   42.8850   16.2900   73.3360 C   0  0  0  0  0
   49.6550   17.8470   73.3800 C   0  0  0  0  0
   49.8980   17.1180   74.6890 C   0  0  0  0  0
   50.6340   15.9360   74.6870 C   0  0  0  0  0
   50.8900   15.2440   75.8610 C   0  0  0  0  0
   50.3880   15.7210   77.0600 C   0  0  0  0  0
   49.6030   16.8680   77.0840 C   0  0  0  0  0
   49.3770   17.5670   75.9020 C   0  0  0  0  0
   51.5000   19.5150   73.5890 C   0  0  0  0  0
   52.8490   19.7410   73.8370 C   0  0  0  0  0
   53.2610   20.8620   74.5390 C   0  0  0  0  0
   52.3290   21.7710   75.0080 C   0  0  0  0  0
   50.5580   20.4390   74.0630 C   0  0  0  0  0
   50.4430   17.7090   70.5440 O   0  0  0  0  0
   50.8480   18.6350   71.2870 C   0  0  0  0  0
   51.1530   19.7720   70.8970 O   0  0  0  0  0
   51.0020   18.3280   72.7910 C   0  0  0  0  0
   50.6400   15.1280   78.2660 O   0  0  0  0  0
   51.4430   13.9360   78.2710 C   0  0  0  0  0
   50.9850   21.5660   74.7700 C   0  0  0  0  0
   49.1270   20.2690   73.7800 C   0  0  0  0  0
   48.3320   21.1920   73.8190 O   0  0  0  0  0
   48.7000   18.9680   73.4880 N   0  0  0  0  0
   47.3020   18.7080   73.3070 C   0  0  0  0  0
   46.3820   19.1800   74.2310 C   0  0  0  0  0
   45.0390   18.8870   74.0880 C   0  0  0  0  0
   43.0900   17.7450   72.9240 C   0  0  0  0  0
   47.5620   17.6376   71.4537 H   0  0  0  0  0
   45.1652   17.1108   71.2141 H   0  0  0  0  0
   43.0985   17.2414   70.8238 H   0  0  0  0  0
   41.4922   17.6518   71.4739 H   0  0  0  0  0
   42.6852   18.9385   71.1702 H   0  0  0  0  0
   41.1922   18.3788   73.7354 H   0  0  0  0  0
   42.5568   18.5084   74.8720 H   0  0  0  0  0
   42.3850   19.6877   73.5489 H   0  0  0  0  0
   43.1958   16.1600   74.3726 H   0  0  0  0  0
   41.8311   16.0304   73.2360 H   0  0  0  0  0
   43.4823   15.6439   72.6926 H   0  0  0  0  0
   49.1878   17.1296   72.7053 H   0  0  0  0  0
   51.0166   15.5468   73.7435 H   0  0  0  0  0
   51.4831   14.3297   75.8401 H   0  0  0  0  0
   49.1682   17.2169   78.0206 H   0  0  0  0  0
   48.7829   18.4806   75.9248 H   0  0  0  0  0
   53.5905   19.0286   73.4753 H   0  0  0  0  0
   54.3225   21.0285   74.7225 H   0  0  0  0  0
   52.6562   22.6488   75.5653 H   0  0  0  0  0
   50.2718   16.9269   71.0737 H   0  0  0  0  0
   51.7530   17.5419   72.8697 H   0  0  0  0  0
   50.9549   13.1681   77.6708 H   0  0  0  0  0
   52.4239   14.1585   77.8508 H   0  0  0  0  0
   51.5571   13.5806   79.2951 H   0  0  0  0  0
   50.2533   22.2866   75.1353 H   0  0  0  0  0
   46.7193   19.7843   75.0731 H   0  0  0  0  0
   44.3286   19.2624   74.8246 H   0  0  0  0  0
  1  2  4  0  0  0
 29  1  4  0  0  0
  2  3  4  0  0  0
  3 31  4  0  0  0
  3 32  1  0  0  0
 32  4  1  0  0  0
 32  5  1  0  0  0
 32  6  1  0  0  0
  7  8  1  0  0  0
  7 22  1  0  0  0
 28  7  1  0  0  0
  8  9  4  0  0  0
  8 13  4  0  0  0
  9 10  4  0  0  0
 10 11  4  0  0  0
 12 11  4  0  0  0
 11 23  1  0  0  0
 13 12  4  0  0  0
 14 15  4  0  0  0
 18 14  4  0  0  0
 22 14  1  0  0  0
 15 16  4  0  0  0
 17 16  4  0  0  0
 25 17  4  0  0  0
 18 25  4  0  0  0
 26 18  1  0  0  0
 20 19  1  0  0  0
 20 21  2  0  0  0
 22 20  1  0  0  0
 23 24  1  0  0  0
 26 27  2  0  0  0
 28 26  1  0  0  0
 28 29  1  0  0  0
 29 30  4  0  0  0
 30 31  4  0  0  0
  1 33  1  0  0  0
  2 34  1  0  0  0
  4 35  1  0  0  0
  4 36  1  0  0  0
  4 37  1  0  0  0
  5 38  1  0  0  0
  5 39  1  0  0  0
  5 40  1  0  0  0
  6 41  1  0  0  0
  6 42  1  0  0  0
  6 43  1  0  0  0
  7 44  1  0  0  0
  9 45  1  0  0  0
 10 46  1  0  0  0
 12 47  1  0  0  0
 13 48  1  0  0  0
 15 49  1  0  0  0
 16 50  1  0  0  0
 17 51  1  0  0  0
 19 52  1  0  0  0
 22 53  1  0  0  0
 24 54  1  0  0  0
 24 55  1  0  0  0
 24 56  1  0  0  0
 25 57  1  0  0  0
 30 58  1  0  0  0
 31 59  1  0  0  0
M  END
$$$$
