1y8p_ligand
  -I-interpret- 

 47 49  0  0  0  0  0  0  0  0999 V2000
  -47.8550   15.8120   76.6320 P   0  0  0  0  0
  -47.9620   14.3600   77.0930 O   0  0  0  0  0
  -49.0310   16.3230   75.7930 O   0  0  0  0  0
  -47.8880   16.4800   77.9770 O   0  0  0  0  0
  -46.6300   16.2760   73.9760 P   0  0  0  0  0
  -45.5770   16.0090   72.8690 O   0  0  0  0  0
  -47.2950   17.6460   73.8200 O   0  0  0  0  0
  -46.5340   15.9000   75.5910 O   0  0  0  0  0
  -49.0520   15.4760   72.7420 P   0  0  0  0  0
  -49.6790   16.6940   73.4630 O   0  0  0  0  0
  -49.8250   14.1900   72.7190 O   0  0  0  0  0
  -47.6700   15.1550   73.4780 O   0  0  0  0  0
  -48.6950   15.7430   71.2030 O   0  0  0  0  0
  -47.7080   15.0160   70.5580 C   0  0  0  0  0
  -47.1020   15.8040   69.4060 C   0  0  0  0  0
  -48.0820   16.2650   68.4820 O   0  0  0  0  0
  -46.3720   17.1010   69.8390 C   0  0  0  0  0
  -45.0860   16.7610   70.3320 O   0  0  0  0  0
  -46.3060   17.9120   68.5780 C   0  0  0  0  0
  -45.2860   17.4300   67.7190 O   0  0  0  0  0
  -47.5810   17.4840   67.8660 C   0  0  0  0  0
  -48.5730   18.5650   68.0390 N   0  0  0  0  0
  -49.5830   18.5070   68.8980 C   0  0  0  0  0
  -50.3150   19.6460   68.8180 N   0  0  0  0  0
  -49.7320   20.4570   67.8980 C   0  0  0  0  0
  -49.9960   21.7920   67.3560 C   0  0  0  0  0
  -51.0530   22.5380   67.7410 N   0  0  0  0  0
  -49.1560   22.2440   66.4370 N   0  0  0  0  0
  -48.1080   21.5240   65.9950 C   0  0  0  0  0
  -47.8100   20.3110   66.4520 N   0  0  0  0  0
  -48.5870   19.7370   67.3880 C   0  0  0  0  0
  -47.9545   13.7810   76.3273 H   0  0  0  0  0
  -49.0158   15.8997   74.9315 H   0  0  0  0  0
  -45.1856   15.1428   73.0035 H   0  0  0  0  0
  -49.0821   17.4433   73.4010 H   0  0  0  0  0
  -48.1541   14.1054   70.1580 H   0  0  0  0  0
  -46.9194   14.7900   71.2757 H   0  0  0  0  0
  -46.4106   15.0823   68.9710 H   0  0  0  0  0
  -46.8674   17.6547   70.6366 H   0  0  0  0  0
  -44.6269   17.5595   70.6026 H   0  0  0  0  0
  -46.1579   18.9707   68.7908 H   0  0  0  0  0
  -45.2629   17.9631   66.9209 H   0  0  0  0  0
  -47.3942   17.3003   66.8079 H   0  0  0  0  0
  -49.7923   17.6714   69.5659 H   0  0  0  0  0
  -51.7063   22.1765   68.4359 H   0  0  0  0  0
  -51.1984   23.4632   67.3370 H   0  0  0  0  0
  -47.4713   21.9570   65.2235 H   0  0  0  0  0
  1  2  1  0  0  0
  1  3  1  0  0  0
  1  4  2  0  0  0
  8  1  1  0  0  0
  5  6  1  0  0  0
  5  7  2  0  0  0
  5  8  1  0  0  0
 12  5  1  0  0  0
  9 10  1  0  0  0
  9 11  2  0  0  0
  9 12  1  0  0  0
  9 13  1  0  0  0
 13 14  1  0  0  0
 14 15  1  0  0  0
 15 16  1  0  0  0
 15 17  1  0  0  0
 16 21  1  0  0  0
 17 18  1  0  0  0
 17 19  1  0  0  0
 19 20  1  0  0  0
 19 21  1  0  0  0
 21 22  1  0  0  0
 22 23  4  0  0  0
 22 31  4  0  0  0
 23 24  4  0  0  0
 24 25  4  0  0  0
 25 26  4  0  0  0
 25 31  4  0  0  0
 26 27  1  0  0  0
 26 28  4  0  0  0
 28 29  4  0  0  0
 29 30  4  0  0  0
 30 31  4  0  0  0
  2 32  1  0  0  0
  3 33  1  0  0  0
  6 34  1  0  0  0
 10 35  1  0  0  0
 14 36  1  0  0  0
 14 37  1  0  0  0
 15 38  1  0  0  0
 17 39  1  0  0  0
 18 40  1  0  0  0
 19 41  1  0  0  0
 20 42  1  0  0  0
 21 43  1  0  0  0
 23 44  1  0  0  0
 27 45  1  0  0  0
 27 46  1  0  0  0
 29 47  1  0  0  0
M  END
$$$$
