### 
### Created by X-TOOL on Mon Sep 10 21:12:52 2018
### 

@<TRIPOS>MOLECULE
1y8p_ligand
   43    45     1     0     0
SMALL
GAST_HUCK


@<TRIPOS>ATOM
      1 PG        -47.8550   15.8120   76.6320 P.3       1 ATP         0.1879
      2 O1G       -47.9620   14.3600   77.0930 O.co2     1 ATP        -0.6091
      3 O2G       -49.0310   16.3230   75.7930 O.co2     1 ATP        -0.6091
      4 O3G       -47.8880   16.4800   77.9770 O.co2     1 ATP        -0.6091
      5 PB        -46.6300   16.2760   73.9760 P.3       1 ATP         0.3553
      6 O1B       -45.5770   16.0090   72.8690 O.co2     1 ATP        -0.5652
      7 O2B       -47.2950   17.6460   73.8200 O.co2     1 ATP        -0.5652
      8 O3B       -46.5340   15.9000   75.5910 O.3       1 ATP        -0.1546
      9 PA        -49.0520   15.4760   72.7420 P.3       1 ATP         0.3266
     10 O1A       -49.6790   16.6940   73.4630 O.co2     1 ATP        -0.5692
     11 O2A       -49.8250   14.1900   72.7190 O.co2     1 ATP        -0.5692
     12 O3A       -47.6700   15.1550   73.4780 O.3       1 ATP        -0.1171
     13 O5        -48.6950   15.7430   71.2030 O.3       1 ATP        -0.2441
     14 C5        -47.7080   15.0160   70.5580 C.3       1 ATP         0.1131
     15 C4        -47.1020   15.8040   69.4060 C.3       1 ATP         0.1189
     16 O4        -48.0820   16.2650   68.4820 O.3       1 ATP        -0.3364
     17 C3        -46.3720   17.1010   69.8390 C.3       1 ATP         0.1149
     18 O3        -45.0860   16.7610   70.3320 O.3       1 ATP        -0.3864
     19 C2        -46.3060   17.9120   68.5780 C.3       1 ATP         0.1385
     20 O2        -45.2860   17.4300   67.7190 O.3       1 ATP        -0.3836
     21 C1        -47.5810   17.4840   67.8660 C.3       1 ATP         0.2010
     22 N9        -48.5730   18.5650   68.0390 N.pl3     1 ATP        -0.1919
     23 C8        -49.5830   18.5070   68.8980 C.2       1 ATP         0.1123
     24 N7        -50.3150   19.6460   68.8180 N.2       1 ATP        -0.2958
     25 C5        -49.7320   20.4570   67.8980 C.ar      1 ATP         0.1045
     26 C6        -49.9960   21.7920   67.3560 C.ar      1 ATP         0.1298
     27 N6        -51.0530   22.5380   67.7410 N.pl3     1 ATP        -0.3152
     28 N1        -49.1560   22.2440   66.4370 N.ar      1 ATP        -0.2698
     29 C2        -48.1080   21.5240   65.9950 C.ar      1 ATP         0.0533
     30 N3        -47.8100   20.3110   66.4520 N.ar      1 ATP        -0.2714
     31 C4        -48.5870   19.7370   67.3880 C.ar      1 ATP         0.1613
     32 H1        -48.1468   14.0872   70.1646 H         1 ATP         0.0648
     33 H2        -46.9151   14.7701   71.2797 H         1 ATP         0.0648
     34 H3        -46.3909   15.1422   68.8899 H         1 ATP         0.0651
     35 H4        -46.9357   17.6380   70.6161 H         1 ATP         0.0648
     36 H5        -45.1775   16.1790   71.0773 H         1 ATP         0.2100
     37 H6        -46.2269   18.9928   68.7669 H         1 ATP         0.0676
     38 H7        -44.4477   17.4853   68.1625 H         1 ATP         0.2101
     39 H8        -47.3846   17.3131   66.7973 H         1 ATP         0.0996
     40 H9        -49.7921   17.6722   69.5653 H         1 ATP         0.1349
     41 H10       -51.1999   23.4723   67.3330 H         1 ATP         0.1820
     42 H11       -51.7127   22.1730   68.4427 H         1 ATP         0.1820
     43 H12       -47.4748   21.9546   65.2277 H         1 ATP         0.0996
@<TRIPOS>BOND
     1    1    2 ar 
     2    1    3 ar 
     3    1    4 ar 
     4    8    1 1  
     5    5    6 ar 
     6    5    7 ar 
     7    5    8 1  
     8   12    5 1  
     9    9   10 ar 
    10    9   11 ar 
    11    9   12 1  
    12    9   13 1  
    13   13   14 1  
    14   14   15 1  
    15   15   16 1  
    16   15   17 1  
    17   16   21 1  
    18   17   18 1  
    19   17   19 1  
    20   19   20 1  
    21   19   21 1  
    22   21   22 1  
    23   22   23 1  
    24   22   31 1  
    25   23   24 2  
    26   24   25 1  
    27   25   26 ar 
    28   25   31 ar 
    29   26   27 1  
    30   26   28 ar 
    31   28   29 ar 
    32   29   30 ar 
    33   30   31 ar 
    34   14   32 1  
    35   14   33 1  
    36   15   34 1  
    37   17   35 1  
    38   18   36 1  
    39   19   37 1  
    40   20   38 1  
    41   21   39 1  
    42   23   40 1  
    43   27   41 1  
    44   27   42 1  
    45   29   43 1  
@<TRIPOS>SUBSTRUCTURE
     1 ATP         1

