3irx_ligand
  -I-interpret- 

 65 68  0  0  0  0  0  0  0  0999 V2000
  -52.0760  -31.9410  -35.0700 C   0  0  0  0  0
  -54.5510  -28.6040  -37.9260 C   0  0  0  0  0
  -48.7850  -32.6170  -35.5650 C   0  0  0  0  0
  -52.8040  -24.4250  -36.7700 C   0  0  0  0  0
  -46.0340  -31.5230  -43.5850 C   0  0  0  0  0
  -50.9360  -34.3920  -41.1970 C   0  0  0  0  0
  -52.5660  -29.0180  -35.2730 O   0  0  0  0  0
  -49.6420  -35.5350  -43.5140 O   0  0  0  0  0
  -47.8660  -28.5630  -39.7730 C   0  0  0  0  0
  -48.6710  -31.1860  -37.6480 C   0  0  0  0  0
  -47.2830  -30.6730  -41.5460 C   0  0  0  0  0
  -50.2420  -29.4030  -38.0450 C   0  0  0  0  0
  -49.2000  -31.8380  -40.6710 C   0  0  0  0  0
  -47.8910  -27.4940  -38.8810 C   0  0  0  0  0
  -47.8390  -26.1570  -39.6200 C   0  0  0  0  0
  -49.2310  -25.7600  -40.1060 C   0  0  0  0  0
  -50.6100  -23.5240  -37.6710 N   0  0  0  0  0
  -49.7270  -23.8460  -38.4700 N   0  0  0  0  0
  -51.0180  -31.0060  -34.8600 O   0  0  0  0  0
  -51.1750  -25.4910  -38.4700 O   0  0  0  0  0
  -48.1460  -33.7770  -43.4440 O   0  0  0  0  0
  -52.9600  -27.8940  -37.5650 S   0  0  0  0  0
  -52.1360  -28.9330  -36.4180 C   0  0  0  0  0
  -48.4540  -29.8130  -39.6080 C   0  0  0  0  0
  -49.3110  -31.4850  -36.4500 C   0  0  0  0  0
  -51.5220  -24.4890  -37.6340 C   0  0  0  0  0
  -47.1540  -31.6410  -42.5430 C   0  0  0  0  0
  -49.1260  -30.1360  -38.4460 C   0  0  0  0  0
  -48.3060  -30.7770  -40.6140 C   0  0  0  0  0
  -50.0080  -25.0420  -39.0060 C   0  0  0  0  0
  -50.8850  -29.7050  -36.8510 C   0  0  0  0  0
  -50.4130  -30.7430  -36.0490 C   0  0  0  0  0
  -49.2200  -34.4950  -43.0050 C   0  0  0  0  0
  -49.0640  -32.7990  -41.6620 C   0  0  0  0  0
  -48.0410  -32.6970  -42.5970 C   0  0  0  0  0
  -49.7580  -33.9030  -41.9450 N   0  0  0  0  0
  -52.8011  -31.5173  -35.7649 H   0  0  0  0  0
  -51.6678  -32.8622  -35.4857 H   0  0  0  0  0
  -52.5641  -32.1550  -34.1192 H   0  0  0  0  0
  -54.4156  -29.5976  -38.3531 H   0  0  0  0  0
  -55.1313  -28.6785  -37.0063 H   0  0  0  0  0
  -55.0774  -27.9693  -38.6389 H   0  0  0  0  0
  -48.8128  -33.5541  -36.1211 H   0  0  0  0  0
  -47.7588  -32.3986  -35.2696 H   0  0  0  0  0
  -49.4101  -32.7019  -34.6761 H   0  0  0  0  0
  -52.5284  -24.3326  -35.7195 H   0  0  0  0  0
  -53.3988  -23.5617  -37.0682 H   0  0  0  0  0
  -53.3847  -25.3358  -36.9158 H   0  0  0  0  0
  -46.1488  -30.5895  -44.1358 H   0  0  0  0  0
  -45.0678  -31.5322  -43.0806 H   0  0  0  0  0
  -46.0925  -32.3638  -44.2762 H   0  0  0  0  0
  -51.7945  -34.4429  -41.8667 H   0  0  0  0  0
  -50.7253  -35.3843  -40.7982 H   0  0  0  0  0
  -51.1535  -33.7080  -40.3767 H   0  0  0  0  0
  -47.3248  -28.4023  -40.7054 H   0  0  0  0  0
  -47.8101  -31.7746  -37.9649 H   0  0  0  0  0
  -46.5831  -29.8387  -41.4995 H   0  0  0  0  0
  -50.6114  -28.5902  -38.6703 H   0  0  0  0  0
  -50.0051  -31.9153  -39.9403 H   0  0  0  0  0
  -47.0211  -27.5650  -38.2281 H   0  0  0  0  0
  -48.8176  -27.5397  -38.3087 H   0  0  0  0  0
  -47.1776  -26.2538  -40.4810 H   0  0  0  0  0
  -47.4696  -25.3902  -38.9391 H   0  0  0  0  0
  -49.7744  -26.6620  -40.3873 H   0  0  0  0  0
  -49.1263  -25.0874  -40.9573 H   0  0  0  0  0
 19  1  1  0  0  0
 22  2  1  0  0  0
 25  3  1  0  0  0
 26  4  1  0  0  0
 27  5  1  0  0  0
 36  6  1  0  0  0
 23  7  2  0  0  0
 33  8  2  0  0  0
  9 14  1  0  0  0
 24  9  2  0  0  0
 10 25  4  0  0  0
 28 10  4  0  0  0
 27 11  4  0  0  0
 11 29  4  0  0  0
 28 12  4  0  0  0
 12 31  4  0  0  0
 29 13  4  0  0  0
 13 34  4  0  0  0
 14 15  1  0  0  0
 15 16  1  0  0  0
 16 30  1  0  0  0
 18 17  4  0  0  0
 26 17  4  0  0  0
 30 18  4  0  0  0
 32 19  1  0  0  0
 20 26  4  0  0  0
 30 20  4  0  0  0
 33 21  1  0  0  0
 21 35  1  0  0  0
 23 22  1  0  0  0
 31 23  1  0  0  0
 24 28  1  0  0  0
 29 24  1  0  0  0
 25 32  4  0  0  0
 35 27  4  0  0  0
 31 32  4  0  0  0
 33 36  1  0  0  0
 34 35  4  0  0  0
 34 36  1  0  0  0
  1 37  1  0  0  0
  1 38  1  0  0  0
  1 39  1  0  0  0
  2 40  1  0  0  0
  2 41  1  0  0  0
  2 42  1  0  0  0
  3 43  1  0  0  0
  3 44  1  0  0  0
  3 45  1  0  0  0
  4 46  1  0  0  0
  4 47  1  0  0  0
  4 48  1  0  0  0
  5 49  1  0  0  0
  5 50  1  0  0  0
  5 51  1  0  0  0
  6 52  1  0  0  0
  6 53  1  0  0  0
  6 54  1  0  0  0
  9 55  1  0  0  0
 10 56  1  0  0  0
 11 57  1  0  0  0
 12 58  1  0  0  0
 13 59  1  0  0  0
 14 60  1  0  0  0
 14 61  1  0  0  0
 15 62  1  0  0  0
 15 63  1  0  0  0
 16 64  1  0  0  0
 16 65  1  0  0  0
M  END
$$$$
