2ig0_ligand
  -I-interpret- 

 55 54  0  0  0  0  0  0  0  0999 V2000
   -4.9300    4.1320    5.9880 N   0  3  0  0  0
   -6.0990    3.4530    5.3870 C   0  0  0  0  0
   -7.2950    3.5310    6.3620 C   0  0  0  0  0
   -8.4690    3.4320    5.9510 O   0  0  0  0  0
   -5.7490    1.9960    5.0130 C   0  0  0  0  0
   -5.5250    1.7310    3.5050 C   0  0  0  0  0
   -4.0690    1.3890    3.0440 C   0  0  0  0  0
   -3.4000    2.5110    2.4050 N   0  0  0  0  0
   -2.6450    3.3960    3.0430 C   0  0  0  0  0
   -2.4380    3.2890    4.3420 N   0  0  0  0  0
   -2.0910    4.3890    2.3770 N   0  0  0  0  0
   -6.9720    3.7130    7.6470 N   0  0  0  0  0
   -7.9450    4.0070    8.7020 C   0  0  0  0  0
   -7.5630    3.4330   10.0900 C   0  0  0  0  0
   -6.1900    2.7670   10.3190 C   0  0  0  0  0
   -6.3480    1.2670   10.5850 C   0  0  0  0  0
   -5.8520    0.6090   11.8910 C   0  0  0  0  0
   -4.3720    0.3200   11.9920 N   0  3  0  0  0
   -4.0880   -1.0080   12.5690 C   0  0  0  0  0
   -3.6150    0.4990   10.7400 C   0  0  0  0  0
   -8.1640    5.5010    8.8060 C   0  0  0  0  0
   -5.1814    5.0911    6.2275 H   0  0  0  0  0
   -4.6450    3.6334    6.8309 H   0  0  0  0  0
   -4.1605    4.1380    5.3185 H   0  0  0  0  0
   -6.3811    3.9574    4.4628 H   0  0  0  0  0
   -6.6009    1.3854    5.3123 H   0  0  0  0  0
   -4.8079    1.7649    5.5120 H   0  0  0  0  0
   -5.7828    2.6622    3.0006 H   0  0  0  0  0
   -6.1234    0.8513    3.2682 H   0  0  0  0  0
   -4.1314    0.5800    2.3162 H   0  0  0  0  0
   -3.4940    1.1188    3.9297 H   0  0  0  0  0
   -3.5192    2.6253    1.3985 H   0  0  0  0  0
   -1.8528    3.9720    4.8232 H   0  0  0  0  0
   -2.8632    2.5233    4.8648 H   0  0  0  0  0
   -2.2428    4.4766    1.3722 H   0  0  0  0  0
   -5.9885    3.6429    7.9083 H   0  0  0  0  0
   -8.8673    3.5060    8.4080 H   0  0  0  0  0
   -8.2795    2.6275   10.2510 H   0  0  0  0  0
   -7.5477    4.3053   10.7434 H   0  0  0  0  0
   -5.7165    3.2288   11.1854 H   0  0  0  0  0
   -5.5812    2.9023    9.4250 H   0  0  0  0  0
   -5.7303    0.8045    9.8152 H   0  0  0  0  0
   -7.4283    1.1265   10.6223 H   0  0  0  0  0
   -6.3495   -0.3594   11.9448 H   0  0  0  0  0
   -6.0718    1.3214   12.6862 H   0  0  0  0  0
   -4.0378    1.0384   12.6344 H   0  0  0  0  0
   -4.5086   -1.0640   13.5730 H   0  0  0  0  0
   -4.5368   -1.7786   11.9422 H   0  0  0  0  0
   -3.0096   -1.1590   12.6165 H   0  0  0  0  0
   -4.0130   -0.1704    9.9774 H   0  0  0  0  0
   -3.7097    1.5316   10.4041 H   0  0  0  0  0
   -2.5644    0.2677   10.9159 H   0  0  0  0  0
   -7.2191    5.9898    9.0437 H   0  0  0  0  0
   -8.5409    5.8787    7.8555 H   0  0  0  0  0
   -8.8891    5.7067    9.5934 H   0  0  0  0  0
  1  2  1  0  0  0
  2  3  1  0  0  0
  2  5  1  0  0  0
  3  4  2  0  0  0
  3 12  1  0  0  0
  5  6  1  0  0  0
  6  7  1  0  0  0
  7  8  1  0  0  0
  8  9  1  0  0  0
  9 10  1  0  0  0
  9 11  2  0  0  0
 12 13  1  0  0  0
 13 14  1  0  0  0
 13 21  1  0  0  0
 14 15  1  0  0  0
 15 16  1  0  0  0
 16 17  1  0  0  0
 17 18  1  0  0  0
 18 19  1  0  0  0
 18 20  1  0  0  0
  1 22  1  0  0  0
  1 23  1  0  0  0
  1 24  1  0  0  0
  2 25  1  0  0  0
  5 26  1  0  0  0
  5 27  1  0  0  0
  6 28  1  0  0  0
  6 29  1  0  0  0
  7 30  1  0  0  0
  7 31  1  0  0  0
  8 32  1  0  0  0
 10 33  1  0  0  0
 10 34  1  0  0  0
 11 35  1  0  0  0
 12 36  1  0  0  0
 13 37  1  0  0  0
 14 38  1  0  0  0
 14 39  1  0  0  0
 15 40  1  0  0  0
 15 41  1  0  0  0
 16 42  1  0  0  0
 16 43  1  0  0  0
 17 44  1  0  0  0
 17 45  1  0  0  0
 18 46  1  0  0  0
 19 47  1  0  0  0
 19 48  1  0  0  0
 19 49  1  0  0  0
 20 50  1  0  0  0
 20 51  1  0  0  0
 20 52  1  0  0  0
 21 53  1  0  0  0
 21 54  1  0  0  0
 21 55  1  0  0  0
M  END
$$$$
