4nmv_ligand
  -I-interpret- 

118121  0  0  0  0  0  0  0  0999 V2000
   19.5550   27.1080   15.3790 N   0  3  0  0  0
   18.1670   27.2610   15.8030 C   0  0  0  0  0
   17.9230   26.4420   17.0630 C   0  0  0  0  0
   18.5970   25.4440   17.3130 O   0  0  0  0  0
   17.1940   26.7970   14.7190 C   0  0  0  0  0
   17.5300   27.2650   13.3320 C   0  0  0  0  0
   18.1070   28.4560   12.9710 C   0  0  0  0  0
   17.3050   26.5420   12.1200 C   0  0  0  0  0
   18.2500   28.5100   11.6010 N   0  0  0  0  0
   17.7700   27.3470   11.0580 C   0  0  0  0  0
   16.7620   25.2890   11.8280 C   0  0  0  0  0
   17.7000   26.9310    9.7250 C   0  0  0  0  0
   16.6990   24.8810   10.5090 C   0  0  0  0  0
   17.1630   25.6990    9.4740 C   0  0  0  0  0
   16.9530   26.8680   17.8710 N   0  0  0  0  0
   16.5550   26.0760   19.0350 C   0  0  0  0  0
   15.7600   24.8430   18.6230 C   0  0  0  0  0
   15.1600   24.8150   17.5450 O   0  0  0  0  0
   15.6280   27.0290   19.7920 C   0  0  0  0  0
   15.0270   27.8760   18.7140 C   0  0  0  0  0
   16.1710   28.1110   17.7600 C   0  0  0  0  0
   15.7500   23.8470   19.4980 N   0  0  0  0  0
   14.9380   22.6520   19.3160 C   0  0  0  0  0
   14.1200   22.4360   20.5740 C   0  0  0  0  0
   14.6390   22.5940   21.6830 O   0  0  0  0  0
   15.8160   21.4270   19.0720 C   0  0  0  0  0
   16.5600   21.6380   17.8700 O   0  0  0  0  0
   14.9630   20.1670   18.9220 C   0  0  0  0  0
   12.8410   22.0940   20.4110 N   0  0  0  0  0
   11.9880   21.7670   21.5450 C   0  0  0  0  0
   11.3670   20.4140   21.3110 C   0  0  0  0  0
   10.9410   20.1160   20.1940 O   0  0  0  0  0
   10.8610   22.7870   21.7130 C   0  0  0  0  0
   11.3820   24.0740   22.0160 O   0  0  0  0  0
   11.3350   19.5940   22.3570 N   0  0  0  0  0
   10.5900   18.3430   22.3470 C   0  0  0  0  0
    9.2000   18.6490   22.8210 C   0  0  0  0  0
    9.0150   19.3190   23.8500 O   0  0  0  0  0
   11.2390   17.3240   23.2890 C   0  0  0  0  0
   12.6390   16.9420   22.8720 C   0  0  0  0  0
   13.0020   15.5680   23.3900 C   0  0  0  0  0
   13.1020   15.5810   24.8930 C   0  0  0  0  0
   14.2390   16.4140   25.3340 N   0  0  0  0  0
   14.1510   17.6930   26.0210 C   0  0  0  0  0
   13.0310   18.2560   26.0810 O   0  0  0  0  0
   15.3960   18.4460   26.3340 C   0  0  0  0  0
   15.3260   19.7320   26.8510 C   0  0  0  0  0
   16.4930   20.4260   27.1380 C   0  0  0  0  0
   17.7230   19.8300   26.9120 C   0  0  0  0  0
   19.3540   20.7940   27.3150 Br  0  0  0  0  0
   17.7930   18.5460   26.3940 C   0  0  0  0  0
   16.6280   17.8550   26.1060 C   0  0  0  0  0
    8.2160   18.1570   22.0760 N   0  0  0  0  0
    6.8140   18.4290   22.3600 C   0  0  0  0  0
    5.9600   17.1940   22.1550 C   0  0  0  0  0
    6.4280   16.1610   21.6570 O   0  0  0  0  0
    6.2380   19.5650   21.4850 C   0  0  0  0  0
    6.3220   19.2280   19.9970 C   0  0  0  0  0
    6.9510   20.8790   21.7620 C   0  0  0  0  0
    5.7000   20.3170   19.1100 C   0  0  0  0  0
    4.7810   17.2310   22.4870 O   0  0  0  0  0
   20.1741   27.4263   16.1245 H   0  0  0  0  0
   19.7412   26.1257   15.1770 H   0  0  0  0  0
   19.7164   27.6654   14.5402 H   0  0  0  0  0
   17.9943   28.3199   15.9955 H   0  0  0  0  0
   16.2188   27.2158   14.9676 H   0  0  0  0  0
   17.2316   25.7077   14.7041 H   0  0  0  0  0
   18.4075   29.2421   13.6638 H   0  0  0  0  0
   16.3944   24.6442   12.6262 H   0  0  0  0  0
   18.0604   27.5657    8.9155 H   0  0  0  0  0
   16.2798   23.9034   10.2710 H   0  0  0  0  0
   17.0951   25.3467    8.4447 H   0  0  0  0  0
   17.4119   25.7203   19.6071 H   0  0  0  0  0
   16.1605   27.6213   20.5361 H   0  0  0  0  0
   14.8727   26.4989   20.3722 H   0  0  0  0  0
   14.6119   28.8066   19.1009 H   0  0  0  0  0
   14.1776   27.3923   18.2317 H   0  0  0  0  0
   15.8383   28.3121   16.7417 H   0  0  0  0  0
   16.7518   28.9998   18.0066 H   0  0  0  0  0
   16.3338   23.9206   20.3311 H   0  0  0  0  0
   14.2912   22.7874   18.4491 H   0  0  0  0  0
   16.4842   21.2897   19.9222 H   0  0  0  0  0
   17.1181   20.8751   17.7024 H   0  0  0  0  0
   14.3859   20.0099   19.8332 H   0  0  0  0  0
   14.2849   20.2873   18.0771 H   0  0  0  0  0
   15.6123   19.3087   18.7491 H   0  0  0  0  0
   12.4510   22.0607   19.4691 H   0  0  0  0  0
   12.6030   21.7739   22.4449 H   0  0  0  0  0
   10.2185   22.4672   22.5334 H   0  0  0  0  0
   10.3006   22.8467   20.7800 H   0  0  0  0  0
   10.6575   24.6957   22.1166 H   0  0  0  0  0
   11.8517   19.8509   23.1981 H   0  0  0  0  0
   10.5807   17.9172   21.3437 H   0  0  0  0  0
   10.6294   16.4206   23.2713 H   0  0  0  0  0
   11.2997   17.7782   24.2780 H   0  0  0  0  0
   13.3381   17.6683   23.2865 H   0  0  0  0  0
   12.6889   16.9301   21.7832 H   0  0  0  0  0
   13.9657   15.2754   22.9732 H   0  0  0  0  0
   12.2275   14.8611   23.0925 H   0  0  0  0  0
   13.2558   14.5608   25.2445 H   0  0  0  0  0
   12.1814   15.9959   25.3036 H   0  0  0  0  0
   15.1748   16.0586   25.1382 H   0  0  0  0  0
   14.3563   20.1960   27.0313 H   0  0  0  0  0
   16.4419   21.4377   27.5403 H   0  0  0  0  0
   18.7625   18.0816   26.2139 H   0  0  0  0  0
   16.6804   16.8450   25.6995 H   0  0  0  0  0
    8.4510   17.5681   21.2770 H   0  0  0  0  0
    6.7831   18.7396   23.4044 H   0  0  0  0  0
    7.3566   16.2968   21.4548 H   0  0  0  0  0
    5.1860   19.6723   21.7494 H   0  0  0  0  0
    5.7698   18.3031   19.8304 H   0  0  0  0  0
    7.3755   19.1397   19.7316 H   0  0  0  0  0
    6.8240   21.1457   22.8112 H   0  0  0  0  0
    8.0124   20.7689   21.5397 H   0  0  0  0  0
    6.5260   21.6612   21.1330 H   0  0  0  0  0
    4.6479   20.4371   19.3682 H   0  0  0  0  0
    6.2247   21.2587   19.2712 H   0  0  0  0  0
    5.7876   20.0253   18.0634 H   0  0  0  0  0
  1  2  1  0  0  0
  2  3  1  0  0  0
  2  5  1  0  0  0
  3  4  2  0  0  0
  3 15  1  0  0  0
  5  6  1  0  0  0
  6  7  4  0  0  0
  6  8  4  0  0  0
  7  9  4  0  0  0
  8 10  4  0  0  0
  8 11  4  0  0  0
  9 10  4  0  0  0
 10 12  4  0  0  0
 11 13  4  0  0  0
 12 14  4  0  0  0
 13 14  4  0  0  0
 15 16  1  0  0  0
 15 21  1  0  0  0
 16 17  1  0  0  0
 16 19  1  0  0  0
 17 18  2  0  0  0
 17 22  1  0  0  0
 19 20  1  0  0  0
 20 21  1  0  0  0
 22 23  1  0  0  0
 23 24  1  0  0  0
 23 26  1  0  0  0
 24 25  2  0  0  0
 24 29  1  0  0  0
 26 27  1  0  0  0
 26 28  1  0  0  0
 29 30  1  0  0  0
 30 31  1  0  0  0
 30 33  1  0  0  0
 31 32  2  0  0  0
 31 35  1  0  0  0
 33 34  1  0  0  0
 35 36  1  0  0  0
 36 37  1  0  0  0
 36 39  1  0  0  0
 37 38  2  0  0  0
 37 53  1  0  0  0
 39 40  1  0  0  0
 40 41  1  0  0  0
 41 42  1  0  0  0
 42 43  1  0  0  0
 43 44  1  0  0  0
 44 45  2  0  0  0
 44 46  1  0  0  0
 46 47  4  0  0  0
 46 52  4  0  0  0
 47 48  4  0  0  0
 48 49  4  0  0  0
 49 50  1  0  0  0
 49 51  4  0  0  0
 51 52  4  0  0  0
 53 54  1  0  0  0
 54 55  1  0  0  0
 54 57  1  0  0  0
 55 56  1  0  0  0
 55 61  2  0  0  0
 57 58  1  0  0  0
 57 59  1  0  0  0
 58 60  1  0  0  0
  1 62  1  0  0  0
  1 63  1  0  0  0
  1 64  1  0  0  0
  2 65  1  0  0  0
  5 66  1  0  0  0
  5 67  1  0  0  0
  7 68  1  0  0  0
 11 69  1  0  0  0
 12 70  1  0  0  0
 13 71  1  0  0  0
 14 72  1  0  0  0
 16 73  1  0  0  0
 19 74  1  0  0  0
 19 75  1  0  0  0
 20 76  1  0  0  0
 20 77  1  0  0  0
 21 78  1  0  0  0
 21 79  1  0  0  0
 22 80  1  0  0  0
 23 81  1  0  0  0
 26 82  1  0  0  0
 27 83  1  0  0  0
 28 84  1  0  0  0
 28 85  1  0  0  0
 28 86  1  0  0  0
 29 87  1  0  0  0
 30 88  1  0  0  0
 33 89  1  0  0  0
 33 90  1  0  0  0
 34 91  1  0  0  0
 35 92  1  0  0  0
 36 93  1  0  0  0
 39 94  1  0  0  0
 39 95  1  0  0  0
 40 96  1  0  0  0
 40 97  1  0  0  0
 41 98  1  0  0  0
 41 99  1  0  0  0
 42100  1  0  0  0
 42101  1  0  0  0
 43102  1  0  0  0
 47103  1  0  0  0
 48104  1  0  0  0
 51105  1  0  0  0
 52106  1  0  0  0
 53107  1  0  0  0
 54108  1  0  0  0
 56109  1  0  0  0
 57110  1  0  0  0
 58111  1  0  0  0
 58112  1  0  0  0
 59113  1  0  0  0
 59114  1  0  0  0
 59115  1  0  0  0
 60116  1  0  0  0
 60117  1  0  0  0
 60118  1  0  0  0
M  END
$$$$
