### 
### Created by X-TOOL on Mon Sep 10 21:13:18 2018
### 

@<TRIPOS>MOLECULE
4nmv_ligand
  118   121     1     0     0
SMALL
GAST_HUCK


@<TRIPOS>ATOM
      1 N          19.5550   27.1080   15.3790 N.4       1 TRP         0.2388
      2 CA         18.1670   27.2610   15.8030 C.3       1 TRP         0.0693
      3 C          17.9230   26.4420   17.0630 C.2       1 TRP         0.2305
      4 O          18.5970   25.4440   17.3130 O.2       1 TRP        -0.3904
      5 CB         17.1940   26.7970   14.7190 C.3       1 TRP         0.0245
      6 CG         17.5300   27.2650   13.3320 C.2       1 TRP        -0.0386
      7 CD1        18.1070   28.4560   12.9710 C.2       1 TRP         0.0168
      8 CD2        17.3050   26.5420   12.1200 C.ar      1 TRP        -0.0213
      9 NE1        18.2500   28.5100   11.6010 N.pl3     1 TRP        -0.2890
     10 CE2        17.7700   27.3470   11.0580 C.ar      1 TRP         0.0603
     11 CE3        16.7620   25.2890   11.8280 C.ar      1 TRP        -0.0747
     12 CZ2        17.7000   26.9310    9.7250 C.ar      1 TRP        -0.0443
     13 CZ3        16.6990   24.8810   10.5090 C.ar      1 TRP        -0.0792
     14 CH2        17.1630   25.6990    9.4740 C.ar      1 TRP        -0.0768
     15 N          16.9530   26.8680   17.8710 N.am      1 PRO        -0.2470
     16 CA         16.5550   26.0760   19.0350 C.3       1 PRO         0.1339
     17 C          15.7600   24.8430   18.6230 C.2       1 PRO         0.2042
     18 O          15.1600   24.8150   17.5450 O.2       1 PRO        -0.3944
     19 CB         15.6280   27.0290   19.7920 C.3       1 PRO        -0.0104
     20 CG         15.0270   27.8760   18.7140 C.3       1 PRO        -0.0281
     21 CD         16.1710   28.1110   17.7600 C.3       1 PRO         0.0371
     22 N          15.7500   23.8470   19.4980 N.am      1 THR        -0.2613
     23 CA         14.9380   22.6520   19.3160 C.3       1 THR         0.1565
     24 C          14.1200   22.4360   20.5740 C.2       1 THR         0.2065
     25 O          14.6390   22.5940   21.6830 O.2       1 THR        -0.3943
     26 CB         15.8160   21.4270   19.0720 C.3       1 THR         0.0924
     27 OG1        16.5600   21.6380   17.8700 O.3       1 THR        -0.3874
     28 CG2        14.9630   20.1670   18.9220 C.3       1 THR        -0.0346
     29 N          12.8410   22.0940   20.4110 N.am      1 SER        -0.2615
     30 CA         11.9880   21.7670   21.5450 C.3       1 SER         0.1539
     31 C          11.3670   20.4140   21.3110 C.2       1 SER         0.2062
     32 O          10.9410   20.1160   20.1940 O.2       1 SER        -0.3943
     33 CB         10.8610   22.7870   21.7130 C.3       1 SER         0.0843
     34 OG         11.3820   24.0740   22.0160 O.3       1 SER        -0.3903
     35 N          11.3350   19.5940   22.3570 N.am      1 2KP        -0.2637
     36 CA         10.5900   18.3430   22.3470 C.3       1 2KP         0.1309
     37 C           9.2000   18.6490   22.8210 C.2       1 2KP         0.2033
     38 O           9.0150   19.3190   23.8500 O.2       1 2KP        -0.3944
     39 CB         11.2390   17.3240   23.2890 C.3       1 2KP        -0.0123
     40 CG         12.6390   16.9420   22.8720 C.3       1 2KP        -0.0470
     41 CD         13.0020   15.5680   23.3900 C.3       1 2KP        -0.0326
     42 CE         13.1020   15.5810   24.8930 C.3       1 2KP         0.0305
     43 NZ         14.2390   16.4140   25.3340 N.am      1 2KP        -0.2858
     44 C02        14.1510   17.6930   26.0210 C.2       1 2KP         0.2068
     45 O03        13.0310   18.2560   26.0810 O.2       1 2KP        -0.3835
     46 C04        15.3960   18.4460   26.3340 C.ar      1 2KP         0.0525
     47 C05        15.3260   19.7320   26.8510 C.ar      1 2KP        -0.0394
     48 C06        16.4930   20.4260   27.1380 C.ar      1 2KP        -0.0468
     49 C07        17.7230   19.8300   26.9120 C.ar      1 2KP         0.0173
     50 BR         19.3540   20.7940   27.3150 Br        1 2KP        -0.0461
     51 C09        17.7930   18.5460   26.3940 C.ar      1 2KP        -0.0468
     52 C10        16.6280   17.8550   26.1060 C.ar      1 2KP        -0.0394
     53 N           8.2160   18.1570   22.0760 N.am      1 ILE        -0.2692
     54 CA          6.8140   18.4290   22.3600 C.3       1 ILE         0.0969
     55 C           5.9600   17.1940   22.1550 C.2       1 ILE         0.0604
     56 O           6.4280   16.1610   21.6570 O.co2     1 ILE        -0.5666
     57 CB          6.2380   19.5650   21.4850 C.3       1 ILE        -0.0092
     58 CG1         6.3220   19.2280   19.9970 C.3       1 ILE        -0.0497
     59 CG2         6.9510   20.8790   21.7620 C.3       1 ILE        -0.0588
     60 CD1         5.7000   20.3170   19.1100 C.3       1 ILE        -0.0649
     61 OXT         4.7810   17.2310   22.4870 O.co2     1 ILE        -0.5666
     62 H          19.7133   27.6513   14.5448 H         1 TRP         0.2016
     63 H          19.7428   26.1363   15.1878 H         1 TRP         0.2016
     64 H          20.1676   27.4308   16.1115 H         1 TRP         0.2016
     65 H          17.9792   28.3232   16.0187 H         1 TRP         0.1114
     66 H          16.1922   27.1729   14.9741 H         1 TRP         0.0430
     67 H          17.1833   25.6971   14.7162 H         1 TRP         0.0430
     68 H          18.4072   29.2413   13.6631 H         1 TRP         0.0795
     69 H          18.6522   29.2966   11.0716 H         1 TRP         0.2216
     70 H          16.3964   24.6477   12.6218 H         1 TRP         0.0540
     71 H          18.0584   27.5622    8.9199 H         1 TRP         0.0541
     72 H          16.2821   23.9087   10.2723 H         1 TRP         0.0510
     73 H          17.0954   25.3486    8.4504 H         1 TRP         0.0530
     74 H          17.4265   25.7830   19.6389 H         1 PRO         0.0802
     75 H          16.1967   27.6459   20.5034 H         1 PRO         0.0313
     76 H          14.8487   26.4710   20.3318 H         1 PRO         0.0313
     77 H          14.6571   28.8274   19.1238 H         1 PRO         0.0287
     78 H          14.2024   27.3468   18.2140 H         1 PRO         0.0287
     79 H          15.8058   28.2583   16.7329 H         1 PRO         0.0524
     80 H          16.7682   28.9828   18.0655 H         1 PRO         0.0524
     81 H          16.3224   23.9192   20.3148 H         1 THR         0.1884
     82 H          14.2670   22.7937   18.4560 H         1 THR         0.0826
     83 H          16.5067   21.2981   19.9183 H         1 THR         0.0639
     84 H          17.1013   22.4128   17.9658 H         1 THR         0.2101
     85 H          15.6171   19.3000   18.7474 H         1 THR         0.0257
     86 H          14.2782   20.2871   18.0696 H         1 THR         0.0257
     87 H          14.3801   20.0073   19.8410 H         1 THR         0.0257
     88 H          12.4586   22.0614   19.4876 H         1 SER         0.1884
     89 H          12.5972   21.7449   22.4606 H         1 SER         0.0823
     90 H          10.2018   22.4636   22.5320 H         1 SER         0.0606
     91 H          10.2839   22.8432   20.7782 H         1 SER         0.0606
     92 H          11.9495   24.3590   21.3095 H         1 SER         0.2097
     93 H          11.8416   19.8458   23.1816 H         1 2KP         0.1883
     94 H          10.5603   17.9325   21.3269 H         1 2KP         0.0800
     95 H          10.6181   16.4161   23.3046 H         1 2KP         0.0312
     96 H          11.2803   17.7574   24.2992 H         1 2KP         0.0312
     97 H          13.3487   17.6783   23.2770 H         1 2KP         0.0268
     98 H          12.6995   16.9400   21.7737 H         1 2KP         0.0268
     99 H          13.9704   15.2651   22.9653 H         1 2KP         0.0285
    100 H          12.2269   14.8495   23.0849 H         1 2KP         0.0285
    101 H          13.2470   14.5521   25.2541 H         1 2KP         0.0519
    102 H          12.1711   15.9893   25.3132 H         1 2KP         0.0519
    103 H          15.1565   16.0656   25.1421 H         1 2KP         0.1845
    104 H          14.3617   20.1935   27.0303 H         1 2KP         0.0675
    105 H          16.4422   21.4322   27.5381 H         1 2KP         0.0655
    106 H          18.7572   18.0841   26.2149 H         1 2KP         0.0655
    107 H          16.6801   16.8506   25.7017 H         1 2KP         0.0675
    108 H           8.4463   17.5796   21.2927 H         1 ILE         0.1875
    109 H           6.7402   18.7344   23.4142 H         1 ILE         0.0729
    110 H           5.1769   19.6882   21.7473 H         1 ILE         0.0338
    111 H           5.7897   18.2819   19.8192 H         1 ILE         0.0267
    112 H           7.3804   19.1107   19.7213 H         1 ILE         0.0267
    113 H           6.8851   21.1128   22.8348 H         1 ILE         0.0234
    114 H           6.4758   21.6835   21.1816 H         1 ILE         0.0234
    115 H           8.0079   20.7913   21.4701 H         1 ILE         0.0234
    116 H           5.7878   20.0237   18.0535 H         1 ILE         0.0230
    117 H           6.2287   21.2679   19.2717 H         1 ILE         0.0230
    118 H           4.6381   20.4391   19.3696 H         1 ILE         0.0230
@<TRIPOS>BOND
     1    1    2 1  
     2    2    3 1  
     3    2    5 1  
     4    3    4 2  
     5    3   15 am 
     6    5    6 1  
     7    6    7 2  
     8    6    8 1  
     9    7    9 1  
    10    8   10 ar 
    11    8   11 ar 
    12    9   10 1  
    13   10   12 ar 
    14   11   13 ar 
    15   12   14 ar 
    16   13   14 ar 
    17   15   16 1  
    18   15   21 1  
    19   16   17 1  
    20   16   19 1  
    21   17   18 2  
    22   17   22 am 
    23   19   20 1  
    24   20   21 1  
    25   22   23 1  
    26   23   24 1  
    27   23   26 1  
    28   24   25 2  
    29   24   29 am 
    30   26   27 1  
    31   26   28 1  
    32   29   30 1  
    33   30   31 1  
    34   30   33 1  
    35   31   32 2  
    36   31   35 am 
    37   33   34 1  
    38   35   36 1  
    39   36   37 1  
    40   36   39 1  
    41   37   38 2  
    42   37   53 am 
    43   39   40 1  
    44   40   41 1  
    45   41   42 1  
    46   42   43 1  
    47   43   44 am 
    48   44   45 2  
    49   44   46 1  
    50   46   47 ar 
    51   46   52 ar 
    52   47   48 ar 
    53   48   49 ar 
    54   49   50 1  
    55   49   51 ar 
    56   51   52 ar 
    57   53   54 1  
    58   54   55 1  
    59   54   57 1  
    60   55   56 ar 
    61   55   61 ar 
    62   57   58 1  
    63   57   59 1  
    64   58   60 1  
    65    1   62 1  
    66    1   63 1  
    67    1   64 1  
    68    2   65 1  
    69    5   66 1  
    70    5   67 1  
    71    7   68 1  
    72    9   69 1  
    73   11   70 1  
    74   12   71 1  
    75   13   72 1  
    76   14   73 1  
    77   16   74 1  
    78   19   75 1  
    79   19   76 1  
    80   20   77 1  
    81   20   78 1  
    82   21   79 1  
    83   21   80 1  
    84   22   81 1  
    85   23   82 1  
    86   26   83 1  
    87   27   84 1  
    88   28   85 1  
    89   28   86 1  
    90   28   87 1  
    91   29   88 1  
    92   30   89 1  
    93   33   90 1  
    94   33   91 1  
    95   34   92 1  
    96   35   93 1  
    97   36   94 1  
    98   39   95 1  
    99   39   96 1  
   100   40   97 1  
   101   40   98 1  
   102   41   99 1  
   103   41  100 1  
   104   42  101 1  
   105   42  102 1  
   106   43  103 1  
   107   47  104 1  
   108   48  105 1  
   109   51  106 1  
   110   52  107 1  
   111   53  108 1  
   112   54  109 1  
   113   57  110 1  
   114   58  111 1  
   115   58  112 1  
   116   59  113 1  
   117   59  114 1  
   118   59  115 1  
   119   60  116 1  
   120   60  117 1  
   121   60  118 1  
@<TRIPOS>SUBSTRUCTURE
     1 TRP         1

