3x00_ligand
  -I-interpret- 

 51 52  0  0  0  0  0  0  0  0999 V2000
   24.4080  -67.8760    6.8310 C   0  0  0  0  0
   23.3380  -68.2730    6.3330 O   0  0  0  0  0
   25.7420  -68.5240    6.6600 C   0  0  0  0  0
   25.6780  -69.8230    7.3980 C   0  0  0  0  0
   26.8840  -70.5910    7.0210 C   0  0  0  0  0
   26.9920  -71.7670    7.9090 C   0  0  0  0  0
   28.1510  -72.6200    7.3570 C   0  0  0  0  0
   28.2910  -73.8220    8.1080 N   0  0  0  0  0
   27.5310  -74.8930    8.0700 C   0  0  0  0  0
   26.5160  -74.9820    7.3420 O   0  0  0  0  0
   27.9110  -76.1240    8.9110 C   0  0  0  0  0
   26.7910  -76.6320    9.8020 C   0  0  0  0  0
   26.4060  -75.7500   10.9450 C   0  0  0  0  0
   25.2300  -76.3650   11.6790 C   0  0  0  0  0
   24.8150  -75.5170   12.9040 C   0  0  0  0  0
   26.0280  -75.6230   14.2710 S   0  0  0  0  0
   24.8060  -74.8890   15.3020 C   0  0  0  0  0
   23.4200  -75.3770   15.0060 C   0  0  0  0  0
   23.4340  -75.8830   13.5340 C   0  0  0  0  0
   23.2950  -77.2810   13.5890 N   0  0  0  0  0
   22.9360  -77.6690   14.8850 C   0  0  0  0  0
   22.9680  -78.9900   15.2220 N   0  0  0  0  0
   23.2900  -76.6480   15.7010 N   0  0  0  0  0
   24.3671  -66.9767    7.4455 H   0  0  0  0  0
   26.5377  -67.8904    7.0517 H   0  0  0  0  0
   25.9669  -68.6839    5.6055 H   0  0  0  0  0
   24.7730  -70.3717    7.1373 H   0  0  0  0  0
   25.6474  -69.6550    8.4745 H   0  0  0  0  0
   27.7700  -69.9648    7.1257 H   0  0  0  0  0
   26.8073  -70.9158    5.9833 H   0  0  0  0  0
   26.0609  -72.3335    7.9248 H   0  0  0  0  0
   27.1831  -71.4648    8.9387 H   0  0  0  0  0
   29.0761  -72.0483    7.4300 H   0  0  0  0  0
   27.9384  -72.8751    6.3188 H   0  0  0  0  0
   29.0786  -73.8555    8.7553 H   0  0  0  0  0
   28.7342  -75.8296    9.5620 H   0  0  0  0  0
   28.1609  -76.9259    8.2163 H   0  0  0  0  0
   27.1505  -77.5619   10.2426 H   0  0  0  0  0
   25.9085  -76.7101    9.1670 H   0  0  0  0  0
   26.1268  -74.7659   10.5685 H   0  0  0  0  0
   27.2496  -75.6486   11.6278 H   0  0  0  0  0
   25.5228  -77.3548   12.0292 H   0  0  0  0  0
   24.3845  -76.4149   10.9930 H   0  0  0  0  0
   24.7596  -74.5155   12.4773 H   0  0  0  0  0
   24.8243  -73.8137   15.1248 H   0  0  0  0  0
   25.0384  -75.1547   16.3333 H   0  0  0  0  0
   22.6805  -74.6120   15.2428 H   0  0  0  0  0
   22.6377  -75.4371   12.9380 H   0  0  0  0  0
   23.4346  -77.9163   12.8033 H   0  0  0  0  0
   23.2518  -79.6856   14.5321 H   0  0  0  0  0
   23.4494  -76.7591   16.7023 H   0  0  0  0  0
  1  2  2  0  0  0
  1  3  1  0  0  0
  3  4  1  0  0  0
  4  5  1  0  0  0
  5  6  1  0  0  0
  6  7  1  0  0  0
  7  8  1  0  0  0
  8  9  1  0  0  0
  9 10  2  0  0  0
  9 11  1  0  0  0
 11 12  1  0  0  0
 12 13  1  0  0  0
 13 14  1  0  0  0
 14 15  1  0  0  0
 15 16  1  0  0  0
 15 19  1  0  0  0
 16 17  1  0  0  0
 17 18  1  0  0  0
 18 19  1  0  0  0
 18 23  1  0  0  0
 19 20  1  0  0  0
 20 21  1  0  0  0
 21 22  2  0  0  0
 21 23  1  0  0  0
  1 24  1  0  0  0
  3 25  1  0  0  0
  3 26  1  0  0  0
  4 27  1  0  0  0
  4 28  1  0  0  0
  5 29  1  0  0  0
  5 30  1  0  0  0
  6 31  1  0  0  0
  6 32  1  0  0  0
  7 33  1  0  0  0
  7 34  1  0  0  0
  8 35  1  0  0  0
 11 36  1  0  0  0
 11 37  1  0  0  0
 12 38  1  0  0  0
 12 39  1  0  0  0
 13 40  1  0  0  0
 13 41  1  0  0  0
 14 42  1  0  0  0
 14 43  1  0  0  0
 15 44  1  0  0  0
 17 45  1  0  0  0
 17 46  1  0  0  0
 18 47  1  0  0  0
 19 48  1  0  0  0
 20 49  1  0  0  0
 22 50  1  0  0  0
 23 51  1  0  0  0
M  END
$$$$
