5one_ligand
  -I-interpret- 

 69 73  0  0  0  0  0  0  0  0999 V2000
   28.4800  -10.4380   -4.8470 C   0  0  0  0  0
   30.6400   -9.5250   -5.6940 C   0  0  0  0  0
   29.5150   -8.6590   -3.6750 C   0  0  0  0  0
   30.6820   -8.6720   -3.0130 N   0  0  0  0  0
   30.7380   -8.0050   -1.8490 C   0  0  0  0  0
   33.2070   -8.5700   -1.4160 C   0  0  0  0  0
   31.9300   -7.9870   -1.1640 N   0  0  0  0  0
   34.2550   -8.3340   -0.5290 C   0  0  0  0  0
   35.5020   -8.8980   -0.7520 C   0  0  0  0  0
   35.7210   -9.7010   -1.8660 C   0  0  0  0  0
   38.2070   -9.9450   -1.8400 C   0  0  0  0  0
   36.9470  -10.3650   -2.1260 N   0  0  0  0  0
   39.2730  -10.9870   -1.9590 C   0  0  0  0  0
   39.1530  -12.1610   -1.2220 C   0  0  0  0  0
   40.0620  -13.1920   -1.3790 C   0  0  0  0  0
   42.0220  -14.1370   -2.5260 N   0  0  0  0  0
   25.3790   -8.6230   -5.0320 O   0  0  0  0  0
   26.4780   -8.8380   -4.5550 C   0  0  0  0  0
   27.1020  -10.1920   -4.7100 C   0  0  0  0  0
   26.2180  -11.2760   -4.7470 C   0  0  0  0  0
   27.1320   -7.8460   -3.8500 N   0  0  0  0  0
   26.4290   -6.5630   -3.8000 C   0  0  0  0  0
   28.3790   -7.9700   -3.1690 C   0  0  0  0  0
   29.4270   -9.3730   -4.8840 N   0  0  0  0  0
   28.9340  -11.7510   -4.9750 C   0  0  0  0  0
   28.0310  -12.8000   -4.9990 C   0  0  0  0  0
   26.6650  -12.5830   -4.9040 C   0  0  0  0  0
   25.6880  -13.7250   -5.0340 C   0  0  0  0  0
   28.5650   -7.3430   -1.9370 C   0  0  0  0  0
   29.7290   -7.3350   -1.2710 N   0  0  0  0  0
   33.4340   -9.3680   -2.5330 C   0  0  0  0  0
   34.6810   -9.9220   -2.7580 C   0  0  0  0  0
   38.4810   -8.7920   -1.5120 O   0  0  0  0  0
   40.3490  -10.8550   -2.8360 C   0  0  0  0  0
   41.2620  -11.8840   -2.9960 C   0  0  0  0  0
   41.1140  -13.0720   -2.2830 C   0  0  0  0  0
   42.0360  -15.3770   -1.9690 C   0  0  0  0  0
   41.5990  -15.6370   -0.8490 O   0  0  0  0  0
   42.6420  -16.4270   -2.8640 C   0  0  0  0  0
   44.1080  -16.7250   -2.5390 C   0  0  0  0  0
   31.0123   -8.5403   -5.9767 H   0  0  0  0  0
   31.3994  -10.0492   -5.1138 H   0  0  0  0  0
   30.4067  -10.0981   -6.5914 H   0  0  0  0  0
   31.8936   -7.4467   -0.2996 H   0  0  0  0  0
   34.0939   -7.7027    0.3449 H   0  0  0  0  0
   36.3149   -8.7109   -0.0504 H   0  0  0  0  0
   36.8734  -11.2725   -2.5858 H   0  0  0  0  0
   38.3329  -12.2697   -0.5123 H   0  0  0  0  0
   39.9539  -14.1037   -0.7914 H   0  0  0  0  0
   42.7582  -13.9469   -3.2059 H   0  0  0  0  0
   25.1483  -11.0904   -4.6500 H   0  0  0  0  0
   26.2876   -6.1879   -4.8136 H   0  0  0  0  0
   25.4584   -6.7003   -3.3233 H   0  0  0  0  0
   27.0193   -5.8488   -3.2259 H   0  0  0  0  0
   30.0023  -11.9513   -5.0563 H   0  0  0  0  0
   28.4026  -13.8202   -5.0948 H   0  0  0  0  0
   25.0665  -13.7733   -4.1399 H   0  0  0  0  0
   25.0572  -13.5641   -5.9082 H   0  0  0  0  0
   26.2368  -14.6599   -5.1475 H   0  0  0  0  0
   27.7143   -6.8293   -1.4892 H   0  0  0  0  0
   32.6229   -9.5579   -3.2360 H   0  0  0  0  0
   34.8483  -10.5367   -3.6424 H   0  0  0  0  0
   40.4729   -9.9317   -3.4019 H   0  0  0  0  0
   42.1000  -11.7640   -3.6827 H   0  0  0  0  0
   42.6003  -16.0527   -3.8869 H   0  0  0  0  0
   42.0782  -17.3487   -2.7199 H   0  0  0  0  0
   44.6965  -15.8147   -2.6537 H   0  0  0  0  0
   44.1858  -17.0825   -1.5122 H   0  0  0  0  0
   44.4818  -17.4892   -3.2205 H   0  0  0  0  0
 19  1  4  0  0  0
  1 24  1  0  0  0
  1 25  4  0  0  0
 24  2  1  0  0  0
  3  4  4  0  0  0
  3 23  4  0  0  0
 24  3  1  0  0  0
  4  5  4  0  0  0
  5  7  1  0  0  0
  5 30  4  0  0  0
  7  6  1  0  0  0
  6  8  4  0  0  0
  6 31  4  0  0  0
  8  9  4  0  0  0
  9 10  4  0  0  0
 10 12  1  0  0  0
 10 32  4  0  0  0
 12 11  1  0  0  0
 11 13  1  0  0  0
 11 33  2  0  0  0
 13 14  4  0  0  0
 13 34  4  0  0  0
 14 15  4  0  0  0
 15 36  4  0  0  0
 36 16  1  0  0  0
 16 37  1  0  0  0
 18 17  2  0  0  0
 18 19  1  0  0  0
 18 21  1  0  0  0
 19 20  4  0  0  0
 20 27  4  0  0  0
 21 22  1  0  0  0
 21 23  1  0  0  0
 23 29  4  0  0  0
 25 26  4  0  0  0
 26 27  4  0  0  0
 27 28  1  0  0  0
 29 30  4  0  0  0
 31 32  4  0  0  0
 34 35  4  0  0  0
 35 36  4  0  0  0
 37 38  2  0  0  0
 37 39  1  0  0  0
 39 40  1  0  0  0
  2 41  1  0  0  0
  2 42  1  0  0  0
  2 43  1  0  0  0
  7 44  1  0  0  0
  8 45  1  0  0  0
  9 46  1  0  0  0
 12 47  1  0  0  0
 14 48  1  0  0  0
 15 49  1  0  0  0
 16 50  1  0  0  0
 20 51  1  0  0  0
 22 52  1  0  0  0
 22 53  1  0  0  0
 22 54  1  0  0  0
 25 55  1  0  0  0
 26 56  1  0  0  0
 28 57  1  0  0  0
 28 58  1  0  0  0
 28 59  1  0  0  0
 29 60  1  0  0  0
 31 61  1  0  0  0
 32 62  1  0  0  0
 34 63  1  0  0  0
 35 64  1  0  0  0
 39 65  1  0  0  0
 39 66  1  0  0  0
 40 67  1  0  0  0
 40 68  1  0  0  0
 40 69  1  0  0  0
M  END
$$$$
