3pgl_ligand
  -I-interpret- 

 46 48  0  0  0  0  0  0  0  0999 V2000
    3.4510   11.3720   -3.1790 C   0  0  0  0  0
    3.1650   11.7250   -4.4860 C   0  0  0  0  0
    3.8770   12.8740   -5.1010 C   0  0  0  0  0
    4.8200   13.5610   -4.3510 C   0  0  0  0  0
    5.0840   13.1730   -3.0410 C   0  0  0  0  0
    4.4040   12.1030   -2.4750 C   0  0  0  0  0
    3.4150   13.0050   -6.3620 N   0  0  0  0  0
    2.5100   12.0090   -6.4990 C   0  0  0  0  0
    2.3160   11.2310   -5.4170 N   0  0  0  0  0
    1.6520   11.8460   -7.9610 S   0  0  0  0  0
    0.7200   10.4400   -8.3270 C   0  0  0  0  0
    0.5200    9.2660   -7.3910 C   0  0  0  0  0
    0.5800    8.0950   -8.0410 N   0  0  0  0  0
    0.4320    6.9230   -7.4130 C   0  0  0  0  0
    0.1710    6.8500   -6.0490 C   0  0  0  0  0
    0.0730    8.0370   -5.3300 C   0  0  0  0  0
    0.2430    9.2710   -5.9990 C   0  0  0  0  0
    0.6010   12.9330   -7.9940 O   0  0  0  0  0
   -0.1850    7.9650   -3.9690 O   0  0  0  0  0
   -1.4220    7.4430   -3.4690 C   0  0  0  0  0
   -2.4260    8.5890   -3.4360 C   0  0  0  0  0
   -3.7950    8.1420   -2.9570 C   0  0  0  0  0
   -4.7430    8.9200   -3.6980 O   0  0  0  0  0
   -5.8490    8.1420   -4.1630 C   0  0  0  0  0
    0.1340   10.5440   -5.1780 C   0  0  0  0  0
    2.9377   10.5339   -2.7076 H   0  0  0  0  0
    5.3543   14.4048   -4.7877 H   0  0  0  0  0
    5.8289   13.7122   -2.4558 H   0  0  0  0  0
    4.6238   11.8258   -1.4440 H   0  0  0  0  0
    1.2839    9.9926   -9.1455 H   0  0  0  0  0
   -0.2886   10.8443   -8.4132 H   0  0  0  0  0
    0.5184    5.9999   -7.9862 H   0  0  0  0  0
    0.0462    5.8863   -5.5553 H   0  0  0  0  0
    0.0991   12.8666   -8.8097 H   0  0  0  0  0
   -1.2840    7.0295   -2.4700 H   0  0  0  0  0
   -1.7830    6.6397   -4.1113 H   0  0  0  0  0
   -2.5319    8.9750   -4.4498 H   0  0  0  0  0
   -2.0550    9.3437   -2.7426 H   0  0  0  0  0
   -3.9088    8.2963   -1.8840 H   0  0  0  0  0
   -3.9433    7.0749   -3.1223 H   0  0  0  0  0
   -5.4845    7.3479   -4.8146 H   0  0  0  0  0
   -6.3679    7.7044   -3.3101 H   0  0  0  0  0
   -6.5347    8.7827   -4.7174 H   0  0  0  0  0
    1.0762   11.0896   -5.2292 H   0  0  0  0  0
   -0.6687   11.1643   -5.5767 H   0  0  0  0  0
   -0.0835   10.2885   -4.1409 H   0  0  0  0  0
  1  2  4  0  0  0
  1  6  4  0  0  0
  2  3  4  0  0  0
  2  9  4  0  0  0
  3  4  4  0  0  0
  3  7  4  0  0  0
  4  5  4  0  0  0
  5  6  4  0  0  0
  7  8  4  0  0  0
  8  9  4  0  0  0
  8 10  1  0  0  0
 10 11  1  0  0  0
 10 18  1  0  0  0
 11 12  1  0  0  0
 12 13  4  0  0  0
 12 17  4  0  0  0
 13 14  4  0  0  0
 14 15  4  0  0  0
 15 16  4  0  0  0
 16 17  4  0  0  0
 16 19  1  0  0  0
 17 25  1  0  0  0
 19 20  1  0  0  0
 20 21  1  0  0  0
 21 22  1  0  0  0
 22 23  1  0  0  0
 23 24  1  0  0  0
  1 26  1  0  0  0
  4 27  1  0  0  0
  5 28  1  0  0  0
  6 29  1  0  0  0
 11 30  1  0  0  0
 11 31  1  0  0  0
 14 32  1  0  0  0
 15 33  1  0  0  0
 18 34  1  0  0  0
 20 35  1  0  0  0
 20 36  1  0  0  0
 21 37  1  0  0  0
 21 38  1  0  0  0
 22 39  1  0  0  0
 22 40  1  0  0  0
 24 41  1  0  0  0
 24 42  1  0  0  0
 24 43  1  0  0  0
 25 44  1  0  0  0
 25 45  1  0  0  0
 25 46  1  0  0  0
M  END
$$$$
