2ow6_ligand
  -I-interpret- 

 27 28  0  0  0  0  0  0  0  0999 V2000
   31.8550   67.3780    5.7790 O   0  0  0  0  0
   31.7270   66.9850    7.1530 C   0  0  0  0  0
   30.9160   65.7060    7.2110 C   0  0  0  0  0
   29.4730   65.7890    6.7310 C   0  0  0  0  0
   28.9260   64.4680    6.8110 O   0  0  0  0  0
   28.5620   66.7080    7.5720 C   0  0  0  0  0
   28.5310   66.3400    9.0540 C   0  0  0  0  0
   29.8920   66.4390    9.7390 C   0  0  0  0  0
   31.0680   65.3100    8.9600 S   0  0  0  0  0
   32.6790   66.0660    9.2080 C   0  0  0  0  0
   33.0380   66.7310    7.8710 C   0  0  0  0  0
   33.9040   65.8570    7.1340 O   0  0  0  0  0
   30.9821   67.5172    5.4045 H   0  0  0  0  0
   31.2506   67.8240    7.6601 H   0  0  0  0  0
   31.2827   64.9474    6.5195 H   0  0  0  0  0
   29.5002   66.2080    5.7251 H   0  0  0  0  0
   29.4695   63.8662    6.2971 H   0  0  0  0  0
   27.5474   66.6062    7.1870 H   0  0  0  0  0
   28.9553   67.7215    7.4934 H   0  0  0  0  0
   28.2045   65.3025    9.1256 H   0  0  0  0  0
   27.8638   67.0442    9.5510 H   0  0  0  0  0
   29.7825   66.1702   10.7896 H   0  0  0  0  0
   30.2636   67.4596    9.6473 H   0  0  0  0  0
   33.4250   65.3253    9.4959 H   0  0  0  0  0
   32.6555   66.7934   10.0195 H   0  0  0  0  0
   33.5709   67.6735    7.9969 H   0  0  0  0  0
   34.1327   66.2666    6.2964 H   0  0  0  0  0
  1  2  1  0  0  0
  2  3  1  0  0  0
  2 11  1  0  0  0
  3  4  1  0  0  0
  3  9  1  0  0  0
  4  5  1  0  0  0
  4  6  1  0  0  0
  6  7  1  0  0  0
  7  8  1  0  0  0
  8  9  1  0  0  0
  9 10  1  0  0  0
 10 11  1  0  0  0
 11 12  1  0  0  0
  1 13  1  0  0  0
  2 14  1  0  0  0
  3 15  1  0  0  0
  4 16  1  0  0  0
  5 17  1  0  0  0
  6 18  1  0  0  0
  6 19  1  0  0  0
  7 20  1  0  0  0
  7 21  1  0  0  0
  8 22  1  0  0  0
  8 23  1  0  0  0
 10 24  1  0  0  0
 10 25  1  0  0  0
 11 26  1  0  0  0
 12 27  1  0  0  0
M  END
$$$$
