5ai0_ligand
  -I-interpret- 

 19 20  0  0  0  0  0  0  0  0999 V2000
   13.3810   14.5180   27.4710 C   0  0  0  0  0
   12.3990   14.4430   28.5050 C   0  0  0  0  0
   13.6290   13.4070   26.6450 C   0  0  0  0  0
   11.6770   13.2690   28.6580 C   0  0  0  0  0
   12.8990   12.2240   26.8050 C   0  0  0  0  0
   11.9120   12.1550   27.8410 C   0  0  0  0  0
   11.1430   10.9480   28.0820 C   0  0  0  0  0
   11.6770    9.6030   28.2800 C   0  0  0  0  0
    9.7770   10.9230   28.1550 N   0  0  0  0  0
   10.6110    8.7880   28.4700 N   0  0  0  0  0
   13.0300    9.2580   28.2600 N   0  0  0  0  0
    9.4720    9.5970   28.3840 O   0  0  0  0  0
   13.9412   15.4409   27.3211 H   0  0  0  0  0
   12.2201   15.2937   29.1625 H   0  0  0  0  0
   14.3965   13.4680   25.8735 H   0  0  0  0  0
   10.9101   13.2115   29.4305 H   0  0  0  0  0
   13.0783   11.3695   26.1525 H   0  0  0  0  0
   13.7368    9.9751   28.0967 H   0  0  0  0  0
   13.3115    8.2889   28.4087 H   0  0  0  0  0
  1  2  4  0  0  0
  1  3  4  0  0  0
  2  4  4  0  0  0
  3  5  4  0  0  0
  4  6  4  0  0  0
  5  6  4  0  0  0
  6  7  1  0  0  0
  7  8  4  0  0  0
  7  9  4  0  0  0
  8 10  4  0  0  0
  8 11  1  0  0  0
  9 12  4  0  0  0
 10 12  4  0  0  0
  1 13  1  0  0  0
  2 14  1  0  0  0
  3 15  1  0  0  0
  4 16  1  0  0  0
  5 17  1  0  0  0
 11 18  1  0  0  0
 11 19  1  0  0  0
M  END
$$$$
