### 
### Created by X-TOOL on Mon Sep 10 21:13:30 2018
### 

@<TRIPOS>MOLECULE
5mnr_ligand
   61    61     1     0     0
SMALL
GAST_HUCK


@<TRIPOS>ATOM
      1 C10         8.4660   42.6530   -5.4980 C.2       1 JC2         0.0603
      2 C11        12.1420   40.0280   -6.8230 C.3       1 JC2         0.1132
      3 C12        12.8240   40.3660   -9.1820 C.2       1 JC2         0.3229
      4 C13        13.7880   40.3360  -11.3650 C.3       1 JC2         0.1113
      5 C14        15.3050   40.4860  -11.4950 C.ar      1 JC2        -0.0130
      6 C15        15.9740   39.8800  -12.5510 C.ar      1 JC2        -0.0578
      7 C16        17.3600   40.0010  -12.6890 C.ar      1 JC2        -0.0685
      8 C19        16.0510   41.2160  -10.5830 C.ar      1 JC2        -0.0578
      9 O01        12.4320   37.4110   -6.1040 O.co2     1 JC2        -0.6057
     10 P01        11.4740   38.5630   -5.9680 P.3       1 JC2         0.0870
     11 N01        11.2350   39.0620   -4.3980 N.am      1 JC2        -0.2736
     12 C01        10.0810   38.6280   -3.6120 C.3       1 JC2         0.1229
     13 C02        10.4540   38.6620   -2.1340 C.3       1 JC2        -0.0136
     14 C03         9.3790   38.1220   -1.2020 C.3       1 JC2        -0.0429
     15 C04         9.6700   38.5330    0.2290 C.3       1 JC2        -0.0625
     16 C05         9.2370   36.6040   -1.3540 C.3       1 JC2        -0.0625
     17 C06         8.8660   39.4970   -3.8620 C.2       1 JC2         0.1994
     18 N02         9.1670   40.8370   -4.0590 N.am      1 JC2        -0.2696
     19 C07         8.1180   41.8140   -4.2790 C.3       1 JC2         0.0992
     20 O02         7.5550   43.3850   -5.9670 O.co2     1 JC2        -0.5666
     21 O03         9.6180   42.5930   -5.9930 O.co2     1 JC2        -0.5666
     22 O04         7.7440   39.0680   -3.8230 O.2       1 JC2        -0.3949
     23 O05        10.1100   38.2090   -6.5320 O.co2     1 JC2        -0.6057
     24 N04        12.8010   39.5950   -8.0290 N.am      1 JC2        -0.2448
     25 O06        13.4890   39.6670  -10.1630 O.3       1 JC2        -0.2506
     26 C17        18.0760   40.7680  -11.7810 C.ar      1 JC2        -0.0687
     27 C18        17.4080   41.3680  -10.7210 C.ar      1 JC2        -0.0685
     28 O07        12.3680   41.4540   -9.2830 O.2       1 JC2        -0.3774
     29 C08         7.8590   42.6460   -3.0340 C.3       1 JC2         0.0223
     30 C09         9.0750   43.4530   -2.6480 C.3       1 JC2        -0.0317
     31 N03         8.7750   44.4970   -1.6780 N.4       1 JC2         0.2187
     32 H1         12.8634   40.5413   -6.1703 H         1 JC2         0.0743
     33 H2         11.3217   40.7160   -7.0754 H         1 JC2         0.0743
     34 H3         13.4018   39.7546  -12.2152 H         1 JC2         0.0776
     35 H4         13.3194   41.3311  -11.3582 H         1 JC2         0.0776
     36 H5         15.4131   39.3048  -13.2788 H         1 JC2         0.0557
     37 H6         17.8726   39.4982  -13.5011 H         1 JC2         0.0599
     38 H7         15.5503   41.6782   -9.7400 H         1 JC2         0.0557
     39 H8         11.9019   39.6782   -3.9791 H         1 JC2         0.1669
     40 H9          9.8319   37.5946   -3.8948 H         1 JC2         0.0753
     41 H10        10.6587   39.7061   -1.8547 H         1 JC2         0.0311
     42 H11        11.3641   38.0600   -1.9948 H         1 JC2         0.0311
     43 H12         8.4196   38.5757   -1.4915 H         1 JC2         0.0298
     44 H13         8.8861   38.1364    0.8910 H         1 JC2         0.0232
     45 H14         9.6881   39.6306    0.2988 H         1 JC2         0.0232
     46 H15        10.6467   38.1299    0.5349 H         1 JC2         0.0232
     47 H16         9.0274   36.3588   -2.4057 H         1 JC2         0.0232
     48 H17         8.4095   36.2481   -0.7227 H         1 JC2         0.0232
     49 H18        10.1721   36.1153   -1.0429 H         1 JC2         0.0232
     50 H19        10.1219   41.1337   -4.0491 H         1 JC2         0.1875
     51 H20         7.1892   41.2692   -4.5038 H         1 JC2         0.0728
     52 H21        13.2587   38.7059   -8.0350 H         1 JC2         0.1884
     53 H22        19.1459   40.8977  -11.8976 H         1 JC2         0.0559
     54 H23        17.9610   41.9588   -9.9997 H         1 JC2         0.0599
     55 H24         7.5965   41.9747   -2.2031 H         1 JC2         0.0358
     56 H25         7.0217   43.3320   -3.2297 H         1 JC2         0.0358
     57 H26         9.4871   43.9225   -3.5534 H         1 JC2         0.0815
     58 H27         9.8238   42.7744   -2.2135 H         1 JC2         0.0815
     59 H28         9.6186   45.0025   -1.4568 H         1 JC2         0.1994
     60 H29         8.4037   44.0795   -0.8390 H         1 JC2         0.1994
     61 H30         8.0952   45.1316   -2.0668 H         1 JC2         0.1994
@<TRIPOS>BOND
     1   19    1 1  
     2    1   20 ar 
     3    1   21 ar 
     4   10    2 1  
     5    2   24 1  
     6   24    3 am 
     7    3   25 1  
     8    3   28 2  
     9    4    5 1  
    10   25    4 1  
    11    5    6 ar 
    12    5    8 ar 
    13    6    7 ar 
    14    7   26 ar 
    15    8   27 ar 
    16   10    9 ar 
    17   11   10 am 
    18   10   23 ar 
    19   12   11 1  
    20   12   13 1  
    21   17   12 1  
    22   13   14 1  
    23   14   15 1  
    24   14   16 1  
    25   18   17 am 
    26   17   22 2  
    27   18   19 1  
    28   19   29 1  
    29   26   27 ar 
    30   29   30 1  
    31   30   31 1  
    32    2   32 1  
    33    2   33 1  
    34    4   34 1  
    35    4   35 1  
    36    6   36 1  
    37    7   37 1  
    38    8   38 1  
    39   11   39 1  
    40   12   40 1  
    41   13   41 1  
    42   13   42 1  
    43   14   43 1  
    44   15   44 1  
    45   15   45 1  
    46   15   46 1  
    47   16   47 1  
    48   16   48 1  
    49   16   49 1  
    50   18   50 1  
    51   19   51 1  
    52   24   52 1  
    53   26   53 1  
    54   27   54 1  
    55   29   55 1  
    56   29   56 1  
    57   30   57 1  
    58   30   58 1  
    59   31   59 1  
    60   31   60 1  
    61   31   61 1  
@<TRIPOS>SUBSTRUCTURE
     1 JC2         1

