3cso_ligand
  -I-interpret- 

 65 69  0  0  0  0  0  0  0  0999 V2000
   28.4620    4.6460   31.1020 C   0  0  0  0  0
   27.5140    3.8360   31.9930 C   0  0  0  0  0
   26.2150    3.6230   31.2370 C   0  0  0  0  0
   25.5850    4.8330   30.5820 C   0  0  0  0  0
   26.3610    5.8850   30.1690 C   0  0  0  0  0
   27.8070    5.8450   30.4620 C   0  0  0  0  0
   23.1850    5.4750   29.9730 C   0  0  0  0  0
   24.7600    6.6570   28.6000 N   0  0  0  0  0
   25.8070    7.1410   29.4940 C   0  0  0  0  0
   21.9080    5.2900   30.4690 C   0  0  0  0  0
   22.4110    7.3710   28.7420 C   0  0  0  0  0
   25.2720    8.2480   30.4110 C   0  0  0  0  0
   25.0990    6.2300   27.3060 C   0  0  0  0  0
   24.0590    5.6640   26.3630 C   0  0  0  0  0
   24.7370   10.5470   30.7730 C   0  0  0  0  0
   24.3750    8.9570   32.5050 C   0  0  0  0  0
   24.8530    7.9620   31.6930 C   0  0  0  0  0
   23.8290   11.2510   32.8280 O   0  0  0  0  0
   25.0250   10.9430   34.9160 C   0  0  0  0  0
   27.5110   10.7650   36.1240 C   0  0  0  0  0
   27.3510   11.5620   34.9970 C   0  0  0  0  0
   26.1110   11.6430   34.3950 C   0  0  0  0  0
   28.1600    2.4810   32.3370 C   0  0  0  0  0
   27.1650    4.6100   33.2770 C   0  0  0  0  0
   24.6680   12.1750   30.2530 Cl  0  0  0  0  0
   25.2180    9.5530   29.9500 C   0  0  0  0  0
   24.3150   10.2550   32.0440 C   0  0  0  0  0
   23.6720   11.0580   34.2330 C   0  0  0  0  0
   26.4370   10.0630   36.6510 C   0  0  0  0  0
   25.1880   10.1510   36.0440 C   0  0  0  0  0
   28.4970    6.7960   30.2150 O   0  0  0  0  0
   26.2490    6.3450   26.9240 O   0  0  0  0  0
   23.4440    6.5160   29.1120 C   0  0  0  0  0
   21.1280    7.1900   29.2340 C   0  0  0  0  0
   20.8820    6.1450   30.1060 C   0  0  0  0  0
   24.2130    4.6310   30.4380 N   0  0  0  0  0
   28.7995    3.9895   30.3000 H   0  0  0  0  0
   29.2720    5.0124   31.7327 H   0  0  0  0  0
   25.4943    3.2817   31.9801 H   0  0  0  0  0
   26.4567    2.9398   30.4228 H   0  0  0  0  0
   26.6329    7.6466   28.9937 H   0  0  0  0  0
   21.7075    4.4641   31.1515 H   0  0  0  0  0
   22.6132    8.1939   28.0563 H   0  0  0  0  0
   23.9892    6.2974   25.4787 H   0  0  0  0  0
   24.3489    4.6557   26.0673 H   0  0  0  0  0
   23.0927    5.6327   26.8663 H   0  0  0  0  0
   24.0420    8.7221   33.5160 H   0  0  0  0  0
   24.9023    6.9379   32.0630 H   0  0  0  0  0
   28.4896   10.6908   36.5983 H   0  0  0  0  0
   28.1965   12.1181   34.5920 H   0  0  0  0  0
   25.9808   12.2593   33.5054 H   0  0  0  0  0
   29.0730    2.6497   32.9080 H   0  0  0  0  0
   27.4636    1.8880   32.9298 H   0  0  0  0  0
   28.3991    1.9496   31.4158 H   0  0  0  0  0
   26.4648    4.0250   33.8733 H   0  0  0  0  0
   28.0742    4.7868   33.8516 H   0  0  0  0  0
   26.7097    5.5643   33.0121 H   0  0  0  0  0
   25.5544    9.7920   28.9411 H   0  0  0  0  0
   23.1137   10.1371   34.4012 H   0  0  0  0  0
   23.1401   11.9140   34.6483 H   0  0  0  0  0
   26.5711    9.4441   37.5382 H   0  0  0  0  0
   24.3410    9.6001   36.4528 H   0  0  0  0  0
   20.3231    7.8626   28.9375 H   0  0  0  0  0
   19.8798    5.9948   30.5074 H   0  0  0  0  0
   23.8958    3.7037   30.7206 H   0  0  0  0  0
  1  2  1  0  0  0
  6  1  1  0  0  0
  3  2  1  0  0  0
  2 23  1  0  0  0
  2 24  1  0  0  0
  4  3  1  0  0  0
  5  4  2  0  0  0
  4 36  1  0  0  0
  5  6  1  0  0  0
  9  5  1  0  0  0
  6 31  2  0  0  0
  7 10  4  0  0  0
 33  7  4  0  0  0
  7 36  1  0  0  0
  9  8  1  0  0  0
  8 13  1  0  0  0
  8 33  1  0  0  0
 12  9  1  0  0  0
 10 35  4  0  0  0
 33 11  4  0  0  0
 11 34  4  0  0  0
 17 12  4  0  0  0
 26 12  4  0  0  0
 13 14  1  0  0  0
 13 32  2  0  0  0
 15 25  1  0  0  0
 15 26  4  0  0  0
 27 15  4  0  0  0
 16 17  4  0  0  0
 27 16  4  0  0  0
 18 27  1  0  0  0
 28 18  1  0  0  0
 22 19  4  0  0  0
 19 28  1  0  0  0
 19 30  4  0  0  0
 21 20  4  0  0  0
 20 29  4  0  0  0
 21 22  4  0  0  0
 29 30  4  0  0  0
 34 35  4  0  0  0
  1 37  1  0  0  0
  1 38  1  0  0  0
  3 39  1  0  0  0
  3 40  1  0  0  0
  9 41  1  0  0  0
 10 42  1  0  0  0
 11 43  1  0  0  0
 14 44  1  0  0  0
 14 45  1  0  0  0
 14 46  1  0  0  0
 16 47  1  0  0  0
 17 48  1  0  0  0
 20 49  1  0  0  0
 21 50  1  0  0  0
 22 51  1  0  0  0
 23 52  1  0  0  0
 23 53  1  0  0  0
 23 54  1  0  0  0
 24 55  1  0  0  0
 24 56  1  0  0  0
 24 57  1  0  0  0
 26 58  1  0  0  0
 28 59  1  0  0  0
 28 60  1  0  0  0
 29 61  1  0  0  0
 30 62  1  0  0  0
 34 63  1  0  0  0
 35 64  1  0  0  0
 36 65  1  0  0  0
M  END
$$$$
