5ufo_ligand
  -I-interpret- 

 63 67  0  0  0  0  0  0  0  0999 V2000
    8.7420  -30.2060  -10.9780 C   0  0  0  0  0
   11.0290  -30.7300  -10.5720 C   0  0  0  0  0
   11.6080  -24.0370   -8.4380 C   0  0  0  0  0
   14.0440  -21.8840   -8.2710 C   0  0  0  0  0
   10.8090  -25.0180   -7.9090 C   0  0  0  0  0
    8.5610  -31.4440  -11.5530 C   0  0  0  0  0
   10.8600  -31.9670  -11.1430 C   0  0  0  0  0
   15.0770  -21.6260   -7.4030 C   0  0  0  0  0
   12.0340  -25.4140  -10.3240 C   0  0  0  0  0
   15.3990  -23.5140   -9.2920 C   0  0  0  0  0
   10.9910  -21.6160  -10.4320 C   0  0  0  0  0
   11.9160  -19.8780  -11.2260 C   0  0  0  0  0
   11.2280  -26.3940   -9.7870 C   0  0  0  0  0
    9.9770  -29.8490  -10.4870 C   0  0  0  0  0
   10.2090  -28.5670   -9.8680 C   0  0  0  0  0
   12.2240  -24.2290   -9.6490 C   0  0  0  0  0
   14.1980  -22.8460   -9.2400 C   0  0  0  0  0
   10.6130  -26.2020   -8.5710 C   0  0  0  0  0
    9.6230  -32.3090  -11.6270 C   0  0  0  0  0
   11.0120  -27.5970  -10.4240 C   0  0  0  0  0
   16.2430  -22.3450   -7.5310 C   0  0  0  0  0
   12.3290  -21.9310  -10.5280 C   0  0  0  0  0
    9.6400  -28.2720   -8.6510 C   0  0  0  0  0
   14.3010  -20.6020  -11.3380 C   0  0  0  0  0
    8.8560  -29.0270   -6.6610 C   0  0  0  0  0
    9.3570  -33.5380  -14.0930 C   0  0  0  0  0
   13.0910  -23.1470  -10.1950 C   0  0  0  0  0
   17.3650  -22.0680   -6.5900 C   0  0  0  0  0
   10.7410  -20.3410  -10.8670 N   0  0  0  0  0
   16.4200  -23.2850   -8.4620 N   0  0  0  0  0
    9.8270  -27.1190   -8.0100 N   0  0  0  0  0
   12.9000  -20.8010  -11.0400 N   0  0  0  0  0
   10.6060  -34.6600  -12.0860 O   0  0  0  0  0
    8.0880  -34.3810  -11.9650 O   0  0  0  0  0
   13.6660  -23.6020  -11.4080 O   0  0  0  0  0
    8.8200  -29.2230   -8.0700 O   0  0  0  0  0
   17.6190  -20.7380   -6.4500 F   0  0  0  0  0
   17.1180  -22.5330   -5.3360 F   0  0  0  0  0
   18.5400  -22.6320   -6.9790 F   0  0  0  0  0
    9.3990  -33.9080  -12.3620 S   0  0  0  0  0
   11.7660  -27.8890  -11.9440 Cl  0  0  0  0  0
    7.9069  -29.5086  -10.9117 H   0  0  0  0  0
   12.0060  -30.4438  -10.1826 H   0  0  0  0  0
   11.7540  -23.1030   -7.8955 H   0  0  0  0  0
   13.1089  -21.3296   -8.1916 H   0  0  0  0  0
   10.3225  -24.8536   -6.9476 H   0  0  0  0  0
    7.5857  -31.7331  -11.9446 H   0  0  0  0  0
   11.6943  -32.6652  -11.2106 H   0  0  0  0  0
   14.9749  -20.8664   -6.6279 H   0  0  0  0  0
   12.5221  -25.5771  -11.2849 H   0  0  0  0  0
   15.5256  -24.2783  -10.0587 H   0  0  0  0  0
   10.2266  -22.2964  -10.0567 H   0  0  0  0  0
   12.0834  -18.8773  -11.6242 H   0  0  0  0  0
   14.4177  -20.3818  -12.3991 H   0  0  0  0  0
   14.6816  -19.7679  -10.7485 H   0  0  0  0  0
   14.8559  -21.5068  -11.0902 H   0  0  0  0  0
    9.8800  -29.1420   -6.3055 H   0  0  0  0  0
    8.4988  -28.0245   -6.4257 H   0  0  0  0  0
    8.2168  -29.7650   -6.1764 H   0  0  0  0  0
   10.2343  -32.9481  -14.3585 H   0  0  0  0  0
    9.3569  -34.4677  -14.6621 H   0  0  0  0  0
    8.4541  -32.9713  -14.3203 H   0  0  0  0  0
   14.2282  -22.9143  -11.7721 H   0  0  0  0  0
  1  6  4  0  0  0
 14  1  4  0  0  0
  2  7  4  0  0  0
 14  2  4  0  0  0
  3  5  4  0  0  0
 16  3  4  0  0  0
  4  8  4  0  0  0
 17  4  4  0  0  0
  5 18  4  0  0  0
  6 19  4  0  0  0
  7 19  4  0  0  0
  8 21  4  0  0  0
  9 13  4  0  0  0
 16  9  4  0  0  0
 17 10  4  0  0  0
 10 30  4  0  0  0
 22 11  4  0  0  0
 11 29  4  0  0  0
 29 12  4  0  0  0
 12 32  4  0  0  0
 13 18  4  0  0  0
 13 20  4  0  0  0
 15 14  1  0  0  0
 20 15  4  0  0  0
 15 23  4  0  0  0
 27 16  1  0  0  0
 27 17  1  0  0  0
 18 31  4  0  0  0
 19 40  1  0  0  0
 20 41  1  0  0  0
 21 28  1  0  0  0
 30 21  4  0  0  0
 22 27  1  0  0  0
 22 32  4  0  0  0
 23 31  4  0  0  0
 23 36  1  0  0  0
 32 24  1  0  0  0
 36 25  1  0  0  0
 40 26  1  0  0  0
 27 35  1  0  0  0
 28 37  1  0  0  0
 28 38  1  0  0  0
 28 39  1  0  0  0
 40 33  2  0  0  0
 40 34  2  0  0  0
  1 42  1  0  0  0
  2 43  1  0  0  0
  3 44  1  0  0  0
  4 45  1  0  0  0
  5 46  1  0  0  0
  6 47  1  0  0  0
  7 48  1  0  0  0
  8 49  1  0  0  0
  9 50  1  0  0  0
 10 51  1  0  0  0
 11 52  1  0  0  0
 12 53  1  0  0  0
 24 54  1  0  0  0
 24 55  1  0  0  0
 24 56  1  0  0  0
 25 57  1  0  0  0
 25 58  1  0  0  0
 25 59  1  0  0  0
 26 60  1  0  0  0
 26 61  1  0  0  0
 26 62  1  0  0  0
 35 63  1  0  0  0
M  END
$$$$
