3rxk_ligand
  -I-interpret- 

 27 27  0  0  0  0  0  0  0  0999 V2000
   -1.9180  -13.6920   17.0890 C   0  0  0  0  0
   -1.6460  -12.9600   18.2640 N   0  3  0  0  0
   -3.5930  -17.4980   16.4300 O   0  0  0  0  0
   -0.9480  -13.6180   15.9520 C   0  0  0  0  0
   -1.1960  -14.8060   15.1790 N   0  3  0  0  0
   -2.5750  -17.3230   14.4470 O   0  0  0  0  0
   -0.7650  -15.0530   13.8070 C   0  0  0  0  0
   -1.9540  -15.7200   15.9800 C   0  0  0  0  0
   -2.7180  -16.8790   15.5140 C   0  0  0  0  0
   -4.4800  -18.4550   15.8810 C   0  0  0  0  0
   -2.4480  -15.0860   17.2380 C   0  0  0  0  0
   -2.7599  -13.0671   16.7912 H   0  0  0  0  0
   -1.2939  -12.0360   18.0137 H   0  0  0  0  0
   -2.5030  -12.8626   18.8085 H   0  0  0  0  0
   -0.9451  -13.4541   18.8163 H   0  0  0  0  0
    0.0834  -13.5692   16.3012 H   0  0  0  0  0
   -1.0850  -12.7130   15.3602 H   0  0  0  0  0
   -0.8246  -14.9162   14.2354 H   0  0  0  0  0
   -0.1284  -15.9374   13.7811 H   0  0  0  0  0
   -1.6393  -15.2145   13.1764 H   0  0  0  0  0
   -0.2065  -14.1910   13.4422 H   0  0  0  0  0
   -1.1217  -16.4181   16.0695 H   0  0  0  0  0
   -5.1101  -17.9765   15.1312 H   0  0  0  0  0
   -3.9056  -19.2566   15.4167 H   0  0  0  0  0
   -5.1049  -18.8662   16.6738 H   0  0  0  0  0
   -3.5303  -15.1338   17.3582 H   0  0  0  0  0
   -2.1119  -15.5891   18.1447 H   0  0  0  0  0
  1  2  1  0  0  0
  4  1  1  0  0  0
  1 11  1  0  0  0
  9  3  1  0  0  0
  3 10  1  0  0  0
  5  4  1  0  0  0
  5  7  1  0  0  0
  8  5  1  0  0  0
  9  6  2  0  0  0
  8  9  1  0  0  0
  8 11  1  0  0  0
  1 12  1  0  0  0
  2 13  1  0  0  0
  2 14  1  0  0  0
  2 15  1  0  0  0
  4 16  1  0  0  0
  4 17  1  0  0  0
  5 18  1  0  0  0
  7 19  1  0  0  0
  7 20  1  0  0  0
  7 21  1  0  0  0
  8 22  1  0  0  0
 10 23  1  0  0  0
 10 24  1  0  0  0
 10 25  1  0  0  0
 11 26  1  0  0  0
 11 27  1  0  0  0
M  END
$$$$
