6bsl_ligand
  -I-interpret- 

 85 86  0  0  0  0  0  0  0  0999 V2000
    8.9850   14.5610   -4.0180 C   0  0  0  0  0
    7.2390   15.6610   -2.4850 C   0  0  0  0  0
    6.7840   16.9300   -1.8020 C   0  0  0  0  0
    6.7510   10.5430   -8.4700 C   0  0  0  0  0
    7.8090   11.0160   -7.5010 C   0  0  0  0  0
    7.3160   12.0990   -6.5670 C   0  0  0  0  0
    8.4310   12.7970   -5.8150 C   0  0  0  0  0
    7.9760   14.0350   -5.0530 C   0  0  0  0  0
    8.5500   15.8240   -3.2540 C   0  0  0  0  0
    9.6240   16.1590   -2.2930 N   0  0  0  0  0
    9.9920   15.2670   -1.3330 O   0  0  0  0  0
   10.2670   17.3110   -2.3460 C   0  0  0  0  0
   11.1470   17.5310   -1.5460 O   0  0  0  0  0
   10.3300   14.8300   -4.7050 C   0  0  0  0  0
   10.4710   15.7750   -5.4780 O   0  0  0  0  0
   11.3150   13.9700   -4.4320 N   0  0  0  0  0
   12.6060   14.1090   -5.0650 C   0  0  0  0  0
   12.5320   13.9320   -6.4980 N   0  0  0  0  0
   12.2740   12.7440   -7.0520 C   0  0  0  0  0
   12.0980   11.7170   -6.3940 O   0  0  0  0  0
   12.1810   12.7170   -8.5180 C   0  0  0  0  0
   11.9970   11.7230   -9.4160 C   0  0  0  0  0
   11.9600   12.3230  -10.6970 C   0  0  0  0  0
   12.1180   13.6590  -10.5190 C   0  0  0  0  0
   12.2370   13.9280   -9.1690 O   0  0  0  0  0
   12.1380   14.8100  -11.4320 C   0  0  0  0  0
   12.0990   16.1100  -10.9350 C   0  0  0  0  0
   12.0910   17.1990  -11.7880 C   0  0  0  0  0
   12.1350   17.0500  -13.1750 C   0  0  0  0  0
   12.0870   18.3330  -13.9480 C   0  0  0  0  0
   12.8510   19.2560  -13.6740 O   0  0  0  0  0
   11.1190   18.4520  -14.8740 N   0  0  0  0  0
   10.9080   19.6900  -15.6110 C   0  0  0  0  0
   10.1600   19.4710  -16.9330 C   0  0  0  0  0
   10.8890   18.6210  -17.9410 C   0  0  0  0  0
   10.4020   17.6280  -18.4400 O   0  0  0  0  0
   12.0760   19.0710  -18.2470 O   0  0  0  0  0
   10.0830   20.6240  -14.7200 C   0  0  0  0  0
   10.0540   21.8600  -15.1360 O   0  0  0  0  0
    9.5020   20.2250  -13.7200 O   0  0  0  0  0
   12.1600   15.7420  -13.6970 C   0  0  0  0  0
   12.1920   15.6440  -15.0670 O   0  0  0  0  0
   12.3310   14.3640  -15.7060 C   0  0  0  0  0
   13.7430   13.9350  -15.6110 C   0  0  0  0  0
   12.1590   14.6100  -12.8090 C   0  0  0  0  0
    9.0594   13.7743   -3.2672 H   0  0  0  0  0
    6.4689   15.3794   -3.2032 H   0  0  0  0  0
    7.4024   14.9111   -1.7111 H   0  0  0  0  0
    7.5447   17.2509   -1.0904 H   0  0  0  0  0
    6.6320   17.7089   -2.5492 H   0  0  0  0  0
    5.8482   16.7423   -1.2755 H   0  0  0  0  0
    5.9046   10.1403   -7.9137 H   0  0  0  0  0
    6.4193   11.3819   -9.0818 H   0  0  0  0  0
    7.1684    9.7667   -9.1113 H   0  0  0  0  0
    8.6311   11.4305   -8.0844 H   0  0  0  0  0
    8.1055   10.1624   -6.8914 H   0  0  0  0  0
    6.6670   11.6269   -5.8294 H   0  0  0  0  0
    6.8077   12.8493   -7.1726 H   0  0  0  0  0
    9.1673   13.1201   -6.5509 H   0  0  0  0  0
    8.8224   12.0901   -5.0834 H   0  0  0  0  0
    7.8356   14.8264   -5.7892 H   0  0  0  0  0
    7.0758   13.7567   -4.5049 H   0  0  0  0  0
    8.3808   16.6101   -3.9898 H   0  0  0  0  0
   10.6966   15.6438   -0.8009 H   0  0  0  0  0
   10.0082   18.0538   -3.1006 H   0  0  0  0  0
   11.1543   13.2094   -3.7716 H   0  0  0  0  0
   13.2665   13.3414   -4.6616 H   0  0  0  0  0
   12.9755   15.1149   -4.8657 H   0  0  0  0  0
   12.6813   14.7385   -7.1043 H   0  0  0  0  0
   11.8962   10.6604   -9.1949 H   0  0  0  0  0
   11.8291   11.8083  -11.6488 H   0  0  0  0  0
   12.0744   16.2721   -9.8574 H   0  0  0  0  0
   12.0491   18.2025  -11.3646 H   0  0  0  0  0
   10.5155   17.6523  -15.0655 H   0  0  0  0  0
   11.8809   20.1132  -15.8609 H   0  0  0  0  0
   10.0262   20.4532  -17.3863 H   0  0  0  0  0
    9.2351   18.9482  -16.6894 H   0  0  0  0  0
   12.2584   19.8628  -17.7357 H   0  0  0  0  0
   10.5792   21.9397  -15.9357 H   0  0  0  0  0
   12.0376   14.4400  -16.7530 H   0  0  0  0  0
   11.6890   13.6336  -15.2136 H   0  0  0  0  0
   14.3783   14.6678  -16.1084 H   0  0  0  0  0
   14.0281   13.8577  -14.5618 H   0  0  0  0  0
   13.8597   12.9644  -16.0930 H   0  0  0  0  0
   12.1747   13.5981  -13.2139 H   0  0  0  0  0
  8  1  1  0  0  0
  1  9  1  0  0  0
  1 14  1  0  0  0
  2  3  1  0  0  0
  9  2  1  0  0  0
  5  4  1  0  0  0
  6  5  1  0  0  0
  7  6  1  0  0  0
  7  8  1  0  0  0
  9 10  1  0  0  0
 10 11  1  0  0  0
 10 12  1  0  0  0
 12 13  2  0  0  0
 14 15  2  0  0  0
 14 16  1  0  0  0
 16 17  1  0  0  0
 17 18  1  0  0  0
 18 19  1  0  0  0
 19 20  2  0  0  0
 19 21  1  0  0  0
 21 22  4  0  0  0
 21 25  4  0  0  0
 22 23  4  0  0  0
 23 24  4  0  0  0
 24 25  4  0  0  0
 24 26  1  0  0  0
 26 27  4  0  0  0
 26 45  4  0  0  0
 27 28  4  0  0  0
 28 29  4  0  0  0
 29 30  1  0  0  0
 29 41  4  0  0  0
 30 31  2  0  0  0
 30 32  1  0  0  0
 32 33  1  0  0  0
 33 34  1  0  0  0
 33 38  1  0  0  0
 34 35  1  0  0  0
 35 36  2  0  0  0
 35 37  1  0  0  0
 38 39  1  0  0  0
 38 40  2  0  0  0
 41 42  1  0  0  0
 41 45  4  0  0  0
 42 43  1  0  0  0
 43 44  1  0  0  0
  1 46  1  0  0  0
  2 47  1  0  0  0
  2 48  1  0  0  0
  3 49  1  0  0  0
  3 50  1  0  0  0
  3 51  1  0  0  0
  4 52  1  0  0  0
  4 53  1  0  0  0
  4 54  1  0  0  0
  5 55  1  0  0  0
  5 56  1  0  0  0
  6 57  1  0  0  0
  6 58  1  0  0  0
  7 59  1  0  0  0
  7 60  1  0  0  0
  8 61  1  0  0  0
  8 62  1  0  0  0
  9 63  1  0  0  0
 11 64  1  0  0  0
 12 65  1  0  0  0
 16 66  1  0  0  0
 17 67  1  0  0  0
 17 68  1  0  0  0
 18 69  1  0  0  0
 22 70  1  0  0  0
 23 71  1  0  0  0
 27 72  1  0  0  0
 28 73  1  0  0  0
 32 74  1  0  0  0
 33 75  1  0  0  0
 34 76  1  0  0  0
 34 77  1  0  0  0
 37 78  1  0  0  0
 39 79  1  0  0  0
 43 80  1  0  0  0
 43 81  1  0  0  0
 44 82  1  0  0  0
 44 83  1  0  0  0
 44 84  1  0  0  0
 45 85  1  0  0  0
M  END
$$$$
