### 
### Created by X-TOOL on Wed Jan  1 15:39:36 2020
### 

@<TRIPOS>MOLECULE
6bsl_ligand
   83    84     1     0     0
SMALL
GAST_HUCK


@<TRIPOS>ATOM
      1 C17         8.9850   14.5610   -4.0180 C.3       1 EVV         0.0746
      2 C21         7.2390   15.6610   -2.4850 C.3       1 EVV        -0.0272
      3 C24         6.7840   16.9300   -1.8020 C.3       1 EVV        -0.0629
      4 C01         6.7510   10.5430   -8.4700 C.3       1 EVV        -0.0653
      5 C05         7.8090   11.0160   -7.5010 C.3       1 EVV        -0.0559
      6 C08         7.3160   12.0990   -6.5670 C.3       1 EVV        -0.0532
      7 C11         8.4310   12.7970   -5.8150 C.3       1 EVV        -0.0507
      8 C14         7.9760   14.0350   -5.0530 C.3       1 EVV        -0.0309
      9 C19         8.5500   15.8240   -3.2540 C.3       1 EVV         0.0932
     10 N28         9.6240   16.1590   -2.2930 N.am      1 EVV        -0.1467
     11 O29         9.9920   15.2670   -1.3330 O.3       1 EVV        -0.2681
     12 C31        10.2670   17.3110   -2.3460 C.2       1 EVV         0.1954
     13 O33        11.1470   17.5310   -1.5460 O.2       1 EVV        -0.3830
     14 C34        10.3300   14.8300   -4.7050 C.2       1 EVV         0.1830
     15 O35        10.4710   15.7750   -5.4780 O.2       1 EVV        -0.3966
     16 N36        11.3150   13.9700   -4.4320 N.am      1 EVV        -0.2661
     17 C38        12.6060   14.1090   -5.0650 C.3       1 EVV         0.1146
     18 N41        12.5320   13.9320   -6.4980 N.am      1 EVV        -0.2651
     19 C43        12.2740   12.7440   -7.0520 C.2       1 EVV         0.2338
     20 O44        12.0980   11.7170   -6.3940 O.2       1 EVV        -0.3876
     21 C45        12.1810   12.7170   -8.5180 C.2       1 EVV         0.1888
     22 C46        11.9970   11.7230   -9.4160 C.2       1 EVV        -0.0362
     23 C48        11.9600   12.3230  -10.6970 C.2       1 EVV        -0.0430
     24 C50        12.1180   13.6590  -10.5190 C.2       1 EVV         0.1279
     25 O51        12.2370   13.9280   -9.1690 O.3       1 EVV        -0.2421
     26 C52        12.1380   14.8100  -11.4320 C.ar      1 EVV         0.0085
     27 C53        12.0990   16.1100  -10.9350 C.ar      1 EVV        -0.0588
     28 C55        12.0910   17.1990  -11.7880 C.ar      1 EVV        -0.0515
     29 C57        12.1350   17.0500  -13.1750 C.ar      1 EVV         0.0761
     30 C58        12.0870   18.3330  -13.9480 C.2       1 EVV         0.1993
     31 O59        12.8510   19.2560  -13.6740 O.2       1 EVV        -0.3920
     32 N60        11.1190   18.4520  -14.8740 N.am      1 EVV        -0.2714
     33 C62        10.9080   19.6900  -15.6110 C.3       1 EVV         0.1049
     34 C64        10.1600   19.4710  -16.9330 C.3       1 EVV         0.0350
     35 C67        10.8890   18.6210  -17.9410 C.2       1 EVV         0.0386
     36 O68        10.4020   17.6280  -18.4400 O.co2     1 EVV        -0.5688
     37 O70        12.0760   19.0710  -18.2470 O.co2     1 EVV        -0.5688
     38 C71        10.0830   20.6240  -14.7200 C.2       1 EVV         0.0617
     39 O72        10.0540   21.8600  -15.1360 O.co2     1 EVV        -0.5665
     40 O74         9.5020   20.2250  -13.7200 O.co2     1 EVV        -0.5665
     41 C75        12.1600   15.7420  -13.6970 C.ar      1 EVV         0.1104
     42 O76        12.1920   15.6440  -15.0670 O.3       1 EVV        -0.3138
     43 C77        12.3310   14.3640  -15.7060 C.3       1 EVV         0.0691
     44 C80        13.7430   13.9350  -15.6110 C.3       1 EVV        -0.0369
     45 C84        12.1590   14.6100  -12.8090 C.ar      1 EVV        -0.0197
     46 H1          9.1294   13.7644   -3.2733 H         1 EVV         0.0562
     47 H2          6.4571   15.3451   -3.1913 H         1 EVV         0.0288
     48 H3          7.3778   14.8832   -1.7197 H         1 EVV         0.0288
     49 H4          5.8396   16.7418   -1.2703 H         1 EVV         0.0231
     50 H5          6.6302   17.7169   -2.5551 H         1 EVV         0.0231
     51 H6          7.5509   17.2549   -1.0835 H         1 EVV         0.0231
     52 H7          7.1711    9.7595   -9.1178 H         1 EVV         0.0230
     53 H8          6.4154   11.3888   -9.0881 H         1 EVV         0.0230
     54 H9          5.8962   10.1363   -7.9098 H         1 EVV         0.0230
     55 H10         8.6596   11.4103   -8.0763 H         1 EVV         0.0263
     56 H11         8.1404   10.1578   -6.8980 H         1 EVV         0.0263
     57 H12         6.6330   11.6439   -5.8347 H         1 EVV         0.0265
     58 H13         6.7717   12.8493   -7.1592 H         1 EVV         0.0265
     59 H14         9.2019   13.0991   -6.5392 H         1 EVV         0.0267
     60 H15         8.8625   12.0857   -5.0954 H         1 EVV         0.0267
     61 H16         7.7854   14.8355   -5.7830 H         1 EVV         0.0293
     62 H17         7.0421   13.7889   -4.5264 H         1 EVV         0.0293
     63 H18         8.4295   16.6459   -3.9751 H         1 EVV         0.0617
     64 H19         9.2447   15.0730   -0.7794 H         1 EVV         0.2496
     65 H20        10.0084   18.0531   -3.0999 H         1 EVV         0.1561
     66 H21        11.1575   13.2243   -3.7845 H         1 EVV         0.1871
     67 H22        13.2880   13.3527   -4.6492 H         1 EVV         0.0788
     68 H23        12.9990   15.1140   -4.8518 H         1 EVV         0.0788
     69 H24        12.6784   14.7227   -7.0924 H         1 EVV         0.1858
     70 H25        11.8963   10.6614   -9.1951 H         1 EVV         0.0460
     71 H26        11.8292   11.8087  -11.6480 H         1 EVV         0.0423
     72 H27        12.0745   16.2712   -9.8633 H         1 EVV         0.0532
     73 H28        12.0493   18.1970  -11.3670 H         1 EVV         0.0635
     74 H29        10.5273   17.6680  -15.0617 H         1 EVV         0.1864
     75 H30        11.8838   20.1489  -15.8285 H         1 EVV         0.0744
     76 H31         9.9735   20.4553  -17.3872 H         1 EVV         0.0471
     77 H32         9.2001   18.9841  -16.7059 H         1 EVV         0.0471
     78 H33        12.0396   14.4451  -16.7636 H         1 EVV         0.0614
     79 H34        11.6864   13.6279  -15.2034 H         1 EVV         0.0614
     80 H35        13.8621   12.9555  -16.0971 H         1 EVV         0.0256
     81 H36        14.0320   13.8566  -14.5526 H         1 EVV         0.0256
     82 H37        14.3853   14.6738  -16.1127 H         1 EVV         0.0256
     83 H38        12.1746   13.6037  -13.2116 H         1 EVV         0.0537
@<TRIPOS>BOND
     1    8    1 1  
     2    1    9 1  
     3    1   14 1  
     4    2    3 1  
     5    9    2 1  
     6    5    4 1  
     7    6    5 1  
     8    7    6 1  
     9    7    8 1  
    10    9   10 1  
    11   10   11 1  
    12   10   12 am 
    13   12   13 2  
    14   14   15 2  
    15   14   16 am 
    16   16   17 1  
    17   17   18 1  
    18   18   19 am 
    19   19   20 2  
    20   19   21 1  
    21   21   22 2  
    22   21   25 1  
    23   22   23 1  
    24   23   24 2  
    25   24   25 1  
    26   24   26 1  
    27   26   27 ar 
    28   26   45 ar 
    29   27   28 ar 
    30   28   29 ar 
    31   29   30 1  
    32   29   41 ar 
    33   30   31 2  
    34   30   32 am 
    35   32   33 1  
    36   33   34 1  
    37   33   38 1  
    38   34   35 1  
    39   35   36 ar 
    40   35   37 ar 
    41   38   39 ar 
    42   38   40 ar 
    43   41   42 1  
    44   41   45 ar 
    45   42   43 1  
    46   43   44 1  
    47    1   46 1  
    48    2   47 1  
    49    2   48 1  
    50    3   49 1  
    51    3   50 1  
    52    3   51 1  
    53    4   52 1  
    54    4   53 1  
    55    4   54 1  
    56    5   55 1  
    57    5   56 1  
    58    6   57 1  
    59    6   58 1  
    60    7   59 1  
    61    7   60 1  
    62    8   61 1  
    63    8   62 1  
    64    9   63 1  
    65   11   64 1  
    66   12   65 1  
    67   16   66 1  
    68   17   67 1  
    69   17   68 1  
    70   18   69 1  
    71   22   70 1  
    72   23   71 1  
    73   27   72 1  
    74   28   73 1  
    75   32   74 1  
    76   33   75 1  
    77   34   76 1  
    78   34   77 1  
    79   43   78 1  
    80   43   79 1  
    81   44   80 1  
    82   44   81 1  
    83   44   82 1  
    84   45   83 1  
@<TRIPOS>SUBSTRUCTURE
     1 EVV         1

