1zub_ligand
  -I-interpret- 

 95 96  0  0  0  0  0  0  0  0999 V2000
  190.1800  -11.6900   -4.5230 N   0  3  0  0  0
  190.2030  -10.6310   -3.4800 C   0  0  0  0  0
  188.8020  -10.3620   -2.9370 C   0  0  0  0  0
  187.9880   -9.7110   -3.5910 O   0  0  0  0  0
  190.7870   -9.3560   -4.0940 C   0  0  0  0  0
  192.2050   -9.0550   -3.6360 C   0  0  0  0  0
  193.2430   -9.3930   -4.6880 C   0  0  0  0  0
  192.9770  -10.2880   -5.5180 O   0  0  0  0  0
  194.3220   -8.7640   -4.6820 O   0  0  0  0  0
  188.5290  -10.8680   -1.7390 N   0  0  0  0  0
  187.2270  -10.6810   -1.1090 C   0  0  0  0  0
  187.3820  -10.1720    0.3210 C   0  0  0  0  0
  188.4970  -10.0190    0.8180 O   0  0  0  0  0
  186.4410  -11.9940   -1.1120 C   0  0  0  0  0
  187.1860  -13.1510   -0.4670 C   0  0  0  0  0
  187.5640  -14.2310   -1.4610 C   0  0  0  0  0
  188.4720  -13.9900   -2.2840 O   0  0  0  0  0
  186.9510  -15.3190   -1.4170 O   0  0  0  0  0
  186.2550   -9.9090    0.9770 N   0  0  0  0  0
  186.2920   -9.4180    2.3420 C   0  0  0  0  0
  185.1070   -9.8870    3.1650 C   0  0  0  0  0
  185.2700  -10.6390    4.1250 O   0  0  0  0  0
  183.9120   -9.4420    2.7890 N   0  0  0  0  0
  182.6960   -9.8180    3.4990 C   0  0  0  0  0
  181.5580  -10.0630    2.5220 C   0  0  0  0  0
  181.5040   -9.4630    1.4500 O   0  0  0  0  0
  182.2440   -8.7360    4.5110 C   0  0  0  0  0
  183.1270   -7.4890    4.4150 C   0  0  0  0  0
  182.2550   -9.2940    5.9290 C   0  0  0  0  0
  184.4840   -7.6580    5.0520 C   0  0  0  0  0
  180.6420  -10.9360    2.9090 N   0  0  0  0  0
  179.4940  -11.2440    2.0750 C   0  0  0  0  0
  178.3390  -10.3120    2.4080 C   0  0  0  0  0
  177.8980  -10.2390    3.5550 O   0  0  0  0  0
  179.0710  -12.7050    2.2540 C   0  0  0  0  0
  179.3310  -13.5460    1.0390 C   0  0  0  0  0
  179.9900  -14.7420    0.9960 C   0  0  0  0  0
  178.9420  -13.2540   -0.3100 C   0  0  0  0  0
  180.0330  -15.2110   -0.2950 N   0  0  0  0  0
  179.3970  -14.3160   -1.1150 C   0  0  0  0  0
  178.2520  -12.1990   -0.9160 C   0  0  0  0  0
  179.1850  -14.3510   -2.4920 C   0  0  0  0  0
  178.0420  -12.2360   -2.2830 C   0  0  0  0  0
  178.5070  -13.3060   -3.0570 C   0  0  0  0  0
  177.8540   -9.5990    1.3990 N   0  0  0  0  0
  176.7480   -8.6740    1.5820 C   0  0  0  0  0
  175.7870   -8.7530    0.4010 C   0  0  0  0  0
  175.2160   -7.7090    0.0310 O   0  0  0  0  0
  177.2680   -7.2540    1.7640 C   0  0  0  0  0
  175.6210   -9.8540   -0.1560 O   0  0  0  0  0
  189.7927  -12.5467   -4.1275 H   0  0  0  0  0
  189.6012  -11.3830   -5.3048 H   0  0  0  0  0
  191.1304  -11.8643   -4.8498 H   0  0  0  0  0
  190.8200  -10.9627   -2.6449 H   0  0  0  0  0
  190.1579   -8.5235   -3.7790 H   0  0  0  0  0
  190.8152   -9.4966   -5.1745 H   0  0  0  0  0
  192.4092   -9.6647   -2.7559 H   0  0  0  0  0
  192.2712   -7.9864   -3.4314 H   0  0  0  0  0
  192.1002  -10.6367   -5.3410 H   0  0  0  0  0
  189.2475  -11.4001   -1.2481 H   0  0  0  0  0
  186.6778   -9.9354   -1.6840 H   0  0  0  0  0
  186.2579  -12.2628   -2.1524 H   0  0  0  0  0
  185.5299  -11.8307   -0.5364 H   0  0  0  0  0
  186.5285  -13.5980    0.2786 H   0  0  0  0  0
  188.1060  -12.7571   -0.0352 H   0  0  0  0  0
  186.2986  -15.2892   -0.7134 H   0  0  0  0  0
  185.3566  -10.0538    0.5163 H   0  0  0  0  0
  186.2651   -8.3289    2.3068 H   0  0  0  0  0
  187.1981   -9.8013    2.8112 H   0  0  0  0  0
  183.8444   -8.8212    1.9825 H   0  0  0  0  0
  182.9327  -10.7306    4.0460 H   0  0  0  0  0
  181.2238   -8.4445    4.2612 H   0  0  0  0  0
  182.6156   -6.6853    4.9447 H   0  0  0  0  0
  183.2866   -7.2828    3.3567 H   0  0  0  0  0
  181.5739  -10.1429    5.9893 H   0  0  0  0  0
  183.2644   -9.6177    6.1829 H   0  0  0  0  0
  181.9346   -8.5192    6.6255 H   0  0  0  0  0
  184.3610   -7.8893    6.1100 H   0  0  0  0  0
  185.0159   -8.4724    4.5602 H   0  0  0  0  0
  185.0521   -6.7340    4.9444 H   0  0  0  0  0
  180.7443  -11.4016    3.8107 H   0  0  0  0  0
  179.7746  -11.0961    1.0322 H   0  0  0  0  0
  177.9975  -12.7183    2.4425 H   0  0  0  0  0
  179.6545  -13.1205    3.0755 H   0  0  0  0  0
  180.4190  -15.2501    1.8597 H   0  0  0  0  0
  177.8860  -11.3620   -0.3214 H   0  0  0  0  0
  179.5468  -15.1820   -3.0975 H   0  0  0  0  0
  177.5058  -11.4187   -2.7653 H   0  0  0  0  0
  178.3250  -13.3063   -4.1317 H   0  0  0  0  0
  178.2676   -9.7028    0.4724 H   0  0  0  0  0
  176.2033   -8.9556    2.4832 H   0  0  0  0  0
  175.4852   -6.9810    0.5959 H   0  0  0  0  0
  177.9135   -7.2145    2.6414 H   0  0  0  0  0
  177.8350   -6.9601    0.8807 H   0  0  0  0  0
  176.4263   -6.5748    1.8997 H   0  0  0  0  0
  1  2  1  0  0  0
  2  3  1  0  0  0
  2  5  1  0  0  0
  3  4  2  0  0  0
  3 10  1  0  0  0
  5  6  1  0  0  0
  6  7  1  0  0  0
  7  8  1  0  0  0
  7  9  2  0  0  0
 10 11  1  0  0  0
 11 12  1  0  0  0
 11 14  1  0  0  0
 12 13  2  0  0  0
 12 19  1  0  0  0
 14 15  1  0  0  0
 15 16  1  0  0  0
 16 17  2  0  0  0
 16 18  1  0  0  0
 19 20  1  0  0  0
 20 21  1  0  0  0
 21 22  2  0  0  0
 21 23  1  0  0  0
 23 24  1  0  0  0
 24 25  1  0  0  0
 24 27  1  0  0  0
 25 26  2  0  0  0
 25 31  1  0  0  0
 27 28  1  0  0  0
 27 29  1  0  0  0
 28 30  1  0  0  0
 31 32  1  0  0  0
 32 33  1  0  0  0
 32 35  1  0  0  0
 33 34  2  0  0  0
 33 45  1  0  0  0
 35 36  1  0  0  0
 36 37  4  0  0  0
 36 38  4  0  0  0
 37 39  4  0  0  0
 38 40  4  0  0  0
 38 41  4  0  0  0
 39 40  4  0  0  0
 40 42  4  0  0  0
 41 43  4  0  0  0
 42 44  4  0  0  0
 43 44  4  0  0  0
 45 46  1  0  0  0
 46 47  1  0  0  0
 46 49  1  0  0  0
 47 48  1  0  0  0
 47 50  2  0  0  0
  1 51  1  0  0  0
  1 52  1  0  0  0
  1 53  1  0  0  0
  2 54  1  0  0  0
  5 55  1  0  0  0
  5 56  1  0  0  0
  6 57  1  0  0  0
  6 58  1  0  0  0
  8 59  1  0  0  0
 10 60  1  0  0  0
 11 61  1  0  0  0
 14 62  1  0  0  0
 14 63  1  0  0  0
 15 64  1  0  0  0
 15 65  1  0  0  0
 18 66  1  0  0  0
 19 67  1  0  0  0
 20 68  1  0  0  0
 20 69  1  0  0  0
 23 70  1  0  0  0
 24 71  1  0  0  0
 27 72  1  0  0  0
 28 73  1  0  0  0
 28 74  1  0  0  0
 29 75  1  0  0  0
 29 76  1  0  0  0
 29 77  1  0  0  0
 30 78  1  0  0  0
 30 79  1  0  0  0
 30 80  1  0  0  0
 31 81  1  0  0  0
 32 82  1  0  0  0
 35 83  1  0  0  0
 35 84  1  0  0  0
 37 85  1  0  0  0
 41 86  1  0  0  0
 42 87  1  0  0  0
 43 88  1  0  0  0
 44 89  1  0  0  0
 45 90  1  0  0  0
 46 91  1  0  0  0
 48 92  1  0  0  0
 49 93  1  0  0  0
 49 94  1  0  0  0
 49 95  1  0  0  0
M  END
$$$$
