### 
### Created by X-TOOL on Mon Sep 10 21:12:53 2018
### 

@<TRIPOS>MOLECULE
1zub_ligand
   93    94     1     0     0
SMALL
GAST_HUCK


@<TRIPOS>ATOM
      1 N         190.1800  -11.6900   -4.5230 N.4       1 GLU         0.2380
      2 CA        190.2030  -10.6310   -3.4800 C.3       1 GLU         0.0665
      3 C         188.8020  -10.3620   -2.9370 C.2       1 GLU         0.2268
      4 O         187.9880   -9.7110   -3.5910 O.2       1 GLU        -0.3907
      5 CB        190.7870   -9.3560   -4.0940 C.3       1 GLU         0.0194
      6 CG        192.2050   -9.0550   -3.6360 C.3       1 GLU         0.0075
      7 CD        193.2430   -9.3930   -4.6880 C.2       1 GLU         0.0351
      8 OE1       192.9770  -10.2880   -5.5180 O.co2     1 GLU        -0.5690
      9 OE2       194.3220   -8.7640   -4.6820 O.co2     1 GLU        -0.5690
     10 N         188.5290  -10.8680   -1.7390 N.am      1 GLU        -0.2609
     11 CA        187.2270  -10.6810   -1.1090 C.3       1 GLU         0.1326
     12 C         187.3820  -10.1720    0.3210 C.2       1 GLU         0.2038
     13 O         188.4970  -10.0190    0.8180 O.2       1 GLU        -0.3944
     14 CB        186.4410  -11.9940   -1.1120 C.3       1 GLU        -0.0008
     15 CG        187.1860  -13.1510   -0.4670 C.3       1 GLU         0.0044
     16 CD        187.5640  -14.2310   -1.4610 C.2       1 GLU         0.0350
     17 OE1       188.4720  -13.9900   -2.2840 O.co2     1 GLU        -0.5690
     18 OE2       186.9510  -15.3190   -1.4170 O.co2     1 GLU        -0.5690
     19 N         186.2550   -9.9090    0.9770 N.am      1 GLY        -0.2664
     20 CA        186.2920   -9.4180    2.3420 C.3       1 GLY         0.1201
     21 C         185.1070   -9.8870    3.1650 C.2       1 GLY         0.2008
     22 O         185.2700  -10.6390    4.1250 O.2       1 GLY        -0.3947
     23 N         183.9120   -9.4420    2.7890 N.am      1 ILE        -0.2637
     24 CA        182.6960   -9.8180    3.4990 C.3       1 ILE         0.1335
     25 C         181.5580  -10.0630    2.5220 C.2       1 ILE         0.2042
     26 O         181.5040   -9.4630    1.4500 O.2       1 ILE        -0.3944
     27 CB        182.2440   -8.7360    4.5110 C.3       1 ILE        -0.0037
     28 CG1       183.1270   -7.4890    4.4150 C.3       1 ILE        -0.0491
     29 CG2       182.2550   -9.2940    5.9290 C.3       1 ILE        -0.0582
     30 CD1       184.4840   -7.6580    5.0520 C.3       1 ILE        -0.0648
     31 N         180.6420  -10.9360    2.9090 N.am      1 TRP        -0.2627
     32 CA        179.4940  -11.2440    2.0750 C.3       1 TRP         0.1351
     33 C         178.3390  -10.3120    2.4080 C.2       1 TRP         0.2046
     34 O         177.8980  -10.2390    3.5550 O.2       1 TRP        -0.3943
     35 CB        179.0710  -12.7050    2.2540 C.3       1 TRP         0.0042
     36 CG        179.3310  -13.5460    1.0390 C.2       1 TRP        -0.0418
     37 CD1       179.9900  -14.7420    0.9960 C.2       1 TRP         0.0167
     38 CD2       178.9420  -13.2540   -0.3100 C.ar      1 TRP        -0.0214
     39 NE1       180.0330  -15.2110   -0.2950 N.pl3     1 TRP        -0.2890
     40 CE2       179.3970  -14.3160   -1.1150 C.ar      1 TRP         0.0603
     41 CE3       178.2520  -12.1990   -0.9160 C.ar      1 TRP        -0.0747
     42 CZ2       179.1850  -14.3510   -2.4920 C.ar      1 TRP        -0.0443
     43 CZ3       178.0420  -12.2360   -2.2830 C.ar      1 TRP        -0.0792
     44 CH2       178.5070  -13.3060   -3.0570 C.ar      1 TRP        -0.0768
     45 N         177.8540   -9.5990    1.3990 N.am      1 ALA        -0.2697
     46 CA        176.7480   -8.6740    1.5820 C.3       1 ALA         0.0916
     47 C         175.7870   -8.7530    0.4010 C.2       1 ALA         0.0598
     48 O         175.2160   -7.7090    0.0310 O.co2     1 ALA        -0.5666
     49 CB        177.2680   -7.2540    1.7640 C.3       1 ALA        -0.0300
     50 OXT       175.6210   -9.8540   -0.1560 O.co2     1 ALA        -0.5666
     51 H1        191.1158  -11.8469   -4.8632 H         1 GLU         0.2015
     52 H2        189.5898  -11.3974   -5.2860 H         1 GLU         0.2015
     53 H3        189.8189  -12.5438   -4.1271 H         1 GLU         0.2015
     54 H4        190.8454  -10.9596   -2.6498 H         1 GLU         0.1099
     55 H5        190.1438   -8.5088   -3.8139 H         1 GLU         0.0363
     56 H6        190.7912   -9.4672   -5.1883 H         1 GLU         0.0363
     57 H7        192.4155   -9.6447   -2.7316 H         1 GLU         0.0434
     58 H8        192.2788   -7.9831   -3.4003 H         1 GLU         0.0434
     59 H9        189.2334  -11.3897   -1.2577 H         1 GLU         0.1885
     60 H10       186.6647   -9.9332   -1.6873 H         1 GLU         0.0801
     61 H11       186.2172  -12.2629   -2.1549 H         1 GLU         0.0330
     62 H12       185.5004  -11.8374   -0.5637 H         1 GLU         0.0330
     63 H13       186.5434  -13.5951    0.3075 H         1 GLU         0.0433
     64 H14       188.1047  -12.7629   -0.0030 H         1 GLU         0.0433
     65 H15       185.3742  -10.0510    0.5253 H         1 GLY         0.1881
     66 H16       186.2923   -8.3182    2.3206 H         1 GLY         0.0763
     67 H17       187.2159   -9.7758    2.8198 H         1 GLY         0.0763
     68 H18       183.8457   -8.8334    1.9983 H         1 ILE         0.1883
     69 H19       182.8975  -10.7484    4.0501 H         1 ILE         0.0803
     70 H20       181.2125   -8.4448    4.2636 H         1 ILE         0.0345
     71 H21       182.6094   -6.6573    4.9153 H         1 ILE         0.0267
     72 H22       183.2701   -7.2454    3.3519 H         1 ILE         0.0267
     73 H23       181.6157  -10.1879    5.9762 H         1 ILE         0.0235
     74 H24       181.8732   -8.5330    6.6255 H         1 ILE         0.0235
     75 H25       183.2840   -9.5640    6.2088 H         1 ILE         0.0235
     76 H26       185.0583   -6.7261    4.9441 H         1 ILE         0.0230
     77 H27       185.0219   -8.4796    4.5565 H         1 ILE         0.0230
     78 H28       184.3613   -7.8915    6.1199 H         1 ILE         0.0230
     79 H29       180.7423  -11.3925    3.7930 H         1 TRP         0.1884
     80 H30       179.7757  -11.0899    1.0229 H         1 TRP         0.0815
     81 H31       177.9938  -12.7331    2.4752 H         1 TRP         0.0397
     82 H32       179.6303  -13.1303    3.1003 H         1 TRP         0.0397
     83 H33       180.4187  -15.2496    1.8589 H         1 TRP         0.0795
     84 H34       180.4721  -16.0923   -0.5973 H         1 TRP         0.2216
     85 H35       177.8880  -11.3666   -0.3247 H         1 TRP         0.0540
     86 H36       179.5448  -15.1774   -3.0942 H         1 TRP         0.0541
     87 H37       177.5087  -11.4232   -2.7626 H         1 TRP         0.0510
     88 H38       178.3260  -13.3063   -4.1258 H         1 TRP         0.0530
     89 H39       178.2595   -9.7008    0.4906 H         1 ALA         0.1875
     90 H40       176.2015   -8.9615    2.4923 H         1 ALA         0.0723
     91 H41       176.4195   -6.5676    1.9010 H         1 ALA         0.0270
     92 H42       177.8404   -6.9561    0.8732 H         1 ALA         0.0270
     93 H43       177.9196   -7.2128    2.6493 H         1 ALA         0.0270
@<TRIPOS>BOND
     1    1    2 1  
     2    2    3 1  
     3    2    5 1  
     4    3    4 2  
     5    3   10 am 
     6    5    6 1  
     7    6    7 1  
     8    7    8 ar 
     9    7    9 ar 
    10   10   11 1  
    11   11   12 1  
    12   11   14 1  
    13   12   13 2  
    14   12   19 am 
    15   14   15 1  
    16   15   16 1  
    17   16   17 ar 
    18   16   18 ar 
    19   19   20 1  
    20   20   21 1  
    21   21   22 2  
    22   21   23 am 
    23   23   24 1  
    24   24   25 1  
    25   24   27 1  
    26   25   26 2  
    27   25   31 am 
    28   27   28 1  
    29   27   29 1  
    30   28   30 1  
    31   31   32 1  
    32   32   33 1  
    33   32   35 1  
    34   33   34 2  
    35   33   45 am 
    36   35   36 1  
    37   36   37 2  
    38   36   38 1  
    39   37   39 1  
    40   38   40 ar 
    41   38   41 ar 
    42   39   40 1  
    43   40   42 ar 
    44   41   43 ar 
    45   42   44 ar 
    46   43   44 ar 
    47   45   46 1  
    48   46   47 1  
    49   46   49 1  
    50   47   48 ar 
    51   47   50 ar 
    52    1   51 1  
    53    1   52 1  
    54    1   53 1  
    55    2   54 1  
    56    5   55 1  
    57    5   56 1  
    58    6   57 1  
    59    6   58 1  
    60   10   59 1  
    61   11   60 1  
    62   14   61 1  
    63   14   62 1  
    64   15   63 1  
    65   15   64 1  
    66   19   65 1  
    67   20   66 1  
    68   20   67 1  
    69   23   68 1  
    70   24   69 1  
    71   27   70 1  
    72   28   71 1  
    73   28   72 1  
    74   29   73 1  
    75   29   74 1  
    76   29   75 1  
    77   30   76 1  
    78   30   77 1  
    79   30   78 1  
    80   31   79 1  
    81   32   80 1  
    82   35   81 1  
    83   35   82 1  
    84   37   83 1  
    85   39   84 1  
    86   41   85 1  
    87   42   86 1  
    88   43   87 1  
    89   44   88 1  
    90   45   89 1  
    91   46   90 1  
    92   49   91 1  
    93   49   92 1  
    94   49   93 1  
@<TRIPOS>SUBSTRUCTURE
     1 GLU         1

