6b67_ligand
  -I-interpret- 

122123  0  0  0  0  0  0  0  0999 V2000
   54.9840   30.0510   46.8680 N   0  0  0  0  0
   54.0040   31.1100   46.7150 C   0  0  0  0  0
   54.6110   32.4180   47.2690 C   0  0  0  0  0
   55.7950   32.4520   47.6280 O   0  0  0  0  0
   52.7000   30.7110   47.4170 C   0  0  0  0  0
   51.9500   29.5270   46.7540 C   0  0  0  0  0
   51.0600   29.9850   45.1600 S   0  0  0  0  0
   51.3320   28.4900   44.1050 C   0  0  0  0  0
   53.8300   33.4940   47.3180 N   0  0  0  0  0
   54.3600   34.7740   47.7810 C   0  0  0  0  0
   53.3100   35.8830   47.6100 C   0  0  0  0  0
   52.1250   35.6420   48.3730 O   0  0  0  0  0
   54.9860   34.7420   49.1910 C   0  0  0  0  0
   56.0670   35.3050   49.4120 O   0  0  0  0  0
   50.8050   34.9470   47.7120 P   0  0  0  0  0
   51.0450   33.8900   46.7460 O   0  0  0  0  0
   49.6980   34.6950   48.6590 O   0  0  0  0  0
   50.1710   36.1160   46.7830 O   0  0  0  0  0
   54.3920   33.9710   50.0960 N   0  0  0  0  0
   54.8980   33.8600   51.4620 C   0  0  0  0  0
   55.0820   32.3790   51.8470 C   0  0  0  0  0
   56.0870   31.9970   52.4400 O   0  0  0  0  0
   53.9610   34.6100   52.4290 C   0  0  0  0  0
   53.9470   36.0900   52.0330 C   0  0  0  0  0
   54.4110   34.4410   53.8700 C   0  0  0  0  0
   52.7490   36.8100   52.4660 C   0  0  0  0  0
   54.1090   31.5460   51.5240 N   0  0  0  0  0
   54.2420   30.1190   51.7740 C   0  0  0  0  0
   55.3740   29.6190   50.8510 C   0  0  0  0  0
   55.3020   29.7960   49.6350 O   0  0  0  0  0
   52.9210   29.4140   51.4540 C   0  0  0  0  0
   51.9870   29.3830   52.6230 C   0  0  0  0  0
   50.9480   30.3110   52.7460 C   0  0  0  0  0
   52.1240   28.4000   53.6060 C   0  0  0  0  0
   50.0530   30.2480   53.8290 C   0  0  0  0  0
   51.2490   28.3280   54.6830 C   0  0  0  0  0
   50.2090   29.2430   54.7890 C   0  0  0  0  0
   49.2980   29.1020   55.8150 O   0  0  0  0  0
   49.3220   30.0180   57.1420 P   0  0  0  0  0
   49.2240   31.4870   56.9180 O   0  0  0  0  0
   48.5530   29.4810   58.2890 O   0  0  0  0  0
   50.8400   29.8670   57.6460 O   0  0  0  0  0
   56.3950   28.9830   51.4290 N   0  0  0  0  0
   57.5550   28.5180   50.6570 C   0  0  0  0  0
   57.4330   27.1920   49.8870 C   0  0  0  0  0
   57.9650   27.0550   48.7760 O   0  0  0  0  0
   58.8370   28.4870   51.5310 C   0  0  0  0  0
   59.0080   29.8310   52.2540 C   0  0  0  0  0
   58.7720   27.3570   52.5470 C   0  0  0  0  0
   56.7290   26.2280   50.4660 N   0  0  0  0  0
   56.5630   24.9250   49.8370 C   0  0  0  0  0
   55.5420   25.0090   48.7090 C   0  0  0  0  0
   54.3800   25.3390   48.9480 O   0  0  0  0  0
   56.1150   23.9170   50.8820 C   0  0  0  0  0
   55.3180   29.7920   44.6630 O   0  0  0  0  0
   55.9740   24.7340   47.4820 N   0  0  0  0  0
   55.0750   24.7700   46.3320 C   0  0  0  0  0
   55.6390   23.9530   45.1520 C   0  0  0  0  0
   55.0020   23.8510   44.1000 O   0  0  0  0  0
   56.9090   23.6010   45.2420 N   0  0  0  0  0
   54.8290   26.2190   45.8940 C   0  0  0  0  0
   56.3080   26.9070   45.1540 S   0  0  0  0  0
   56.5750   28.3840   46.1640 C   0  0  0  0  0
   55.5760   29.4830   45.8310 C   0  0  0  0  0
   55.2244   29.7340   47.8072 H   0  0  0  0  0
   53.7558   31.2730   45.6662 H   0  0  0  0  0
   52.0363   31.5745   47.3724 H   0  0  0  0  0
   52.9643   30.3963   48.4266 H   0  0  0  0  0
   51.1939   29.1855   47.4609 H   0  0  0  0  0
   52.6943   28.7709   46.5041 H   0  0  0  0  0
   52.4018   28.3365   43.9635 H   0  0  0  0  0
   50.9002   27.6175   44.5953 H   0  0  0  0  0
   50.8537   28.6382   43.1368 H   0  0  0  0  0
   52.8539   33.4246   47.0301 H   0  0  0  0  0
   55.2086   35.0064   47.1376 H   0  0  0  0  0
   53.0292   35.9191   46.5574 H   0  0  0  0  0
   53.7494   36.8172   47.9597 H   0  0  0  0  0
   49.6129   35.4419   49.2561 H   0  0  0  0  0
   49.9687   36.8809   47.3267 H   0  0  0  0  0
   53.5610   33.4429   49.8298 H   0  0  0  0  0
   55.8799   34.3284   51.5300 H   0  0  0  0  0
   52.9550   34.1963   52.3585 H   0  0  0  0  0
   53.9751   36.1339   50.9442 H   0  0  0  0  0
   54.8014   36.5627   52.5175 H   0  0  0  0  0
   54.4049   33.3823   54.1294 H   0  0  0  0  0
   55.4196   34.8384   53.9833 H   0  0  0  0  0
   53.7302   34.9814   54.5277 H   0  0  0  0  0
   51.8681   36.3483   52.0199 H   0  0  0  0  0
   52.6730   36.7660   53.5525 H   0  0  0  0  0
   52.8166   37.8501   52.1470 H   0  0  0  0  0
   53.2566   31.9066   51.0954 H   0  0  0  0  0
   54.4775   29.9094   52.8174 H   0  0  0  0  0
   53.1486   28.3841   51.1792 H   0  0  0  0  0
   52.4333   29.9647   50.6496 H   0  0  0  0  0
   50.8306   31.0916   51.9943 H   0  0  0  0  0
   52.9338   27.6747   53.5266 H   0  0  0  0  0
   49.2459   30.9751   53.9193 H   0  0  0  0  0
   51.3781   27.5564   55.4420 H   0  0  0  0  0
   49.7555   31.7296   56.1562 H   0  0  0  0  0
   51.4354   30.1915   56.9665 H   0  0  0  0  0
   56.3692   28.8151   52.4348 H   0  0  0  0  0
   57.6122   29.2724   49.8723 H   0  0  0  0  0
   59.6940   28.3148   50.8798 H   0  0  0  0  0
   59.0930   30.6301   51.5175 H   0  0  0  0  0
   58.1420   30.0124   52.8906 H   0  0  0  0  0
   59.9100   29.8011   52.8653 H   0  0  0  0  0
   57.9079   27.5023   53.1953 H   0  0  0  0  0
   58.6797   26.4050   52.0243 H   0  0  0  0  0
   59.6820   27.3568   53.1470 H   0  0  0  0  0
   56.2943   26.4034   51.3719 H   0  0  0  0  0
   57.5146   24.6047   49.4127 H   0  0  0  0  0
   56.8680   23.8507   51.6673 H   0  0  0  0  0
   55.1667   24.2388   51.3123 H   0  0  0  0  0
   55.9901   22.9409   50.4133 H   0  0  0  0  0
   56.9549   24.4926   47.3410 H   0  0  0  0  0
   54.1294   24.3204   46.6351 H   0  0  0  0  0
   57.3948   23.2308   44.4250 H   0  0  0  0  0
   57.4039   23.6994   46.1284 H   0  0  0  0  0
   54.5595   26.8131   46.7673 H   0  0  0  0  0
   54.0236   26.2361   45.1597 H   0  0  0  0  0
   57.5782   28.7600   45.9634 H   0  0  0  0  0
   56.4480   28.1108   47.2116 H   0  0  0  0  0
  1  2  1  0  0  0
  1 64  1  0  0  0
  2  3  1  0  0  0
  2  5  1  0  0  0
  3  4  2  0  0  0
  3  9  1  0  0  0
  5  6  1  0  0  0
  6  7  1  0  0  0
  7  8  1  0  0  0
  9 10  1  0  0  0
 10 11  1  0  0  0
 10 13  1  0  0  0
 11 12  1  0  0  0
 12 15  1  0  0  0
 13 14  2  0  0  0
 13 19  1  0  0  0
 15 16  2  0  0  0
 15 17  1  0  0  0
 15 18  1  0  0  0
 19 20  1  0  0  0
 20 21  1  0  0  0
 20 23  1  0  0  0
 21 22  2  0  0  0
 21 27  1  0  0  0
 23 24  1  0  0  0
 23 25  1  0  0  0
 24 26  1  0  0  0
 27 28  1  0  0  0
 28 29  1  0  0  0
 28 31  1  0  0  0
 29 30  2  0  0  0
 29 43  1  0  0  0
 31 32  1  0  0  0
 32 33  4  0  0  0
 32 34  4  0  0  0
 33 35  4  0  0  0
 34 36  4  0  0  0
 35 37  4  0  0  0
 36 37  4  0  0  0
 37 38  1  0  0  0
 38 39  1  0  0  0
 39 40  1  0  0  0
 39 41  2  0  0  0
 39 42  1  0  0  0
 43 44  1  0  0  0
 44 45  1  0  0  0
 44 47  1  0  0  0
 45 46  2  0  0  0
 45 50  1  0  0  0
 47 48  1  0  0  0
 47 49  1  0  0  0
 50 51  1  0  0  0
 51 52  1  0  0  0
 51 54  1  0  0  0
 52 53  2  0  0  0
 52 56  1  0  0  0
 64 55  2  0  0  0
 56 57  1  0  0  0
 57 58  1  0  0  0
 57 61  1  0  0  0
 58 59  2  0  0  0
 58 60  1  0  0  0
 61 62  1  0  0  0
 62 63  1  0  0  0
 63 64  1  0  0  0
  1 65  1  0  0  0
  2 66  1  0  0  0
  5 67  1  0  0  0
  5 68  1  0  0  0
  6 69  1  0  0  0
  6 70  1  0  0  0
  8 71  1  0  0  0
  8 72  1  0  0  0
  8 73  1  0  0  0
  9 74  1  0  0  0
 10 75  1  0  0  0
 11 76  1  0  0  0
 11 77  1  0  0  0
 17 78  1  0  0  0
 18 79  1  0  0  0
 19 80  1  0  0  0
 20 81  1  0  0  0
 23 82  1  0  0  0
 24 83  1  0  0  0
 24 84  1  0  0  0
 25 85  1  0  0  0
 25 86  1  0  0  0
 25 87  1  0  0  0
 26 88  1  0  0  0
 26 89  1  0  0  0
 26 90  1  0  0  0
 27 91  1  0  0  0
 28 92  1  0  0  0
 31 93  1  0  0  0
 31 94  1  0  0  0
 33 95  1  0  0  0
 34 96  1  0  0  0
 35 97  1  0  0  0
 36 98  1  0  0  0
 40 99  1  0  0  0
 42100  1  0  0  0
 43101  1  0  0  0
 44102  1  0  0  0
 47103  1  0  0  0
 48104  1  0  0  0
 48105  1  0  0  0
 48106  1  0  0  0
 49107  1  0  0  0
 49108  1  0  0  0
 49109  1  0  0  0
 50110  1  0  0  0
 51111  1  0  0  0
 54112  1  0  0  0
 54113  1  0  0  0
 54114  1  0  0  0
 56115  1  0  0  0
 57116  1  0  0  0
 60117  1  0  0  0
 60118  1  0  0  0
 61119  1  0  0  0
 61120  1  0  0  0
 63121  1  0  0  0
 63122  1  0  0  0
M  END
$$$$
