### 
### Created by X-TOOL on Wed Jan  1 15:39:35 2020
### 

@<TRIPOS>MOLECULE
6b67_ligand
  118   119     1     0     0
SMALL
GAST_HUCK


@<TRIPOS>ATOM
      1 N          54.9840   30.0510   46.8680 N.am      1 MET        -0.2649
      2 CA         54.0040   31.1100   46.7150 C.3       1 MET         0.1317
      3 C          54.6110   32.4180   47.2690 C.2       1 MET         0.2040
      4 O          55.7950   32.4520   47.6280 O.2       1 MET        -0.3944
      5 CB         52.7000   30.7110   47.4170 C.3       1 MET        -0.0034
      6 CG         51.9500   29.5270   46.7540 C.3       1 MET        -0.0024
      7 SD         51.0600   29.9850   45.1600 S.3       1 MET        -0.1639
      8 CE         51.3320   28.4900   44.1050 C.3       1 MET        -0.0181
      9 N          53.8300   33.4940   47.3180 N.am      1 SEP        -0.2613
     10 CA         54.3600   34.7740   47.7810 C.3       1 SEP         0.1586
     11 CB         53.3100   35.8830   47.6100 C.3       1 SEP         0.1184
     12 OG         52.1250   35.6420   48.3730 O.3       1 SEP        -0.2714
     13 C          54.9860   34.7420   49.1910 C.2       1 SEP         0.2065
     14 O          56.0670   35.3050   49.4120 O.2       1 SEP        -0.3943
     15 P          50.8050   34.9470   47.7120 P.3       1 SEP         0.2010
     16 O1P        51.0450   33.8900   46.7460 O.co2     1 SEP        -0.5537
     17 O2P        49.6980   34.6950   48.6590 O.co2     1 SEP        -0.5537
     18 O3P        50.1710   36.1160   46.7830 O.co2     1 SEP        -0.5537
     19 N          54.3920   33.9710   50.0960 N.am      1 ILE        -0.2634
     20 CA         54.8980   33.8600   51.4620 C.3       1 ILE         0.1335
     21 C          55.0820   32.3790   51.8470 C.2       1 ILE         0.2044
     22 O          56.0870   31.9970   52.4400 O.2       1 ILE        -0.3944
     23 CB         53.9610   34.6100   52.4290 C.3       1 ILE        -0.0037
     24 CG1        53.9470   36.0900   52.0330 C.3       1 ILE        -0.0491
     25 CG2        54.4110   34.4410   53.8700 C.3       1 ILE        -0.0582
     26 CD1        52.7490   36.8100   52.4660 C.3       1 ILE        -0.0648
     27 N          54.1090   31.5460   51.5240 N.am      1 PTR        -0.2607
     28 CA         54.2420   30.1190   51.7740 C.3       1 PTR         0.1468
     29 C          55.3740   29.6190   50.8510 C.2       1 PTR         0.2074
     30 O          55.3020   29.7960   49.6350 O.2       1 PTR        -0.3941
     31 CB         52.9210   29.4140   51.4540 C.3       1 PTR         0.0400
     32 CG         51.9870   29.3830   52.6230 C.ar      1 PTR        -0.0004
     33 CD1        50.9480   30.3110   52.7460 C.ar      1 PTR        -0.0239
     34 CD2        52.1240   28.4000   53.6060 C.ar      1 PTR        -0.0239
     35 CE1        50.0530   30.2480   53.8290 C.ar      1 PTR         0.0115
     36 CE2        51.2490   28.3280   54.6830 C.ar      1 PTR         0.0115
     37 CZ         50.2090   29.2430   54.7890 C.ar      1 PTR         0.1728
     38 OH         49.2980   29.1020   55.8150 O.3       1 PTR        -0.2040
     39 P          49.3220   30.0180   57.1420 P.3       1 PTR         0.1348
     40 O1P        49.2240   31.4870   56.9180 O.co2     1 PTR        -0.6653
     41 O2P        48.5530   29.4810   58.2890 O.co2     1 PTR        -0.6653
     42 O3P        50.8400   29.8670   57.6460 O.co2     1 PTR        -0.6653
     43 N          56.3950   28.9830   51.4290 N.am      1 VAL        -0.2632
     44 CA         57.5550   28.5180   50.6570 C.3       1 VAL         0.1333
     45 C          57.4330   27.1920   49.8870 C.2       1 VAL         0.2041
     46 O          57.9650   27.0550   48.7760 O.2       1 VAL        -0.3944
     47 CB         58.8370   28.4870   51.5310 C.3       1 VAL        -0.0063
     48 CG1        59.0080   29.8310   52.2540 C.3       1 VAL        -0.0584
     49 CG2        58.7720   27.3570   52.5470 C.3       1 VAL        -0.0584
     50 N          56.7290   26.2280   50.4660 N.am      1 ALA        -0.2640
     51 CA         56.5630   24.9250   49.8370 C.3       1 ALA         0.1282
     52 C          55.5420   25.0090   48.7090 C.2       1 ALA         0.2036
     53 O          54.3800   25.3390   48.9480 O.2       1 ALA        -0.3944
     54 CB         56.1150   23.9170   50.8820 C.3       1 ALA        -0.0244
     55 O10        55.3180   29.7920   44.6630 O.2       1 48V        -0.3960
     56 N01        55.9740   24.7340   47.4820 N.am      1 48V        -0.2629
     57 C02        55.0750   24.7700   46.3320 C.3       1 48V         0.1397
     58 C03        55.6390   23.9530   45.1520 C.2       1 48V         0.2000
     59 O04        55.0020   23.8510   44.1000 O.2       1 48V        -0.3947
     60 N05        56.9090   23.6010   45.2420 N.am      1 48V        -0.2989
     61 C06        54.8290   26.2190   45.8940 C.3       1 48V         0.0363
     62 S07        56.3080   26.9070   45.1540 S.3       1 48V        -0.1344
     63 C08        56.5750   28.3840   46.1640 C.3       1 48V         0.0836
     64 C09        55.5760   29.4830   45.8310 C.2       1 48V         0.1882
     65 H1         55.2197   29.7402   47.7888 H         1 MET         0.1883
     66 H2         53.7894   31.2511   45.6454 H         1 MET         0.0800
     67 H3         52.0303   31.5836   47.4199 H         1 MET         0.0320
     68 H4         52.9396   30.4292   48.4529 H         1 MET         0.0320
     69 H5         51.2061   29.1445   47.4684 H         1 MET         0.0378
     70 H6         52.6812   28.7369   46.5277 H         1 MET         0.0378
     71 H7         50.8497   28.6383   43.1276 H         1 MET         0.0340
     72 H8         50.8966   27.6087   44.5987 H         1 MET         0.0340
     73 H9         52.4114   28.3340   43.9613 H         1 MET         0.0340
     74 H10        52.8731   33.4259   47.0358 H         1 SEP         0.1884
     75 H11        55.1864   35.0239   47.0993 H         1 SEP         0.0827
     76 H12        53.0367   35.9482   46.5465 H         1 SEP         0.0662
     77 H13        53.7498   36.8375   47.9348 H         1 SEP         0.0662
     78 H14        53.5772   33.4532   49.8351 H         1 ILE         0.1883
     79 H15        55.8851   34.3434   51.5054 H         1 ILE         0.0803
     80 H16        52.9442   34.2021   52.3309 H         1 ILE         0.0345
     81 H17        54.0128   36.1556   50.9369 H         1 ILE         0.0267
     82 H18        54.8248   36.5769   52.4829 H         1 ILE         0.0267
     83 H19        54.4129   33.3723   54.1305 H         1 ILE         0.0235
     84 H20        53.7201   34.9793   54.5355 H         1 ILE         0.0235
     85 H21        55.4258   34.8489   53.9875 H         1 ILE         0.0235
     86 H22        52.8160   37.8599   52.1447 H         1 ILE         0.0230
     87 H23        52.6712   36.7664   53.5624 H         1 ILE         0.0230
     88 H24        51.8592   36.3451   52.0164 H         1 ILE         0.0230
     89 H25        53.2733   31.8995   51.1038 H         1 PTR         0.1886
     90 H26        54.5064   29.9387   52.8264 H         1 PTR         0.0840
     91 H27        53.1385   28.3796   51.1494 H         1 PTR         0.0584
     92 H28        52.4302   29.9449   50.6250 H         1 PTR         0.0584
     93 H29        50.8312   31.0873   51.9985 H         1 PTR         0.0703
     94 H30        52.9293   27.6787   53.5270 H         1 PTR         0.0703
     95 H31        49.2504   30.9711   53.9188 H         1 PTR         0.0736
     96 H32        51.3774   27.5606   55.4378 H         1 PTR         0.0736
     97 H33        56.3697   28.8184   52.4150 H         1 VAL         0.1883
     98 H34        57.7132   29.2886   49.8882 H         1 VAL         0.0802
     99 H35        59.7056   28.3223   50.8765 H         1 VAL         0.0343
    100 H36        59.9180   29.8021   52.8713 H         1 VAL         0.0234
    101 H37        58.1346   30.0153   52.8968 H         1 VAL         0.0234
    102 H38        59.0939   30.6383   51.5118 H         1 VAL         0.0234
    103 H39        58.6496   26.3983   52.0217 H         1 VAL         0.0234
    104 H40        57.9172   27.5180   53.2203 H         1 VAL         0.0234
    105 H41        59.7023   27.3374   53.1337 H         1 VAL         0.0234
    106 H42        56.3028   26.3999   51.3542 H         1 ALA         0.1883
    107 H43        57.5281   24.6029   49.4188 H         1 ALA         0.0797
    108 H44        55.9886   22.9314   50.4102 H         1 ALA         0.0277
    109 H45        55.1580   24.2406   51.3171 H         1 ALA         0.0277
    110 H46        56.8741   23.8491   51.6752 H         1 ALA         0.0277
    111 H47        56.9357   24.4973   47.3437 H         1 48V         0.1884
    112 H48        54.1138   24.3270   46.6317 H         1 48V         0.0808
    113 H49        57.3338   23.0699   44.5089 H         1 48V         0.1815
    114 H50        57.4456   23.8656   46.0433 H         1 48V         0.1815
    115 H51        54.5493   26.8204   46.7715 H         1 48V         0.0426
    116 H52        54.0115   26.2415   45.1583 H         1 48V         0.0426
    117 H53        57.5925   28.7606   45.9826 H         1 48V         0.0616
    118 H54        56.4675   28.1144   47.2250 H         1 48V         0.0616
@<TRIPOS>BOND
     1    1    2 1  
     2    1   64 am 
     3    2    3 1  
     4    2    5 1  
     5    3    4 2  
     6    3    9 am 
     7    5    6 1  
     8    6    7 1  
     9    7    8 1  
    10    9   10 1  
    11   10   11 1  
    12   10   13 1  
    13   11   12 1  
    14   12   15 1  
    15   13   14 2  
    16   13   19 am 
    17   15   16 ar 
    18   15   17 ar 
    19   15   18 ar 
    20   19   20 1  
    21   20   21 1  
    22   20   23 1  
    23   21   22 2  
    24   21   27 am 
    25   23   24 1  
    26   23   25 1  
    27   24   26 1  
    28   27   28 1  
    29   28   29 1  
    30   28   31 1  
    31   29   30 2  
    32   29   43 am 
    33   31   32 1  
    34   32   33 ar 
    35   32   34 ar 
    36   33   35 ar 
    37   34   36 ar 
    38   35   37 ar 
    39   36   37 ar 
    40   37   38 1  
    41   38   39 1  
    42   39   40 ar 
    43   39   41 ar 
    44   39   42 ar 
    45   43   44 1  
    46   44   45 1  
    47   44   47 1  
    48   45   46 2  
    49   45   50 am 
    50   47   48 1  
    51   47   49 1  
    52   50   51 1  
    53   51   52 1  
    54   51   54 1  
    55   52   53 2  
    56   52   56 am 
    57   64   55 2  
    58   56   57 1  
    59   57   58 1  
    60   57   61 1  
    61   58   59 2  
    62   58   60 am 
    63   61   62 1  
    64   62   63 1  
    65   63   64 1  
    66    1   65 1  
    67    2   66 1  
    68    5   67 1  
    69    5   68 1  
    70    6   69 1  
    71    6   70 1  
    72    8   71 1  
    73    8   72 1  
    74    8   73 1  
    75    9   74 1  
    76   10   75 1  
    77   11   76 1  
    78   11   77 1  
    79   19   78 1  
    80   20   79 1  
    81   23   80 1  
    82   24   81 1  
    83   24   82 1  
    84   25   83 1  
    85   25   84 1  
    86   25   85 1  
    87   26   86 1  
    88   26   87 1  
    89   26   88 1  
    90   27   89 1  
    91   28   90 1  
    92   31   91 1  
    93   31   92 1  
    94   33   93 1  
    95   34   94 1  
    96   35   95 1  
    97   36   96 1  
    98   43   97 1  
    99   44   98 1  
   100   47   99 1  
   101   48  100 1  
   102   48  101 1  
   103   48  102 1  
   104   49  103 1  
   105   49  104 1  
   106   49  105 1  
   107   50  106 1  
   108   51  107 1  
   109   54  108 1  
   110   54  109 1  
   111   54  110 1  
   112   56  111 1  
   113   57  112 1  
   114   60  113 1  
   115   60  114 1  
   116   61  115 1  
   117   61  116 1  
   118   63  117 1  
   119   63  118 1  
@<TRIPOS>SUBSTRUCTURE
     1 MET         1

