6fe0_ligand
  -I-interpret- 

 49 50  0  0  0  0  0  0  0  0999 V2000
  -30.6310   12.8460  -92.6400 F   0  0  0  0  0
  -29.2970   12.8690  -92.7010 C   0  0  0  0  0
  -28.7050   13.8410  -93.6320 C   0  0  0  0  0
  -29.7360   14.8150  -94.5920 S   0  0  0  0  0
  -29.8000   16.4360  -93.9280 C   0  0  0  0  0
  -30.5360   16.4580  -92.6100 C   0  0  0  0  0
  -29.8480   17.4190  -91.8180 O   0  0  0  0  0
  -27.2390   13.9330  -93.7340 C   0  0  0  0  0
  -26.6720   14.8240  -94.5730 F   0  0  0  0  0
  -28.4460   11.9360  -91.8950 C   0  0  0  0  0
  -26.9590   12.0560  -91.9660 C   0  0  0  0  0
  -25.9340   11.0890  -91.1390 S   0  0  0  0  0
  -25.4260   11.7840  -89.9740 O   0  0  0  0  0
  -24.6860   10.6910  -92.0640 N   0  0  0  0  0
  -26.5950    9.8380  -90.8630 O   0  0  0  0  0
  -26.3890   13.0400  -92.9180 C   0  0  0  0  0
  -25.0630   13.1420  -93.0170 F   0  0  0  0  0
  -28.9510   11.1600  -90.9220 N   0  0  0  0  0
  -29.9520   11.7010  -89.9910 C   0  0  0  0  0
  -29.3010   12.8780  -89.2280 C   0  0  0  0  0
  -30.1640   14.1090  -88.9460 C   0  0  0  0  0
  -31.5280   13.8740  -88.3330 C   0  0  0  0  0
  -31.4420   13.2070  -86.9630 C   0  0  0  0  0
  -31.0870   11.7230  -86.8820 C   0  0  0  0  0
  -31.5070   10.8560  -88.0600 C   0  0  0  0  0
  -30.3560   10.5890  -89.0330 C   0  0  0  0  0
  -30.3279   17.0795  -94.6318 H   0  0  0  0  0
  -28.7805   16.7846  -93.7628 H   0  0  0  0  0
  -30.5441   15.4764  -92.1362 H   0  0  0  0  0
  -31.5863   16.7192  -92.7390 H   0  0  0  0  0
  -30.2689   17.4833  -90.9576 H   0  0  0  0  0
  -23.7390   10.9387  -91.7771 H   0  0  0  0  0
  -24.8391   10.1901  -92.9393 H   0  0  0  0  0
  -28.6394   10.1933  -90.8288 H   0  0  0  0  0
  -30.8405   12.0593  -90.5109 H   0  0  0  0  0
  -28.4933   13.2297  -89.8698 H   0  0  0  0  0
  -29.0349   12.4787  -88.2493 H   0  0  0  0  0
  -30.3516   14.5669  -89.9172 H   0  0  0  0  0
  -29.6092   14.6975  -88.2153 H   0  0  0  0  0
  -32.0866   13.2131  -88.9958 H   0  0  0  0  0
  -32.0129   14.8421  -88.2073 H   0  0  0  0  0
  -32.4495   13.2773  -86.5529 H   0  0  0  0  0
  -30.6263   13.7189  -86.4524 H   0  0  0  0  0
  -31.6213   11.3328  -86.0158 H   0  0  0  0  0
  -29.9986   11.6756  -86.8467 H   0  0  0  0  0
  -32.2903   11.3845  -88.6034 H   0  0  0  0  0
  -31.8442    9.8967  -87.6675 H   0  0  0  0  0
  -29.4817   10.4189  -88.4046 H   0  0  0  0  0
  -30.6999    9.7728  -89.6683 H   0  0  0  0  0
  1  2  1  0  0  0
  2  3  4  0  0  0
  2 10  4  0  0  0
  3  4  1  0  0  0
  3  8  4  0  0  0
  4  5  1  0  0  0
  5  6  1  0  0  0
  6  7  1  0  0  0
  8  9  1  0  0  0
  8 16  4  0  0  0
 10 11  4  0  0  0
 10 18  1  0  0  0
 11 12  1  0  0  0
 11 16  4  0  0  0
 12 13  2  0  0  0
 12 14  1  0  0  0
 12 15  2  0  0  0
 16 17  1  0  0  0
 18 19  1  0  0  0
 19 20  1  0  0  0
 19 26  1  0  0  0
 20 21  1  0  0  0
 21 22  1  0  0  0
 22 23  1  0  0  0
 23 24  1  0  0  0
 24 25  1  0  0  0
 25 26  1  0  0  0
  5 27  1  0  0  0
  5 28  1  0  0  0
  6 29  1  0  0  0
  6 30  1  0  0  0
  7 31  1  0  0  0
 14 32  1  0  0  0
 14 33  1  0  0  0
 18 34  1  0  0  0
 19 35  1  0  0  0
 20 36  1  0  0  0
 20 37  1  0  0  0
 21 38  1  0  0  0
 21 39  1  0  0  0
 22 40  1  0  0  0
 22 41  1  0  0  0
 23 42  1  0  0  0
 23 43  1  0  0  0
 24 44  1  0  0  0
 24 45  1  0  0  0
 25 46  1  0  0  0
 25 47  1  0  0  0
 26 48  1  0  0  0
 26 49  1  0  0  0
M  END
$$$$
