5t8q_ligand
  -I-interpret- 

 27 28  0  0  0  0  0  0  0  0999 V2000
   19.4060   42.2080    6.7150 C   0  0  0  0  0
   18.2230   42.5810    5.8870 C   0  0  0  0  0
   18.1820   42.6570    4.4970 C   0  0  0  0  0
   16.9070   43.0170    4.1420 C   0  0  0  0  0
   16.1900   43.1440    5.3110 C   0  0  0  0  0
   16.5580   42.9160    7.7460 C   0  0  0  0  0
   15.2360   40.1320   10.0920 C   0  0  0  0  0
   15.6460   41.3790    9.6340 C   0  0  0  0  0
   15.5910   42.7850   10.7230 Cl  0  0  0  0  0
   15.2750   39.0430    9.2300 C   0  0  0  0  0
   15.7180   39.1920    7.9160 C   0  0  0  0  0
   16.1430   40.4230    7.4250 C   0  0  0  0  0
   16.1300   41.5480    8.2380 C   0  0  0  0  0
   16.9980   42.8840    6.3480 N   0  0  0  0  0
   19.2550   41.9300    7.8890 O   0  0  0  0  0
   20.6220   42.1700    6.1750 N   0  0  0  0  0
   19.0112   42.4655    3.8160 H   0  0  0  0  0
   16.5333   43.1726    3.1299 H   0  0  0  0  0
   15.1359   43.4125    5.3813 H   0  0  0  0  0
   17.3943   43.2523    8.3589 H   0  0  0  0  0
   15.7024   43.5874    7.8187 H   0  0  0  0  0
   14.8873   40.0098   11.1175 H   0  0  0  0  0
   14.9563   38.0627    9.5842 H   0  0  0  0  0
   15.7317   38.3234    7.2577 H   0  0  0  0  0
   16.4886   40.5043    6.3944 H   0  0  0  0  0
   21.4256   41.9079    6.7459 H   0  0  0  0  0
   20.7502   42.4030    5.1903 H   0  0  0  0  0
  2  1  1  0  0  0
  1 15  2  0  0  0
  1 16  1  0  0  0
  2  3  4  0  0  0
 14  2  4  0  0  0
  4  3  4  0  0  0
  5  4  4  0  0  0
 14  5  4  0  0  0
 13  6  1  0  0  0
  6 14  1  0  0  0
  8  7  4  0  0  0
  7 10  4  0  0  0
  8  9  1  0  0  0
  8 13  4  0  0  0
 10 11  4  0  0  0
 11 12  4  0  0  0
 12 13  4  0  0  0
  3 17  1  0  0  0
  4 18  1  0  0  0
  5 19  1  0  0  0
  6 20  1  0  0  0
  6 21  1  0  0  0
  7 22  1  0  0  0
 10 23  1  0  0  0
 11 24  1  0  0  0
 12 25  1  0  0  0
 16 26  1  0  0  0
 16 27  1  0  0  0
M  END
$$$$
