1br8_ligand
  -I-interpret- 

157156  0  0  0  0  0  0  0  0999 V2000
   31.2460    9.5370   86.9010 N   0  3  0  0  0
   30.0790    9.3290   86.0410 C   0  0  0  0  0
   29.2540   10.6170   85.8580 C   0  0  0  0  0
   28.6810   11.1420   86.8130 O   0  0  0  0  0
   29.2040    8.2080   86.6080 C   0  0  0  0  0
   28.1610    7.8700   85.7190 O   0  0  0  0  0
   29.1700   11.0870   84.6150 N   0  0  0  0  0
   28.4420   12.3170   84.2860 C   0  0  0  0  0
   27.6410   12.1320   83.0300 C   0  0  0  0  0
   28.1660   11.6550   82.0180 O   0  0  0  0  0
   29.4210   13.4500   84.0500 C   0  0  0  0  0
   28.8240   14.6120   83.2720 C   0  0  0  0  0
   29.8460   15.7100   82.9890 C   0  0  0  0  0
   31.0650   15.4280   83.1050 O   0  0  0  0  0
   29.4300   16.8820   82.7980 O   0  0  0  0  0
   26.3790   12.5490   83.0740 N   0  0  0  0  0
   25.4760   12.3740   81.9470 C   0  0  0  0  0
   24.4420   13.4650   81.8450 C   0  0  0  0  0
   24.1440   14.1610   82.8120 O   0  0  0  0  0
   24.7830   11.0100   82.0460 C   0  0  0  0  0
   23.8770   13.5970   80.6600 N   0  0  0  0  0
   22.8860   14.6170   80.4040 C   0  0  0  0  0
   22.1380   14.2850   79.1290 C   0  0  0  0  0
   22.6010   13.4840   78.3090 O   0  0  0  0  0
   23.5660   15.9770   80.2790 C   0  0  0  0  0
   20.9810   14.9000   78.9580 N   0  0  0  0  0
   20.1850   14.6650   77.7810 C   0  0  0  0  0
   19.0790   15.7000   77.6680 C   0  0  0  0  0
   18.7170   16.3590   78.6490 O   0  0  0  0  0
   19.6080   13.2590   77.8070 C   0  0  0  0  0
   18.5490   15.8450   76.4610 N   0  0  0  0  0
   17.4760   16.7840   76.2140 C   0  0  0  0  0
   16.4970   16.1890   75.2160 C   0  0  0  0  0
   16.8620   15.3480   74.3940 O   0  0  0  0  0
   18.0220   18.1020   75.6780 C   0  0  0  0  0
   16.9680   19.0290   75.4720 O   0  0  0  0  0
   15.2570   16.6530   75.2720 N   0  0  0  0  0
   14.2200   16.1780   74.3710 C   0  0  0  0  0
   13.3620   17.3520   73.9110 C   0  0  0  0  0
   12.6400   17.9720   74.6990 O   0  0  0  0  0
   13.3460   15.1430   75.0500 C   0  0  0  0  0
   14.1550   14.0360   75.4610 O   0  0  0  0  0
   12.2620   14.6560   74.1080 C   0  0  0  0  0
   13.4970   17.6890   72.6370 N   0  0  0  0  0
   12.7610   18.7910   72.0600 C   0  0  0  0  0
   11.5900   18.2700   71.2690 C   0  0  0  0  0
   11.6960   17.2370   70.6210 O   0  0  0  0  0
   13.6650   19.6040   71.1610 C   0  0  0  0  0
   10.4980   19.0310   71.2680 N   0  0  0  0  0
    9.2910   18.6720   70.5220 C   0  0  0  0  0
    8.7620   19.8960   69.7570 C   0  0  0  0  0
    8.1540   20.7900   70.3480 O   0  0  0  0  0
    8.1780   18.1370   71.4670 C   0  0  0  0  0
    6.8210   18.2550   70.8140 C   0  0  0  0  0
    8.4470   16.6940   71.8540 C   0  0  0  0  0
    9.0060   19.9330   68.4440 N   0  0  0  0  0
    8.5490   21.0540   67.6130 C   0  0  0  0  0
    7.1090   20.8600   67.1090 C   0  0  0  0  0
    6.7870   19.8300   66.5030 O   0  0  0  0  0
    9.5020   21.3210   66.4200 C   0  0  0  0  0
   10.9510   21.2270   66.8590 C   0  0  0  0  0
    9.2150   20.3760   65.2740 C   0  0  0  0  0
    6.2510   21.8440   67.3940 N   0  0  0  0  0
    4.8320   21.8210   66.9850 C   0  0  0  0  0
    4.5420   22.8200   65.8440 C   0  0  0  0  0
    5.1280   23.9070   65.8050 O   0  0  0  0  0
    3.8930   22.0390   68.1760 C   0  0  0  0  0
    3.9230   20.8150   69.1000 C   0  0  0  0  0
    2.4770   22.3260   67.6980 C   0  0  0  0  0
    3.0700   20.9610   70.3430 C   0  0  0  0  0
    3.6350   22.4600   64.9300 N   0  0  0  0  0
    3.3700   23.3020   63.7610 C   0  0  0  0  0
    1.9140   23.6020   63.4420 C   0  0  0  0  0
    1.6048   24.6653   62.8409 O   0  0  0  0  0
    4.0500   22.6880   62.5350 C   0  0  0  0  0
    1.0109   22.7357   63.5882 O   0  0  0  0  0
   31.7597    8.6606   86.9929 H   0  0  0  0  0
   31.8511   10.2452   86.4855 H   0  0  0  0  0
   30.9371    9.8496   87.8215 H   0  0  0  0  0
   30.4436    9.0400   85.0553 H   0  0  0  0  0
   28.7636    8.5520   87.5439 H   0  0  0  0  0
   29.8268    7.3269   86.7623 H   0  0  0  0  0
   27.6315    7.1665   86.1015 H   0  0  0  0  0
   29.6291   10.5724   83.8635 H   0  0  0  0  0
   27.7807   12.5500   85.1206 H   0  0  0  0  0
   30.2485   13.0521   83.4627 H   0  0  0  0  0
   29.7254   13.8296   85.0254 H   0  0  0  0  0
   28.0233   15.0436   83.8725 H   0  0  0  0  0
   28.4670   14.2294   82.3158 H   0  0  0  0  0
   28.4718   16.8746   82.7391 H   0  0  0  0  0
   26.0352   13.0034   83.9200 H   0  0  0  0  0
   26.0825   12.4270   81.0429 H   0  0  0  0  0
   25.5343   10.2204   82.0334 H   0  0  0  0  0
   24.2157   10.9587   82.9753 H   0  0  0  0  0
   24.1080   10.8845   81.1994 H   0  0  0  0  0
   24.1461   12.9640   79.9068 H   0  0  0  0  0
   22.1783   14.6543   81.2321 H   0  0  0  0  0
   24.0896   16.2067   81.2070 H   0  0  0  0  0
   24.2790   15.9509   79.4549 H   0  0  0  0  0
   22.8135   16.7416   80.0861 H   0  0  0  0  0
   20.6470   15.5502   79.6694 H   0  0  0  0  0
   20.8255   14.7578   76.9040 H   0  0  0  0  0
   20.4216   12.5343   77.8378 H   0  0  0  0  0
   18.9811   13.1412   78.6909 H   0  0  0  0  0
   19.0090   13.0968   76.9109 H   0  0  0  0  0
   18.9059   15.2818   75.6891 H   0  0  0  0  0
   16.9641   16.9815   77.1558 H   0  0  0  0  0
   18.5225   17.9177   74.7274 H   0  0  0  0  0
   18.7218   18.5168   76.4035 H   0  0  0  0  0
   17.3288   19.8523   75.1348 H   0  0  0  0  0
   15.0239   17.3629   75.9663 H   0  0  0  0  0
   14.6989   15.7130   73.5093 H   0  0  0  0  0
   12.8717   15.5999   75.9185 H   0  0  0  0  0
   13.6023   13.3796   75.8914 H   0  0  0  0  0
   11.6406   15.4986   73.8047 H   0  0  0  0  0
   12.7221   14.2068   73.2279 H   0  0  0  0  0
   11.6469   13.9138   74.6167 H   0  0  0  0  0
   14.1372   17.1568   72.0477 H   0  0  0  0  0
   12.3931   19.4281   72.8643 H   0  0  0  0  0
   14.4985   19.9955   71.7442 H   0  0  0  0  0
   14.0461   18.9691   70.3611 H   0  0  0  0  0
   13.0998   20.4314   70.7319 H   0  0  0  0  0
   10.5025   19.8968   71.8073 H   0  0  0  0  0
    9.5575   17.8819   69.8199 H   0  0  0  0  0
    8.1842   18.7456   72.3712 H   0  0  0  0  0
    6.6182   19.3016   70.5870 H   0  0  0  0  0
    6.8110   17.6734   69.8922 H   0  0  0  0  0
    6.0580   17.8748   71.4933 H   0  0  0  0  0
    8.4727   16.0770   70.9558 H   0  0  0  0  0
    9.4060   16.6298   72.3680 H   0  0  0  0  0
    7.6547   16.3427   72.5151 H   0  0  0  0  0
    9.5204   19.1667   68.0098 H   0  0  0  0  0
    8.5615   21.9298   68.2618 H   0  0  0  0  0
    9.3240   22.3357   66.0638 H   0  0  0  0  0
   11.1427   21.9671   67.6360 H   0  0  0  0  0
   11.1468   20.2286   67.2502 H   0  0  0  0  0
   11.6011   21.4180   66.0052 H   0  0  0  0  0
    9.3533   19.3480   65.6091 H   0  0  0  0  0
    8.1872   20.5151   64.9388 H   0  0  0  0  0
    9.8985   20.5864   64.4514 H   0  0  0  0  0
    6.5923   22.6492   67.9189 H   0  0  0  0  0
    4.6335   20.8230   66.5941 H   0  0  0  0  0
    4.2368   22.9060   68.7401 H   0  0  0  0  0
    4.9538   20.6830   69.4287 H   0  0  0  0  0
    3.5274   19.9721   68.5333 H   0  0  0  0  0
    2.4784   23.2241   67.0803 H   0  0  0  0  0
    2.1144   21.4813   67.1123 H   0  0  0  0  0
    1.8275   22.4775   68.5602 H   0  0  0  0  0
    3.4211   21.8131   70.9250 H   0  0  0  0  0
    2.0315   21.1207   70.0528 H   0  0  0  0  0
    3.1457   20.0539   70.9426 H   0  0  0  0  0
    3.1206   21.5872   65.0483 H   0  0  0  0  0
    3.7851   24.2742   64.0267 H   0  0  0  0  0
    2.3724   25.2399   62.7941 H   0  0  0  0  0
    5.1245   22.6291   62.7085 H   0  0  0  0  0
    3.6529   21.6874   62.3639 H   0  0  0  0  0
    3.8552   23.3117   61.6626 H   0  0  0  0  0
  2  1  1  0  0  0
  2  5  1  0  0  0
  2  3  1  0  0  0
  3  4  2  0  0  0
  5  6  1  0  0  0
  8  7  1  0  0  0
  8 11  1  0  0  0
  8  9  1  0  0  0
  9 10  2  0  0  0
 11 12  1  0  0  0
 12 13  1  0  0  0
 13 15  1  0  0  0
 13 14  2  0  0  0
  3  7  1  0  0  0
 17 16  1  0  0  0
 17 20  1  0  0  0
 17 18  1  0  0  0
 18 19  2  0  0  0
  9 16  1  0  0  0
 22 21  1  0  0  0
 22 25  1  0  0  0
 22 23  1  0  0  0
 23 24  2  0  0  0
 18 21  1  0  0  0
 27 26  1  0  0  0
 27 30  1  0  0  0
 27 28  1  0  0  0
 28 29  2  0  0  0
 23 26  1  0  0  0
 32 31  1  0  0  0
 32 35  1  0  0  0
 32 33  1  0  0  0
 33 34  2  0  0  0
 35 36  1  0  0  0
 28 31  1  0  0  0
 38 37  1  0  0  0
 38 41  1  0  0  0
 38 39  1  0  0  0
 39 40  2  0  0  0
 41 43  1  0  0  0
 41 42  1  0  0  0
 33 37  1  0  0  0
 45 44  1  0  0  0
 45 48  1  0  0  0
 45 46  1  0  0  0
 46 47  2  0  0  0
 39 44  1  0  0  0
 50 49  1  0  0  0
 50 53  1  0  0  0
 50 51  1  0  0  0
 51 52  2  0  0  0
 53 55  1  0  0  0
 53 54  1  0  0  0
 46 49  1  0  0  0
 57 56  1  0  0  0
 57 60  1  0  0  0
 57 58  1  0  0  0
 58 59  2  0  0  0
 60 62  1  0  0  0
 60 61  1  0  0  0
 51 56  1  0  0  0
 64 63  1  0  0  0
 64 67  1  0  0  0
 64 65  1  0  0  0
 65 66  2  0  0  0
 67 69  1  0  0  0
 67 68  1  0  0  0
 68 70  1  0  0  0
 58 63  1  0  0  0
 72 71  1  0  0  0
 72 75  1  0  0  0
 72 73  1  0  0  0
 73 74  1  0  0  0
 73 76  2  0  0  0
 65 71  1  0  0  0
  1 77  1  0  0  0
  1 78  1  0  0  0
  1 79  1  0  0  0
  2 80  1  0  0  0
  5 81  1  0  0  0
  5 82  1  0  0  0
  6 83  1  0  0  0
  7 84  1  0  0  0
  8 85  1  0  0  0
 11 86  1  0  0  0
 11 87  1  0  0  0
 12 88  1  0  0  0
 12 89  1  0  0  0
 15 90  1  0  0  0
 16 91  1  0  0  0
 17 92  1  0  0  0
 20 93  1  0  0  0
 20 94  1  0  0  0
 20 95  1  0  0  0
 21 96  1  0  0  0
 22 97  1  0  0  0
 25 98  1  0  0  0
 25 99  1  0  0  0
 25100  1  0  0  0
 26101  1  0  0  0
 27102  1  0  0  0
 30103  1  0  0  0
 30104  1  0  0  0
 30105  1  0  0  0
 31106  1  0  0  0
 32107  1  0  0  0
 35108  1  0  0  0
 35109  1  0  0  0
 36110  1  0  0  0
 37111  1  0  0  0
 38112  1  0  0  0
 41113  1  0  0  0
 42114  1  0  0  0
 43115  1  0  0  0
 43116  1  0  0  0
 43117  1  0  0  0
 44118  1  0  0  0
 45119  1  0  0  0
 48120  1  0  0  0
 48121  1  0  0  0
 48122  1  0  0  0
 49123  1  0  0  0
 50124  1  0  0  0
 53125  1  0  0  0
 54126  1  0  0  0
 54127  1  0  0  0
 54128  1  0  0  0
 55129  1  0  0  0
 55130  1  0  0  0
 55131  1  0  0  0
 56132  1  0  0  0
 57133  1  0  0  0
 60134  1  0  0  0
 61135  1  0  0  0
 61136  1  0  0  0
 61137  1  0  0  0
 62138  1  0  0  0
 62139  1  0  0  0
 62140  1  0  0  0
 63141  1  0  0  0
 64142  1  0  0  0
 67143  1  0  0  0
 68144  1  0  0  0
 68145  1  0  0  0
 69146  1  0  0  0
 69147  1  0  0  0
 69148  1  0  0  0
 70149  1  0  0  0
 70150  1  0  0  0
 70151  1  0  0  0
 71152  1  0  0  0
 72153  1  0  0  0
 74154  1  0  0  0
 75155  1  0  0  0
 75156  1  0  0  0
 75157  1  0  0  0
M  END
$$$$
