5vjn_ligand
  -I-interpret- 

 35 35  0  0  0  0  0  0  0  0999 V2000
   -3.0100   -4.7520   33.1510 O   0  0  0  0  0
   -2.9880   -5.6410   34.3720 P   0  0  0  0  0
   -1.5950   -6.1750   34.6120 O   0  0  0  0  0
   -3.4600   -4.8860   35.5940 O   0  0  0  0  0
   -3.9790   -6.8890   34.1350 O   0  0  0  0  0
   -5.1100   -6.7880   33.2740 C   0  0  0  0  0
   -5.9260   -8.0720   33.3900 C   0  0  0  0  0
   -7.2630   -8.0370   32.6550 C   0  0  0  0  0
   -7.2520   -7.1710   31.5090 O   0  0  0  0  0
   -6.2510   -8.3290   34.8130 N   0  3  0  0  0
   -7.6700   -7.9850   35.0450 C   0  0  0  0  0
   -8.2600   -7.5880   33.7040 C   0  0  0  0  0
   -8.4190   -6.1700   33.6730 O   0  0  0  0  0
   -8.3920   -9.1750   35.6600 C   0  0  0  0  0
   -7.7430   -9.5160   36.8840 O   0  0  0  0  0
   -8.4630   -9.3900   38.3160 P   0  0  0  0  0
   -7.7070  -10.3010   39.2540 O   0  0  0  0  0
   -9.8840   -9.8830   38.1900 O   0  0  0  0  0
   -8.4130   -7.9650   38.8070 O   0  0  0  0  0
   -1.5987   -6.7371   35.3902 H   0  0  0  0  0
   -3.4381   -5.4684   36.3568 H   0  0  0  0  0
   -4.7813   -6.6489   32.2441 H   0  0  0  0  0
   -5.7209   -5.9326   33.5624 H   0  0  0  0  0
   -5.3004   -8.8433   32.9408 H   0  0  0  0  0
   -7.5141   -9.0117   32.2366 H   0  0  0  0  0
   -8.1145   -7.1883   31.0879 H   0  0  0  0  0
   -5.6540   -7.7597   35.4129 H   0  0  0  0  0
   -6.0927   -9.3125   35.0323 H   0  0  0  0  0
   -7.7763   -7.1563   35.7451 H   0  0  0  0  0
   -9.2350   -8.0422   33.5273 H   0  0  0  0  0
   -9.0532   -5.9055   34.3434 H   0  0  0  0  0
   -8.3626  -10.0223   34.9750 H   0  0  0  0  0
   -9.4344   -8.9196   35.8505 H   0  0  0  0  0
   -7.7494  -11.2023   38.9263 H   0  0  0  0  0
   -9.8801  -10.7903   37.8763 H   0  0  0  0  0
  1  2  2  0  0  0
  2  3  1  0  0  0
  2  4  1  0  0  0
  2  5  1  0  0  0
  5  6  1  0  0  0
  6  7  1  0  0  0
  7  8  1  0  0  0
  7 10  1  0  0  0
  8  9  1  0  0  0
  8 12  1  0  0  0
 10 11  1  0  0  0
 11 12  1  0  0  0
 11 14  1  0  0  0
 12 13  1  0  0  0
 14 15  1  0  0  0
 15 16  1  0  0  0
 16 17  1  0  0  0
 16 18  1  0  0  0
 16 19  2  0  0  0
  3 20  1  0  0  0
  4 21  1  0  0  0
  6 22  1  0  0  0
  6 23  1  0  0  0
  7 24  1  0  0  0
  8 25  1  0  0  0
  9 26  1  0  0  0
 10 27  1  0  0  0
 10 28  1  0  0  0
 11 29  1  0  0  0
 12 30  1  0  0  0
 13 31  1  0  0  0
 14 32  1  0  0  0
 14 33  1  0  0  0
 17 34  1  0  0  0
 18 35  1  0  0  0
M  END
$$$$
