### 
### Created by X-TOOL on Mon Sep 10 21:13:34 2018
### 

@<TRIPOS>MOLECULE
5vjn_ligand
   31    31     1     0     0
SMALL
GAST_HUCK


@<TRIPOS>ATOM
      1 O3P        -3.0100   -4.7520   33.1510 O.co2     1 IR8        -0.5537
      2 P1         -2.9880   -5.6410   34.3720 P.3       1 IR8         0.2010
      3 O1P        -1.5950   -6.1750   34.6120 O.co2     1 IR8        -0.5537
      4 O2P        -3.4600   -4.8860   35.5940 O.co2     1 IR8        -0.5537
      5 O1         -3.9790   -6.8890   34.1350 O.3       1 IR8        -0.2704
      6 C1         -5.1100   -6.7880   33.2740 C.3       1 IR8         0.1233
      7 C2         -5.9260   -8.0720   33.3900 C.3       1 IR8         0.0353
      8 C3         -7.2630   -8.0370   32.6550 C.3       1 IR8         0.1311
      9 O3         -7.2520   -7.1710   31.5090 O.3       1 IR8        -0.3833
     10 N1         -6.2510   -8.3290   34.8130 N.4       1 IR8         0.2389
     11 C5         -7.6700   -7.9850   35.0450 C.3       1 IR8         0.0353
     12 C4         -8.2600   -7.5880   33.7040 C.3       1 IR8         0.1311
     13 O4         -8.4190   -6.1700   33.6730 O.3       1 IR8        -0.3833
     14 C6         -8.3920   -9.1750   35.6600 C.3       1 IR8         0.1233
     15 O6         -7.7430   -9.5160   36.8840 O.3       1 IR8        -0.2704
     16 P2         -8.4630   -9.3900   38.3160 P.3       1 IR8         0.2010
     17 O4P        -7.7070  -10.3010   39.2540 O.co2     1 IR8        -0.5537
     18 O5P        -9.8840   -9.8830   38.1900 O.co2     1 IR8        -0.5537
     19 O6P        -8.4130   -7.9650   38.8070 O.co2     1 IR8        -0.5537
     20 H1         -4.7742   -6.6550   32.2350 H         1 IR8         0.0670
     21 H2         -5.7276   -5.9282   33.5727 H         1 IR8         0.0670
     22 H3         -5.3216   -8.8994   32.9899 H         1 IR8         0.0904
     23 H4         -7.5191   -9.0502   32.3117 H         1 IR8         0.0679
     24 H5         -8.1056   -7.1882   31.0923 H         1 IR8         0.2102
     25 H6         -5.6635   -7.7609   35.4030 H         1 IR8         0.2023
     26 H7         -6.0991   -9.3026   35.0251 H         1 IR8         0.2023
     27 H8         -7.7378   -7.1333   35.7378 H         1 IR8         0.0904
     28 H9         -9.2321   -8.0775   33.5444 H         1 IR8         0.0679
     29 H10        -9.0021   -5.9024   34.3737 H         1 IR8         0.2102
     30 H11        -8.3533  -10.0300   34.9690 H         1 IR8         0.0670
     31 H12        -9.4413   -8.9105   35.8577 H         1 IR8         0.0670
@<TRIPOS>BOND
     1    1    2 ar 
     2    2    3 ar 
     3    2    4 ar 
     4    2    5 1  
     5    5    6 1  
     6    6    7 1  
     7    7    8 1  
     8    7   10 1  
     9    8    9 1  
    10    8   12 1  
    11   10   11 1  
    12   11   12 1  
    13   11   14 1  
    14   12   13 1  
    15   14   15 1  
    16   15   16 1  
    17   16   17 ar 
    18   16   18 ar 
    19   16   19 ar 
    20    6   20 1  
    21    6   21 1  
    22    7   22 1  
    23    8   23 1  
    24    9   24 1  
    25   10   25 1  
    26   10   26 1  
    27   11   27 1  
    28   12   28 1  
    29   13   29 1  
    30   14   30 1  
    31   14   31 1  
@<TRIPOS>SUBSTRUCTURE
     1 IR8         1

