4hpi_ligand
  -I-interpret- 

 79 81  0  0  0  0  0  0  0  0999 V2000
  -23.7840   -8.7890   -3.8840 C   0  0  0  0  0
  -24.8820   -8.7590   -4.9460 C   0  0  0  0  0
  -25.0600  -10.0660   -5.5070 O   0  0  0  0  0
  -24.5170   -7.8060   -6.0740 C   0  0  0  0  0
  -25.6230   -7.7520   -6.9880 O   0  0  0  0  0
  -24.1760   -6.3970   -5.5690 C   0  0  0  0  0
  -23.5260   -5.6800   -6.6200 O   0  0  0  0  0
  -23.2310   -6.3640   -4.3570 C   0  0  0  0  0
  -23.4830   -7.4470   -3.4160 N   0  3  0  0  0
  -23.2830   -5.0280   -3.6080 C   0  0  0  0  0
  -24.5180   -4.8680   -2.8930 O   0  0  0  0  0
  -24.3340   -5.0070   -7.5890 C   0  0  0  0  0
  -23.4870   -3.8630   -8.1040 C   0  0  0  0  0
  -24.2880   -3.1160   -9.1730 C   0  0  0  0  0
  -24.8970   -4.0290  -10.2600 C   0  0  0  0  0
  -25.5740   -5.2300   -9.6000 C   0  0  0  0  0
  -26.0160   -6.3050  -10.5900 C   0  0  0  0  0
  -21.9410   -2.8210   -6.4840 C   0  0  0  0  0
  -21.8410   -1.9540   -5.2680 C   0  0  0  0  0
  -23.1700   -3.0290   -6.9570 N   0  0  0  0  0
  -23.4560   -2.1480   -9.7420 O   0  0  0  0  0
  -25.8680   -3.3310  -11.0220 O   0  0  0  0  0
  -24.6950   -5.8380   -8.6740 O   0  0  0  0  0
  -26.4010   -7.4460   -9.8580 O   0  0  0  0  0
  -20.9160   -3.2910   -6.9780 O   0  0  0  0  0
  -25.5580   -3.2530  -12.4250 C   0  0  0  0  0
  -26.8570   -3.0000  -13.2120 C   0  0  0  0  0
  -26.5720   -2.6690  -14.6820 C   0  0  0  0  0
  -25.4780   -1.6150  -14.8300 C   0  0  0  0  0
  -24.2530   -1.9960  -13.9980 C   0  0  0  0  0
  -23.2400   -0.8670  -14.0030 C   0  0  0  0  0
  -28.8480   -4.1690  -12.3590 C   0  0  0  0  0
  -29.6820   -5.4160  -12.4180 C   0  0  0  0  0
  -27.7670   -4.1350  -13.1430 N   0  0  0  0  0
  -27.7480   -2.2160  -15.3260 O   0  0  0  0  0
  -25.1200   -1.4730  -16.1900 O   0  0  0  0  0
  -24.6360   -2.2130  -12.6550 O   0  0  0  0  0
  -23.8010    0.2310  -13.3080 O   0  0  0  0  0
  -29.1790   -3.2540  -11.6040 O   0  0  0  0  0
  -22.8831   -9.2192   -4.3216 H   0  0  0  0  0
  -24.1274   -9.3871   -3.0399 H   0  0  0  0  0
  -25.8003   -8.4234   -4.4641 H   0  0  0  0  0
  -25.2914  -10.6836   -4.8094 H   0  0  0  0  0
  -23.6202   -8.1803   -6.5678 H   0  0  0  0  0
  -25.8258   -8.6384   -7.2959 H   0  0  0  0  0
  -25.1237   -5.9559   -5.2602 H   0  0  0  0  0
  -22.2337   -6.4937   -4.7773 H   0  0  0  0  0
  -22.5999   -7.5513   -2.9163 H   0  0  0  0  0
  -24.3312   -7.1588   -2.9282 H   0  0  0  0  0
  -23.2013   -4.2220   -4.3372 H   0  0  0  0  0
  -22.4642   -5.0053   -2.8888 H   0  0  0  0  0
  -24.5155   -4.0230   -2.4373 H   0  0  0  0  0
  -25.2665   -4.6822   -7.1275 H   0  0  0  0  0
  -22.5571   -4.1923   -8.5675 H   0  0  0  0  0
  -25.1474   -2.6575   -8.6838 H   0  0  0  0  0
  -24.0912   -4.3559  -10.9172 H   0  0  0  0  0
  -26.4630   -4.8305   -9.1120 H   0  0  0  0  0
  -25.1970   -6.5519  -11.2656 H   0  0  0  0  0
  -26.8528   -5.9430  -11.1874 H   0  0  0  0  0
  -21.3854   -2.5206   -4.4559 H   0  0  0  0  0
  -21.2265   -1.0826   -5.4942 H   0  0  0  0  0
  -22.8385   -1.6297   -4.9715 H   0  0  0  0  0
  -23.9446   -2.5690   -6.4787 H   0  0  0  0  0
  -23.9411   -1.6673  -10.4167 H   0  0  0  0  0
  -26.6827   -8.1342  -10.4651 H   0  0  0  0  0
  -25.1111   -4.1901  -12.7571 H   0  0  0  0  0
  -27.3344   -2.1413  -12.7400 H   0  0  0  0  0
  -26.2248   -3.5888  -15.1525 H   0  0  0  0  0
  -25.8614   -0.6620  -14.4654 H   0  0  0  0  0
  -23.8190   -2.8976  -14.4304 H   0  0  0  0  0
  -23.0018   -0.5808  -15.0274 H   0  0  0  0  0
  -22.3183   -1.1874  -13.5174 H   0  0  0  0  0
  -29.7123   -5.8783  -11.4314 H   0  0  0  0  0
  -30.6940   -5.1602  -12.7320 H   0  0  0  0  0
  -29.2431   -6.1116  -13.1333 H   0  0  0  0  0
  -27.5680   -4.9485  -13.7252 H   0  0  0  0  0
  -27.5514   -2.0138  -16.2436 H   0  0  0  0  0
  -24.4321   -0.8083  -16.2709 H   0  0  0  0  0
  -23.1736    0.9576  -13.3001 H   0  0  0  0  0
  2  1  1  0  0  0
  9  1  1  0  0  0
  2  3  1  0  0  0
  4  2  1  0  0  0
  4  5  1  0  0  0
  6  4  1  0  0  0
  7  6  1  0  0  0
  6  8  1  0  0  0
 12  7  1  0  0  0
  8  9  1  0  0  0
  8 10  1  0  0  0
 10 11  1  0  0  0
 13 12  1  0  0  0
 23 12  1  0  0  0
 14 13  1  0  0  0
 13 20  1  0  0  0
 15 14  1  0  0  0
 14 21  1  0  0  0
 15 16  1  0  0  0
 22 15  1  0  0  0
 16 17  1  0  0  0
 16 23  1  0  0  0
 17 24  1  0  0  0
 18 19  1  0  0  0
 20 18  1  0  0  0
 18 25  2  0  0  0
 26 22  1  0  0  0
 27 26  1  0  0  0
 26 37  1  0  0  0
 27 28  1  0  0  0
 34 27  1  0  0  0
 28 29  1  0  0  0
 28 35  1  0  0  0
 29 30  1  0  0  0
 29 36  1  0  0  0
 30 31  1  0  0  0
 37 30  1  0  0  0
 31 38  1  0  0  0
 32 33  1  0  0  0
 32 34  1  0  0  0
 32 39  2  0  0  0
  1 40  1  0  0  0
  1 41  1  0  0  0
  2 42  1  0  0  0
  3 43  1  0  0  0
  4 44  1  0  0  0
  5 45  1  0  0  0
  6 46  1  0  0  0
  8 47  1  0  0  0
  9 48  1  0  0  0
  9 49  1  0  0  0
 10 50  1  0  0  0
 10 51  1  0  0  0
 11 52  1  0  0  0
 12 53  1  0  0  0
 13 54  1  0  0  0
 14 55  1  0  0  0
 15 56  1  0  0  0
 16 57  1  0  0  0
 17 58  1  0  0  0
 17 59  1  0  0  0
 19 60  1  0  0  0
 19 61  1  0  0  0
 19 62  1  0  0  0
 20 63  1  0  0  0
 21 64  1  0  0  0
 24 65  1  0  0  0
 26 66  1  0  0  0
 27 67  1  0  0  0
 28 68  1  0  0  0
 29 69  1  0  0  0
 30 70  1  0  0  0
 31 71  1  0  0  0
 31 72  1  0  0  0
 33 73  1  0  0  0
 33 74  1  0  0  0
 33 75  1  0  0  0
 34 76  1  0  0  0
 35 77  1  0  0  0
 36 78  1  0  0  0
 38 79  1  0  0  0
M  END
$$$$
