6qed_ligand
  -I-interpret- 

 49 52  0  0  0  0  0  0  0  0999 V2000
   24.5730   18.1800   15.3980 C   0  0  0  0  0
   25.9340   18.2860   15.5630 C   0  0  0  0  0
   26.7040   17.1510   15.6400 C   0  0  0  0  0
   27.3980   21.4230   19.7960 C   0  0  0  0  0
   24.9320   21.8600   19.9440 C   0  0  0  0  0
   23.8100   22.1680   18.9330 C   0  0  0  0  0
   24.5710   22.3860   17.6090 C   0  0  0  0  0
   26.0050   22.0170   17.8920 C   0  0  0  0  0
   23.9620   21.5580   16.5100 C   0  0  0  0  0
   23.7700   19.4380   15.3330 C   0  0  0  0  0
   27.5780   20.3160   20.6110 C   0  0  0  0  0
   29.6590   22.1080   20.2020 C   0  0  0  0  0
   29.8520   20.9920   20.9960 C   0  0  0  0  0
   30.4970   18.4340   22.0600 C   0  0  0  0  0
   31.1030   20.7880   21.5890 N   0  0  0  0  0
   26.1160   15.9080   15.5570 C   0  0  0  0  0
   24.7460   15.8070   15.3980 C   0  0  0  0  0
   23.9710   16.9440   15.3220 C   0  0  0  0  0
   28.4130   17.3130   15.8450 Cl  0  0  0  0  0
   26.1780   21.7380   19.1900 N   0  0  0  0  0
   24.5840   23.7670   17.2400 O   0  0  0  0  0
   26.8660   22.0120   17.0500 O   0  0  0  0  0
   24.3210   20.2860   16.3830 N   0  0  0  0  0
   23.1560   22.0290   15.7490 O   0  0  0  0  0
   24.1670   14.6000   15.3190 F   0  0  0  0  0
   28.4370   22.3230   19.6180 C   0  0  0  0  0
   28.8130   20.0950   21.1990 C   0  0  0  0  0
   29.0310   18.8860   22.0700 C   0  0  0  0  0
   31.4470   19.6000   22.1090 C   0  0  0  0  0
   32.5430   19.4670   22.6150 O   0  0  0  0  0
   26.4009   19.2685   15.6325 H   0  0  0  0  0
   24.7188   20.9362   20.4818 H   0  0  0  0  0
   25.0094   22.6570   20.6835 H   0  0  0  0  0
   23.2137   23.0340   19.2205 H   0  0  0  0  0
   23.0751   21.3658   18.8661 H   0  0  0  0  0
   22.7067   19.2488   15.4803 H   0  0  0  0  0
   23.8354   19.9110   14.3532 H   0  0  0  0  0
   26.7541   19.6246   20.7879 H   0  0  0  0  0
   30.4744   22.8133   20.0412 H   0  0  0  0  0
   30.6782   17.8855   21.1357 H   0  0  0  0  0
   30.6693   17.8168   22.9417 H   0  0  0  0  0
   31.7685   21.5601   21.6268 H   0  0  0  0  0
   26.7280   15.0080   15.6164 H   0  0  0  0  0
   22.8904   16.8655   15.2027 H   0  0  0  0  0
   23.6883   24.0542   17.0480 H   0  0  0  0  0
   24.9987   19.8926   17.0359 H   0  0  0  0  0
   28.2810   23.2119   19.0068 H   0  0  0  0  0
   28.7598   19.1471   23.0929 H   0  0  0  0  0
   28.4184   18.0710   21.6846 H   0  0  0  0  0
  1  2  4  0  0  0
 10  1  1  0  0  0
  1 18  4  0  0  0
  2  3  4  0  0  0
  3 16  4  0  0  0
  3 19  1  0  0  0
 11  4  4  0  0  0
  4 20  1  0  0  0
 26  4  4  0  0  0
  5  6  1  0  0  0
 20  5  1  0  0  0
  7  6  1  0  0  0
  8  7  1  0  0  0
  7  9  1  0  0  0
  7 21  1  0  0  0
 20  8  1  0  0  0
  8 22  2  0  0  0
  9 23  1  0  0  0
  9 24  2  0  0  0
 23 10  1  0  0  0
 27 11  4  0  0  0
 13 12  4  0  0  0
 12 26  4  0  0  0
 15 13  1  0  0  0
 13 27  4  0  0  0
 14 28  1  0  0  0
 29 14  1  0  0  0
 15 29  1  0  0  0
 16 17  4  0  0  0
 17 18  4  0  0  0
 17 25  1  0  0  0
 27 28  1  0  0  0
 29 30  2  0  0  0
  2 31  1  0  0  0
  5 32  1  0  0  0
  5 33  1  0  0  0
  6 34  1  0  0  0
  6 35  1  0  0  0
 10 36  1  0  0  0
 10 37  1  0  0  0
 11 38  1  0  0  0
 12 39  1  0  0  0
 14 40  1  0  0  0
 14 41  1  0  0  0
 15 42  1  0  0  0
 16 43  1  0  0  0
 18 44  1  0  0  0
 21 45  1  0  0  0
 23 46  1  0  0  0
 26 47  1  0  0  0
 28 48  1  0  0  0
 28 49  1  0  0  0
M  END
$$$$
