3l3n_ligand
  -I-interpret- 

 71 73  0  0  0  0  0  0  0  0999 V2000
   42.5540    6.0590  114.3340 C   0  0  0  0  0
   42.8870    8.4750  114.0390 N   0  3  0  0  0
   42.9030    4.9570  113.8580 O   0  0  0  0  0
   43.5650    7.2100  114.3560 C   0  0  0  0  0
   44.2160    7.2890  115.7400 C   0  0  0  0  0
   40.8670   14.5300  111.8140 N   0  3  0  0  0
   45.8610    9.1690  108.7270 O   0  0  0  0  0
   44.5260    8.4060  111.9170 O   0  0  0  0  0
   44.0720   10.2380  109.4530 O   0  0  0  0  0
   46.9100    6.0110  119.9110 C   0  0  0  0  0
   46.5830    4.8150  119.2810 C   0  0  0  0  0
   46.6230    7.2220  119.2900 C   0  0  0  0  0
   38.2800    9.4490  108.1810 C   0  0  0  0  0
   39.4730   10.2010  108.2160 C   0  0  0  0  0
   45.9710    4.8330  118.0330 C   0  0  0  0  0
   46.0120    7.2380  118.0410 C   0  0  0  0  0
   38.2970    8.0780  108.0950 C   0  0  0  0  0
   40.7160    9.5720  108.1620 C   0  0  0  0  0
   41.2410    5.9800  107.9210 C   0  0  0  0  0
   41.7330   13.3610  111.4520 C   0  0  0  0  0
   41.0760   12.0260  111.8440 C   0  0  0  0  0
   42.0970   10.9440  112.2600 C   0  0  0  0  0
   45.0710    6.0470  116.0060 C   0  0  0  0  0
   41.3730    9.5920  112.4460 C   0  0  0  0  0
   43.2740    7.5260  107.9500 C   0  0  0  0  0
   42.9390    7.9530  110.3880 N   0  0  0  0  0
   44.6800    9.1860  109.1570 C   0  0  0  0  0
   43.3390    8.2480  111.6290 C   0  0  0  0  0
   45.6860    6.0430  117.4090 C   0  0  0  0  0
   41.8260    7.2200  107.9880 C   0  0  0  0  0
   39.5430    7.4490  108.0390 C   0  0  0  0  0
   40.7600    8.1730  108.0690 C   0  0  0  0  0
   42.2700    8.3690  112.7180 C   0  0  0  0  0
   43.9240    7.8590  109.3020 C   0  0  0  0  0
   41.4090    6.2460  114.8000 O   0  0  0  0  0
   39.8520    6.1160  107.9510 N   0  0  0  0  0
   43.5646    9.2374  114.0411 H   0  0  0  0  0
   42.1694    8.6644  114.7387 H   0  0  0  0  0
   44.3377    7.0313  113.6082 H   0  0  0  0  0
   43.4326    7.3466  116.4957 H   0  0  0  0  0
   44.8541    8.1718  115.7800 H   0  0  0  0  0
   41.3334   15.3948  111.5401 H   0  0  0  0  0
   39.9745   14.4544  111.3261 H   0  0  0  0  0
   40.7060   14.5334  112.8212 H   0  0  0  0  0
   46.1283    8.2613  108.5650 H   0  0  0  0  0
   47.3902    5.9993  120.8894 H   0  0  0  0  0
   46.8064    3.8644  119.7654 H   0  0  0  0  0
   46.8775    8.1601  119.7832 H   0  0  0  0  0
   37.3223    9.9678  108.2232 H   0  0  0  0  0
   39.4223   11.2876  108.2861 H   0  0  0  0  0
   45.7134    3.8949  117.5413 H   0  0  0  0  0
   45.7883    8.1885  117.5567 H   0  0  0  0  0
   37.3719    7.5020  108.0713 H   0  0  0  0  0
   41.6359   10.1560  108.1915 H   0  0  0  0  0
   41.7786    5.0342  107.8546 H   0  0  0  0  0
   42.6764   13.4516  111.9905 H   0  0  0  0  0
   41.8847   13.3662  110.3726 H   0  0  0  0  0
   40.5377   11.6543  110.9721 H   0  0  0  0  0
   40.4284   12.2155  112.7001 H   0  0  0  0  0
   42.5695   11.2338  113.1985 H   0  0  0  0  0
   42.8557   10.8446  111.4838 H   0  0  0  0  0
   45.8865    6.0406  115.2828 H   0  0  0  0  0
   44.4266    5.1721  115.9203 H   0  0  0  0  0
   40.8612    9.3898  111.5051 H   0  0  0  0  0
   40.7395    9.7054  113.3257 H   0  0  0  0  0
   43.3842    8.4148  107.3287 H   0  0  0  0  0
   43.7688    6.6263  107.5843 H   0  0  0  0  0
   41.9502    7.7932  110.1951 H   0  0  0  0  0
   41.6548    7.4694  112.7000 H   0  0  0  0  0
   44.6053    7.0511  109.5687 H   0  0  0  0  0
   41.3365    7.1501  115.1146 H   0  0  0  0  0
  1  3  2  0  0  0
  4  1  1  0  0  0
  1 35  1  0  0  0
  2  4  1  0  0  0
 33  2  1  0  0  0
  4  5  1  0  0  0
  5 23  1  0  0  0
 20  6  1  0  0  0
 27  7  1  0  0  0
 28  8  2  0  0  0
 27  9  2  0  0  0
 11 10  4  0  0  0
 12 10  4  0  0  0
 15 11  4  0  0  0
 16 12  4  0  0  0
 14 13  4  0  0  0
 13 17  4  0  0  0
 18 14  4  0  0  0
 29 15  4  0  0  0
 29 16  4  0  0  0
 17 31  4  0  0  0
 32 18  4  0  0  0
 30 19  4  0  0  0
 19 36  4  0  0  0
 21 20  1  0  0  0
 22 21  1  0  0  0
 24 22  1  0  0  0
 23 29  1  0  0  0
 33 24  1  0  0  0
 30 25  1  0  0  0
 25 34  1  0  0  0
 26 28  1  0  0  0
 34 26  1  0  0  0
 34 27  1  0  0  0
 28 33  1  0  0  0
 30 32  4  0  0  0
 31 32  4  0  0  0
 31 36  4  0  0  0
  2 37  1  0  0  0
  2 38  1  0  0  0
  4 39  1  0  0  0
  5 40  1  0  0  0
  5 41  1  0  0  0
  6 42  1  0  0  0
  6 43  1  0  0  0
  6 44  1  0  0  0
  7 45  1  0  0  0
 10 46  1  0  0  0
 11 47  1  0  0  0
 12 48  1  0  0  0
 13 49  1  0  0  0
 14 50  1  0  0  0
 15 51  1  0  0  0
 16 52  1  0  0  0
 17 53  1  0  0  0
 18 54  1  0  0  0
 19 55  1  0  0  0
 20 56  1  0  0  0
 20 57  1  0  0  0
 21 58  1  0  0  0
 21 59  1  0  0  0
 22 60  1  0  0  0
 22 61  1  0  0  0
 23 62  1  0  0  0
 23 63  1  0  0  0
 24 64  1  0  0  0
 24 65  1  0  0  0
 25 66  1  0  0  0
 25 67  1  0  0  0
 26 68  1  0  0  0
 33 69  1  0  0  0
 34 70  1  0  0  0
 35 71  1  0  0  0
M  END
$$$$
