### 
### Created by X-TOOL on Mon Sep 10 21:13:11 2018
### 

@<TRIPOS>MOLECULE
4dhf_ligand
   63    67     1     0     0
SMALL
GAST_HUCK


@<TRIPOS>ATOM
      1 O2        -19.4400   21.0070    0.5950 O.2       1 0K6        -0.3852
      2 C19       -19.8610   20.1160   -0.1450 C.2       1 0K6         0.2238
      3 N7        -19.0770   19.4500   -1.0090 N.am      1 0K6        -0.2991
      4 C18       -21.3170   19.7990   -0.0680 C.2       1 0K6         0.1374
      5 N6        -22.1190   19.6520   -1.1350 N.pl3     1 0K6        -0.2351
      6 C13       -21.5950   19.7840   -2.5160 C.3       1 0K6         0.0656
      7 C17       -21.8660   18.6090   -3.4270 C.3       1 0K6        -0.0233
      8 C16       -21.7210   19.2210   -4.8120 C.3       1 0K6        -0.0502
      9 C15       -22.1190   20.6780   -4.7110 C.3       1 0K6        -0.0502
     10 C14       -22.1620   21.0040   -3.2330 C.3       1 0K6        -0.0233
     11 C20       -22.0280   19.6270    1.1250 C.2       1 0K6        -0.0324
     12 C21       -23.3330   19.3700    0.6580 C.ar      1 0K6         0.0226
     13 C12       -23.3700   19.3790   -0.7270 C.ar      1 0K6         0.1404
     14 N5        -24.5370   19.1450   -1.3660 N.ar      1 0K6        -0.2433
     15 C22       -24.4700   19.1350    1.4120 C.ar      1 0K6         0.0101
     16 N8        -25.6010   18.9050    0.7250 N.ar      1 0K6        -0.2637
     17 C11       -25.6530   18.9120   -0.6400 C.ar      1 0K6         0.1879
     18 N4        -26.8440   18.6960   -1.2630 N.pl3     1 0K6        -0.2668
     19 C10       -27.0320   18.5610   -2.5950 C.2       1 0K6         0.0493
     20 C9        -26.1330   18.8120   -3.6100 C.2       1 0K6         0.0409
     21 N3        -26.7140   18.5130   -4.7860 N.pl3     1 0K6        -0.2777
     22 C8        -26.0320   18.6660   -6.1040 C.3       1 0K6         0.0398
     23 C23       -28.1950   18.1070   -3.1950 C.2       1 0K6        -0.0343
     24 C7        -27.9890   18.1070   -4.5700 C.2       1 0K6         0.1214
     25 C1        -28.9520   17.6340   -5.6190 C.2       1 0K6         0.2171
     26 O1        -28.4830   16.7320   -6.2830 O.2       1 0K6        -0.3921
     27 N1        -30.2220   18.0400   -5.8430 N.am      1 0K6        -0.2776
     28 C6        -30.9520   18.8370   -4.8400 C.3       1 0K6         0.0143
     29 C5        -31.9330   19.8060   -5.5170 C.3       1 0K6        -0.0926
     30 N2        -32.6960   18.9950   -6.4510 N.4       1 0K6         0.4034
     31 C4        -34.0870   18.6140   -6.1470 C.3       1 0K6        -0.1255
     32 C3        -31.9550   18.5900   -7.6350 C.3       1 0K6        -0.0926
     33 C2        -30.9180   17.5970   -7.0850 C.3       1 0K6         0.0143
     34 H         -18.0841   19.6742   -1.0738 H         1 0K6         0.1805
     35 H         -19.4747   18.7201   -1.6002 H         1 0K6         0.1805
     36 H         -20.5210   19.8626   -2.3475 H         1 0K6         0.0640
     37 H         -22.8446   18.1585   -3.2610 H         1 0K6         0.0294
     38 H         -21.1868   17.7735   -3.2576 H         1 0K6         0.0294
     39 H         -22.3587   18.7008   -5.5268 H         1 0K6         0.0266
     40 H         -20.6928   19.1306   -5.1624 H         1 0K6         0.0266
     41 H         -23.0871   20.8539   -5.1800 H         1 0K6         0.0266
     42 H         -21.4066   21.3166   -5.2332 H         1 0K6         0.0266
     43 H         -21.5807   21.8985   -3.0093 H         1 0K6         0.0294
     44 H         -23.1797   21.2165   -2.9054 H         1 0K6         0.0294
     45 H         -21.6657   19.6785    2.1517 H         1 0K6         0.0417
     46 H         -24.4486   19.1365    2.5018 H         1 0K6         0.0886
     47 H         -27.6712   18.6299   -0.6699 H         1 0K6         0.2066
     48 H         -25.1189   19.1903   -3.4808 H         1 0K6         0.0730
     49 H         -25.7500   19.7092   -6.2468 H         1 0K6         0.0578
     50 H         -25.1393   18.0409   -6.1244 H         1 0K6         0.0578
     51 H         -26.7101   18.3593   -6.9003 H         1 0K6         0.0578
     52 H         -29.1076   17.8042   -2.6815 H         1 0K6         0.0350
     53 H         -30.2322   19.4152   -4.2607 H         1 0K6         0.0500
     54 H         -31.5154   18.1603   -4.1975 H         1 0K6         0.0500
     55 H         -31.4088   20.6150   -6.0257 H         1 0K6         0.0037
     56 H         -32.5811   20.2928   -4.7882 H         1 0K6         0.0037
     57 H         -34.1105   18.0366   -5.2228 H         1 0K6        -0.0019
     58 H         -34.6915   19.5135   -6.0305 H         1 0K6        -0.0019
     59 H         -34.4840   18.0111   -6.9637 H         1 0K6        -0.0019
     60 H         -31.4947   19.4336   -8.1494 H         1 0K6         0.0037
     61 H         -32.5951   18.1469   -8.3979 H         1 0K6         0.0037
     62 H         -31.4573   16.6832   -6.8357 H         1 0K6         0.0500
     63 H         -30.1523   17.4830   -7.8523 H         1 0K6         0.0500
@<TRIPOS>BOND
     1    1    2 2  
     2    2    3 am 
     3    2    4 1  
     4    4    5 1  
     5    4   11 2  
     6    5    6 1  
     7    5   13 1  
     8    6    7 1  
     9    6   10 1  
    10    7    8 1  
    11    8    9 1  
    12    9   10 1  
    13   11   12 1  
    14   12   13 ar 
    15   12   15 ar 
    16   13   14 ar 
    17   14   17 ar 
    18   15   16 ar 
    19   16   17 ar 
    20   17   18 1  
    21   18   19 1  
    22   19   20 2  
    23   19   23 1  
    24   20   21 1  
    25   21   22 1  
    26   21   24 1  
    27   23   24 2  
    28   24   25 1  
    29   25   26 2  
    30   25   27 am 
    31   27   28 1  
    32   27   33 1  
    33   28   29 1  
    34   29   30 1  
    35   30   31 1  
    36   30   32 1  
    37   32   33 1  
    38    3   34 1  
    39    3   35 1  
    40    6   36 1  
    41    7   37 1  
    42    7   38 1  
    43    8   39 1  
    44    8   40 1  
    45    9   41 1  
    46    9   42 1  
    47   10   43 1  
    48   10   44 1  
    49   11   45 1  
    50   15   46 1  
    51   18   47 1  
    52   20   48 1  
    53   22   49 1  
    54   22   50 1  
    55   22   51 1  
    56   23   52 1  
    57   28   53 1  
    58   28   54 1  
    59   29   55 1  
    60   29   56 1  
    61   31   57 1  
    62   31   58 1  
    63   31   59 1  
    64   32   60 1  
    65   32   61 1  
    66   33   62 1  
    67   33   63 1  
@<TRIPOS>SUBSTRUCTURE
     1 0K6         1

