4dhf_ligand
  -I-interpret- 

 64 68  0  0  0  0  0  0  0  0999 V2000
  -19.4400   21.0070    0.5950 O   0  0  0  0  0
  -19.8610   20.1160   -0.1450 C   0  0  0  0  0
  -19.0770   19.4500   -1.0090 N   0  0  0  0  0
  -21.3170   19.7990   -0.0680 C   0  0  0  0  0
  -22.1190   19.6520   -1.1350 N   0  0  0  0  0
  -21.5950   19.7840   -2.5160 C   0  0  0  0  0
  -21.8660   18.6090   -3.4270 C   0  0  0  0  0
  -21.7210   19.2210   -4.8120 C   0  0  0  0  0
  -22.1190   20.6780   -4.7110 C   0  0  0  0  0
  -22.1620   21.0040   -3.2330 C   0  0  0  0  0
  -22.0280   19.6270    1.1250 C   0  0  0  0  0
  -23.3330   19.3700    0.6580 C   0  0  0  0  0
  -23.3700   19.3790   -0.7270 C   0  0  0  0  0
  -24.5370   19.1450   -1.3660 N   0  0  0  0  0
  -24.4700   19.1350    1.4120 C   0  0  0  0  0
  -25.6010   18.9050    0.7250 N   0  0  0  0  0
  -25.6530   18.9120   -0.6400 C   0  0  0  0  0
  -26.8440   18.6960   -1.2630 N   0  0  0  0  0
  -27.0320   18.5610   -2.5950 C   0  0  0  0  0
  -26.1330   18.8120   -3.6100 C   0  0  0  0  0
  -26.7140   18.5130   -4.7860 N   0  0  0  0  0
  -26.0320   18.6660   -6.1040 C   0  0  0  0  0
  -28.1950   18.1070   -3.1950 C   0  0  0  0  0
  -27.9890   18.1070   -4.5700 C   0  0  0  0  0
  -28.9520   17.6340   -5.6190 C   0  0  0  0  0
  -28.4830   16.7320   -6.2830 O   0  0  0  0  0
  -30.2220   18.0400   -5.8430 N   0  0  0  0  0
  -30.9520   18.8370   -4.8400 C   0  0  0  0  0
  -31.9330   19.8060   -5.5170 C   0  0  0  0  0
  -32.6960   18.9950   -6.4510 N   0  3  0  0  0
  -34.0870   18.6140   -6.1470 C   0  0  0  0  0
  -31.9550   18.5900   -7.6350 C   0  0  0  0  0
  -30.9180   17.5970   -7.0850 C   0  0  0  0  0
  -18.0841   19.6742   -1.0738 H   0  0  0  0  0
  -19.4747   18.7201   -1.6002 H   0  0  0  0  0
  -20.5210   19.8626   -2.3475 H   0  0  0  0  0
  -22.8446   18.1585   -3.2610 H   0  0  0  0  0
  -21.1868   17.7735   -3.2576 H   0  0  0  0  0
  -22.3587   18.7008   -5.5268 H   0  0  0  0  0
  -20.6928   19.1306   -5.1624 H   0  0  0  0  0
  -23.0871   20.8539   -5.1800 H   0  0  0  0  0
  -21.4066   21.3166   -5.2332 H   0  0  0  0  0
  -21.5807   21.8985   -3.0093 H   0  0  0  0  0
  -23.1797   21.2165   -2.9054 H   0  0  0  0  0
  -21.6657   19.6785    2.1517 H   0  0  0  0  0
  -24.4486   19.1365    2.5018 H   0  0  0  0  0
  -27.6712   18.6299   -0.6699 H   0  0  0  0  0
  -25.1189   19.1903   -3.4808 H   0  0  0  0  0
  -25.7500   19.7092   -6.2468 H   0  0  0  0  0
  -25.1393   18.0409   -6.1244 H   0  0  0  0  0
  -26.7101   18.3593   -6.9003 H   0  0  0  0  0
  -29.1076   17.8042   -2.6815 H   0  0  0  0  0
  -30.2322   19.4152   -4.2607 H   0  0  0  0  0
  -31.5154   18.1603   -4.1975 H   0  0  0  0  0
  -31.4088   20.6150   -6.0257 H   0  0  0  0  0
  -32.5811   20.2928   -4.7882 H   0  0  0  0  0
  -33.6270   18.7792   -6.8075 H   0  0  0  0  0
  -34.1105   18.0366   -5.2228 H   0  0  0  0  0
  -34.6915   19.5135   -6.0305 H   0  0  0  0  0
  -34.4840   18.0111   -6.9637 H   0  0  0  0  0
  -31.4947   19.4336   -8.1494 H   0  0  0  0  0
  -32.5951   18.1469   -8.3979 H   0  0  0  0  0
  -31.4573   16.6832   -6.8357 H   0  0  0  0  0
  -30.1523   17.4830   -7.8523 H   0  0  0  0  0
  1  2  2  0  0  0
  2  3  1  0  0  0
  2  4  1  0  0  0
  4  5  4  0  0  0
  4 11  4  0  0  0
  5  6  1  0  0  0
  5 13  4  0  0  0
  6  7  1  0  0  0
  6 10  1  0  0  0
  7  8  1  0  0  0
  8  9  1  0  0  0
  9 10  1  0  0  0
 11 12  4  0  0  0
 12 13  4  0  0  0
 12 15  4  0  0  0
 13 14  4  0  0  0
 14 17  4  0  0  0
 15 16  4  0  0  0
 16 17  4  0  0  0
 17 18  1  0  0  0
 18 19  1  0  0  0
 19 20  4  0  0  0
 19 23  4  0  0  0
 20 21  4  0  0  0
 21 22  1  0  0  0
 21 24  4  0  0  0
 23 24  4  0  0  0
 24 25  1  0  0  0
 25 26  2  0  0  0
 25 27  1  0  0  0
 27 28  1  0  0  0
 27 33  1  0  0  0
 28 29  1  0  0  0
 29 30  1  0  0  0
 30 31  1  0  0  0
 30 32  1  0  0  0
 32 33  1  0  0  0
  3 34  1  0  0  0
  3 35  1  0  0  0
  6 36  1  0  0  0
  7 37  1  0  0  0
  7 38  1  0  0  0
  8 39  1  0  0  0
  8 40  1  0  0  0
  9 41  1  0  0  0
  9 42  1  0  0  0
 10 43  1  0  0  0
 10 44  1  0  0  0
 11 45  1  0  0  0
 15 46  1  0  0  0
 18 47  1  0  0  0
 20 48  1  0  0  0
 22 49  1  0  0  0
 22 50  1  0  0  0
 22 51  1  0  0  0
 23 52  1  0  0  0
 28 53  1  0  0  0
 28 54  1  0  0  0
 29 55  1  0  0  0
 29 56  1  0  0  0
 30 57  1  0  0  0
 31 58  1  0  0  0
 31 59  1  0  0  0
 31 60  1  0  0  0
 32 61  1  0  0  0
 32 62  1  0  0  0
 33 63  1  0  0  0
 33 64  1  0  0  0
M  END
$$$$
