6ql3_ligand
  -I-interpret- 

 51 52  0  0  0  0  0  0  0  0999 V2000
   15.0190    5.3210   15.6930 F   0  0  0  0  0
   15.6420    4.4870   14.8020 C   0  0  0  0  0
   15.9900    3.1780   15.1970 C   0  0  0  0  0
   15.3450    2.6060   16.7830 S   0  0  0  0  0
   13.9460    3.0250   16.7120 O   0  0  0  0  0
   15.4770    0.9820   16.6760 N   0  0  0  0  0
   16.1920    3.1450   17.8030 O   0  0  0  0  0
   16.5900    2.3800   14.2280 C   0  0  0  0  0
   16.9500    1.1150   14.4590 F   0  0  0  0  0
   16.8040    2.8470   12.9930 C   0  0  0  0  0
   17.3390    1.9640   12.1210 F   0  0  0  0  0
   15.8540    4.9830   13.5170 C   0  0  0  0  0
   16.4870    4.1350   12.5720 C   0  0  0  0  0
   16.7860    4.4250   10.8540 S   0  0  0  0  0
   16.4300    5.8900   10.6270 O   0  0  0  0  0
   15.8440    3.4620   10.0460 O   0  0  0  0  0
   18.4200    3.9260   10.4650 C   0  0  0  0  0
   19.6250    4.3330   11.2430 C   0  0  0  0  0
   19.3570    5.5720   11.7330 O   0  0  0  0  0
   15.4080    6.3260   13.2180 N   0  0  0  0  0
   15.4650    7.5080   14.1000 C   0  0  0  0  0
   16.9660    7.6060   14.6380 C   0  0  0  0  0
   17.9260    8.3350   13.7530 C   0  0  0  0  0
   18.0430    9.8620   13.8760 C   0  0  0  0  0
   16.8240   10.7710   13.7560 C   0  0  0  0  0
   15.7630   10.6390   14.8520 C   0  0  0  0  0
   14.4720    9.9770   14.2870 C   0  0  0  0  0
   14.7980    8.6920   13.3920 C   0  0  0  0  0
   14.6401    0.4079   16.5743 H   0  0  0  0  0
   16.3964    0.5417   16.7108 H   0  0  0  0  0
   18.5900    4.3960    9.4963 H   0  0  0  0  0
   18.3855    2.8480   10.6229 H   0  0  0  0  0
   20.5151    4.3425   10.6139 H   0  0  0  0  0
   19.8308    3.6274   12.0479 H   0  0  0  0  0
   20.1075    5.8814   12.2455 H   0  0  0  0  0
   15.0082    6.4731   12.2912 H   0  0  0  0  0
   14.8751    7.4660   15.0156 H   0  0  0  0  0
   17.3336    6.5828   14.7153 H   0  0  0  0  0
   16.9229    8.1648   15.5729 H   0  0  0  0  0
   17.5601    8.1627   12.7408 H   0  0  0  0  0
   18.9087    7.9553   14.0329 H   0  0  0  0  0
   18.6609   10.1437   13.0234 H   0  0  0  0  0
   18.3792   10.0140   14.9016 H   0  0  0  0  0
   16.3314   10.4939   12.8240 H   0  0  0  0  0
   17.2009   11.7916   13.8220 H   0  0  0  0  0
   15.5160   11.6325   15.2263 H   0  0  0  0  0
   16.1585   10.0150   15.6535 H   0  0  0  0  0
   13.9613   10.7078   13.6599 H   0  0  0  0  0
   13.8567    9.6584   15.1284 H   0  0  0  0  0
   13.8361    8.3240   13.0352 H   0  0  0  0  0
   15.5076    9.0266   12.6353 H   0  0  0  0  0
  1  2  1  0  0  0
  2  3  4  0  0  0
  2 12  4  0  0  0
  3  4  1  0  0  0
  3  8  4  0  0  0
  4  5  2  0  0  0
  4  6  1  0  0  0
  4  7  2  0  0  0
  8  9  1  0  0  0
  8 10  4  0  0  0
 10 11  1  0  0  0
 10 13  4  0  0  0
 12 13  4  0  0  0
 12 20  1  0  0  0
 13 14  1  0  0  0
 14 15  2  0  0  0
 14 16  2  0  0  0
 14 17  1  0  0  0
 17 18  1  0  0  0
 18 19  1  0  0  0
 20 21  1  0  0  0
 21 22  1  0  0  0
 21 28  1  0  0  0
 22 23  1  0  0  0
 23 24  1  0  0  0
 24 25  1  0  0  0
 25 26  1  0  0  0
 26 27  1  0  0  0
 27 28  1  0  0  0
  6 29  1  0  0  0
  6 30  1  0  0  0
 17 31  1  0  0  0
 17 32  1  0  0  0
 18 33  1  0  0  0
 18 34  1  0  0  0
 19 35  1  0  0  0
 20 36  1  0  0  0
 21 37  1  0  0  0
 22 38  1  0  0  0
 22 39  1  0  0  0
 23 40  1  0  0  0
 23 41  1  0  0  0
 24 42  1  0  0  0
 24 43  1  0  0  0
 25 44  1  0  0  0
 25 45  1  0  0  0
 26 46  1  0  0  0
 26 47  1  0  0  0
 27 48  1  0  0  0
 27 49  1  0  0  0
 28 50  1  0  0  0
 28 51  1  0  0  0
M  END
$$$$
