4i0s_ligand
  -I-interpret- 

 42 45  0  0  0  0  0  0  0  0999 V2000
    2.5200   -1.6630   15.6980 C   0  0  0  0  0
    1.8720   -0.6930   14.9270 C   0  0  0  0  0
    2.5460    0.3630   14.4720 N   0  0  0  0  0
    3.8390    0.4800   14.7590 C   0  0  0  0  0
    4.4860   -0.4990   15.5400 C   0  0  0  0  0
    3.7990   -1.5470   15.9810 N   0  0  0  0  0
    4.8710    1.4780   14.4430 C   0  0  0  0  0
    6.0240    1.0490   15.0380 C   0  0  0  0  0
    5.7950   -0.1200   15.6760 N   0  0  0  0  0
    0.4310   -0.8640   14.6440 C   0  0  0  0  0
    4.6840    2.7160   13.6830 C   0  0  0  0  0
    5.6520    3.4280   13.4810 O   0  0  0  0  0
    3.4380    3.0500   13.2630 N   0  0  0  0  0
    3.1460    4.2830   12.5240 C   0  0  0  0  0
   -0.2980   -1.8720   15.0550 N   0  0  0  0  0
   -1.6170   -1.7210   14.6260 N   0  0  0  0  0
   -1.7230   -0.5540   13.9170 C   0  0  0  0  0
   -0.4440    0.0440   13.8950 C   0  0  0  0  0
   -2.7800    0.0820   13.2740 C   0  0  0  0  0
   -2.5660    1.2810   12.6320 C   0  0  0  0  0
   -1.3060    1.8760   12.6080 C   0  0  0  0  0
   -0.2470    1.2660   13.2300 C   0  0  0  0  0
   -2.6950   -2.6770   14.9100 C   0  0  0  0  0
   -3.9120    2.0410   11.8460 Cl  0  0  0  0  0
    2.1320    3.9890   11.4150 C   0  0  0  0  0
    2.5110    5.2850   13.4960 C   0  0  0  0  0
    1.9604   -2.5223   16.0675 H   0  0  0  0  0
    6.9810    1.5696   15.0033 H   0  0  0  0  0
    2.6682    2.4139   13.4708 H   0  0  0  0  0
    4.0643    4.6800   12.0913 H   0  0  0  0  0
   -3.7732   -0.3669   13.2784 H   0  0  0  0  0
   -1.1622    2.8267   12.0946 H   0  0  0  0  0
    0.7409    1.7260   13.2087 H   0  0  0  0  0
   -2.4367   -3.6491   14.4901 H   0  0  0  0  0
   -2.8232   -2.7681   15.9886 H   0  0  0  0  0
   -3.6223   -2.3208   14.4614 H   0  0  0  0  0
    2.5465    3.2466   10.7329 H   0  0  0  0  0
    1.2129    3.6047   11.8574 H   0  0  0  0  0
    1.9173    4.9071   10.8680 H   0  0  0  0  0
    1.5910    4.8634   13.9009 H   0  0  0  0  0
    3.2067    5.4909   14.3095 H   0  0  0  0  0
    2.2856    6.2104   12.9660 H   0  0  0  0  0
  1  2  4  0  0  0
  1  6  4  0  0  0
  2  3  4  0  0  0
  2 10  1  0  0  0
  3  4  4  0  0  0
  4  5  4  0  0  0
  4  7  4  0  0  0
  5  6  4  0  0  0
  5  9  4  0  0  0
  7  8  4  0  0  0
  7 11  1  0  0  0
  8  9  4  0  0  0
 10 15  4  0  0  0
 10 18  4  0  0  0
 11 12  2  0  0  0
 11 13  1  0  0  0
 13 14  1  0  0  0
 14 25  1  0  0  0
 14 26  1  0  0  0
 15 16  4  0  0  0
 16 17  4  0  0  0
 16 23  1  0  0  0
 17 18  4  0  0  0
 17 19  4  0  0  0
 18 22  4  0  0  0
 19 20  4  0  0  0
 20 21  4  0  0  0
 20 24  1  0  0  0
 21 22  4  0  0  0
  1 27  1  0  0  0
  8 28  1  0  0  0
 13 29  1  0  0  0
 14 30  1  0  0  0
 19 31  1  0  0  0
 21 32  1  0  0  0
 22 33  1  0  0  0
 23 34  1  0  0  0
 23 35  1  0  0  0
 23 36  1  0  0  0
 25 37  1  0  0  0
 25 38  1  0  0  0
 25 39  1  0  0  0
 26 40  1  0  0  0
 26 41  1  0  0  0
 26 42  1  0  0  0
M  END
$$$$
