5mmg_ligand
  -I-interpret- 

 46 48  0  0  0  0  0  0  0  0999 V2000
   -0.8740   -3.5460   -6.4300 C   0  0  0  0  0
   -6.6770   -1.9460   -1.2010 C   0  0  0  0  0
    3.3800   -1.2280    0.6830 C   0  0  0  0  0
   -4.9930   -2.0660   -4.6040 C   0  0  0  0  0
   -3.7070   -2.0410   -5.1510 C   0  0  0  0  0
   -0.7380   -3.8330   -2.5100 C   0  0  0  0  0
    0.1660   -4.8260   -2.1010 C   0  0  0  0  0
    1.9220   -5.3670   -0.4810 C   0  0  0  0  0
    2.4860   -4.6740    0.5130 C   0  0  0  0  0
   -4.0380   -1.7760   -2.4220 C   0  0  0  0  0
    0.1090   -2.4510   -0.7630 C   0  0  0  0  0
   -1.1520   -2.0700   -6.1780 C   0  0  0  0  0
   -6.4920   -1.9780   -2.7280 C   0  0  0  0  0
   -0.7840   -2.6160   -1.8300 C   0  0  0  0  0
   -5.1740   -1.9300   -3.2310 C   0  0  0  0  0
   -2.7430   -1.7770   -2.9500 C   0  0  0  0  0
   -2.5880   -1.8930   -4.3280 C   0  0  0  0  0
    0.9890   -4.5980   -1.0610 C   0  0  0  0  0
    0.9590   -3.4270   -0.4070 C   0  0  0  0  0
   -1.6310   -1.6010   -2.1680 N   0  0  0  0  0
    1.8660   -3.4910    0.5900 N   0  0  0  0  0
   -7.4780   -2.1600   -3.4650 O   0  0  0  0  0
    1.0650   -1.4530    2.0000 O   0  0  0  0  0
    3.0330   -2.8260    2.8370 O   0  0  0  0  0
   -1.2980   -1.8490   -4.7800 O   0  0  0  0  0
    2.2860   -2.2680    1.6190 S   0  0  0  0  0
    0.0437   -3.8343   -5.9173 H   0  0  0  0  0
   -1.7053   -4.1408   -6.0515 H   0  0  0  0  0
   -0.7621   -3.7157   -7.5009 H   0  0  0  0  0
   -7.3610   -1.1397   -0.9360 H   0  0  0  0  0
   -7.0886   -2.8981   -0.8661 H   0  0  0  0  0
   -5.7121   -1.7775   -0.7228 H   0  0  0  0  0
    2.8683   -0.8784   -0.2137 H   0  0  0  0  0
    3.6752   -0.3729    1.2911 H   0  0  0  0  0
    4.2655   -1.7967    0.3991 H   0  0  0  0  0
   -5.8576   -2.1925   -5.2556 H   0  0  0  0  0
   -3.5762   -2.1378   -6.2288 H   0  0  0  0  0
   -1.4016   -4.0123   -3.3559 H   0  0  0  0  0
    0.2013   -5.7809   -2.6254 H   0  0  0  0  0
    2.1775   -6.3861   -0.7714 H   0  0  0  0  0
    3.3050   -5.0123    1.1477 H   0  0  0  0  0
   -4.1691   -1.6515   -1.3471 H   0  0  0  0  0
    0.1136   -1.5112   -0.2109 H   0  0  0  0  0
   -2.0692   -1.7796   -6.6903 H   0  0  0  0  0
   -0.3219   -1.4733   -6.5563 H   0  0  0  0  0
   -1.4263   -0.6638   -1.8212 H   0  0  0  0  0
 12  1  1  0  0  0
 13  2  1  0  0  0
 26  3  1  0  0  0
  5  4  4  0  0  0
 15  4  4  0  0  0
 17  5  4  0  0  0
  7  6  4  0  0  0
 14  6  4  0  0  0
 18  7  4  0  0  0
  9  8  4  0  0  0
 18  8  4  0  0  0
 21  9  4  0  0  0
 10 15  4  0  0  0
 16 10  4  0  0  0
 11 14  4  0  0  0
 19 11  4  0  0  0
 25 12  1  0  0  0
 15 13  1  0  0  0
 13 22  2  0  0  0
 14 20  1  0  0  0
 16 17  4  0  0  0
 20 16  1  0  0  0
 17 25  1  0  0  0
 19 18  4  0  0  0
 21 19  4  0  0  0
 21 26  1  0  0  0
 26 23  2  0  0  0
 26 24  2  0  0  0
  1 27  1  0  0  0
  1 28  1  0  0  0
  1 29  1  0  0  0
  2 30  1  0  0  0
  2 31  1  0  0  0
  2 32  1  0  0  0
  3 33  1  0  0  0
  3 34  1  0  0  0
  3 35  1  0  0  0
  4 36  1  0  0  0
  5 37  1  0  0  0
  6 38  1  0  0  0
  7 39  1  0  0  0
  8 40  1  0  0  0
  9 41  1  0  0  0
 10 42  1  0  0  0
 11 43  1  0  0  0
 12 44  1  0  0  0
 12 45  1  0  0  0
 20 46  1  0  0  0
M  END
$$$$
