### 
### Created by X-TOOL on Mon Sep 10 21:13:07 2018
### 

@<TRIPOS>MOLECULE
3p9h_ligand
  156   160     1     0     0
SMALL
GAST_HUCK


@<TRIPOS>ATOM
      1 C          -6.8660    2.8850   -5.1540 C.2       1 ACE         0.1776
      2 O          -5.7000    3.2680   -5.2840 O.2       1 ACE        -0.3970
      3 CH3        -7.6660    2.4410   -6.3490 C.3       1 ACE         0.0260
      4 N          -7.4690    2.8250   -3.9530 N.am      1 PRO        -0.2520
      5 CA         -6.7930    3.2330   -2.7210 C.3       1 PRO         0.1337
      6 C          -5.3250    2.8210   -2.6730 C.2       1 PRO         0.2041
      7 O          -4.9760    1.6990   -3.0070 O.2       1 PRO        -0.3944
      8 CB         -7.6380    2.5720   -1.6430 C.3       1 PRO        -0.0104
      9 CG         -9.0190    2.7450   -2.2050 C.3       1 PRO        -0.0281
     10 CD         -8.8180    2.3130   -3.6550 C.3       1 PRO         0.0369
     11 N          -4.4700    3.7540   -2.2770 N.am      1 GLU        -0.2636
     12 CA         -3.0390    3.4870   -2.1580 C.3       1 GLU         0.1327
     13 C          -2.6380    4.1080   -0.8370 C.2       1 GLU         0.2066
     14 O          -2.9070    5.2860   -0.6050 O.2       1 GLU        -0.3942
     15 CB         -2.2590    4.1550   -3.3040 C.3       1 GLU        -0.0008
     16 CG         -0.7290    4.1290   -3.1450 C.3       1 GLU         0.0044
     17 CD          0.0050    5.0360   -4.1400 C.2       1 GLU         0.0350
     18 OE1        -0.2070    4.9120   -5.3680 O.co2     1 GLU        -0.5690
     19 OE2         0.8130    5.8790   -3.6970 O.co2     1 GLU        -0.5690
     20 C          -1.1990    5.3430    1.2550 C.2       1 ZYJ         0.2043
     21 N          -2.0180    3.3210    0.0540 N.am      1 ZYJ        -0.2467
     22 O          -0.3470    5.7100    0.4480 O.2       1 ZYJ        -0.3944
     23 N1         -1.2670    0.0740    2.8240 N.2       1 ZYJ        -0.1586
     24 O2         -1.7910    0.9110    1.9410 O.3       1 ZYJ        -0.2323
     25 C4          4.3040   -2.5540    4.6700 C.3       1 ZYJ         0.0569
     26 O4          3.3260   -2.5320    5.7030 O.3       1 ZYJ        -0.3249
     27 O5          1.5190   -4.4430    6.8410 O.3       1 ZYJ        -0.3237
     28 C6          1.0900   -3.5760    5.8000 C.ar      1 ZYJ         0.1210
     29 C7          1.9900   -2.6320    5.2340 C.ar      1 ZYJ         0.1201
     30 C9         -0.2500   -3.6370    5.3330 C.ar      1 ZYJ        -0.0396
     31 CA         -1.6030    3.8700    1.3480 C.3       1 ZYJ         0.1368
     32 CB         -0.4370    2.9670    1.7390 C.3       1 ZYJ         0.0234
     33 CD         -1.3660    2.0200   -0.1960 C.3       1 ZYJ         0.0705
     34 CG         -0.8550    1.6380    1.1840 C.3       1 ZYJ         0.1289
     35 C10         1.5410   -1.7560    4.2090 C.ar      1 ZYJ        -0.0340
     36 C11        -0.6920   -2.7610    4.3100 C.ar      1 ZYJ        -0.0732
     37 C12         0.2030   -1.8170    3.7480 C.ar      1 ZYJ        -0.0312
     38 C13        -0.3570   -0.7340    2.5480 C.2       1 ZYJ         0.0335
     39 C14         1.6970   -5.7890    6.4190 C.3       1 ZYJ         0.0574
     40 N          -1.8250    6.1900    2.0660 N.am      1 THR        -0.2613
     41 CA         -1.4960    7.6160    2.0830 C.3       1 THR         0.1565
     42 C          -1.6040    8.1500    3.5050 C.2       1 THR         0.2065
     43 O          -2.4190    7.6710    4.2930 O.2       1 THR        -0.3943
     44 CB         -2.4390    8.4520    1.1870 C.3       1 THR         0.0924
     45 OG1        -3.7950    8.2730    1.6110 O.3       1 THR        -0.3874
     46 CG2        -2.2970    8.0490   -0.2730 C.3       1 THR        -0.0346
     47 N          -0.7770    9.1390    3.8220 N.am      1 ALA        -0.2639
     48 CA         -0.7700    9.7470    5.1450 C.3       1 ALA         0.1284
     49 C          -0.5810   11.2510    5.0010 C.2       1 ALA         0.2061
     50 O           0.0070   11.7170    4.0260 O.2       1 ALA        -0.3942
     51 CB          0.3530    9.1590    5.9850 C.3       1 ALA        -0.0244
     52 N          -1.0850   12.0310    5.9710 N.am      1 PRO        -0.2498
     53 CA         -0.9610   13.4920    5.9380 C.3       1 PRO         0.1340
     54 C           0.4890   13.9560    6.0890 C.2       1 PRO         0.2066
     55 O           1.2960   13.2940    6.7340 O.2       1 PRO        -0.3942
     56 CB         -1.8430   13.9340    7.1020 C.3       1 PRO        -0.0104
     57 CG         -1.6930   12.8070    8.0780 C.3       1 PRO        -0.0281
     58 CD         -1.8040   11.5930    7.1820 C.3       1 PRO         0.0369
     59 N           0.8360   15.1040    5.4870 N.am      1 PRO        -0.2498
     60 CA          2.2050   15.6220    5.5800 C.3       1 PRO         0.1338
     61 C           2.6150   15.9330    7.0150 C.2       1 PRO         0.2041
     62 O           1.8050   16.4010    7.8150 O.2       1 PRO        -0.3944
     63 CB          2.1650   16.8650    4.6930 C.3       1 PRO        -0.0104
     64 CG          0.7470   17.3180    4.8040 C.3       1 PRO        -0.0281
     65 CD         -0.0200   16.0200    4.7140 C.3       1 PRO         0.0369
     66 N           3.8770   15.6680    7.3380 N.am      1 GLU        -0.2636
     67 CA          4.3770   15.9110    8.6830 C.3       1 GLU         0.1325
     68 C           4.1530   17.3570    9.0980 C.2       1 GLU         0.2040
     69 O           4.3180   18.2800    8.2990 O.2       1 GLU        -0.3944
     70 CB          5.8700   15.5780    8.7770 C.3       1 GLU        -0.0008
     71 CG          6.4270   15.7070   10.1900 C.3       1 GLU         0.0044
     72 CD          5.8830   14.6480   11.1340 C.2       1 GLU         0.0350
     73 OE1         5.9250   14.8670   12.3650 O.co2     1 GLU        -0.5690
     74 OE2         5.4270   13.5910   10.6480 O.co2     1 GLU        -0.5690
     75 N           3.7750   17.5410   10.3570 N.am      1 GLU        -0.2636
     76 CA          3.5170   18.8640   10.9060 C.3       1 GLU         0.1321
     77 C           4.4340   19.1440   12.0910 C.2       1 GLU         0.1993
     78 O           4.7220   20.2970   12.4090 O.2       1 GLU        -0.3947
     79 CB          2.0580   18.9610   11.3480 C.3       1 GLU        -0.0008
     80 CG          1.0580   18.8790   10.2110 C.3       1 GLU         0.0044
     81 CD         -0.3570   18.6400   10.7010 C.2       1 GLU         0.0350
     82 OE1        -0.6110   18.8460   11.9060 O.co2     1 GLU        -0.5690
     83 OE2        -1.2160   18.2530    9.8800 O.co2     1 GLU        -0.5690
     84 N           4.8980   18.0920   12.7560 N.am      1 NH2        -0.2990
     85 H          -7.7431    3.2642   -7.0593 H         1 ACE         0.0467
     86 H          -7.1686    1.5952   -6.8237 H         1 ACE         0.0467
     87 H          -8.6637    2.1431   -6.0264 H         1 ACE         0.0467
     88 H          -6.7322    4.3155   -2.6091 H         1 PRO         0.0802
     89 H          -7.5090    3.0116   -0.6539 H         1 PRO         0.0313
     90 H          -7.3697    1.5331   -1.4513 H         1 PRO         0.0313
     91 H          -9.4063    3.7587   -2.1029 H         1 PRO         0.0287
     92 H          -9.7781    2.1654   -1.6797 H         1 PRO         0.0287
     93 H          -8.9084    1.2361   -3.7974 H         1 PRO         0.0524
     94 H          -9.5821    2.7026   -4.3277 H         1 PRO         0.0524
     95 H          -4.8215    4.6840   -2.0492 H         1 GLU         0.1883
     96 H          -2.8229    2.4197   -2.2063 H         1 GLU         0.0801
     97 H          -2.5574    5.2032   -3.3207 H         1 GLU         0.0330
     98 H          -2.4921    3.5984   -4.2117 H         1 GLU         0.0330
     99 H          -0.3980    3.1067   -3.3279 H         1 GLU         0.0433
    100 H          -0.4977    4.4882   -2.1422 H         1 GLU         0.0433
    101 H           4.2253   -3.4899    4.1168 H         1 ZYJ         0.0573
    102 H           4.1356   -1.7156    3.9941 H         1 ZYJ         0.0573
    103 H           5.2978   -2.4733    5.1105 H         1 ZYJ         0.0573
    104 H          -0.9419   -4.3610    5.7634 H         1 ZYJ         0.0516
    105 H          -2.4041    3.8741    2.0871 H         1 ZYJ         0.0803
    106 H          -0.2571    2.9433    2.8138 H         1 ZYJ         0.0344
    107 H           0.5199    3.3115    1.3469 H         1 ZYJ         0.0344
    108 H          -0.5753    2.0752   -0.9442 H         1 ZYJ         0.0556
    109 H          -2.0418    1.2783   -0.6217 H         1 ZYJ         0.0556
    110 H          -0.0279    0.9281    1.1832 H         1 ZYJ         0.0707
    111 H           2.2308   -1.0324    3.7747 H         1 ZYJ         0.0503
    112 H          -1.7213   -2.8136    3.9553 H         1 ZYJ         0.0503
    113 H           0.0782   -0.7496    1.5488 H         1 ZYJ         0.0755
    114 H           0.7523   -6.1770    6.0381 H         1 ZYJ         0.0574
    115 H           2.4499   -5.8250    5.6316 H         1 ZYJ         0.0574
    116 H           2.0248   -6.3933    7.2649 H         1 ZYJ         0.0574
    117 H          -2.5508    5.8383    2.6904 H         1 THR         0.1884
    118 H          -0.4803    7.7091    1.6986 H         1 THR         0.0826
    119 H          -2.1639    9.5024    1.2820 H         1 THR         0.0639
    120 H          -4.3755    8.7941    1.0514 H         1 THR         0.2101
    121 H          -1.2688    8.2130   -0.5955 H         1 THR         0.0257
    122 H          -2.5501    6.9946   -0.3838 H         1 THR         0.0257
    123 H          -2.9707    8.6517   -0.8821 H         1 THR         0.0257
    124 H          -0.1260    9.4838    3.1165 H         1 ALA         0.1883
    125 H          -1.7180    9.5442    5.6432 H         1 ALA         0.0797
    126 H           0.2049    8.0838    6.0858 H         1 ALA         0.0277
    127 H           1.3087    9.3513    5.4974 H         1 ALA         0.0277
    128 H           0.3475    9.6219    6.9718 H         1 ALA         0.0277
    129 H          -1.2680   13.9260    4.9864 H         1 PRO         0.0802
    130 H          -2.8785   14.1063    6.8084 H         1 PRO         0.0313
    131 H          -1.5467   14.8973    7.5171 H         1 PRO         0.0313
    132 H          -2.4382   12.8244    8.8733 H         1 PRO         0.0287
    133 H          -0.7587   12.8444    8.6382 H         1 PRO         0.0287
    134 H          -1.3848   10.6908    7.6275 H         1 PRO         0.0524
    135 H          -2.8345   11.2968    6.9860 H         1 PRO         0.0524
    136 H           2.9552   14.9002    5.2571 H         1 PRO         0.0802
    137 H           2.4607   16.6573    3.6646 H         1 PRO         0.0313
    138 H           2.8762   17.6289    5.0074 H         1 PRO         0.0313
    139 H           0.4661   18.0340    4.0316 H         1 PRO         0.0287
    140 H           0.5460   17.8696    5.7224 H         1 PRO         0.0287
    141 H          -1.0362   16.0914    5.1016 H         1 PRO         0.0524
    142 H          -0.1908   15.6897    3.6894 H         1 PRO         0.0524
    143 H           4.5059   15.2877    6.6308 H         1 GLU         0.1883
    144 H           3.8224   15.2611    9.3599 H         1 GLU         0.0801
    145 H           6.4064   16.2857    8.1449 H         1 GLU         0.0330
    146 H           5.9971   14.5412    8.4655 H         1 GLU         0.0330
    147 H           6.1340   16.6828   10.5773 H         1 GLU         0.0433
    148 H           7.5086   15.5832   10.1359 H         1 GLU         0.0433
    149 H           3.6614   16.7268   10.9608 H         1 GLU         0.1883
    150 H           3.7147   19.6063   10.1326 H         1 GLU         0.0801
    151 H           1.9289   19.9347   11.8205 H         1 GLU         0.0330
    152 H           1.8648   18.1154   12.0081 H         1 GLU         0.0330
    153 H           1.3401   18.0408    9.5738 H         1 GLU         0.0433
    154 H           1.0742   19.8300    9.6787 H         1 GLU         0.0433
    155 H           5.5136   18.2266   13.5580 H         1 NH2         0.1815
    156 H           4.6387   17.1495   12.4646 H         1 NH2         0.1815
@<TRIPOS>BOND
     1    1    2 2  
     2    1    3 1  
     3    4    1 am 
     4    5    4 1  
     5    4   10 1  
     6    6    5 1  
     7    5    8 1  
     8    6    7 2  
     9   11    6 am 
    10    8    9 1  
    11    9   10 1  
    12   12   11 1  
    13   13   12 1  
    14   12   15 1  
    15   13   14 2  
    16   21   13 am 
    17   15   16 1  
    18   16   17 1  
    19   17   18 ar 
    20   17   19 ar 
    21   20   22 2  
    22   31   20 1  
    23   20   40 am 
    24   21   31 1  
    25   33   21 1  
    26   23   24 1  
    27   38   23 2  
    28   24   34 1  
    29   26   25 1  
    30   29   26 1  
    31   28   27 1  
    32   27   39 1  
    33   29   28 ar 
    34   30   28 ar 
    35   35   29 ar 
    36   36   30 ar 
    37   32   31 1  
    38   34   32 1  
    39   34   33 1  
    40   37   35 ar 
    41   37   36 ar 
    42   37   38 1  
    43   40   41 1  
    44   41   42 1  
    45   41   44 1  
    46   42   43 2  
    47   42   47 am 
    48   44   45 1  
    49   44   46 1  
    50   47   48 1  
    51   48   49 1  
    52   48   51 1  
    53   49   50 2  
    54   49   52 am 
    55   52   53 1  
    56   52   58 1  
    57   53   54 1  
    58   53   56 1  
    59   54   55 2  
    60   54   59 am 
    61   56   57 1  
    62   57   58 1  
    63   59   60 1  
    64   59   65 1  
    65   60   61 1  
    66   60   63 1  
    67   61   62 2  
    68   61   66 am 
    69   63   64 1  
    70   64   65 1  
    71   66   67 1  
    72   67   68 1  
    73   67   70 1  
    74   68   69 2  
    75   68   75 am 
    76   70   71 1  
    77   71   72 1  
    78   72   73 ar 
    79   72   74 ar 
    80   75   76 1  
    81   76   77 1  
    82   76   79 1  
    83   77   78 2  
    84   77   84 am 
    85   79   80 1  
    86   80   81 1  
    87   81   82 ar 
    88   81   83 ar 
    89    3   85 1  
    90    3   86 1  
    91    3   87 1  
    92    5   88 1  
    93    8   89 1  
    94    8   90 1  
    95    9   91 1  
    96    9   92 1  
    97   10   93 1  
    98   10   94 1  
    99   11   95 1  
   100   12   96 1  
   101   15   97 1  
   102   15   98 1  
   103   16   99 1  
   104   16  100 1  
   105   25  101 1  
   106   25  102 1  
   107   25  103 1  
   108   30  104 1  
   109   31  105 1  
   110   32  106 1  
   111   32  107 1  
   112   33  108 1  
   113   33  109 1  
   114   34  110 1  
   115   35  111 1  
   116   36  112 1  
   117   38  113 1  
   118   39  114 1  
   119   39  115 1  
   120   39  116 1  
   121   40  117 1  
   122   41  118 1  
   123   44  119 1  
   124   45  120 1  
   125   46  121 1  
   126   46  122 1  
   127   46  123 1  
   128   47  124 1  
   129   48  125 1  
   130   51  126 1  
   131   51  127 1  
   132   51  128 1  
   133   53  129 1  
   134   56  130 1  
   135   56  131 1  
   136   57  132 1  
   137   57  133 1  
   138   58  134 1  
   139   58  135 1  
   140   60  136 1  
   141   63  137 1  
   142   63  138 1  
   143   64  139 1  
   144   64  140 1  
   145   65  141 1  
   146   65  142 1  
   147   66  143 1  
   148   67  144 1  
   149   70  145 1  
   150   70  146 1  
   151   71  147 1  
   152   71  148 1  
   153   75  149 1  
   154   76  150 1  
   155   79  151 1  
   156   79  152 1  
   157   80  153 1  
   158   80  154 1  
   159   84  155 1  
   160   84  156 1  
@<TRIPOS>SUBSTRUCTURE
     1 ACE         1

