3p9h_ligand
  -I-interpret- 

159163  0  0  0  0  0  0  0  0999 V2000
   -6.8660    2.8850   -5.1540 C   0  0  0  0  0
   -5.7000    3.2680   -5.2840 O   0  0  0  0  0
   -7.6660    2.4410   -6.3490 C   0  0  0  0  0
   -7.4690    2.8250   -3.9530 N   0  0  0  0  0
   -6.7930    3.2330   -2.7210 C   0  0  0  0  0
   -5.3250    2.8210   -2.6730 C   0  0  0  0  0
   -4.9760    1.6990   -3.0070 O   0  0  0  0  0
   -7.6380    2.5720   -1.6430 C   0  0  0  0  0
   -9.0190    2.7450   -2.2050 C   0  0  0  0  0
   -8.8180    2.3130   -3.6550 C   0  0  0  0  0
   -4.4700    3.7540   -2.2770 N   0  0  0  0  0
   -3.0390    3.4870   -2.1580 C   0  0  0  0  0
   -2.6380    4.1080   -0.8370 C   0  0  0  0  0
   -2.9070    5.2860   -0.6050 O   0  0  0  0  0
   -2.2590    4.1550   -3.3040 C   0  0  0  0  0
   -0.7290    4.1290   -3.1450 C   0  0  0  0  0
    0.0050    5.0360   -4.1400 C   0  0  0  0  0
   -0.2070    4.9120   -5.3680 O   0  0  0  0  0
    0.8130    5.8790   -3.6970 O   0  0  0  0  0
   -1.1990    5.3430    1.2550 C   0  0  0  0  0
   -2.0180    3.3210    0.0540 N   0  0  0  0  0
   -0.3470    5.7100    0.4480 O   0  0  0  0  0
   -1.2670    0.0740    2.8240 N   0  0  0  0  0
   -1.7910    0.9110    1.9410 O   0  0  0  0  0
    4.3040   -2.5540    4.6700 C   0  0  0  0  0
    3.3260   -2.5320    5.7030 O   0  0  0  0  0
    1.5190   -4.4430    6.8410 O   0  0  0  0  0
    1.0900   -3.5760    5.8000 C   0  0  0  0  0
    1.9900   -2.6320    5.2340 C   0  0  0  0  0
   -0.2500   -3.6370    5.3330 C   0  0  0  0  0
   -1.6030    3.8700    1.3480 C   0  0  0  0  0
   -0.4370    2.9670    1.7390 C   0  0  0  0  0
   -1.3660    2.0200   -0.1960 C   0  0  0  0  0
   -0.8550    1.6380    1.1840 C   0  0  0  0  0
    1.5410   -1.7560    4.2090 C   0  0  0  0  0
   -0.6920   -2.7610    4.3100 C   0  0  0  0  0
    0.2030   -1.8170    3.7480 C   0  0  0  0  0
   -0.3570   -0.7340    2.5480 C   0  0  0  0  0
    1.6970   -5.7890    6.4190 C   0  0  0  0  0
   -1.8250    6.1900    2.0660 N   0  0  0  0  0
   -1.4960    7.6160    2.0830 C   0  0  0  0  0
   -1.6040    8.1500    3.5050 C   0  0  0  0  0
   -2.4190    7.6710    4.2930 O   0  0  0  0  0
   -2.4390    8.4520    1.1870 C   0  0  0  0  0
   -3.7950    8.2730    1.6110 O   0  0  0  0  0
   -2.2970    8.0490   -0.2730 C   0  0  0  0  0
   -0.7770    9.1390    3.8220 N   0  0  0  0  0
   -0.7700    9.7470    5.1450 C   0  0  0  0  0
   -0.5810   11.2510    5.0010 C   0  0  0  0  0
    0.0070   11.7170    4.0260 O   0  0  0  0  0
    0.3530    9.1590    5.9850 C   0  0  0  0  0
   -1.0850   12.0310    5.9710 N   0  0  0  0  0
   -0.9610   13.4920    5.9380 C   0  0  0  0  0
    0.4890   13.9560    6.0890 C   0  0  0  0  0
    1.2960   13.2940    6.7340 O   0  0  0  0  0
   -1.8430   13.9340    7.1020 C   0  0  0  0  0
   -1.6930   12.8070    8.0780 C   0  0  0  0  0
   -1.8040   11.5930    7.1820 C   0  0  0  0  0
    0.8360   15.1040    5.4870 N   0  0  0  0  0
    2.2050   15.6220    5.5800 C   0  0  0  0  0
    2.6150   15.9330    7.0150 C   0  0  0  0  0
    1.8050   16.4010    7.8150 O   0  0  0  0  0
    2.1650   16.8650    4.6930 C   0  0  0  0  0
    0.7470   17.3180    4.8040 C   0  0  0  0  0
   -0.0200   16.0200    4.7140 C   0  0  0  0  0
    3.8770   15.6680    7.3380 N   0  0  0  0  0
    4.3770   15.9110    8.6830 C   0  0  0  0  0
    4.1530   17.3570    9.0980 C   0  0  0  0  0
    4.3180   18.2800    8.2990 O   0  0  0  0  0
    5.8700   15.5780    8.7770 C   0  0  0  0  0
    6.4270   15.7070   10.1900 C   0  0  0  0  0
    5.8830   14.6480   11.1340 C   0  0  0  0  0
    5.9250   14.8670   12.3650 O   0  0  0  0  0
    5.4270   13.5910   10.6480 O   0  0  0  0  0
    3.7750   17.5410   10.3570 N   0  0  0  0  0
    3.5170   18.8640   10.9060 C   0  0  0  0  0
    4.4340   19.1440   12.0910 C   0  0  0  0  0
    4.7220   20.2970   12.4090 O   0  0  0  0  0
    2.0580   18.9610   11.3480 C   0  0  0  0  0
    1.0580   18.8790   10.2110 C   0  0  0  0  0
   -0.3570   18.6400   10.7010 C   0  0  0  0  0
   -0.6110   18.8460   11.9060 O   0  0  0  0  0
   -1.2160   18.2530    9.8800 O   0  0  0  0  0
    4.8980   18.0920   12.7560 N   0  0  0  0  0
   -7.7431    3.2642   -7.0593 H   0  0  0  0  0
   -7.1686    1.5952   -6.8237 H   0  0  0  0  0
   -8.6637    2.1431   -6.0264 H   0  0  0  0  0
   -6.7322    4.3155   -2.6091 H   0  0  0  0  0
   -7.5090    3.0116   -0.6539 H   0  0  0  0  0
   -7.3697    1.5331   -1.4513 H   0  0  0  0  0
   -9.4063    3.7587   -2.1029 H   0  0  0  0  0
   -9.7781    2.1654   -1.6797 H   0  0  0  0  0
   -8.9084    1.2361   -3.7974 H   0  0  0  0  0
   -9.5821    2.7026   -4.3277 H   0  0  0  0  0
   -4.8215    4.6840   -2.0492 H   0  0  0  0  0
   -2.8229    2.4197   -2.2063 H   0  0  0  0  0
   -2.5574    5.2032   -3.3207 H   0  0  0  0  0
   -2.4921    3.5984   -4.2117 H   0  0  0  0  0
   -0.3980    3.1067   -3.3279 H   0  0  0  0  0
   -0.4977    4.4882   -2.1422 H   0  0  0  0  0
   -0.8545    4.2179   -5.5113 H   0  0  0  0  0
    4.2253   -3.4899    4.1168 H   0  0  0  0  0
    4.1356   -1.7156    3.9941 H   0  0  0  0  0
    5.2978   -2.4733    5.1105 H   0  0  0  0  0
   -0.9419   -4.3610    5.7634 H   0  0  0  0  0
   -2.4041    3.8741    2.0871 H   0  0  0  0  0
   -0.2571    2.9433    2.8138 H   0  0  0  0  0
    0.5199    3.3115    1.3469 H   0  0  0  0  0
   -0.5753    2.0752   -0.9442 H   0  0  0  0  0
   -2.0418    1.2783   -0.6217 H   0  0  0  0  0
   -0.0279    0.9281    1.1832 H   0  0  0  0  0
    2.2308   -1.0324    3.7747 H   0  0  0  0  0
   -1.7213   -2.8136    3.9553 H   0  0  0  0  0
    0.0782   -0.7496    1.5488 H   0  0  0  0  0
    0.7523   -6.1770    6.0381 H   0  0  0  0  0
    2.4499   -5.8250    5.6316 H   0  0  0  0  0
    2.0248   -6.3933    7.2649 H   0  0  0  0  0
   -2.5508    5.8383    2.6904 H   0  0  0  0  0
   -0.4803    7.7091    1.6986 H   0  0  0  0  0
   -2.1639    9.5024    1.2820 H   0  0  0  0  0
   -4.3755    8.7941    1.0514 H   0  0  0  0  0
   -1.2688    8.2130   -0.5955 H   0  0  0  0  0
   -2.5501    6.9946   -0.3838 H   0  0  0  0  0
   -2.9707    8.6517   -0.8821 H   0  0  0  0  0
   -0.1260    9.4838    3.1165 H   0  0  0  0  0
   -1.7180    9.5442    5.6432 H   0  0  0  0  0
    0.2049    8.0838    6.0858 H   0  0  0  0  0
    1.3087    9.3513    5.4974 H   0  0  0  0  0
    0.3475    9.6219    6.9718 H   0  0  0  0  0
   -1.2680   13.9260    4.9864 H   0  0  0  0  0
   -2.8785   14.1063    6.8084 H   0  0  0  0  0
   -1.5467   14.8973    7.5171 H   0  0  0  0  0
   -2.4382   12.8244    8.8733 H   0  0  0  0  0
   -0.7587   12.8444    8.6382 H   0  0  0  0  0
   -1.3848   10.6908    7.6275 H   0  0  0  0  0
   -2.8345   11.2968    6.9860 H   0  0  0  0  0
    2.9552   14.9002    5.2571 H   0  0  0  0  0
    2.4607   16.6573    3.6646 H   0  0  0  0  0
    2.8762   17.6289    5.0074 H   0  0  0  0  0
    0.4661   18.0340    4.0316 H   0  0  0  0  0
    0.5460   17.8696    5.7224 H   0  0  0  0  0
   -1.0362   16.0914    5.1016 H   0  0  0  0  0
   -0.1908   15.6897    3.6894 H   0  0  0  0  0
    4.5059   15.2877    6.6308 H   0  0  0  0  0
    3.8224   15.2611    9.3599 H   0  0  0  0  0
    6.4064   16.2857    8.1449 H   0  0  0  0  0
    5.9971   14.5412    8.4655 H   0  0  0  0  0
    6.1340   16.6828   10.5773 H   0  0  0  0  0
    7.5086   15.5832   10.1359 H   0  0  0  0  0
    6.3096   15.7325   12.5220 H   0  0  0  0  0
    3.6614   16.7268   10.9608 H   0  0  0  0  0
    3.7147   19.6063   10.1326 H   0  0  0  0  0
    1.9289   19.9347   11.8205 H   0  0  0  0  0
    1.8648   18.1154   12.0081 H   0  0  0  0  0
    1.3401   18.0408    9.5738 H   0  0  0  0  0
    1.0742   19.8300    9.6787 H   0  0  0  0  0
   -0.8105   18.1584    9.0150 H   0  0  0  0  0
    5.5136   18.2266   13.5580 H   0  0  0  0  0
    4.6387   17.1495   12.4646 H   0  0  0  0  0
  1  2  2  0  0  0
  1  3  1  0  0  0
  4  1  1  0  0  0
  5  4  1  0  0  0
  4 10  1  0  0  0
  6  5  1  0  0  0
  5  8  1  0  0  0
  6  7  2  0  0  0
 11  6  1  0  0  0
  8  9  1  0  0  0
  9 10  1  0  0  0
 12 11  1  0  0  0
 13 12  1  0  0  0
 12 15  1  0  0  0
 13 14  2  0  0  0
 21 13  1  0  0  0
 15 16  1  0  0  0
 16 17  1  0  0  0
 17 18  1  0  0  0
 17 19  2  0  0  0
 20 22  2  0  0  0
 31 20  1  0  0  0
 20 40  1  0  0  0
 21 31  1  0  0  0
 33 21  1  0  0  0
 23 24  1  0  0  0
 38 23  2  0  0  0
 24 34  1  0  0  0
 26 25  1  0  0  0
 29 26  1  0  0  0
 28 27  1  0  0  0
 27 39  1  0  0  0
 29 28  4  0  0  0
 30 28  4  0  0  0
 35 29  4  0  0  0
 36 30  4  0  0  0
 32 31  1  0  0  0
 34 32  1  0  0  0
 34 33  1  0  0  0
 37 35  4  0  0  0
 37 36  4  0  0  0
 37 38  1  0  0  0
 40 41  1  0  0  0
 41 42  1  0  0  0
 41 44  1  0  0  0
 42 43  2  0  0  0
 42 47  1  0  0  0
 44 45  1  0  0  0
 44 46  1  0  0  0
 47 48  1  0  0  0
 48 49  1  0  0  0
 48 51  1  0  0  0
 49 50  2  0  0  0
 49 52  1  0  0  0
 52 53  1  0  0  0
 52 58  1  0  0  0
 53 54  1  0  0  0
 53 56  1  0  0  0
 54 55  2  0  0  0
 54 59  1  0  0  0
 56 57  1  0  0  0
 57 58  1  0  0  0
 59 60  1  0  0  0
 59 65  1  0  0  0
 60 61  1  0  0  0
 60 63  1  0  0  0
 61 62  2  0  0  0
 61 66  1  0  0  0
 63 64  1  0  0  0
 64 65  1  0  0  0
 66 67  1  0  0  0
 67 68  1  0  0  0
 67 70  1  0  0  0
 68 69  2  0  0  0
 68 75  1  0  0  0
 70 71  1  0  0  0
 71 72  1  0  0  0
 72 73  1  0  0  0
 72 74  2  0  0  0
 75 76  1  0  0  0
 76 77  1  0  0  0
 76 79  1  0  0  0
 77 78  2  0  0  0
 77 84  1  0  0  0
 79 80  1  0  0  0
 80 81  1  0  0  0
 81 82  2  0  0  0
 81 83  1  0  0  0
  3 85  1  0  0  0
  3 86  1  0  0  0
  3 87  1  0  0  0
  5 88  1  0  0  0
  8 89  1  0  0  0
  8 90  1  0  0  0
  9 91  1  0  0  0
  9 92  1  0  0  0
 10 93  1  0  0  0
 10 94  1  0  0  0
 11 95  1  0  0  0
 12 96  1  0  0  0
 15 97  1  0  0  0
 15 98  1  0  0  0
 16 99  1  0  0  0
 16100  1  0  0  0
 18101  1  0  0  0
 25102  1  0  0  0
 25103  1  0  0  0
 25104  1  0  0  0
 30105  1  0  0  0
 31106  1  0  0  0
 32107  1  0  0  0
 32108  1  0  0  0
 33109  1  0  0  0
 33110  1  0  0  0
 34111  1  0  0  0
 35112  1  0  0  0
 36113  1  0  0  0
 38114  1  0  0  0
 39115  1  0  0  0
 39116  1  0  0  0
 39117  1  0  0  0
 40118  1  0  0  0
 41119  1  0  0  0
 44120  1  0  0  0
 45121  1  0  0  0
 46122  1  0  0  0
 46123  1  0  0  0
 46124  1  0  0  0
 47125  1  0  0  0
 48126  1  0  0  0
 51127  1  0  0  0
 51128  1  0  0  0
 51129  1  0  0  0
 53130  1  0  0  0
 56131  1  0  0  0
 56132  1  0  0  0
 57133  1  0  0  0
 57134  1  0  0  0
 58135  1  0  0  0
 58136  1  0  0  0
 60137  1  0  0  0
 63138  1  0  0  0
 63139  1  0  0  0
 64140  1  0  0  0
 64141  1  0  0  0
 65142  1  0  0  0
 65143  1  0  0  0
 66144  1  0  0  0
 67145  1  0  0  0
 70146  1  0  0  0
 70147  1  0  0  0
 71148  1  0  0  0
 71149  1  0  0  0
 73150  1  0  0  0
 75151  1  0  0  0
 76152  1  0  0  0
 79153  1  0  0  0
 79154  1  0  0  0
 80155  1  0  0  0
 80156  1  0  0  0
 83157  1  0  0  0
 84158  1  0  0  0
 84159  1  0  0  0
M  END
$$$$
