5dey_ligand
  -I-interpret- 

 61 65  0  0  0  0  0  0  0  0999 V2000
   22.4320  -16.2580    8.2570 N   0  0  0  0  0
   22.7610  -16.3180    9.5410 C   0  0  0  0  0
   24.0950  -16.4680    9.9130 C   0  0  0  0  0
   25.0570  -16.5460    8.9170 C   0  0  0  0  0
   24.6650  -16.4710    7.5850 C   0  0  0  0  0
   21.6770  -16.2440   10.5610 C   0  0  0  0  0
   19.5310  -17.0470   11.3180 C   0  0  0  0  0
   21.7440  -15.3890   11.6650 C   0  0  0  0  0
   17.2680  -15.3910   13.0540 C   0  0  0  0  0
   15.3890  -16.2040   17.2400 C   0  0  0  0  0
   17.4710  -17.1270   16.8580 C   0  0  0  0  0
   18.5470  -16.7160   14.6680 C   0  0  0  0  0
   13.1930  -15.1990   17.5500 C   0  0  0  0  0
   15.4620  -12.9890   13.4140 C   0  0  0  0  0
   22.8740  -16.2400    5.8640 C   0  0  0  0  0
   23.3260  -16.3240    7.2950 C   0  0  0  0  0
   20.5650  -17.0670   10.4020 C   0  0  0  0  0
   19.5940  -16.2010   12.4270 C   0  0  0  0  0
   20.7100  -15.3700   12.5820 C   0  0  0  0  0
   18.4760  -16.1370   13.4210 C   0  0  0  0  0
   17.1930  -14.9090   11.9400 O   0  0  0  0  0
   16.2580  -15.2210   13.9390 N   0  0  0  0  0
   16.3330  -15.7910   15.1850 C   0  0  0  0  0
   15.3290  -15.6550   16.0430 N   0  0  0  0  0
   16.4280  -16.9250   17.6550 N   0  0  0  0  0
   17.4590  -16.5610   15.5670 C   0  0  0  0  0
   14.3090  -15.9980   18.0660 N   0  0  0  0  0
   15.0620  -14.4640   13.5630 C   0  0  0  0  0
   14.3410  -12.1720   13.0750 O   0  0  0  0  0
   14.6870  -10.8090   12.8210 C   0  0  0  0  0
   15.3720  -10.2260   14.0570 C   0  0  0  0  0
   16.5280  -11.1520   14.4650 C   0  0  0  0  0
   16.0380  -12.4920   14.6240 O   0  0  0  0  0
   15.8880   -8.8890   13.7360 N   0  3  0  0  0
   18.1700  -18.0890   11.0760 Cl  0  0  0  0  0
   24.3768  -16.5229   10.9645 H   0  0  0  0  0
   26.1092  -16.6648    9.1756 H   0  0  0  0  0
   25.4033  -16.5274    6.7851 H   0  0  0  0  0
   22.6086  -14.7396   11.8022 H   0  0  0  0  0
   18.3210  -17.7198   17.1960 H   0  0  0  0  0
   19.4280  -17.2867   14.9617 H   0  0  0  0  0
   13.5500  -14.2015   17.2937 H   0  0  0  0  0
   12.7842  -15.6795   16.6611 H   0  0  0  0  0
   12.4181  -15.1241   18.3130 H   0  0  0  0  0
   16.1949  -12.9426   12.6085 H   0  0  0  0  0
   22.1871  -17.0595    5.6526 H   0  0  0  0  0
   22.3682  -15.2886    5.6993 H   0  0  0  0  0
   23.7401  -16.3112    5.2060 H   0  0  0  0  0
   20.5096  -17.7360    9.5432 H   0  0  0  0  0
   20.7643  -14.6981   13.4385 H   0  0  0  0  0
   14.2850  -16.3887   19.0079 H   0  0  0  0  0
   14.6571  -14.8413   12.6240 H   0  0  0  0  0
   14.2928  -14.5704   14.3280 H   0  0  0  0  0
   13.7856  -10.2380   12.5986 H   0  0  0  0  0
   15.3639  -10.7561   11.9683 H   0  0  0  0  0
   14.6627  -10.1462   14.8808 H   0  0  0  0  0
   16.9529  -10.8073   15.4077 H   0  0  0  0  0
   17.2953  -11.1363   13.6910 H   0  0  0  0  0
   16.3461   -8.4962   14.5584 H   0  0  0  0  0
   16.5602   -8.9597   12.9721 H   0  0  0  0  0
   15.1148   -8.2858   13.4553 H   0  0  0  0  0
  2  1  4  0  0  0
  1 16  4  0  0  0
  2  3  4  0  0  0
  6  2  1  0  0  0
  3  4  4  0  0  0
  4  5  4  0  0  0
 16  5  4  0  0  0
  8  6  4  0  0  0
 17  6  4  0  0  0
  7 17  4  0  0  0
 18  7  4  0  0  0
  7 35  1  0  0  0
 19  8  4  0  0  0
  9 20  1  0  0  0
  9 21  2  0  0  0
 22  9  1  0  0  0
 10 24  4  0  0  0
 25 10  4  0  0  0
 10 27  1  0  0  0
 11 25  4  0  0  0
 26 11  4  0  0  0
 20 12  2  0  0  0
 12 26  1  0  0  0
 27 13  1  0  0  0
 28 14  1  0  0  0
 14 29  1  0  0  0
 14 33  1  0  0  0
 16 15  1  0  0  0
 18 19  4  0  0  0
 20 18  1  0  0  0
 22 23  1  0  0  0
 22 28  1  0  0  0
 23 24  4  0  0  0
 23 26  4  0  0  0
 29 30  1  0  0  0
 30 31  1  0  0  0
 31 32  1  0  0  0
 31 34  1  0  0  0
 32 33  1  0  0  0
  3 36  1  0  0  0
  4 37  1  0  0  0
  5 38  1  0  0  0
  8 39  1  0  0  0
 11 40  1  0  0  0
 12 41  1  0  0  0
 13 42  1  0  0  0
 13 43  1  0  0  0
 13 44  1  0  0  0
 14 45  1  0  0  0
 15 46  1  0  0  0
 15 47  1  0  0  0
 15 48  1  0  0  0
 17 49  1  0  0  0
 19 50  1  0  0  0
 27 51  1  0  0  0
 28 52  1  0  0  0
 28 53  1  0  0  0
 30 54  1  0  0  0
 30 55  1  0  0  0
 31 56  1  0  0  0
 32 57  1  0  0  0
 32 58  1  0  0  0
 34 59  1  0  0  0
 34 60  1  0  0  0
 34 61  1  0  0  0
M  END
$$$$
