5jf5_ligand
  -I-interpret- 

 28 29  0  0  0  0  0  0  0  0999 V2000
   -5.4150   -3.5250   11.8100 N   0  0  0  0  0
   -4.3270   -4.4280   11.6100 O   0  0  0  0  0
   -5.0980   -2.2800   12.2030 C   0  0  0  0  0
   -3.9370   -1.9300   12.3920 O   0  0  0  0  0
   -6.2750   -1.2790   12.3850 C   0  0  0  0  0
   -6.4920   -0.4770   11.0780 C   0  0  0  0  0
   -6.9980   -1.3700    9.9230 C   0  0  0  0  0
   -7.7080    0.2490   11.5050 C   0  0  0  0  0
   -8.9310   -0.2460   11.7020 O   0  0  0  0  0
   -7.8030    1.5330   11.2240 N   0  0  0  0  0
   -9.7910    0.7630   11.5640 N   0  0  0  0  0
   -9.1020    1.8490   11.2710 C   0  0  0  0  0
   -6.9210   -0.8610    8.6720 C   0  0  0  0  0
   -6.3000    0.2420    8.3000 C   0  0  0  0  0
   -7.4250   -1.4630    7.5930 C   0  0  0  0  0
   -7.1280   -0.6940    6.5410 C   0  0  0  0  0
   -6.4400    0.3430    6.9740 C   0  0  0  0  0
   -6.3830   -3.8105   11.6621 H   0  0  0  0  0
   -4.6679   -5.2815   11.3326 H   0  0  0  0  0
   -6.0381   -0.5891   13.1949 H   0  0  0  0  0
   -7.1838   -1.8321   12.6224 H   0  0  0  0  0
   -5.6034    0.0556   10.7390 H   0  0  0  0  0
   -7.3994   -2.3664   10.1081 H   0  0  0  0  0
   -9.5216    2.8397   11.0962 H   0  0  0  0  0
   -5.7724    0.9393    8.9507 H   0  0  0  0  0
   -7.9749   -2.4039    7.5733 H   0  0  0  0  0
   -7.4063   -0.8904    5.5056 H   0  0  0  0  0
   -6.0495    1.1498    6.3538 H   0  0  0  0  0
  1  2  1  0  0  0
  1  3  1  0  0  0
  3  4  2  0  0  0
  3  5  1  0  0  0
  5  6  1  0  0  0
  6  7  1  0  0  0
  6  8  1  0  0  0
  7 13  2  0  0  0
  8  9  4  0  0  0
  8 10  4  0  0  0
  9 11  4  0  0  0
 10 12  4  0  0  0
 11 12  4  0  0  0
 13 14  1  0  0  0
 13 15  1  0  0  0
 14 17  2  0  0  0
 15 16  2  0  0  0
 16 17  1  0  0  0
  1 18  1  0  0  0
  2 19  1  0  0  0
  5 20  1  0  0  0
  5 21  1  0  0  0
  6 22  1  0  0  0
  7 23  1  0  0  0
 12 24  1  0  0  0
 14 25  1  0  0  0
 15 26  1  0  0  0
 16 27  1  0  0  0
 17 28  1  0  0  0
M  END
$$$$
