3tia_ligand
  -I-interpret- 

 48 48  0  0  0  0  0  0  0  0999 V2000
   45.9820   28.4600   22.1320 C   0  0  0  0  0
   45.4350   27.0640   22.3060 C   0  0  0  0  0
   45.5370   26.0690   21.1460 C   0  0  0  0  0
   46.5390   26.4790   20.0440 C   0  0  0  0  0
   46.6910   28.0330   19.8570 C   0  0  0  0  0
   46.7590   28.7320   21.0600 O   0  0  0  0  0
   45.9250   29.4930   23.2420 C   0  0  0  0  0
   45.1980   29.1880   24.2990 O   0  0  0  0  0
   46.3090   30.5710   22.9650 O   0  0  0  0  0
   47.9320   28.4150   19.0310 C   0  0  0  0  0
   47.9020   29.8630   18.6880 C   0  0  0  0  0
   49.0970   30.3550   17.9340 C   0  0  0  0  0
   49.2700   29.7280   16.7390 O   0  0  0  0  0
   49.0290   28.1790   19.7770 O   0  0  0  0  0
   49.9620   27.3380   19.3710 C   0  0  0  0  0
   46.8070   30.2580   18.1040 O   0  0  0  0  0
   45.5420   24.6850   21.5230 N   0  0  0  0  0
   44.9480   23.6490   20.7690 C   0  0  0  0  0
   45.1460   22.4130   21.1240 N   0  0  0  0  0
   44.2680   23.9640   19.7100 N   0  0  0  0  0
   47.3260   24.6090   18.6610 C   0  0  0  0  0
   46.9880   23.9670   17.3560 C   0  0  0  0  0
   48.1420   24.2210   19.3800 O   0  0  0  0  0
   46.5570   25.7380   18.8480 N   0  0  0  0  0
   44.9674   28.7086   21.8206 H   0  0  0  0  0
   44.3649   27.2017   22.4612 H   0  0  0  0  0
   46.0375   26.6262   23.1019 H   0  0  0  0  0
   44.5743   26.1509   20.6415 H   0  0  0  0  0
   47.4747   26.1386   20.4875 H   0  0  0  0  0
   45.7839   28.3178   19.3239 H   0  0  0  0  0
   45.0152   28.2456   24.2991 H   0  0  0  0  0
   47.9453   27.8281   18.1126 H   0  0  0  0  0
   47.9319   30.3281   19.6733 H   0  0  0  0  0
   49.9783   30.1550   18.5434 H   0  0  0  0  0
   48.9477   31.4158   17.7327 H   0  0  0  0  0
   50.0478   30.0830   16.3023 H   0  0  0  0  0
   49.5255   26.3475   19.2425 H   0  0  0  0  0
   50.3712   27.6822   18.4212 H   0  0  0  0  0
   50.7570   27.2923   20.1153 H   0  0  0  0  0
   46.8665   31.1977   17.9170 H   0  0  0  0  0
   46.0063   24.4318   22.3952 H   0  0  0  0  0
   44.7611   21.6533   20.5627 H   0  0  0  0  0
   45.6862   22.2038   21.9636 H   0  0  0  0  0
   44.1716   24.9424   19.4381 H   0  0  0  0  0
   47.8690   23.9658   16.7142 H   0  0  0  0  0
   46.6626   22.9414   17.5306 H   0  0  0  0  0
   46.1865   24.5268   16.8740 H   0  0  0  0  0
   45.9687   26.0535   18.0768 H   0  0  0  0  0
  2  1  1  0  0  0
  6  1  1  0  0  0
  1  7  1  0  0  0
  3  2  1  0  0  0
  4  3  1  0  0  0
  3 17  1  0  0  0
  4  5  1  0  0  0
 24  4  1  0  0  0
  5  6  1  0  0  0
  5 10  1  0  0  0
  7  8  1  0  0  0
  7  9  2  0  0  0
 10 11  1  0  0  0
 10 14  1  0  0  0
 11 12  1  0  0  0
 11 16  1  0  0  0
 12 13  1  0  0  0
 14 15  1  0  0  0
 17 18  1  0  0  0
 18 19  1  0  0  0
 18 20  2  0  0  0
 21 22  1  0  0  0
 21 23  2  0  0  0
 21 24  1  0  0  0
  1 25  1  0  0  0
  2 26  1  0  0  0
  2 27  1  0  0  0
  3 28  1  0  0  0
  4 29  1  0  0  0
  5 30  1  0  0  0
  8 31  1  0  0  0
 10 32  1  0  0  0
 11 33  1  0  0  0
 12 34  1  0  0  0
 12 35  1  0  0  0
 13 36  1  0  0  0
 15 37  1  0  0  0
 15 38  1  0  0  0
 15 39  1  0  0  0
 16 40  1  0  0  0
 17 41  1  0  0  0
 19 42  1  0  0  0
 19 43  1  0  0  0
 20 44  1  0  0  0
 22 45  1  0  0  0
 22 46  1  0  0  0
 22 47  1  0  0  0
 24 48  1  0  0  0
M  END
$$$$
