5o5a_ligand
  -I-interpret- 

 51 54  0  0  0  0  0  0  0  0999 V2000
    6.1420   -9.5590    3.0750 C   0  0  0  0  0
   10.7720  -13.4260    8.7360 C   0  0  0  0  0
    7.5980   -8.7100   15.5950 C   0  0  0  0  0
    8.3310   -8.1560   14.5520 C   0  0  0  0  0
    7.5970  -10.0860   15.7960 C   0  0  0  0  0
    9.0640   -8.9800   13.7090 C   0  0  0  0  0
    8.3300  -10.9110   14.9530 C   0  0  0  0  0
    8.5850  -10.4900    7.0910 C   0  0  0  0  0
    7.7690  -10.6490    5.9570 C   0  0  0  0  0
   10.6690  -12.8340   12.2240 C   0  0  0  0  0
   10.2520  -11.8680    6.0950 C   0  0  0  0  0
   10.4590  -10.6980   12.0550 C   0  0  0  0  0
    6.1040  -10.9790    3.6350 C   0  0  0  0  0
   11.9110  -11.7700   10.2790 C   0  0  0  0  0
   10.6400  -10.9400    8.3430 C   0  0  0  0  0
   11.0160  -11.7700   11.5180 C   0  0  0  0  0
    9.8340  -11.1210    7.1890 C   0  0  0  0  0
    9.0620  -10.3550   13.9110 C   0  0  0  0  0
    9.1500  -12.9960    2.8020 C   0  0  0  0  0
    7.9070  -12.3750    2.7360 C   0  0  0  0  0
    9.4460  -12.0450    4.9740 C   0  0  0  0  0
    8.2000  -11.4330    4.8800 C   0  0  0  0  0
    9.8870  -12.3780   13.2040 N   0  0  0  0  0
    9.9230  -12.8210    3.9300 N   0  0  0  0  0
   11.0850  -12.0120    9.0840 N   0  0  0  0  0
    9.7660  -11.1410   13.1040 N   0  0  0  0  0
    7.4540  -11.6040    3.7580 N   0  0  0  0  0
   10.9070   -9.7940    8.6980 O   0  0  0  0  0
    9.5770  -13.7110    1.8860 O   0  0  0  0  0
    7.1990  -12.5250    1.7390 O   0  0  0  0  0
    6.7377   -8.9262    3.7328 H   0  0  0  0  0
    6.5885   -9.5737    2.0807 H   0  0  0  0  0
    5.1268   -9.1669    3.0131 H   0  0  0  0  0
   11.7002  -13.9693    8.5590 H   0  0  0  0  0
   10.2293  -13.8900    9.5596 H   0  0  0  0  0
   10.1582  -13.4499    7.8356 H   0  0  0  0  0
    7.0221   -8.0638   16.2575 H   0  0  0  0  0
    8.3302   -7.0772   14.3964 H   0  0  0  0  0
    7.0211  -10.5169   16.6150 H   0  0  0  0  0
    9.6401   -8.5493   12.8900 H   0  0  0  0  0
    8.3311  -11.9899   15.1080 H   0  0  0  0  0
    8.2393   -9.8623    7.9124 H   0  0  0  0  0
    6.7960  -10.1594    5.9162 H   0  0  0  0  0
   10.9614  -13.8683   12.0426 H   0  0  0  0  0
   11.2396  -12.3288    6.1149 H   0  0  0  0  0
   10.5479   -9.6673   11.7117 H   0  0  0  0  0
    5.5212  -11.5889    2.9448 H   0  0  0  0  0
    5.6739  -10.9264    4.6352 H   0  0  0  0  0
   12.6612  -12.5555   10.3700 H   0  0  0  0  0
   12.4104  -10.8054   10.1889 H   0  0  0  0  0
   10.8411  -13.2604    3.9956 H   0  0  0  0  0
 13  1  1  0  0  0
 25  2  1  0  0  0
  4  3  4  0  0  0
  5  3  4  0  0  0
  6  4  4  0  0  0
  7  5  4  0  0  0
 18  6  4  0  0  0
 18  7  4  0  0  0
  9  8  4  0  0  0
 17  8  4  0  0  0
 22  9  4  0  0  0
 16 10  4  0  0  0
 10 23  4  0  0  0
 11 17  4  0  0  0
 21 11  4  0  0  0
 16 12  4  0  0  0
 12 26  4  0  0  0
 27 13  1  0  0  0
 14 16  1  0  0  0
 25 14  1  0  0  0
 17 15  1  0  0  0
 15 25  1  0  0  0
 15 28  2  0  0  0
 26 18  1  0  0  0
 19 20  1  0  0  0
 24 19  1  0  0  0
 19 29  2  0  0  0
 20 27  1  0  0  0
 20 30  2  0  0  0
 21 22  4  0  0  0
 21 24  1  0  0  0
 22 27  1  0  0  0
 23 26  4  0  0  0
  1 31  1  0  0  0
  1 32  1  0  0  0
  1 33  1  0  0  0
  2 34  1  0  0  0
  2 35  1  0  0  0
  2 36  1  0  0  0
  3 37  1  0  0  0
  4 38  1  0  0  0
  5 39  1  0  0  0
  6 40  1  0  0  0
  7 41  1  0  0  0
  8 42  1  0  0  0
  9 43  1  0  0  0
 10 44  1  0  0  0
 11 45  1  0  0  0
 12 46  1  0  0  0
 13 47  1  0  0  0
 13 48  1  0  0  0
 14 49  1  0  0  0
 14 50  1  0  0  0
 24 51  1  0  0  0
M  END
$$$$
