6hu0_ligand
  -I-interpret- 

 33 34  0  0  0  0  0  0  0  0999 V2000
   41.9890   39.9290   92.4980 Cl  0  0  0  0  0
   46.1340   39.2740   89.1780 Cl  0  0  0  0  0
   43.7160   38.1330   88.7200 C   0  0  0  0  0
   44.4810   38.9440   89.5610 C   0  0  0  0  0
   43.9600   39.4990   90.7130 C   0  0  0  0  0
   42.6500   39.2320   91.0420 C   0  0  0  0  0
   41.8520   38.4340   90.2510 C   0  0  0  0  0
   42.3770   37.8860   89.0930 C   0  0  0  0  0
   44.1680   37.4600   87.4210 C   0  0  0  0  0
   43.5690   36.3420   87.0210 N   0  0  0  0  0
   45.1510   33.8510   84.0310 C   0  0  0  0  0
   45.6180   33.7220   85.3540 C   0  0  0  0  0
   45.1450   34.5780   86.3490 C   0  0  0  0  0
   44.1870   35.5530   85.9960 C   0  0  0  0  0
   43.7630   35.6760   84.6670 C   0  0  0  0  0
   44.2360   34.8230   83.6860 C   0  0  0  0  0
   44.8180   38.2800   86.6290 O   0  0  0  0  0
   42.8650   36.7060   84.4030 O   0  0  0  0  0
   42.2990   37.0880   83.3000 C   0  0  0  0  0
   46.5550   32.6760   85.8440 C   0  0  0  0  0
   47.0270   31.5560   84.8910 N   0  0  0  0  0
   47.1820   30.4210   85.3100 O   0  0  0  0  0
   47.0170   32.6530   86.9650 O   0  0  0  0  0
   44.5739   40.1361   91.3496 H   0  0  0  0  0
   40.8181   38.2363   90.5341 H   0  0  0  0  0
   41.7493   37.2567   88.4621 H   0  0  0  0  0
   42.6843   36.0507   87.4367 H   0  0  0  0  0
   45.5203   33.1690   83.2652 H   0  0  0  0  0
   45.5064   34.4960   87.3741 H   0  0  0  0  0
   43.8908   34.9178   82.6565 H   0  0  0  0  0
   43.0656   37.3736   82.5797 H   0  0  0  0  0
   41.7054   36.2685   82.8950 H   0  0  0  0  0
   41.6521   37.9418   83.5018 H   0  0  0  0  0
  6  1  1  0  0  0
  4  2  1  0  0  0
  3  4  4  0  0  0
  3  8  4  0  0  0
  9  3  1  0  0  0
  4  5  4  0  0  0
  5  6  4  0  0  0
  7  6  4  0  0  0
  8  7  4  0  0  0
 10  9  1  0  0  0
  9 17  2  0  0  0
 14 10  1  0  0  0
 12 11  4  0  0  0
 11 16  4  0  0  0
 13 12  4  0  0  0
 12 20  1  0  0  0
 13 14  4  0  0  0
 14 15  4  0  0  0
 15 16  4  0  0  0
 15 18  1  0  0  0
 18 19  1  0  0  0
 20 21  1  0  0  0
 20 23  2  0  0  0
 21 22  2  0  0  0
  5 24  1  0  0  0
  7 25  1  0  0  0
  8 26  1  0  0  0
 10 27  1  0  0  0
 11 28  1  0  0  0
 13 29  1  0  0  0
 16 30  1  0  0  0
 19 31  1  0  0  0
 19 32  1  0  0  0
 19 33  1  0  0  0
M  END
$$$$
