5usq_ligand
  -I-interpret- 

 54 58  0  0  0  0  0  0  0  0999 V2000
   11.8190   65.4710    3.8960 C   0  0  0  0  0
   11.3540   66.2900    4.9230 C   0  0  0  0  0
   12.2170   67.1150    5.6180 C   0  0  0  0  0
   13.5800   67.1260    5.3000 C   0  0  0  0  0
   15.5310   68.6650    5.4250 C   0  0  0  0  0
   17.4330   70.1680    5.4910 N   0  0  0  0  0
   17.4510   70.7210    4.2080 C   0  0  0  0  0
   16.4930   71.4200    2.0940 C   0  0  0  0  0
   18.7860   71.8210    2.3700 C   0  0  0  0  0
   22.2270   72.1270    3.5120 C   0  0  0  0  0
   22.5970   72.1260    5.0100 C   0  0  0  0  0
   24.1270   72.2080    5.1710 C   0  0  0  0  0
   21.9020   73.2520    5.8040 C   0  0  0  0  0
   18.7300   71.2270    3.7150 C   0  0  0  0  0
   15.3440   66.2720    3.8950 F   0  0  0  0  0
   14.0440   66.2990    4.2480 C   0  0  0  0  0
   13.1630   65.4750    3.5540 C   0  0  0  0  0
    9.6800   66.2890    5.3540 Cl  0  0  0  0  0
   14.4610   68.0480    6.0670 C   0  0  0  0  0
   16.3500   69.5550    6.1220 C   0  0  0  0  0
   16.3520   70.8420    3.3560 C   0  0  0  0  0
   17.6450   71.8740    1.6420 N   0  0  0  0  0
   20.1030   72.2040    2.1830 C   0  0  0  0  0
   20.7940   71.8830    3.2940 N   0  0  0  0  0
   24.5190   72.2140    6.6590 C   0  0  0  0  0
   23.7660   73.2370    7.4220 N   0  3  0  0  0
   22.2970   73.1190    7.2850 C   0  0  0  0  0
   19.9340   71.2840    4.2210 N   0  0  0  0  0
   16.0700   69.8030    7.4770 C   0  0  0  0  0
   14.9840   69.1630    8.0620 C   0  0  0  0  0
   14.2260   68.3250    7.3560 N   0  0  0  0  0
   11.1240   64.8250    3.3596 H   0  0  0  0  0
   11.8369   67.7566    6.4130 H   0  0  0  0  0
   15.7300   68.4525    4.3746 H   0  0  0  0  0
   18.3025   70.2176    6.0219 H   0  0  0  0  0
   15.6136   71.4995    1.4550 H   0  0  0  0  0
   22.7852   71.3279    3.0242 H   0  0  0  0  0
   22.4701   73.1078    3.1032 H   0  0  0  0  0
   22.2344   71.1882    5.4310 H   0  0  0  0  0
   24.4804   73.1304    4.7102 H   0  0  0  0  0
   24.5784   71.3393    4.6916 H   0  0  0  0  0
   20.8203   73.1694    5.6982 H   0  0  0  0  0
   22.2129   74.2241    5.4214 H   0  0  0  0  0
   13.5265   64.8377    2.7479 H   0  0  0  0  0
   15.3753   70.4819    3.6794 H   0  0  0  0  0
   20.5101   72.6821    1.2920 H   0  0  0  0  0
   25.5817   72.4450    6.7325 H   0  0  0  0  0
   24.2879   71.2348    7.0782 H   0  0  0  0  0
   24.0343   74.1501    7.0551 H   0  0  0  0  0
   23.9917   73.1094    8.4085 H   0  0  0  0  0
   21.9762   72.1466    7.6586 H   0  0  0  0  0
   21.8158   73.9103    7.8598 H   0  0  0  0  0
   16.6925   70.4839    8.0575 H   0  0  0  0  0
   14.7497   69.3487    9.1102 H   0  0  0  0  0
  2  1  4  0  0  0
 17  1  4  0  0  0
  3  2  4  0  0  0
  2 18  1  0  0  0
  4  3  4  0  0  0
  4 16  4  0  0  0
 19  4  1  0  0  0
  5 19  4  0  0  0
 20  5  4  0  0  0
  7  6  1  0  0  0
  6 20  1  0  0  0
 14  7  4  0  0  0
  7 21  4  0  0  0
  8 21  4  0  0  0
 22  8  4  0  0  0
  9 14  4  0  0  0
  9 22  4  0  0  0
 23  9  4  0  0  0
 10 11  1  0  0  0
 24 10  1  0  0  0
 11 12  1  0  0  0
 11 13  1  0  0  0
 12 25  1  0  0  0
 13 27  1  0  0  0
 14 28  4  0  0  0
 16 15  1  0  0  0
 16 17  4  0  0  0
 19 31  4  0  0  0
 20 29  4  0  0  0
 23 24  4  0  0  0
 24 28  4  0  0  0
 25 26  1  0  0  0
 26 27  1  0  0  0
 29 30  4  0  0  0
 30 31  4  0  0  0
  1 32  1  0  0  0
  3 33  1  0  0  0
  5 34  1  0  0  0
  6 35  1  0  0  0
  8 36  1  0  0  0
 10 37  1  0  0  0
 10 38  1  0  0  0
 11 39  1  0  0  0
 12 40  1  0  0  0
 12 41  1  0  0  0
 13 42  1  0  0  0
 13 43  1  0  0  0
 17 44  1  0  0  0
 21 45  1  0  0  0
 23 46  1  0  0  0
 25 47  1  0  0  0
 25 48  1  0  0  0
 26 49  1  0  0  0
 26 50  1  0  0  0
 27 51  1  0  0  0
 27 52  1  0  0  0
 29 53  1  0  0  0
 30 54  1  0  0  0
M  END
$$$$
