3dpe_ligand
  -I-interpret- 

 59 64  0  0  0  0  0  0  0  0999 V2000
   13.7060   -0.0880    2.6590 N   0  0  0  0  0
   12.9610    0.8860    3.1710 C   0  0  0  0  0
   13.1210    2.4050    3.2600 C   0  0  0  0  0
   14.0090    3.2120    2.9990 O   0  0  0  0  0
   11.7390    2.4470    3.9090 C   0  0  0  0  0
   10.9760    3.3170    4.3220 O   0  0  0  0  0
   11.7400    0.9170    3.8420 C   0  0  0  0  0
   10.9110   -0.0270    4.2760 N   0  3  0  0  0
   10.2020    0.2230    5.5420 C   0  0  0  0  0
    8.8740   -0.5360    5.5940 C   0  0  0  0  0
   11.1110   -1.3890    3.7550 C   0  0  0  0  0
   10.1500   -2.3860    4.4040 C   0  0  0  0  0
   10.3370   -3.7300    4.1080 C   0  0  0  0  0
    9.1140   -2.0060    5.2490 C   0  0  0  0  0
    8.2730   -2.9740    5.7890 C   0  0  0  0  0
    8.4620   -4.3190    5.4910 C   0  0  0  0  0
    9.4980   -4.6970    4.6460 C   0  0  0  0  0
    9.7450   -6.1610    4.2790 C   0  0  0  0  0
    8.6660   -7.0190    4.7870 N   0  0  0  0  0
    7.4470   -7.0320    4.2560 C   0  0  0  0  0
    7.0830   -6.3330    3.3120 O   0  0  0  0  0
    6.4930   -8.0100    4.9420 C   0  0  0  0  0
    6.9780   -8.8170    5.8930 N   0  0  0  0  0
    6.1890   -9.6950    6.5230 C   0  0  0  0  0
    6.5510  -10.8230    7.7550 S   0  0  0  0  0
    4.9770  -11.4750    7.9150 C   0  0  0  0  0
    4.5630  -12.5970    8.8690 C   0  0  0  0  0
    2.7430  -12.6950    8.9870 S   0  0  0  0  0
    2.3330  -14.0690    9.4280 O   0  0  0  0  0
    2.2390  -11.6660    9.9550 O   0  0  0  0  0
    2.1380  -12.3370    7.3000 C   0  0  0  0  0
    2.6560  -10.9730    6.8430 C   0  0  0  0  0
    4.1700  -10.7940    7.0000 C   0  0  0  0  0
    4.8310   -9.8260    6.2360 C   0  0  0  0  0
    4.3130   -8.9940    5.2490 C   0  0  0  0  0
    3.1210   -9.0410    4.9470 O   0  0  0  0  0
    5.1410   -8.0780    4.5910 N   0  0  0  0  0
   13.3944   -1.0570    2.7253 H   0  0  0  0  0
   11.0237    0.1587    4.1584 H   0  0  0  0  0
   10.0618    0.1115    3.7282 H   0  0  0  0  0
    9.9952    1.2904    5.6193 H   0  0  0  0  0
   10.8298   -0.1188    6.3649 H   0  0  0  0  0
    8.1791   -0.1025    4.8747 H   0  0  0  0  0
    8.4520   -0.4620    6.5963 H   0  0  0  0  0
   12.1318   -1.6977    3.9803 H   0  0  0  0  0
   10.9232   -1.3783    2.6813 H   0  0  0  0  0
   11.1504   -4.0288    3.4468 H   0  0  0  0  0
    7.4598   -2.6757    6.4507 H   0  0  0  0  0
    7.8007   -5.0729    5.9182 H   0  0  0  0  0
   10.6863   -6.4802    4.7264 H   0  0  0  0  0
    9.7803   -6.2487    3.1931 H   0  0  0  0  0
    8.8601   -7.6303    5.5802 H   0  0  0  0  0
    4.9719  -12.3904    9.8581 H   0  0  0  0  0
    4.9453  -13.5445    8.4892 H   0  0  0  0  0
    1.0481  -12.3263    7.3026 H   0  0  0  0  0
    2.4978  -13.1066    6.6171 H   0  0  0  0  0
    2.1757  -10.2198    7.4676 H   0  0  0  0  0
    2.4288  -10.8811    5.7809 H   0  0  0  0  0
    4.7638   -7.4683    3.8654 H   0  0  0  0  0
  1  2  2  0  0  0
  2  3  1  0  0  0
  2  7  1  0  0  0
  3  4  2  0  0  0
  3  5  1  0  0  0
  5  6  2  0  0  0
  5  7  1  0  0  0
  7  8  1  0  0  0
  8  9  1  0  0  0
  8 11  1  0  0  0
  9 10  1  0  0  0
 10 14  1  0  0  0
 11 12  1  0  0  0
 12 13  4  0  0  0
 12 14  4  0  0  0
 13 17  4  0  0  0
 14 15  4  0  0  0
 15 16  4  0  0  0
 16 17  4  0  0  0
 17 18  1  0  0  0
 18 19  1  0  0  0
 19 20  1  0  0  0
 20 21  2  0  0  0
 20 22  1  0  0  0
 22 23  2  0  0  0
 22 37  1  0  0  0
 23 24  1  0  0  0
 24 25  4  0  0  0
 24 34  4  0  0  0
 25 26  4  0  0  0
 26 27  1  0  0  0
 26 33  4  0  0  0
 27 28  1  0  0  0
 28 29  2  0  0  0
 28 30  2  0  0  0
 28 31  1  0  0  0
 31 32  1  0  0  0
 32 33  1  0  0  0
 33 34  4  0  0  0
 34 35  1  0  0  0
 35 36  2  0  0  0
 35 37  1  0  0  0
  1 38  1  0  0  0
  7 39  1  0  0  0
  8 40  1  0  0  0
  9 41  1  0  0  0
  9 42  1  0  0  0
 10 43  1  0  0  0
 10 44  1  0  0  0
 11 45  1  0  0  0
 11 46  1  0  0  0
 13 47  1  0  0  0
 15 48  1  0  0  0
 16 49  1  0  0  0
 18 50  1  0  0  0
 18 51  1  0  0  0
 19 52  1  0  0  0
 27 53  1  0  0  0
 27 54  1  0  0  0
 31 55  1  0  0  0
 31 56  1  0  0  0
 32 57  1  0  0  0
 32 58  1  0  0  0
 37 59  1  0  0  0
M  END
$$$$
