### 
### Created by X-TOOL on Mon Sep 10 21:13:01 2018
### 

@<TRIPOS>MOLECULE
3dpe_ligand
   59    64     1     0     0
SMALL
GAST_HUCK


@<TRIPOS>ATOM
      1 N1         13.7060   -0.0880    2.6590 N.2       1 AXB        -0.3315
      2 CAZ        12.9610    0.8860    3.1710 C.2       1 AXB         0.1718
      3 CBF        13.1210    2.4050    3.2600 C.2       1 AXB         0.2827
      4 OAD        14.0090    3.2120    2.9990 O.2       1 AXB        -0.3117
      5 CBG        11.7390    2.4470    3.9090 C.2       1 AXB         0.2735
      6 OAE        10.9760    3.3170    4.3220 O.2       1 AXB        -0.3399
      7 CBD        11.7400    0.9170    3.8420 C.3       1 AXB         0.1371
      8 N2         10.9110   -0.0270    4.2760 N.4       1 AXB         0.2833
      9 CAM        10.2020    0.2230    5.5420 C.3       1 AXB        -0.0185
     10 CAK         8.8740   -0.5360    5.5940 C.3       1 AXB         0.0160
     11 CAP        11.1110   -1.3890    3.7550 C.3       1 AXB         0.0027
     12 CAY        10.1500   -2.3860    4.4040 C.ar      1 AXB        -0.0027
     13 CAJ        10.3370   -3.7300    4.1080 C.ar      1 AXB        -0.0584
     14 CAX         9.1140   -2.0060    5.2490 C.ar      1 AXB        -0.0376
     15 CAI         8.2730   -2.9740    5.7890 C.ar      1 AXB        -0.0729
     16 CAH         8.4620   -4.3190    5.4910 C.ar      1 AXB        -0.0719
     17 CAW         9.4980   -4.6970    4.6460 C.ar      1 AXB        -0.0343
     18 CAO         9.7450   -6.1610    4.2790 C.3       1 AXB         0.0602
     19 N3          8.6660   -7.0190    4.7870 N.am      1 AXB        -0.2677
     20 CAV         7.4470   -7.0320    4.2560 C.2       1 AXB         0.2725
     21 OAB         7.0830   -6.3330    3.3120 O.2       1 AXB        -0.3641
     22 CBB         6.4930   -8.0100    4.9420 C.2       1 AXB         0.2375
     23 N4          6.9780   -8.8170    5.8930 N.2       1 AXB        -0.2628
     24 CBH         6.1890   -9.6950    6.5230 C.2       1 AXB         0.0846
     25 SAU         6.5510  -10.8230    7.7550 S.3       1 AXB        -0.0296
     26 CBA         4.9770  -11.4750    7.9150 C.2       1 AXB         0.0294
     27 CAQ         4.5630  -12.5970    8.8690 C.3       1 AXB         0.1029
     28 SBK         2.7430  -12.6950    8.9870 S.o2      1 AXB        -0.0212
     29 OAF         2.3330  -14.0690    9.4280 O.2       1 AXB        -0.1722
     30 OAG         2.2390  -11.6660    9.9550 O.2       1 AXB        -0.1722
     31 CAN         2.1380  -12.3370    7.3000 C.3       1 AXB         0.0721
     32 CAL         2.6560  -10.9730    6.8430 C.3       1 AXB        -0.0172
     33 CBC         4.1700  -10.7940    7.0000 C.2       1 AXB        -0.0456
     34 CBI         4.8310   -9.8260    6.2360 C.2       1 AXB         0.0462
     35 CBE         4.3130   -8.9940    5.2490 C.2       1 AXB         0.2125
     36 OAC         3.1210   -9.0410    4.9470 O.2       1 AXB        -0.4052
     37 N5          5.1410   -8.0780    4.5910 N.am      1 AXB        -0.1955
     38 H1         14.5790    0.1308    2.2051 H         1 AXB         0.1203
     39 H2         11.1515    0.8919    2.9130 H         1 AXB         0.1362
     40 H3         10.1368    0.2048    3.6736 H         1 AXB         0.2095
     41 H4         10.0027    1.3008    5.6345 H         1 AXB         0.0836
     42 H5         10.8358   -0.1058    6.3788 H         1 AXB         0.0836
     43 H6          8.1729   -0.0987    4.8680 H         1 AXB         0.0451
     44 H7          8.4483   -0.4615    6.6055 H         1 AXB         0.0451
     45 H8         12.1447   -1.7026    3.9626 H         1 AXB         0.0965
     46 H9         10.9404   -1.3843    2.6683 H         1 AXB         0.0965
     47 H10        11.1460   -4.0271    3.4504 H         1 AXB         0.0480
     48 H11         7.4643   -2.6774    6.4470 H         1 AXB         0.0521
     49 H12         7.8044   -5.0687    5.9158 H         1 AXB         0.0483
     50 H13        10.7000   -6.4859    4.7177 H         1 AXB         0.0670
     51 H14         9.7938   -6.2544    3.1841 H         1 AXB         0.0670
     52 H15         8.8563   -7.6183    5.5646 H         1 AXB         0.1880
     53 H16         4.9804  -12.3966    9.8668 H         1 AXB         0.0653
     54 H17         4.9537  -13.5543    8.4936 H         1 AXB         0.0653
     55 H18         1.0380  -12.3284    7.3006 H         1 AXB         0.0516
     56 H19         2.4983  -13.1143    6.6101 H         1 AXB         0.0516
     57 H20         2.1529  -10.1957    7.4369 H         1 AXB         0.0368
     58 H21         2.4014  -10.8450    5.7806 H         1 AXB         0.0368
     59 H22         4.7712   -7.4803    3.8797 H         1 AXB         0.2538
@<TRIPOS>BOND
     1    1    2 2  
     2    2    3 1  
     3    2    7 1  
     4    3    4 2  
     5    3    5 1  
     6    5    6 2  
     7    5    7 1  
     8    7    8 1  
     9    8    9 1  
    10    8   11 1  
    11    9   10 1  
    12   10   14 1  
    13   11   12 1  
    14   12   13 ar 
    15   12   14 ar 
    16   13   17 ar 
    17   14   15 ar 
    18   15   16 ar 
    19   16   17 ar 
    20   17   18 1  
    21   18   19 1  
    22   19   20 am 
    23   20   21 2  
    24   20   22 1  
    25   22   23 2  
    26   22   37 1  
    27   23   24 1  
    28   24   25 1  
    29   24   34 2  
    30   25   26 1  
    31   26   27 1  
    32   26   33 2  
    33   27   28 1  
    34   28   29 2  
    35   28   30 2  
    36   28   31 1  
    37   31   32 1  
    38   32   33 1  
    39   33   34 1  
    40   34   35 1  
    41   35   36 2  
    42   35   37 am 
    43    1   38 1  
    44    7   39 1  
    45    8   40 1  
    46    9   41 1  
    47    9   42 1  
    48   10   43 1  
    49   10   44 1  
    50   11   45 1  
    51   11   46 1  
    52   13   47 1  
    53   15   48 1  
    54   16   49 1  
    55   18   50 1  
    56   18   51 1  
    57   19   52 1  
    58   27   53 1  
    59   27   54 1  
    60   31   55 1  
    61   31   56 1  
    62   32   57 1  
    63   32   58 1  
    64   37   59 1  
@<TRIPOS>SUBSTRUCTURE
     1 AXB         1

