3fhb_ligand
  -I-interpret- 

 17 17  0  0  0  0  0  0  0  0999 V2000
   15.8290   -7.0170   11.2010 C   0  0  0  0  0
   14.6310   -6.6170   11.2000 O   0  0  0  0  0
   16.8390   -6.3450   11.5520 O   0  0  0  0  0
   16.1020   -8.4350   10.7320 C   0  0  0  0  0
   17.1930   -9.1380   11.2190 C   0  0  0  0  0
   17.4080  -10.4350   10.7530 C   0  0  0  0  0
   16.5740  -11.0240    9.8240 C   0  0  0  0  0
   15.4900  -10.3050    9.3460 C   0  0  0  0  0
   15.2560   -9.0150    9.8020 C   0  0  0  0  0
   18.4350  -11.1360   11.1990 N   0  0  0  0  0
   14.0595   -7.3226   10.8885 H   0  0  0  0  0
   17.8665   -8.6881   11.9484 H   0  0  0  0  0
   16.7649  -12.0379    9.4722 H   0  0  0  0  0
   14.8207  -10.7528    8.6114 H   0  0  0  0  0
   14.4003   -8.4547    9.4253 H   0  0  0  0  0
   19.0712  -10.7289   11.8845 H   0  0  0  0  0
   18.5918  -12.0844   10.8579 H   0  0  0  0  0
  1  2  1  0  0  0
  1  3  2  0  0  0
  1  4  1  0  0  0
  4  5  4  0  0  0
  4  9  4  0  0  0
  5  6  4  0  0  0
  6  7  4  0  0  0
  6 10  1  0  0  0
  7  8  4  0  0  0
  8  9  4  0  0  0
  2 11  1  0  0  0
  5 12  1  0  0  0
  7 13  1  0  0  0
  8 14  1  0  0  0
  9 15  1  0  0  0
 10 16  1  0  0  0
 10 17  1  0  0  0
M  END
$$$$
