### 
### Created by X-TOOL on Mon Aug  2 16:15:36 2021
### 

@<TRIPOS>MOLECULE
6oag_ligand
   47    50     1     0     0
SMALL
GAST_HUCK


@<TRIPOS>ATOM
      1 C4          5.7500   71.2870   27.1790 C.ar      1 M2Y         0.1295
      2 C5          4.8670   72.1930   27.6710 C.ar      1 M2Y         0.0469
      3 C6          3.7510   71.7320   28.2930 C.ar      1 M2Y         0.1085
      4 N1          3.5080   70.4080   28.4320 N.ar      1 M2Y        -0.2773
      5 N3          5.5530   69.9550   27.2900 N.ar      1 M2Y        -0.2639
      6 CAN         2.4910   76.1420   28.4530 C.ar      1 M2Y        -0.0453
      7 CAO         2.3160   77.5240   28.5550 C.ar      1 M2Y         0.0422
      8 CLAZ        0.6980   78.1160   28.7580 Cl        1 M2Y        -0.0768
      9 CAP         3.4130   78.3920   28.4960 C.ar      1 M2Y        -0.0310
     10 CAS         3.2450   79.7730   28.5970 C.3       1 M2Y        -0.0300
     11 CAQ         4.6860   77.8510   28.3350 C.ar      1 M2Y        -0.0587
     12 CAR         4.8570   76.4650   28.2350 C.ar      1 M2Y        -0.0591
     13 CAM         3.7620   75.5760   28.2870 C.ar      1 M2Y        -0.0122
     14 CAJ         3.9080   74.2230   28.2000 C.2       1 M2Y         0.0373
     15 SAK         2.8530   73.0750   28.7900 S.3       1 M2Y        -0.0140
     16 CAI         4.9350   73.5620   27.6320 C.2       1 M2Y        -0.0456
     17 C2          4.4110   69.4690   27.9290 C.ar      1 M2Y         0.0586
     18 NAA         6.8460   71.7840   26.5680 N.pl3     1 M2Y        -0.2805
     19 CAB         7.9990   70.9790   26.1250 C.3       1 M2Y         0.1218
     20 PBA         8.5650   71.7100   24.5110 P.3       1 M2Y         0.0872
     21 OBC         7.1890   72.1850   23.7570 O.co2     1 M2Y        -0.5606
     22 OBD         9.1770   70.5730   23.5400 O.co2     1 M2Y        -0.5606
     23 OBB         9.5380   72.7900   24.7630 O.co2     1 M2Y        -0.5606
     24 CAL         9.1430   71.0760   27.1510 C.3       1 M2Y         0.0202
     25 CAT         8.6980   70.6460   28.4010 C.ar      1 M2Y        -0.0394
     26 CAU         8.6710   69.2810   28.6880 C.ar      1 M2Y        -0.0602
     27 CAV         8.2200   68.8400   29.9310 C.ar      1 M2Y        -0.0686
     28 CAW         7.7910   69.7610   30.8870 C.ar      1 M2Y        -0.0687
     29 CAX         7.8120   71.1230   30.6030 C.ar      1 M2Y        -0.0686
     30 CAY         8.2670   71.5680   29.3620 C.ar      1 M2Y        -0.0602
     31 H1          1.6243   75.4929   28.5034 H         1 M2Y         0.0612
     32 H2          4.2250   80.2676   28.5272 H         1 M2Y         0.0397
     33 H3          2.7796   80.0161   29.5636 H         1 M2Y         0.0397
     34 H4          2.5980   80.1244   27.7798 H         1 M2Y         0.0397
     35 H5          5.5485   78.5059   28.2869 H         1 M2Y         0.0561
     36 H6          5.8569   76.0641   28.1144 H         1 M2Y         0.0608
     37 H7          5.7707   74.0844   27.1688 H         1 M2Y         0.0448
     38 H8          4.2322   68.4047   28.0307 H         1 M2Y         0.1012
     39 H9          6.8793   72.7995   26.3989 H         1 M2Y         0.1885
     40 H10         7.7041   69.9277   25.9921 H         1 M2Y         0.0781
     41 H11         9.4802   72.1205   27.2235 H         1 M2Y         0.0464
     42 H12         9.9805   70.4421   26.8243 H         1 M2Y         0.0464
     43 H13         9.0005   68.5639   27.9449 H         1 M2Y         0.0557
     44 H14         8.2026   67.7796   30.1552 H         1 M2Y         0.0599
     45 H15         7.4407   69.4150   31.8527 H         1 M2Y         0.0559
     46 H16         7.4751   71.8374   31.3455 H         1 M2Y         0.0599
     47 H17         8.2869   72.6291   29.1414 H         1 M2Y         0.0557
@<TRIPOS>BOND
     1    2    1 ar 
     2    1    5 ar 
     3    1   18 1  
     4    3    2 ar 
     5    2   16 1  
     6    3    4 ar 
     7   15    3 1  
     8    4   17 ar 
     9   17    5 ar 
    10    6    7 ar 
    11   13    6 ar 
    12    7    8 1  
    13    7    9 ar 
    14    9   10 1  
    15   11    9 ar 
    16   12   11 ar 
    17   13   12 ar 
    18   14   13 1  
    19   14   15 1  
    20   14   16 2  
    21   18   19 1  
    22   19   20 1  
    23   19   24 1  
    24   20   21 ar 
    25   20   22 ar 
    26   20   23 ar 
    27   24   25 1  
    28   25   26 ar 
    29   25   30 ar 
    30   26   27 ar 
    31   27   28 ar 
    32   28   29 ar 
    33   29   30 ar 
    34    6   31 1  
    35   10   32 1  
    36   10   33 1  
    37   10   34 1  
    38   11   35 1  
    39   12   36 1  
    40   16   37 1  
    41   17   38 1  
    42   18   39 1  
    43   19   40 1  
    44   24   41 1  
    45   24   42 1  
    46   26   43 1  
    47   27   44 1  
    48   28   45 1  
    49   29   46 1  
    50   30   47 1  
@<TRIPOS>SUBSTRUCTURE
     1 M2Y         1

