6oag_ligand
  -I-interpret- 

 49 52  0  0  0  0  0  0  0  0999 V2000
    5.7500   71.2870   27.1790 C   0  0  0  0  0
    4.8670   72.1930   27.6710 C   0  0  0  0  0
    3.7510   71.7320   28.2930 C   0  0  0  0  0
    3.5080   70.4080   28.4320 N   0  0  0  0  0
    5.5530   69.9550   27.2900 N   0  0  0  0  0
    2.4910   76.1420   28.4530 C   0  0  0  0  0
    2.3160   77.5240   28.5550 C   0  0  0  0  0
    0.6980   78.1160   28.7580 Cl  0  0  0  0  0
    3.4130   78.3920   28.4960 C   0  0  0  0  0
    3.2450   79.7730   28.5970 C   0  0  0  0  0
    4.6860   77.8510   28.3350 C   0  0  0  0  0
    4.8570   76.4650   28.2350 C   0  0  0  0  0
    3.7620   75.5760   28.2870 C   0  0  0  0  0
    3.9080   74.2230   28.2000 C   0  0  0  0  0
    2.8530   73.0750   28.7900 S   0  0  0  0  0
    4.9350   73.5620   27.6320 C   0  0  0  0  0
    4.4110   69.4690   27.9290 C   0  0  0  0  0
    6.8460   71.7840   26.5680 N   0  0  0  0  0
    7.9990   70.9790   26.1250 C   0  0  0  0  0
    8.5650   71.7100   24.5110 P   0  0  0  0  0
    7.1890   72.1850   23.7570 O   0  0  0  0  0
    9.1770   70.5730   23.5400 O   0  0  0  0  0
    9.5380   72.7900   24.7630 O   0  0  0  0  0
    9.1430   71.0760   27.1510 C   0  0  0  0  0
    8.6980   70.6460   28.4010 C   0  0  0  0  0
    8.6710   69.2810   28.6880 C   0  0  0  0  0
    8.2200   68.8400   29.9310 C   0  0  0  0  0
    7.7910   69.7610   30.8870 C   0  0  0  0  0
    7.8120   71.1230   30.6030 C   0  0  0  0  0
    8.2670   71.5680   29.3620 C   0  0  0  0  0
    1.6195   75.4893   28.5037 H   0  0  0  0  0
    2.6037   80.1199   27.7868 H   0  0  0  0  0
    2.7838   80.0125   29.5551 H   0  0  0  0  0
    4.2167   80.2620   28.5277 H   0  0  0  0  0
    5.5532   78.5095   28.2866 H   0  0  0  0  0
    5.8624   76.0618   28.1138 H   0  0  0  0  0
    5.7715   74.0849   27.1683 H   0  0  0  0  0
    4.2312   68.3988   28.0313 H   0  0  0  0  0
    6.8790   72.7896   26.4005 H   0  0  0  0  0
    7.7213   69.9301   26.0213 H   0  0  0  0  0
    6.6151   71.4256   23.6327 H   0  0  0  0  0
    8.5198   69.8879   23.3974 H   0  0  0  0  0
    9.4732   72.1122   27.2241 H   0  0  0  0  0
    9.9704   70.4445   26.8274 H   0  0  0  0  0
    9.0023   68.5599   27.9408 H   0  0  0  0  0
    8.2025   67.7737   30.1564 H   0  0  0  0  0
    7.4388   69.4131   31.8581 H   0  0  0  0  0
    7.4732   71.8413   31.3496 H   0  0  0  0  0
    8.2870   72.6350   29.1402 H   0  0  0  0  0
  2  1  4  0  0  0
  1  5  4  0  0  0
  1 18  1  0  0  0
  3  2  4  0  0  0
  2 16  4  0  0  0
  3  4  4  0  0  0
 15  3  4  0  0  0
  4 17  4  0  0  0
 17  5  4  0  0  0
  6  7  4  0  0  0
 13  6  4  0  0  0
  7  8  1  0  0  0
  7  9  4  0  0  0
  9 10  1  0  0  0
 11  9  4  0  0  0
 12 11  4  0  0  0
 13 12  4  0  0  0
 14 13  1  0  0  0
 14 15  4  0  0  0
 14 16  4  0  0  0
 18 19  1  0  0  0
 19 20  1  0  0  0
 19 24  1  0  0  0
 20 21  1  0  0  0
 20 22  1  0  0  0
 20 23  2  0  0  0
 24 25  1  0  0  0
 25 26  4  0  0  0
 25 30  4  0  0  0
 26 27  4  0  0  0
 27 28  4  0  0  0
 28 29  4  0  0  0
 29 30  4  0  0  0
  6 31  1  0  0  0
 10 32  1  0  0  0
 10 33  1  0  0  0
 10 34  1  0  0  0
 11 35  1  0  0  0
 12 36  1  0  0  0
 16 37  1  0  0  0
 17 38  1  0  0  0
 18 39  1  0  0  0
 19 40  1  0  0  0
 21 41  1  0  0  0
 22 42  1  0  0  0
 24 43  1  0  0  0
 24 44  1  0  0  0
 26 45  1  0  0  0
 27 46  1  0  0  0
 28 47  1  0  0  0
 29 48  1  0  0  0
 30 49  1  0  0  0
M  END
$$$$
