2qnx_ligand
  -I-interpret- 

 36 35  0  0  0  0  0  0  0  0999 V2000
   40.2930   37.1090   51.8930 C   0  0  0  0  0
   39.1200   36.1230   51.8070 C   0  0  0  0  0
   38.9100   35.6480   50.3620 C   0  0  0  0  0
   37.5710   36.1310   49.8030 C   0  0  0  0  0
   36.4550   35.1080   50.0590 C   0  0  0  0  0
   35.1990   35.4370   49.2510 C   0  0  0  0  0
   35.0220   34.4540   48.0900 C   0  0  0  0  0
   33.7700   34.7820   47.2670 C   0  0  0  0  0
   34.0840   34.7180   45.7720 C   0  0  0  0  0
   32.8300   34.4150   44.9530 C   0  0  0  0  0
   32.9180   34.9810   43.6150 O   0  0  0  0  0
   32.1980   34.2610   42.7110 C   0  0  0  0  0
   32.7100   33.8620   41.6670 O   0  0  0  0  0
   30.5370   33.9000   43.0320 S   0  0  0  0  0
   41.2037   36.6193   51.5481 H   0  0  0  0  0
   40.0846   37.9752   51.2650 H   0  0  0  0  0
   40.4208   37.4303   52.9267 H   0  0  0  0  0
   38.2140   36.6249   52.1467 H   0  0  0  0  0
   39.3420   35.2580   52.4320 H   0  0  0  0  0
   38.9155   34.5581   50.3523 H   0  0  0  0  0
   39.7098   36.0565   49.7443 H   0  0  0  0  0
   37.6746   36.2681   48.7266 H   0  0  0  0  0
   37.3053   37.0644   50.2992 H   0  0  0  0  0
   36.2006   35.1317   51.1186 H   0  0  0  0  0
   36.8124   34.1235   49.7570 H   0  0  0  0  0
   35.2972   36.4440   48.8454 H   0  0  0  0  0
   34.3315   35.3641   49.9069 H   0  0  0  0  0
   34.9144   33.4496   48.4995 H   0  0  0  0  0
   35.8934   34.5257   47.4391 H   0  0  0  0  0
   33.4342   35.7885   47.5168 H   0  0  0  0  0
   32.9921   34.0543   47.4981 H   0  0  0  0  0
   34.8088   33.9215   45.6037 H   0  0  0  0  0
   34.4775   35.6850   45.4587 H   0  0  0  0  0
   31.9716   34.8566   45.4592 H   0  0  0  0  0
   32.7280   33.3334   44.8646 H   0  0  0  0  0
   30.1902   34.4219   44.2051 H   0  0  0  0  0
  1  2  1  0  0  0
  2  3  1  0  0  0
  3  4  1  0  0  0
  4  5  1  0  0  0
  5  6  1  0  0  0
  6  7  1  0  0  0
  7  8  1  0  0  0
  8  9  1  0  0  0
  9 10  1  0  0  0
 10 11  1  0  0  0
 11 12  1  0  0  0
 12 13  2  0  0  0
 12 14  1  0  0  0
  1 15  1  0  0  0
  1 16  1  0  0  0
  1 17  1  0  0  0
  2 18  1  0  0  0
  2 19  1  0  0  0
  3 20  1  0  0  0
  3 21  1  0  0  0
  4 22  1  0  0  0
  4 23  1  0  0  0
  5 24  1  0  0  0
  5 25  1  0  0  0
  6 26  1  0  0  0
  6 27  1  0  0  0
  7 28  1  0  0  0
  7 29  1  0  0  0
  8 30  1  0  0  0
  8 31  1  0  0  0
  9 32  1  0  0  0
  9 33  1  0  0  0
 10 34  1  0  0  0
 10 35  1  0  0  0
 14 36  1  0  0  0
M  END
$$$$
