5fs5_ligand
  -I-interpret- 

 45 45  0  0  0  0  0  0  0  0999 V2000
   -7.4090    6.5570    1.9320 O   0  0  0  0  0
   -6.7230    5.3000    1.7920 C   0  0  0  0  0
   -6.6370    4.8900    0.3140 C   0  0  0  0  0
   -6.9380   -1.5360   -0.4200 C   0  0  0  0  0
   -8.0020    4.7700   -0.1700 O   0  0  0  0  0
   -5.9150    5.9480   -0.5230 C   0  0  0  0  0
   -4.5230    6.0520   -0.0800 O   0  0  0  0  0
   -5.9320    5.5010   -1.9790 C   0  0  0  0  0
   -5.3140    6.5340   -2.7560 O   0  0  0  0  0
   -7.3730    5.3380   -2.4670 C   0  0  0  0  0
   -8.0490    6.5750   -2.3600 O   0  0  0  0  0
   -8.1140    4.3610   -1.5640 C   0  0  0  0  0
   -7.4790    3.0680   -1.6350 O   0  0  0  0  0
   -8.1930    2.0590   -0.8820 C   0  0  0  0  0
   -7.3300    0.8250   -1.0550 C   0  0  0  0  0
   -7.8790   -0.3460   -0.2340 C   0  0  0  0  0
   -6.6560   -5.0020    1.2280 C   0  0  0  0  0
   -6.3560   -3.8480    0.2930 C   0  0  0  0  0
   -7.3850   -2.7070    0.4630 C   0  0  0  0  0
   -7.4521    6.7950    2.8610 H   0  0  0  0  0
   -7.2745    4.5349    2.3384 H   0  0  0  0  0
   -5.7129    5.4038    2.1882 H   0  0  0  0  0
   -6.0796    3.9574    0.2266 H   0  0  0  0  0
   -5.9280   -1.2402   -0.1362 H   0  0  0  0  0
   -6.9591   -1.8480   -1.4642 H   0  0  0  0  0
   -6.4087    6.9132   -0.4106 H   0  0  0  0  0
   -4.5006    6.3334    0.8375 H   0  0  0  0  0
   -5.4090    4.5498   -2.0782 H   0  0  0  0  0
   -4.4069    6.6524   -2.4650 H   0  0  0  0  0
   -7.3490    4.9833   -3.4974 H   0  0  0  0  0
   -8.9530    6.4719   -2.6663 H   0  0  0  0  0
   -9.1538    4.3343   -1.8898 H   0  0  0  0  0
   -9.2133    1.9124   -1.2364 H   0  0  0  0  0
   -8.3310    2.3331    0.1639 H   0  0  0  0  0
   -6.3211    1.0519   -0.7105 H   0  0  0  0  0
   -7.3277    0.5439   -2.1081 H   0  0  0  0  0
   -7.9366   -0.0727    0.8196 H   0  0  0  0  0
   -8.8831   -0.6038   -0.5708 H   0  0  0  0  0
   -6.6193   -4.6513    2.2594 H   0  0  0  0  0
   -7.6496   -5.3945    1.0115 H   0  0  0  0  0
   -5.9142   -5.7874    1.0833 H   0  0  0  0  0
   -6.4058   -4.2107   -0.7337 H   0  0  0  0  0
   -5.3648   -3.4597    0.5272 H   0  0  0  0  0
   -8.3778   -3.0461    0.1672 H   0  0  0  0  0
   -7.4356   -2.3959    1.5064 H   0  0  0  0  0
  2  1  1  0  0  0
  3  2  1  0  0  0
  5  3  1  0  0  0
  3  6  1  0  0  0
  4 16  1  0  0  0
 19  4  1  0  0  0
 12  5  1  0  0  0
  6  7  1  0  0  0
  8  6  1  0  0  0
  8  9  1  0  0  0
 10  8  1  0  0  0
 10 11  1  0  0  0
 12 10  1  0  0  0
 13 12  1  0  0  0
 14 13  1  0  0  0
 15 14  1  0  0  0
 16 15  1  0  0  0
 18 17  1  0  0  0
 18 19  1  0  0  0
  1 20  1  0  0  0
  2 21  1  0  0  0
  2 22  1  0  0  0
  3 23  1  0  0  0
  4 24  1  0  0  0
  4 25  1  0  0  0
  6 26  1  0  0  0
  7 27  1  0  0  0
  8 28  1  0  0  0
  9 29  1  0  0  0
 10 30  1  0  0  0
 11 31  1  0  0  0
 12 32  1  0  0  0
 14 33  1  0  0  0
 14 34  1  0  0  0
 15 35  1  0  0  0
 15 36  1  0  0  0
 16 37  1  0  0  0
 16 38  1  0  0  0
 17 39  1  0  0  0
 17 40  1  0  0  0
 17 41  1  0  0  0
 18 42  1  0  0  0
 18 43  1  0  0  0
 19 44  1  0  0  0
 19 45  1  0  0  0
M  END
$$$$
