4byj_ligand
  -I-interpret- 

 45 48  0  0  0  0  0  0  0  0999 V2000
    3.4990  -28.1820   -8.7240 Cl  0  0  0  0  0
    2.5280  -29.4920   -8.1160 C   0  0  0  0  0
    1.7230  -30.1970   -9.0230 C   0  0  0  0  0
    0.9500  -31.2210   -8.6070 N   0  0  0  0  0
    0.9270  -31.6120   -7.2800 C   0  0  0  0  0
    0.2300  -32.6170   -6.6110 N   0  0  0  0  0
    0.5720  -32.5760   -5.2890 C   0  0  0  0  0
    0.1060  -33.4360   -4.1820 C   0  0  0  0  0
    0.5860  -33.3630   -2.8920 C   0  0  0  0  0
   -0.0480  -34.2740   -2.1770 N   0  0  0  0  0
    0.1610  -34.5120   -0.8100 C   0  0  0  0  0
   -0.9470  -34.9590   -2.9600 N   0  0  0  0  0
   -0.8650  -34.4540   -4.2070 C   0  0  0  0  0
   -1.6850  -34.9190   -5.3920 C   0  0  0  0  0
    1.4670  -31.5690   -5.1250 N   0  0  0  0  0
    1.6940  -30.9600   -6.3480 C   0  0  0  0  0
    2.5240  -29.8650   -6.7410 C   0  0  0  0  0
    3.3200  -29.2400   -5.7170 N   0  0  0  0  0
    3.1380  -27.8210   -5.4260 C   0  0  0  0  0
    4.5310  -27.4110   -5.0490 C   0  0  0  0  0
    4.5620  -26.1990   -4.2930 N   0  0  0  0  0
    5.5470  -25.1920   -4.6580 C   0  0  0  0  0
    5.6230  -23.8940   -3.9060 C   0  0  0  0  0
    6.3210  -25.4030   -5.5860 O   0  0  0  0  0
    5.0260  -28.5430   -4.2960 C   0  0  0  0  0
    4.5110  -29.7050   -5.0350 C   0  0  0  0  0
    1.7222  -29.9141  -10.0757 H   0  0  0  0  0
    1.3509  -32.6771   -2.5279 H   0  0  0  0  0
    1.2002  -34.7975   -0.6469 H   0  0  0  0  0
   -0.0608  -33.6056   -0.2466 H   0  0  0  0  0
   -0.4946  -35.3171   -0.4783 H   0  0  0  0  0
   -2.2776  -34.0865   -5.7713 H   0  0  0  0  0
   -1.0177  -35.2783   -6.1754 H   0  0  0  0  0
   -2.3479  -35.7258   -5.0793 H   0  0  0  0  0
    2.4005  -27.6267   -4.6473 H   0  0  0  0  0
    2.7275  -27.2537   -6.2614 H   0  0  0  0  0
    5.1468  -27.1848   -5.9195 H   0  0  0  0  0
    3.9135  -26.0443   -3.5210 H   0  0  0  0  0
    6.6114  -23.7926   -3.4578 H   0  0  0  0  0
    5.4477  -23.0665   -4.5935 H   0  0  0  0  0
    4.8648  -23.8843   -3.1229 H   0  0  0  0  0
    4.6935  -28.5295   -3.2581 H   0  0  0  0  0
    6.1133  -28.5478   -4.2188 H   0  0  0  0  0
    5.2494  -30.0865   -5.7402 H   0  0  0  0  0
    4.2867  -30.5347   -4.3647 H   0  0  0  0  0
  1  2  1  0  0  0
  2  3  4  0  0  0
  2 17  4  0  0  0
  3  4  4  0  0  0
  4  5  4  0  0  0
  5  6  4  0  0  0
  5 16  4  0  0  0
  6  7  4  0  0  0
  7  8  1  0  0  0
  7 15  4  0  0  0
  8  9  4  0  0  0
  8 13  4  0  0  0
  9 10  4  0  0  0
 10 11  1  0  0  0
 10 12  4  0  0  0
 12 13  4  0  0  0
 13 14  1  0  0  0
 15 16  4  0  0  0
 16 17  4  0  0  0
 17 18  1  0  0  0
 18 19  1  0  0  0
 18 26  1  0  0  0
 19 20  1  0  0  0
 20 21  1  0  0  0
 20 25  1  0  0  0
 21 22  1  0  0  0
 22 23  1  0  0  0
 22 24  2  0  0  0
 25 26  1  0  0  0
  3 27  1  0  0  0
  9 28  1  0  0  0
 11 29  1  0  0  0
 11 30  1  0  0  0
 11 31  1  0  0  0
 14 32  1  0  0  0
 14 33  1  0  0  0
 14 34  1  0  0  0
 19 35  1  0  0  0
 19 36  1  0  0  0
 20 37  1  0  0  0
 21 38  1  0  0  0
 23 39  1  0  0  0
 23 40  1  0  0  0
 23 41  1  0  0  0
 25 42  1  0  0  0
 25 43  1  0  0  0
 26 44  1  0  0  0
 26 45  1  0  0  0
M  END
$$$$
