3my5_ligand
  -I-interpret- 

 32 34  0  0  0  0  0  0  0  0999 V2000
   -6.3290   21.9070  -23.0760 C   0  0  0  0  0
   -7.1230   21.0490  -22.3340 C   0  0  0  0  0
   -8.4890   21.0500  -22.5670 C   0  0  0  0  0
   -9.5410   19.9530  -21.6270 Cl  0  0  0  0  0
   -9.0580   21.8860  -23.5180 C   0  0  0  0  0
  -10.8360   21.8400  -23.7460 Cl  0  0  0  0  0
   -8.2750   22.7500  -24.2710 C   0  0  0  0  0
   -6.9030   22.7500  -24.0350 C   0  0  0  0  0
   -5.9000   23.4620  -24.5890 N   0  0  0  0  0
   -4.7520   23.0730  -23.9970 C   0  0  0  0  0
   -5.0050   22.1210  -23.0820 N   0  0  0  0  0
   -3.9470   21.5110  -22.2160 C   0  0  0  0  0
   -3.8930   20.1210  -22.4400 O   0  0  0  0  0
   -3.3590   19.4780  -21.2400 C   0  0  0  0  0
   -4.2280   18.3030  -20.8660 C   0  0  0  0  0
   -3.5250   17.3680  -20.0510 O   0  0  0  0  0
   -3.2610   20.5780  -20.1760 C   0  0  0  0  0
   -1.9300   21.0890  -20.1440 O   0  0  0  0  0
   -4.2030   21.6470  -20.7210 C   0  0  0  0  0
   -3.9500   22.9540  -20.2530 O   0  0  0  0  0
   -6.6845   20.3892  -21.5853 H   0  0  0  0  0
   -8.7186   23.4053  -25.0206 H   0  0  0  0  0
   -3.7640   23.4720  -24.2268 H   0  0  0  0  0
   -3.0349   22.0451  -22.4824 H   0  0  0  0  0
   -2.3660   19.0500  -21.3772 H   0  0  0  0  0
   -4.5365   17.7980  -21.7813 H   0  0  0  0  0
   -5.0848   18.6739  -20.3035 H   0  0  0  0  0
   -4.1058   16.6356  -19.8324 H   0  0  0  0  0
   -3.5078   20.2432  -19.1685 H   0  0  0  0  0
   -1.8687   21.7776  -19.4779 H   0  0  0  0  0
   -5.2367   21.5011  -20.4073 H   0  0  0  0  0
   -4.1236   22.9941  -19.3097 H   0  0  0  0  0
  1  2  4  0  0  0
  1  8  4  0  0  0
  1 11  4  0  0  0
  2  3  4  0  0  0
  3  4  1  0  0  0
  3  5  4  0  0  0
  5  6  1  0  0  0
  5  7  4  0  0  0
  7  8  4  0  0  0
  8  9  4  0  0  0
  9 10  4  0  0  0
 10 11  4  0  0  0
 11 12  1  0  0  0
 12 13  1  0  0  0
 12 19  1  0  0  0
 13 14  1  0  0  0
 14 15  1  0  0  0
 14 17  1  0  0  0
 15 16  1  0  0  0
 17 18  1  0  0  0
 17 19  1  0  0  0
 19 20  1  0  0  0
  2 21  1  0  0  0
  7 22  1  0  0  0
 10 23  1  0  0  0
 12 24  1  0  0  0
 14 25  1  0  0  0
 15 26  1  0  0  0
 15 27  1  0  0  0
 16 28  1  0  0  0
 17 29  1  0  0  0
 18 30  1  0  0  0
 19 31  1  0  0  0
 20 32  1  0  0  0
M  END
$$$$
