4fll_ligand
  -I-interpret- 

 67 68  0  0  0  0  0  0  0  0999 V2000
   19.3590   -4.4830   13.9850 O   0  0  0  0  0
   19.5230   -3.2890   13.9690 C   0  0  0  0  0
   20.0190   -2.6730   12.6700 C   0  0  0  0  0
   19.2910   -3.0940   11.4870 O   0  0  0  0  0
   17.9790   -2.5390   11.4070 C   0  0  0  0  0
   21.5150   -2.9290   12.4910 C   0  0  0  0  0
   22.1720   -1.9800   13.2320 O   0  0  0  0  0
   21.9500   -2.7520   11.0430 C   0  0  0  0  0
   22.1150   -1.3490   10.7740 O   0  0  0  0  0
   23.2850   -3.4780   10.8660 C   0  0  0  0  0
   23.8480   -2.9740    9.6060 O   0  0  0  0  0
   23.0550   -4.9620   10.6620 C   0  0  0  0  0
   23.5290   -5.7570   11.6530 C   0  0  0  0  0
   23.4360   -7.2610   11.7690 C   0  0  0  0  0
   22.7930   -7.4720   13.1170 C   0  0  0  0  0
   22.6820   -7.8660   10.6300 C   0  0  0  0  0
   24.8860   -7.7440   11.8020 C   0  0  0  0  0
   19.1770   -2.3790   14.9100 N   0  0  0  0  0
   18.6980   -3.0320   16.1460 C   0  0  0  0  0
   19.4750   -2.4030   17.2750 C   0  0  0  0  0
   19.1680   -2.8690   18.7490 C   0  0  0  0  0
   19.9560   -2.0870   19.8530 C   0  0  0  0  0
   19.9530   -0.6720   20.0570 C   0  0  0  0  0
   20.7850   -0.3450   21.1920 C   0  0  0  0  0
   21.2560   -1.6400   21.6020 C   0  0  0  0  0
   20.6950   -2.6640   20.7470 O   0  0  0  0  0
   17.7230   -3.2010   19.1310 C   0  0  0  0  0
   17.5220   -4.0360   20.2900 C   0  0  0  0  0
   16.2450   -4.4120   20.7800 C   0  0  0  0  0
   15.0920   -3.9570   20.1070 C   0  0  0  0  0
   15.2520   -3.1340   18.9620 C   0  0  0  0  0
   16.5390   -2.7530   18.4870 C   0  0  0  0  0
   19.8316   -1.6036   12.7667 H   0  0  0  0  0
   17.4010   -2.8490   12.2776 H   0  0  0  0  0
   18.0468   -1.4514   11.3828 H   0  0  0  0  0
   17.4904   -2.8941   10.4997 H   0  0  0  0  0
   21.7392   -3.9504   12.7986 H   0  0  0  0  0
   21.9191   -2.0642   14.1543 H   0  0  0  0  0
   21.2075   -3.1592   10.3567 H   0  0  0  0  0
   21.2733   -0.9014   10.8873 H   0  0  0  0  0
   23.9215   -3.3175   11.7362 H   0  0  0  0  0
   24.6934   -3.3984    9.4422 H   0  0  0  0  0
   22.5465   -5.3606    9.7841 H   0  0  0  0  0
   24.0417   -5.2471   12.4687 H   0  0  0  0  0
   23.4231   -7.0342   13.8912 H   0  0  0  0  0
   21.8138   -6.9934   13.1299 H   0  0  0  0  0
   22.6791   -8.5404   13.3006 H   0  0  0  0  0
   21.6695   -7.4627   10.6112 H   0  0  0  0  0
   23.1870   -7.6273    9.6940 H   0  0  0  0  0
   22.6413   -8.9478   10.7567 H   0  0  0  0  0
   25.3897   -7.4406   10.8842 H   0  0  0  0  0
   25.3948   -7.3040   12.6597 H   0  0  0  0  0
   24.9038   -8.8306   11.8856 H   0  0  0  0  0
   19.2392   -1.3690   14.7817 H   0  0  0  0  0
   18.8558   -4.1099   16.1101 H   0  0  0  0  0
   17.6253   -2.8904   16.2775 H   0  0  0  0  0
   19.2106   -1.3459   17.2491 H   0  0  0  0  0
   20.5133   -2.6832   17.0976 H   0  0  0  0  0
   19.5940   -3.8717   18.7153 H   0  0  0  0  0
   19.4068    0.0495   19.4494 H   0  0  0  0  0
   21.0001    0.6316   21.6256 H   0  0  0  0  0
   21.9355   -1.8235   22.4342 H   0  0  0  0  0
   18.4025   -4.3991   20.8200 H   0  0  0  0  0
   16.1561   -5.0435   21.6640 H   0  0  0  0  0
   14.0979   -4.2320   20.4593 H   0  0  0  0  0
   14.3660   -2.7842   18.4321 H   0  0  0  0  0
   16.6170   -2.1058   17.6134 H   0  0  0  0  0
  1  2  2  0  0  0
  2  3  1  0  0  0
  2 18  1  0  0  0
  3  4  1  0  0  0
  3  6  1  0  0  0
  4  5  1  0  0  0
  6  7  1  0  0  0
  6  8  1  0  0  0
  8  9  1  0  0  0
  8 10  1  0  0  0
 10 11  1  0  0  0
 10 12  1  0  0  0
 12 13  2  0  0  0
 13 14  1  0  0  0
 14 15  1  0  0  0
 14 16  1  0  0  0
 14 17  1  0  0  0
 18 19  1  0  0  0
 19 20  1  0  0  0
 20 21  1  0  0  0
 21 22  1  0  0  0
 21 27  1  0  0  0
 22 23  4  0  0  0
 22 26  4  0  0  0
 23 24  4  0  0  0
 24 25  4  0  0  0
 25 26  4  0  0  0
 27 28  4  0  0  0
 27 32  4  0  0  0
 28 29  4  0  0  0
 29 30  4  0  0  0
 30 31  4  0  0  0
 31 32  4  0  0  0
  3 33  1  0  0  0
  5 34  1  0  0  0
  5 35  1  0  0  0
  5 36  1  0  0  0
  6 37  1  0  0  0
  7 38  1  0  0  0
  8 39  1  0  0  0
  9 40  1  0  0  0
 10 41  1  0  0  0
 11 42  1  0  0  0
 12 43  1  0  0  0
 13 44  1  0  0  0
 15 45  1  0  0  0
 15 46  1  0  0  0
 15 47  1  0  0  0
 16 48  1  0  0  0
 16 49  1  0  0  0
 16 50  1  0  0  0
 17 51  1  0  0  0
 17 52  1  0  0  0
 17 53  1  0  0  0
 18 54  1  0  0  0
 19 55  1  0  0  0
 19 56  1  0  0  0
 20 57  1  0  0  0
 20 58  1  0  0  0
 21 59  1  0  0  0
 23 60  1  0  0  0
 24 61  1  0  0  0
 25 62  1  0  0  0
 28 63  1  0  0  0
 29 64  1  0  0  0
 30 65  1  0  0  0
 31 66  1  0  0  0
 32 67  1  0  0  0
M  END
$$$$
