3slz_ligand
  -I-interpret- 

130133  0  0  0  0  0  0  0  0999 V2000
   -0.2550    2.4820   18.3190 C   0  0  0  0  0
   -1.0730    3.3600   18.5020 O   0  0  0  0  0
    0.0500    1.7380   19.3960 O   0  0  0  0  0
   -0.9680    1.0670   20.1750 C   0  0  0  0  0
   -0.4040    0.4340   21.4100 C   0  0  0  0  0
   -1.2590   -0.0130   22.4110 C   0  0  0  0  0
   -0.7130   -0.5990   23.5680 C   0  0  0  0  0
    0.6680   -0.7450   23.7420 C   0  0  0  0  0
    1.5270   -0.2950   22.7370 C   0  0  0  0  0
    0.9690    0.2810   21.6000 C   0  0  0  0  0
    0.5480    2.3680   17.2720 N   0  0  0  0  0
    0.3560    3.0440   16.1390 C   0  0  0  0  0
   -0.4840    2.2110   15.2050 C   0  0  0  0  0
   -0.0090    1.0670   14.8120 O   0  0  0  0  0
    1.7230    3.1960   15.5350 C   0  0  0  0  0
   -1.6290    2.6680   14.8370 N   0  0  0  0  0
   -2.6200    2.0030   14.0030 C   0  0  0  0  0
   -2.8020    2.8180   12.7660 C   0  0  0  0  0
   -3.7160    3.7240   12.8370 O   0  0  0  0  0
   -3.8750    1.7020   14.8000 C   0  0  0  0  0
   -3.6120    0.8800   16.0800 C   0  0  0  0  0
   -4.9240    0.9990   13.9240 C   0  0  0  0  0
   -2.5730    2.5420    9.2430 C   0  0  0  0  0
   -1.3820    1.8160    9.0230 O   0  0  0  0  0
   -2.3370    3.4280   10.4230 C   0  0  0  0  0
   -2.1430    2.5900   11.6460 N   0  0  0  0  0
   -1.1450    4.3200   10.0210 C   0  0  0  0  0
   -0.4240    4.8260   11.2020 C   0  0  0  0  0
   -1.0050    5.8930   11.8920 C   0  0  0  0  0
    0.7870    4.2420   11.5920 C   0  0  0  0  0
   -0.3800    6.3930   13.0200 C   0  0  0  0  0
    1.4170    4.7580   12.7210 C   0  0  0  0  0
    0.8190    5.8140   13.4270 C   0  0  0  0  0
   -5.3210    2.9830    7.9450 N   0  0  0  0  0
   -5.0700    2.3090    9.2130 C   0  0  0  0  0
   -3.7230    1.6320    9.3650 C   0  0  0  0  0
   -3.4440    0.6710    8.3610 O   0  0  0  0  0
   -6.0450    1.1750    9.3810 C   0  0  0  0  0
   -7.3820    1.7230    9.2080 C   0  0  0  0  0
   -8.1450    1.3010    8.1320 C   0  0  0  0  0
   -7.8590    2.6990   10.0900 C   0  0  0  0  0
   -9.4200    1.8540    7.9720 C   0  0  0  0  0
   -9.1280    3.2640    9.9250 C   0  0  0  0  0
   -9.9090    2.8350    8.8440 C   0  0  0  0  0
   -7.2350    5.0720    6.1030 N   0  0  0  0  0
   -5.8480    4.7220    6.3240 C   0  0  0  0  0
   -5.6370    4.1850    7.7340 C   0  0  0  0  0
   -5.7200    5.0450    8.7340 O   0  0  0  0  0
   -4.9740    5.9340    5.9810 C   0  0  0  0  0
   -3.5090    5.8440    6.4320 C   0  0  0  0  0
   -5.0840    6.4920    4.5340 C   0  0  0  0  0
   -9.4700    5.3860    3.6890 N   0  0  0  0  0
   -9.3530    4.8900    4.8280 C   0  0  0  0  0
   -7.9350    4.6360    5.1350 C   0  0  0  0  0
   -7.3420    3.7820    4.3130 O   0  0  0  0  0
  -10.3410    3.7560    5.0940 C   0  0  0  0  0
   -9.5620    6.6620    3.4000 C   0  0  0  0  0
   -9.3970    7.5160    4.2920 O   0  0  0  0  0
   -9.5390    7.0090    2.1430 O   0  0  0  0  0
   -8.5930    8.0030    1.6590 C   0  0  0  0  0
   -8.6220    8.2800    0.1840 C   0  0  0  0  0
   -9.4490    9.2540   -0.3950 C   0  0  0  0  0
   -9.4460    9.4570   -1.7800 C   0  0  0  0  0
   -8.6140    8.6670   -2.5860 C   0  0  0  0  0
   -7.7980    7.6840   -2.0240 C   0  0  0  0  0
   -7.8080    7.5020   -0.6420 C   0  0  0  0  0
   -1.4057    0.2814   19.5591 H   0  0  0  0  0
   -1.7076    1.8077   20.4792 H   0  0  0  0  0
   -2.3386    0.0892   22.3010 H   0  0  0  0  0
   -1.3851   -0.9493   24.3514 H   0  0  0  0  0
    1.0667   -1.2026   24.6474 H   0  0  0  0  0
    2.6077   -0.3926   22.8408 H   0  0  0  0  0
    1.6407    0.6312   20.8162 H   0  0  0  0  0
    1.3467    1.7367   17.3351 H   0  0  0  0  0
   -0.1393    3.9997   16.3104 H   0  0  0  0  0
    2.3649    3.7436   16.2251 H   0  0  0  0  0
    2.1474    2.2098   15.3469 H   0  0  0  0  0
    1.6451    3.7445   14.5963 H   0  0  0  0  0
   -1.8699    3.6026   15.1671 H   0  0  0  0  0
   -2.2909    1.0177   13.6730 H   0  0  0  0  0
   -4.2599    2.6685   15.1252 H   0  0  0  0  0
   -3.1599   -0.0746   15.8108 H   0  0  0  0  0
   -2.9359    1.4325   16.7326 H   0  0  0  0  0
   -4.5551    0.7038   16.5973 H   0  0  0  0  0
   -5.1864    1.6440   13.0854 H   0  0  0  0  0
   -4.5129    0.0619   13.5485 H   0  0  0  0  0
   -5.8141    0.7942   14.5190 H   0  0  0  0  0
   -2.8325    3.1788    8.3972 H   0  0  0  0  0
   -1.4982    1.2338    8.2686 H   0  0  0  0  0
   -3.1747    4.0746   10.6843 H   0  0  0  0  0
   -1.4791    1.8163   11.6133 H   0  0  0  0  0
   -1.5268    5.1724    9.4591 H   0  0  0  0  0
   -0.4541    3.7237    9.4250 H   0  0  0  0  0
   -1.9423    6.3274   11.5445 H   0  0  0  0  0
    1.2208    3.4135   11.0321 H   0  0  0  0  0
   -0.8163    7.2217   13.5777 H   0  0  0  0  0
    2.3688    4.3447   13.0549 H   0  0  0  0  0
    1.3097    6.1931   14.3234 H   0  0  0  0  0
   -5.2280    2.4010    7.1126 H   0  0  0  0  0
   -5.1458    3.1207    9.9366 H   0  0  0  0  0
   -3.8227    1.1995   10.3606 H   0  0  0  0  0
   -4.1421    0.0122    8.3474 H   0  0  0  0  0
   -5.9411    0.7243   10.3680 H   0  0  0  0  0
   -5.8536    0.3939    8.6452 H   0  0  0  0  0
   -7.7632    0.5595    7.4302 H   0  0  0  0  0
   -7.2312    3.0245   10.9195 H   0  0  0  0  0
  -10.0480    1.5132    7.1489 H   0  0  0  0  0
   -9.4993    4.0180   10.6191 H   0  0  0  0  0
  -10.8974    3.2647    8.6815 H   0  0  0  0  0
   -7.6788    5.7083    6.7653 H   0  0  0  0  0
   -5.5486    3.9067    5.6655 H   0  0  0  0  0
   -5.4525    6.6828    6.6122 H   0  0  0  0  0
   -3.4699    5.7338    7.5157 H   0  0  0  0  0
   -3.0374    4.9818    5.9606 H   0  0  0  0  0
   -2.9834    6.7528    6.1387 H   0  0  0  0  0
   -4.8024    5.7146    3.8238 H   0  0  0  0  0
   -6.1106    6.8051    4.3438 H   0  0  0  0  0
   -4.4159    7.3461    4.4236 H   0  0  0  0  0
   -9.4967    4.7343    2.9048 H   0  0  0  0  0
   -9.6660    5.6192    5.5753 H   0  0  0  0  0
  -11.3592    4.1338    5.0014 H   0  0  0  0  0
  -10.1806    2.9585    4.3685 H   0  0  0  0  0
  -10.1857    3.3693    6.1012 H   0  0  0  0  0
   -7.5998    7.6099    1.8760 H   0  0  0  0  0
   -8.8565    8.9396    2.1505 H   0  0  0  0  0
  -10.0990    9.8575    0.2385 H   0  0  0  0  0
  -10.0831   10.2204   -2.2267 H   0  0  0  0  0
   -8.6044    8.8225   -3.6648 H   0  0  0  0  0
   -7.1612    7.0666   -2.6575 H   0  0  0  0  0
   -7.1690    6.7387   -0.1981 H   0  0  0  0  0
  1  2  2  0  0  0
  1  3  1  0  0  0
 11  1  1  0  0  0
  3  4  1  0  0  0
  4  5  1  0  0  0
  5  6  4  0  0  0
  5 10  4  0  0  0
  6  7  4  0  0  0
  7  8  4  0  0  0
  9  8  4  0  0  0
 10  9  4  0  0  0
 12 11  1  0  0  0
 13 12  1  0  0  0
 12 15  1  0  0  0
 13 14  2  0  0  0
 16 13  1  0  0  0
 17 16  1  0  0  0
 18 17  1  0  0  0
 17 20  1  0  0  0
 18 19  2  0  0  0
 26 18  1  0  0  0
 20 21  1  0  0  0
 20 22  1  0  0  0
 23 24  1  0  0  0
 23 25  1  0  0  0
 36 23  1  0  0  0
 25 26  1  0  0  0
 25 27  1  0  0  0
 27 28  1  0  0  0
 28 29  4  0  0  0
 28 30  4  0  0  0
 29 31  4  0  0  0
 30 32  4  0  0  0
 31 33  4  0  0  0
 32 33  4  0  0  0
 34 35  1  0  0  0
 47 34  1  0  0  0
 35 36  1  0  0  0
 35 38  1  0  0  0
 36 37  1  0  0  0
 38 39  1  0  0  0
 39 40  4  0  0  0
 39 41  4  0  0  0
 40 42  4  0  0  0
 41 43  4  0  0  0
 42 44  4  0  0  0
 43 44  4  0  0  0
 45 46  1  0  0  0
 54 45  1  0  0  0
 46 47  1  0  0  0
 46 49  1  0  0  0
 47 48  2  0  0  0
 49 50  1  0  0  0
 49 51  1  0  0  0
 53 52  1  0  0  0
 52 57  1  0  0  0
 53 54  1  0  0  0
 53 56  1  0  0  0
 54 55  2  0  0  0
 57 58  2  0  0  0
 57 59  1  0  0  0
 59 60  1  0  0  0
 60 61  1  0  0  0
 61 62  4  0  0  0
 61 66  4  0  0  0
 62 63  4  0  0  0
 63 64  4  0  0  0
 64 65  4  0  0  0
 65 66  4  0  0  0
  4 67  1  0  0  0
  4 68  1  0  0  0
  6 69  1  0  0  0
  7 70  1  0  0  0
  8 71  1  0  0  0
  9 72  1  0  0  0
 10 73  1  0  0  0
 11 74  1  0  0  0
 12 75  1  0  0  0
 15 76  1  0  0  0
 15 77  1  0  0  0
 15 78  1  0  0  0
 16 79  1  0  0  0
 17 80  1  0  0  0
 20 81  1  0  0  0
 21 82  1  0  0  0
 21 83  1  0  0  0
 21 84  1  0  0  0
 22 85  1  0  0  0
 22 86  1  0  0  0
 22 87  1  0  0  0
 23 88  1  0  0  0
 24 89  1  0  0  0
 25 90  1  0  0  0
 26 91  1  0  0  0
 27 92  1  0  0  0
 27 93  1  0  0  0
 29 94  1  0  0  0
 30 95  1  0  0  0
 31 96  1  0  0  0
 32 97  1  0  0  0
 33 98  1  0  0  0
 34 99  1  0  0  0
 35100  1  0  0  0
 36101  1  0  0  0
 37102  1  0  0  0
 38103  1  0  0  0
 38104  1  0  0  0
 40105  1  0  0  0
 41106  1  0  0  0
 42107  1  0  0  0
 43108  1  0  0  0
 44109  1  0  0  0
 45110  1  0  0  0
 46111  1  0  0  0
 49112  1  0  0  0
 50113  1  0  0  0
 50114  1  0  0  0
 50115  1  0  0  0
 51116  1  0  0  0
 51117  1  0  0  0
 51118  1  0  0  0
 52119  1  0  0  0
 53120  1  0  0  0
 56121  1  0  0  0
 56122  1  0  0  0
 56123  1  0  0  0
 60124  1  0  0  0
 60125  1  0  0  0
 62126  1  0  0  0
 63127  1  0  0  0
 64128  1  0  0  0
 65129  1  0  0  0
 66130  1  0  0  0
M  END
$$$$
