2n06_ligand
  -I-interpret- 

 74 78  0  0  0  0  0  0  0  0999 V2000
    2.5710   10.6390  -12.5900 N   0  0  0  0  0
   -0.7810   16.2800  -11.9470 C   0  0  0  0  0
   -1.1310   17.4320  -12.1310 O   0  0  0  0  0
   -1.7310   15.3390  -11.8490 N   0  0  0  0  0
   -1.4470   13.9120  -11.6680 C   0  0  0  0  0
   -0.0910   13.5140  -12.2810 C   0  0  0  0  0
    1.0160   14.3980  -11.8480 N   0  0  0  0  0
    0.6830   15.8560  -11.8180 C   0  0  0  0  0
    2.2430   13.9770  -11.4330 C   0  0  0  0  0
    2.8850   14.6720  -10.6650 O   0  0  0  0  0
    2.7160   12.7700  -11.8170 N   0  0  0  0  0
    2.4210   11.8770  -12.8850 C   0  0  0  0  0
    3.1310   10.4820  -11.2240 C   0  0  0  0  0
    3.4300   11.9610  -10.8160 C   0  0  0  0  0
    4.9310   12.2450  -10.6740 C   0  0  0  0  0
    5.7280   12.6870  -11.7360 C   0  0  0  0  0
    7.1200   12.7010  -11.6070 C   0  0  0  0  0
    7.7220   12.2350  -10.4370 C   0  0  0  0  0
    9.4440   12.1190  -10.3400 Cl  0  0  0  0  0
    6.9330   11.7810   -9.3820 C   0  0  0  0  0
    5.5540   11.8160   -9.5040 C   0  0  0  0  0
    4.3470    9.5490  -11.1110 C   0  0  0  0  0
    5.4060    9.6490  -12.0200 C   0  0  0  0  0
    6.6530    9.1120  -11.7170 C   0  0  0  0  0
    6.8320    8.4130  -10.5270 C   0  0  0  0  0
    5.7550    8.1840   -9.6870 C   0  0  0  0  0
    5.9490    7.4560   -8.5360 O   0  0  0  0  0
    4.5220    8.7590   -9.9690 C   0  0  0  0  0
    1.9790   12.2940  -14.2600 C   0  0  0  0  0
    1.3160   11.3320  -15.0400 C   0  0  0  0  0
    0.8160   11.6360  -16.3040 C   0  0  0  0  0
    0.9640   12.9190  -16.8220 C   0  0  0  0  0
    1.6410   13.8750  -16.0790 C   0  0  0  0  0
    2.1760   13.5690  -14.8270 C   0  0  0  0  0
    2.8960   14.5560  -14.1870 O   0  0  0  0  0
    4.2530   14.8900  -14.5720 C   0  0  0  0  0
    4.2850   15.7020  -15.8810 C   0  0  0  0  0
    4.8550   15.7170  -13.4220 C   0  0  0  0  0
    0.4690   13.2890  -18.0590 O   0  0  0  0  0
   -0.3990   12.4370  -18.8440 C   0  0  0  0  0
    5.2490    6.2020   -8.3730 C   0  0  0  0  0
   -2.7064   15.6324  -11.9034 H   0  0  0  0  0
   -2.2292   13.3416  -12.1690 H   0  0  0  0  0
   -1.4132   13.7032  -10.5987 H   0  0  0  0  0
   -0.1780   13.5941  -13.3646 H   0  0  0  0  0
    0.1409   12.5018  -11.9498 H   0  0  0  0  0
    0.9894   16.1955  -10.8286 H   0  0  0  0  0
    1.1772   16.2768  -12.6937 H   0  0  0  0  0
    2.4383    9.9729  -10.5539 H   0  0  0  0  0
    3.0743   12.2101   -9.8163 H   0  0  0  0  0
    5.2634   13.0204  -12.6639 H   0  0  0  0  0
    7.7373   13.0771  -12.4228 H   0  0  0  0  0
    7.3961   11.4025   -8.4708 H   0  0  0  0  0
    4.9391   11.4992   -8.6616 H   0  0  0  0  0
    5.2525   10.1524  -12.9745 H   0  0  0  0  0
    7.4861    9.2381  -12.4085 H   0  0  0  0  0
    7.8215    8.0451  -10.2556 H   0  0  0  0  0
    3.6824    8.5932   -9.2940 H   0  0  0  0  0
    1.1898   10.3233  -14.6466 H   0  0  0  0  0
    0.3084   10.8682  -16.8879 H   0  0  0  0  0
    1.7570   14.8820  -16.4798 H   0  0  0  0  0
    4.8253   13.9796  -14.7502 H   0  0  0  0  0
    3.8329   15.1164  -16.6815 H   0  0  0  0  0
    3.7261   16.6281  -15.7463 H   0  0  0  0  0
    5.3186   15.9340  -16.1380 H   0  0  0  0  0
    4.2617   16.6197  -13.2760 H   0  0  0  0  0
    4.8479   15.1241  -12.5074 H   0  0  0  0  0
    5.8802   15.9908  -13.6710 H   0  0  0  0  0
    0.1157   11.5022  -19.0662 H   0  0  0  0  0
   -1.3077   12.2276  -18.2796 H   0  0  0  0  0
   -0.6563   12.9419  -19.7751 H   0  0  0  0  0
    4.1742    6.3803   -8.4063 H   0  0  0  0  0
    5.5310    5.5227   -9.1774 H   0  0  0  0  0
    5.5158    5.7606   -7.4127 H   0  0  0  0  0
 12  1  2  0  0  0
  1 13  1  0  0  0
  2  3  2  0  0  0
  2  4  1  0  0  0
  8  2  1  0  0  0
  5  4  1  0  0  0
  6  5  1  0  0  0
  7  6  1  0  0  0
  7  8  1  0  0  0
  9  7  1  0  0  0
  9 10  2  0  0  0
 11  9  1  0  0  0
 11 12  1  0  0  0
 11 14  1  0  0  0
 12 29  1  0  0  0
 13 14  1  0  0  0
 13 22  1  0  0  0
 14 15  1  0  0  0
 15 16  4  0  0  0
 15 21  4  0  0  0
 16 17  4  0  0  0
 17 18  4  0  0  0
 18 19  1  0  0  0
 18 20  4  0  0  0
 20 21  4  0  0  0
 22 23  4  0  0  0
 22 28  4  0  0  0
 23 24  4  0  0  0
 24 25  4  0  0  0
 25 26  4  0  0  0
 26 27  1  0  0  0
 26 28  4  0  0  0
 27 41  1  0  0  0
 29 30  4  0  0  0
 29 34  4  0  0  0
 30 31  4  0  0  0
 31 32  4  0  0  0
 32 33  4  0  0  0
 32 39  1  0  0  0
 33 34  4  0  0  0
 34 35  1  0  0  0
 35 36  1  0  0  0
 36 37  1  0  0  0
 36 38  1  0  0  0
 39 40  1  0  0  0
  4 42  1  0  0  0
  5 43  1  0  0  0
  5 44  1  0  0  0
  6 45  1  0  0  0
  6 46  1  0  0  0
  8 47  1  0  0  0
  8 48  1  0  0  0
 13 49  1  0  0  0
 14 50  1  0  0  0
 16 51  1  0  0  0
 17 52  1  0  0  0
 20 53  1  0  0  0
 21 54  1  0  0  0
 23 55  1  0  0  0
 24 56  1  0  0  0
 25 57  1  0  0  0
 28 58  1  0  0  0
 30 59  1  0  0  0
 31 60  1  0  0  0
 33 61  1  0  0  0
 36 62  1  0  0  0
 37 63  1  0  0  0
 37 64  1  0  0  0
 37 65  1  0  0  0
 38 66  1  0  0  0
 38 67  1  0  0  0
 38 68  1  0  0  0
 40 69  1  0  0  0
 40 70  1  0  0  0
 40 71  1  0  0  0
 41 72  1  0  0  0
 41 73  1  0  0  0
 41 74  1  0  0  0
M  END
$$$$
