3zvy_ligand
  -I-interpret- 

 90 89  0  0  0  0  0  0  0  0999 V2000
   12.8870   13.2930  141.5090 N   0  3  0  0  0
   13.0730   12.6950  142.8200 C   0  0  0  0  0
   13.0680   13.7680  143.9100 C   0  0  0  0  0
   13.4090   14.9230  143.6690 O   0  0  0  0  0
   14.3670   11.9130  142.8570 C   0  0  0  0  0
   12.6670   13.3750  145.1080 N   0  0  0  0  0
   12.6840   14.2630  146.2670 C   0  0  0  0  0
   14.1120   14.3770  146.8180 C   0  0  0  0  0
   14.8100   13.3690  146.9490 O   0  0  0  0  0
   11.7420   13.6910  147.3290 C   0  0  0  0  0
   11.3820   14.6140  148.4840 C   0  0  0  0  0
   10.1600   14.0650  149.2370 C   0  0  0  0  0
   10.5190   13.1000  150.2780 N   0  0  0  0  0
   10.7400   11.8040  150.0700 C   0  0  0  0  0
   10.6490   11.2940  148.8500 N   0  0  0  0  0
   11.0600   11.0120  151.0860 N   0  0  0  0  0
   14.5490   15.5990  147.1210 N   0  0  0  0  0
   15.8400   15.8160  147.7710 C   0  0  0  0  0
   15.6430   16.3740  149.1800 C   0  0  0  0  0
   14.5760   16.9010  149.5110 O   0  0  0  0  0
   16.7330   16.7970  146.9780 C   0  0  0  0  0
   16.0130   18.0120  146.7320 O   0  0  0  0  0
   17.1530   16.1950  145.6500 C   0  0  0  0  0
   16.6520   16.3290  150.0070 N   0  0  0  0  0
   16.5540   16.9530  151.3030 C   0  0  0  0  0
   16.4080   18.4610  151.1630 C   0  0  0  0  0
   15.7220   19.0390  151.9180 O   0  0  0  0  0
   17.7370   16.5610  152.1610 C   0  0  0  0  0
   17.5870   16.8760  153.5760 C   0  0  0  0  0
   18.7180   16.3800  154.3080 C   0  0  0  0  0
   18.4540   15.0120  154.8700 C   0  0  0  0  0
   19.7120   14.4990  155.4110 N   0  3  0  0  0
   17.1010   19.0320  150.1930 N   0  0  0  0  0
   16.9670   20.3360  149.4810 C   0  0  0  0  0
   17.5850   21.6200  149.9790 C   0  0  0  0  0
   17.7530   21.8110  151.1480 O   0  0  0  0  0
   15.5900   20.6210  148.8650 C   0  0  0  0  0
   15.3820   22.1090  148.4930 C   0  0  0  0  0
   15.2900   22.4290  147.0010 C   0  0  0  0  0
   16.2270   22.1990  146.2330 O   0  0  0  0  0
   14.1600   22.9950  146.5950 N   0  0  0  0  0
   17.9294   22.5046  149.1504 O   0  0  0  0  0
   12.0120   13.8171  141.4967 H   0  0  0  0  0
   13.6646   13.9225  141.3104 H   0  0  0  0  0
   12.8543   12.5578  140.8028 H   0  0  0  0  0
   12.2441   12.0129  143.0091 H   0  0  0  0  0
   15.2046   12.5910  142.6928 H   0  0  0  0  0
   14.4720   11.4326  143.8298 H   0  0  0  0  0
   14.3537   11.1538  142.0750 H   0  0  0  0  0
   12.3343   12.4181  145.2261 H   0  0  0  0  0
   12.3506   15.2609  145.9821 H   0  0  0  0  0
   12.2648   12.8431  147.7715 H   0  0  0  0  0
   10.8062   13.4704  146.8155 H   0  0  0  0  0
   11.1458   15.6031  148.0915 H   0  0  0  0  0
   12.2270   14.6755  149.1698 H   0  0  0  0  0
    9.5250   13.5537  148.5135 H   0  0  0  0  0
    9.6610   14.9053  149.7196 H   0  0  0  0  0
   10.6062   13.4465  151.2334 H   0  0  0  0  0
   10.4081   11.8957  148.0624 H   0  0  0  0  0
   11.2335   10.0200  150.9243 H   0  0  0  0  0
   11.1324   11.3954  152.0284 H   0  0  0  0  0
   13.9667   16.4048  146.8931 H   0  0  0  0  0
   16.3350   14.8458  147.8118 H   0  0  0  0  0
   17.6248   17.0012  147.5705 H   0  0  0  0  0
   16.5704   18.6188  146.2394 H   0  0  0  0  0
   17.7132   15.2774  145.8295 H   0  0  0  0  0
   16.2660   15.9707  145.0575 H   0  0  0  0  0
   17.7804   16.9060  145.1124 H   0  0  0  0  0
   17.5115   15.8514  149.7358 H   0  0  0  0  0
   15.6561   16.5966  151.8078 H   0  0  0  0  0
   18.5959   17.1252  151.7976 H   0  0  0  0  0
   17.8425   15.4788  152.0842 H   0  0  0  0  0
   16.6790   16.4070  153.9550 H   0  0  0  0  0
   17.5241   17.9572  153.6995 H   0  0  0  0  0
   18.9186   17.0603  155.1357 H   0  0  0  0  0
   19.5677   16.3157  153.6283 H   0  0  0  0  0
   18.0797   14.3489  154.0901 H   0  0  0  0  0
   17.6990   15.0650  155.6544 H   0  0  0  0  0
   19.5592   13.5685  155.7998 H   0  0  0  0  0
   20.4056   14.4474  154.6649 H   0  0  0  0  0
   20.0456   15.1246  156.1443 H   0  0  0  0  0
   17.8849   18.4676  149.8655 H   0  0  0  0  0
   17.7006   20.0370  148.7323 H   0  0  0  0  0
   14.8363   20.3585  149.6073 H   0  0  0  0  0
   15.5125   20.0380  147.9473 H   0  0  0  0  0
   16.2593   22.6395  148.8632 H   0  0  0  0  0
   14.4238   22.3982  148.9247 H   0  0  0  0  0
   14.0436   23.2564  145.6160 H   0  0  0  0  0
   13.4081   23.1685  147.2621 H   0  0  0  0  0
   17.7306   22.2031  148.2609 H   0  0  0  0  0
  1  2  1  0  0  0
  2  3  1  0  0  0
  2  5  1  0  0  0
  3  4  2  0  0  0
  3  6  1  0  0  0
  6  7  1  0  0  0
  7  8  1  0  0  0
  7 10  1  0  0  0
  8  9  2  0  0  0
  8 17  1  0  0  0
 10 11  1  0  0  0
 11 12  1  0  0  0
 12 13  1  0  0  0
 13 14  1  0  0  0
 14 15  2  0  0  0
 14 16  1  0  0  0
 17 18  1  0  0  0
 18 19  1  0  0  0
 18 21  1  0  0  0
 19 20  2  0  0  0
 19 24  1  0  0  0
 21 22  1  0  0  0
 21 23  1  0  0  0
 24 25  1  0  0  0
 25 26  1  0  0  0
 25 28  1  0  0  0
 26 27  2  0  0  0
 26 33  1  0  0  0
 28 29  1  0  0  0
 29 30  1  0  0  0
 30 31  1  0  0  0
 31 32  1  0  0  0
 33 34  1  0  0  0
 34 35  1  0  0  0
 34 37  1  0  0  0
 35 36  2  0  0  0
 37 38  1  0  0  0
 38 39  1  0  0  0
 39 40  2  0  0  0
 39 41  1  0  0  0
 35 42  1  0  0  0
  1 43  1  0  0  0
  1 44  1  0  0  0
  1 45  1  0  0  0
  2 46  1  0  0  0
  5 47  1  0  0  0
  5 48  1  0  0  0
  5 49  1  0  0  0
  6 50  1  0  0  0
  7 51  1  0  0  0
 10 52  1  0  0  0
 10 53  1  0  0  0
 11 54  1  0  0  0
 11 55  1  0  0  0
 12 56  1  0  0  0
 12 57  1  0  0  0
 13 58  1  0  0  0
 15 59  1  0  0  0
 16 60  1  0  0  0
 16 61  1  0  0  0
 17 62  1  0  0  0
 18 63  1  0  0  0
 21 64  1  0  0  0
 22 65  1  0  0  0
 23 66  1  0  0  0
 23 67  1  0  0  0
 23 68  1  0  0  0
 24 69  1  0  0  0
 25 70  1  0  0  0
 28 71  1  0  0  0
 28 72  1  0  0  0
 29 73  1  0  0  0
 29 74  1  0  0  0
 30 75  1  0  0  0
 30 76  1  0  0  0
 31 77  1  0  0  0
 31 78  1  0  0  0
 32 79  1  0  0  0
 32 80  1  0  0  0
 32 81  1  0  0  0
 33 82  1  0  0  0
 34 83  1  0  0  0
 37 84  1  0  0  0
 37 85  1  0  0  0
 38 86  1  0  0  0
 38 87  1  0  0  0
 41 88  1  0  0  0
 41 89  1  0  0  0
 42 90  1  0  0  0
M  END
$$$$
