### 
### Created by X-TOOL on Mon Sep 10 21:13:06 2018
### 

@<TRIPOS>MOLECULE
3zvy_ligand
   90    89     1     0     0
SMALL
GAST_HUCK


@<TRIPOS>ATOM
      1 N          12.8870   13.2930  141.5090 N.4       1 ALA         0.2377
      2 CA         13.0730   12.6950  142.8200 C.3       1 ALA         0.0621
      3 C          13.0680   13.7680  143.9100 C.2       1 ALA         0.2264
      4 O          13.4090   14.9230  143.6690 O.2       1 ALA        -0.3907
      5 CB         14.3670   11.9130  142.8570 C.3       1 ALA        -0.0040
      6 N          12.6670   13.3750  145.1080 N.am      1 ARG        -0.2610
      7 CA         12.6840   14.2630  146.2670 C.3       1 ARG         0.1312
      8 C          14.1120   14.3770  146.8180 C.2       1 ARG         0.2040
      9 O          14.8100   13.3690  146.9490 O.2       1 ARG        -0.3944
     10 CB         11.7420   13.6910  147.3290 C.3       1 ARG        -0.0092
     11 CG         11.3820   14.6140  148.4840 C.3       1 ARG        -0.0156
     12 CD         10.1600   14.0650  149.2370 C.3       1 ARG         0.0627
     13 NE         10.5190   13.1000  150.2780 N.pl3     1 ARG        -0.2723
     14 CZ         10.7400   11.8040  150.0700 C.cat     1 ARG         0.2882
     15 NH1        10.6490   11.2940  148.8500 N.pl3     1 ARG        -0.2849
     16 NH2        11.0600   11.0120  151.0860 N.pl3     1 ARG        -0.2849
     17 N          14.5490   15.5990  147.1210 N.am      1 THR        -0.2613
     18 CA         15.8400   15.8160  147.7710 C.3       1 THR         0.1565
     19 C          15.6430   16.3740  149.1800 C.2       1 THR         0.2065
     20 O          14.5760   16.9010  149.5110 O.2       1 THR        -0.3943
     21 CB         16.7330   16.7970  146.9780 C.3       1 THR         0.0924
     22 OG1        16.0130   18.0120  146.7320 O.3       1 THR        -0.3874
     23 CG2        17.1530   16.1950  145.6500 C.3       1 THR        -0.0346
     24 N          16.6520   16.3290  150.0070 N.am      1 LYS        -0.2637
     25 CA         16.5540   16.9530  151.3030 C.3       1 LYS         0.1309
     26 C          16.4080   18.4610  151.1630 C.2       1 LYS         0.2033
     27 O          15.7220   19.0390  151.9180 O.2       1 LYS        -0.3944
     28 CB         17.7370   16.5610  152.1610 C.3       1 LYS        -0.0122
     29 CG         17.5870   16.8760  153.5760 C.3       1 LYS        -0.0440
     30 CD         18.7180   16.3800  154.3080 C.3       1 LYS        -0.0124
     31 CE         18.4540   15.0120  154.8700 C.3       1 LYS        -0.0354
     32 NZ         19.7120   14.4990  155.4110 N.4       1 LYS         0.2185
     33 N          17.1010   19.0320  150.1930 N.am      1 GLN        -0.2693
     34 CA         16.9670   20.3360  149.4810 C.3       1 GLN         0.0964
     35 C          17.5850   21.6200  149.9790 C.2       1 GLN         0.0602
     36 O          17.7530   21.8110  151.1480 O.co2     1 GLN        -0.5666
     37 CB         15.5900   20.6210  148.8650 C.3       1 GLN        -0.0010
     38 CG         15.3820   22.1090  148.4930 C.3       1 GLN         0.0407
     39 CD         15.2900   22.4290  147.0010 C.2       1 GLN         0.1737
     40 OE1        16.2270   22.1990  146.2330 O.2       1 GLN        -0.3973
     41 NE2        14.1600   22.9950  146.5950 N.am      1 GLN        -0.3009
     42 H          12.0120   13.8171  141.4967 H         1 ALA         0.2015
     43 H          13.6646   13.9225  141.3104 H         1 ALA         0.2015
     44 H          12.8543   12.5578  140.8028 H         1 ALA         0.2015
     45 H          12.2441   12.0129  143.0091 H         1 ALA         0.1095
     46 H          15.2046   12.5910  142.6928 H         1 ALA         0.0310
     47 H          14.4720   11.4326  143.8298 H         1 ALA         0.0310
     48 H          14.3537   11.1538  142.0750 H         1 ALA         0.0310
     49 H          12.3343   12.4181  145.2261 H         1 ARG         0.1884
     50 H          12.3506   15.2609  145.9821 H         1 ARG         0.0800
     51 H          12.2648   12.8431  147.7715 H         1 ARG         0.0313
     52 H          10.8062   13.4704  146.8155 H         1 ARG         0.0313
     53 H          11.1458   15.6031  148.0915 H         1 ARG         0.0301
     54 H          12.2270   14.6755  149.1698 H         1 ARG         0.0301
     55 H           9.5250   13.5537  148.5135 H         1 ARG         0.0689
     56 H           9.6610   14.9053  149.7196 H         1 ARG         0.0689
     57 H          10.6062   13.4465  151.2334 H         1 ARG         0.2642
     58 H          10.4081   11.8957  148.0624 H         1 ARG         0.2615
     59 H          10.8198   10.2998  148.6988 H         1 ARG         0.2615
     60 H          11.1368   11.3963  152.0277 H         1 ARG         0.2615
     61 H          11.2291   10.0191  150.9250 H         1 ARG         0.2615
     62 H          13.9667   16.4048  146.8931 H         1 THR         0.1884
     63 H          16.3350   14.8458  147.8118 H         1 THR         0.0826
     64 H          17.6248   17.0012  147.5705 H         1 THR         0.0639
     65 H          16.5704   18.6188  146.2394 H         1 THR         0.2101
     66 H          17.7132   15.2774  145.8295 H         1 THR         0.0257
     67 H          16.2660   15.9707  145.0575 H         1 THR         0.0257
     68 H          17.7804   16.9060  145.1124 H         1 THR         0.0257
     69 H          17.5115   15.8514  149.7358 H         1 LYS         0.1883
     70 H          15.6561   16.5966  151.8078 H         1 LYS         0.0800
     71 H          18.5959   17.1252  151.7976 H         1 LYS         0.0312
     72 H          17.8425   15.4788  152.0842 H         1 LYS         0.0312
     73 H          16.6790   16.4070  153.9550 H         1 LYS         0.0269
     74 H          17.5241   17.9572  153.6995 H         1 LYS         0.0269
     75 H          18.9186   17.0603  155.1357 H         1 LYS         0.0317
     76 H          19.5677   16.3157  153.6283 H         1 LYS         0.0317
     77 H          18.0797   14.3489  154.0901 H         1 LYS         0.0813
     78 H          17.6990   15.0650  155.6544 H         1 LYS         0.0813
     79 H          19.5592   13.5685  155.7998 H         1 LYS         0.1994
     80 H          20.4056   14.4474  154.6649 H         1 LYS         0.1994
     81 H          20.0456   15.1246  156.1443 H         1 LYS         0.1994
     82 H          17.8849   18.4676  149.8655 H         1 GLN         0.1875
     83 H          17.7006   20.0370  148.7323 H         1 GLN         0.0727
     84 O          17.9294   22.5046  149.1504 O.co2     1 GLN        -0.5666
     85 H          14.8363   20.3585  149.6073 H         1 GLN         0.0330
     86 H          15.5125   20.0380  147.9473 H         1 GLN         0.0330
     87 H          16.2593   22.6395  148.8632 H         1 GLN         0.0504
     88 H          14.4238   22.3982  148.9247 H         1 GLN         0.0504
     89 H          14.0436   23.2564  145.6160 H         1 GLN         0.1814
     90 H          13.4081   23.1685  147.2621 H         1 GLN         0.1814
@<TRIPOS>BOND
     1    1    2 1  
     2    2    3 1  
     3    2    5 1  
     4    3    4 2  
     5    3    6 am 
     6    6    7 1  
     7    7    8 1  
     8    7   10 1  
     9    8    9 2  
    10    8   17 am 
    11   10   11 1  
    12   11   12 1  
    13   12   13 1  
    14   13   14 ar 
    15   14   15 ar 
    16   14   16 ar 
    17   17   18 1  
    18   18   19 1  
    19   18   21 1  
    20   19   20 2  
    21   19   24 am 
    22   21   22 1  
    23   21   23 1  
    24   24   25 1  
    25   25   26 1  
    26   25   28 1  
    27   26   27 2  
    28   26   33 am 
    29   28   29 1  
    30   29   30 1  
    31   30   31 1  
    32   31   32 1  
    33   33   34 1  
    34   34   35 1  
    35   34   37 1  
    36   35   36 ar 
    37   37   38 1  
    38   38   39 1  
    39   39   40 2  
    40   39   41 am 
    41    1   42 1  
    42    1   43 1  
    43    1   44 1  
    44    2   45 1  
    45    5   46 1  
    46    5   47 1  
    47    5   48 1  
    48    6   49 1  
    49    7   50 1  
    50   10   51 1  
    51   10   52 1  
    52   11   53 1  
    53   11   54 1  
    54   12   55 1  
    55   12   56 1  
    56   13   57 1  
    57   15   58 1  
    58   15   59 1  
    59   16   60 1  
    60   16   61 1  
    61   17   62 1  
    62   18   63 1  
    63   21   64 1  
    64   22   65 1  
    65   23   66 1  
    66   23   67 1  
    67   23   68 1  
    68   24   69 1  
    69   25   70 1  
    70   28   71 1  
    71   28   72 1  
    72   29   73 1  
    73   29   74 1  
    74   30   75 1  
    75   30   76 1  
    76   31   77 1  
    77   31   78 1  
    78   32   79 1  
    79   32   80 1  
    80   32   81 1  
    81   33   82 1  
    82   34   83 1  
    83   35   84 ar 
    84   37   85 1  
    85   37   86 1  
    86   38   87 1  
    87   38   88 1  
    88   41   89 1  
    89   41   90 1  
@<TRIPOS>SUBSTRUCTURE
     1 ALA         1

