2bza_ligand
  -I-interpret- 

 18 18  0  0  0  0  0  0  0  0999 V2000
  -11.3430   28.6040   41.9220 N   0  3  0  0  0
  -12.4460   27.8940   42.1280 C   0  0  0  0  0
  -12.8990   27.9750   43.4640 C   0  0  0  0  0
  -14.1950   28.4740   43.7970 C   0  0  0  0  0
  -14.6620   28.5600   45.1270 C   0  0  0  0  0
  -13.8430   28.1460   46.1740 C   0  0  0  0  0
  -12.5590   27.6490   45.8890 C   0  0  0  0  0
  -12.0900   27.5620   44.5580 C   0  0  0  0  0
  -11.0584   28.5126   40.9468 H   0  0  0  0  0
  -11.5270   29.5848   42.1333 H   0  0  0  0  0
  -10.5992   28.2581   42.5283 H   0  0  0  0  0
  -12.2195   26.8499   41.9121 H   0  0  0  0  0
  -13.2285   28.2928   41.4825 H   0  0  0  0  0
  -14.8512   28.8022   42.9909 H   0  0  0  0  0
  -15.6593   28.9488   45.3329 H   0  0  0  0  0
  -14.1937   28.2066   47.2043 H   0  0  0  0  0
  -11.9151   27.3257   46.7069 H   0  0  0  0  0
  -11.0905   27.1714   44.3671 H   0  0  0  0  0
  1  2  1  0  0  0
  2  3  1  0  0  0
  3  8  4  0  0  0
  3  4  4  0  0  0
  4  5  4  0  0  0
  5  6  4  0  0  0
  6  7  4  0  0  0
  7  8  4  0  0  0
  1  9  1  0  0  0
  1 10  1  0  0  0
  1 11  1  0  0  0
  2 12  1  0  0  0
  2 13  1  0  0  0
  4 14  1  0  0  0
  5 15  1  0  0  0
  6 16  1  0  0  0
  7 17  1  0  0  0
  8 18  1  0  0  0
M  END
$$$$
