5org_ligand
  -I-interpret- 

 36 35  0  0  0  0  0  0  0  0999 V2000
  -14.3800  -27.6770   26.0950 O   0  0  0  0  0
  -15.3270  -26.8830   25.8000 C   0  0  0  0  0
  -16.0230  -27.1240   24.5330 C   0  0  0  0  0
  -16.8040  -28.4490   24.6310 C   0  0  0  0  0
  -16.9010  -26.0430   24.1110 N   0  3  0  0  0
  -16.2550  -24.8030   23.6250 C   0  0  0  0  0
  -17.3160  -23.7670   23.3810 C   0  0  0  0  0
  -16.9810  -22.5450   23.2640 O   0  0  0  0  0
  -18.5280  -24.1010   23.2650 O   0  0  0  0  0
  -15.3900  -24.9460   22.3610 C   0  0  0  0  0
  -16.1620  -25.6040   21.1740 C   0  0  0  0  0
  -15.6500  -25.2720   19.7760 C   0  0  0  0  0
  -16.3090  -26.2400   18.9600 N   0  0  0  0  0
  -15.9520  -26.5410   17.6600 C   0  0  0  0  0
  -16.6710  -27.4130   16.9890 N   0  0  0  0  0
  -14.9090  -25.9500   17.1620 N   0  0  0  0  0
  -15.6520  -25.9470   26.5850 O   0  0  0  0  0
  -14.2720  -28.3202   25.3905 H   0  0  0  0  0
  -15.2551  -27.1815   23.7616 H   0  0  0  0  0
  -17.6087  -28.3420   25.3584 H   0  0  0  0  0
  -17.2243  -28.6945   23.6557 H   0  0  0  0  0
  -16.1294  -29.2443   24.9479 H   0  0  0  0  0
  -17.4303  -25.7744   24.9405 H   0  0  0  0  0
  -17.4322  -26.4083   23.3206 H   0  0  0  0  0
  -15.5587  -24.5134   24.4120 H   0  0  0  0  0
  -16.0314  -22.4623   23.3785 H   0  0  0  0  0
  -14.5430  -25.5870   22.6058 H   0  0  0  0  0
  -15.0851  -23.9470   22.0492 H   0  0  0  0  0
  -17.1821  -25.2234   21.2243 H   0  0  0  0  0
  -16.0467  -26.6812   21.2940 H   0  0  0  0  0
  -14.5638  -25.3210   19.6992 H   0  0  0  0  0
  -15.8671  -24.2465   19.4770 H   0  0  0  0  0
  -17.0979  -26.7442   19.3647 H   0  0  0  0  0
  -16.4177  -27.6531   16.0306 H   0  0  0  0  0
  -17.4823  -27.8496   17.4267 H   0  0  0  0  0
  -14.3804  -25.2860   17.7277 H   0  0  0  0  0
  1  2  1  0  0  0
  2  3  1  0  0  0
  2 17  2  0  0  0
  3  4  1  0  0  0
  3  5  1  0  0  0
  5  6  1  0  0  0
  6  7  1  0  0  0
  6 10  1  0  0  0
  7  8  1  0  0  0
  7  9  2  0  0  0
 10 11  1  0  0  0
 11 12  1  0  0  0
 12 13  1  0  0  0
 13 14  1  0  0  0
 14 15  1  0  0  0
 14 16  2  0  0  0
  1 18  1  0  0  0
  3 19  1  0  0  0
  4 20  1  0  0  0
  4 21  1  0  0  0
  4 22  1  0  0  0
  5 23  1  0  0  0
  5 24  1  0  0  0
  6 25  1  0  0  0
  8 26  1  0  0  0
 10 27  1  0  0  0
 10 28  1  0  0  0
 11 29  1  0  0  0
 11 30  1  0  0  0
 12 31  1  0  0  0
 12 32  1  0  0  0
 13 33  1  0  0  0
 15 34  1  0  0  0
 15 35  1  0  0  0
 16 36  1  0  0  0
M  END
$$$$
