### 
### Created by X-TOOL on Mon Sep 10 21:13:11 2018
### 

@<TRIPOS>MOLECULE
3u3f_ligand
  174   173     1     0     0
SMALL
GAST_HUCK


@<TRIPOS>ATOM
      1 N          -7.9210   -1.0240   42.6220 N.4       1 SER         0.2377
      2 CA         -8.7440    0.1510   42.8940 C.3       1 SER         0.0621
      3 C         -10.2070   -0.0560   42.5270 C.2       1 SER         0.2264
      4 O         -11.0410   -0.2030   43.4120 O.2       1 SER        -0.3907
      5 CB         -8.1910    1.3820   42.1880 C.3       1 SER        -0.0040
      6 N         -10.5020   -0.0720   41.2230 N.am      1 ALA        -0.2613
      7 CA        -11.8800   -0.0760   40.7020 C.3       1 ALA         0.1283
      8 C         -12.8630   -0.9770   41.4590 C.2       1 ALA         0.2037
      9 O         -13.9640   -0.5500   41.8120 O.2       1 ALA        -0.3944
     10 CB        -11.8850   -0.4080   39.2260 C.3       1 ALA        -0.0244
     11 N         -12.4570   -2.2210   41.6970 N.am      1 THR        -0.2613
     12 CA        -13.2440   -3.1580   42.4950 C.3       1 THR         0.1565
     13 C         -13.7080   -2.5050   43.8010 C.2       1 THR         0.2065
     14 O         -14.8860   -2.6110   44.1510 O.2       1 THR        -0.3943
     15 CB        -12.4300   -4.4080   42.8420 C.3       1 THR         0.0924
     16 OG1       -11.2160   -4.0060   43.4890 O.3       1 THR        -0.3874
     17 CG2       -12.0410   -5.1720   41.5450 C.3       1 THR        -0.0346
     18 N         -12.8120   -1.7830   44.4830 N.am      1 ARG        -0.2639
     19 CA        -13.1150   -1.2020   45.7950 C.3       1 ARG         0.1282
     20 C         -14.3830   -0.3680   45.7910 C.2       1 ARG         0.2036
     21 O         -15.3110   -0.6980   46.5020 O.2       1 ARG        -0.3944
     22 CB        -11.9630   -0.3970   46.2920 C.3       1 ARG        -0.0244
     23 N         -14.4630    0.6810   44.9790 N.am      1 GLU        -0.2640
     24 CA        -15.6630    1.5150   44.9390 C.3       1 GLU         0.1282
     25 C         -16.8900    0.6840   44.5390 C.2       1 GLU         0.2036
     26 O         -18.0320    1.0300   44.8740 O.2       1 GLU        -0.3944
     27 CB        -15.4580    2.6310   43.9480 C.3       1 GLU        -0.0244
     28 N         -16.6350   -0.4500   43.8850 N.am      1 LEU        -0.2637
     29 CA        -17.7010   -1.3580   43.4480 C.3       1 LEU         0.1312
     30 C         -18.2110   -2.2030   44.6110 C.2       1 LEU         0.2040
     31 O         -19.4190   -2.2800   44.8490 O.2       1 LEU        -0.3944
     32 CB        -17.2190   -2.2610   42.3010 C.3       1 LEU        -0.0101
     33 CG        -18.2250   -3.2160   41.6720 C.3       1 LEU        -0.0425
     34 CD1       -19.1240   -2.4500   40.7360 C.3       1 LEU        -0.0625
     35 CD2       -17.4990   -4.2920   40.9110 C.3       1 LEU        -0.0625
     36 N         -17.2900   -2.8470   45.3270 N.am      1 ASP        -0.2622
     37 CA        -17.6700   -3.6520   46.4840 C.3       1 ASP         0.1423
     38 C         -18.4600   -2.7960   47.4500 C.2       1 ASP         0.2056
     39 O         -19.3700   -3.2870   48.1140 O.2       1 ASP        -0.3943
     40 CB        -16.4560   -4.1820   47.2420 C.3       1 ASP         0.0406
     41 CG        -15.5500   -5.0250   46.3930 C.2       1 ASP         0.0393
     42 OD1       -15.9270   -6.1680   46.0610 O.co2     1 ASP        -0.5688
     43 OD2       -14.4360   -4.5510   46.0960 O.co2     1 ASP        -0.5688
     44 N         -18.0690   -1.5270   47.5570 N.am      1 GLU        -0.2639
     45 CA        -18.7900   -0.5550   48.3610 C.3       1 GLU         0.1282
     46 C         -20.1780   -0.3670   47.7720 C.2       1 GLU         0.2036
     47 O         -21.1840   -0.4100   48.4860 O.2       1 GLU        -0.3944
     48 CB        -18.0420    0.7670   48.3860 C.3       1 GLU        -0.0244
     49 N         -20.2260   -0.1630   46.4600 N.am      1 LEU        -0.2637
     50 CA        -21.4920   -0.0490   45.7620 C.3       1 LEU         0.1312
     51 C         -22.3460   -1.2850   46.0390 C.2       1 LEU         0.2039
     52 O         -23.5640   -1.1970   46.1510 O.2       1 LEU        -0.3944
     53 CB        -21.2430    0.1060   44.2670 C.3       1 LEU        -0.0101
     54 CG        -21.7850    1.3650   43.6060 C.3       1 LEU        -0.0425
     55 CD1       -21.3310    1.4310   42.1620 C.3       1 LEU        -0.0625
     56 CD2       -23.2890    1.3810   43.6820 C.3       1 LEU        -0.0625
     57 N         -21.6750   -2.4270   46.1770 N.am      1 MET        -0.2637
     58 CA        -22.3020   -3.7390   46.3420 C.3       1 MET         0.1317
     59 C         -22.9620   -3.8910   47.7010 C.2       1 MET         0.2039
     60 O         -24.0920   -4.3600   47.8020 O.2       1 MET        -0.3944
     61 CB        -21.2360   -4.8310   46.2090 C.3       1 MET        -0.0034
     62 CG        -21.6650   -6.0480   45.4120 C.3       1 MET        -0.0024
     63 SD        -21.7060   -5.6730   43.6470 S.3       1 MET        -0.1639
     64 CE        -23.1350   -6.6500   43.1540 C.3       1 MET        -0.0181
     65 N         -22.2260   -3.5110   48.7420 N.am      1 ALA        -0.2640
     66 CA        -22.7080   -3.5960   50.1100 C.3       1 ALA         0.1282
     67 C         -24.1080   -3.0040   50.2100 C.2       1 ALA         0.2037
     68 O         -25.0130   -3.6530   50.7230 O.2       1 ALA        -0.3944
     69 CB        -21.7530   -2.8830   51.0510 C.3       1 ALA        -0.0244
     70 N         -24.3070   -1.7940   49.6900 N.am      1 SER        -0.2616
     71 CA        -25.6210   -1.1440   49.8360 C.3       1 SER         0.1539
     72 C         -26.8050   -2.0780   49.4790 C.2       1 SER         0.2057
     73 O         -27.9250   -1.9030   49.9710 O.2       1 SER        -0.3943
     74 CB        -25.6990    0.2130   49.1020 C.3       1 SER         0.0843
     75 OG        -25.6660    0.0760   47.6940 O.3       1 SER        -0.3903
     76 N         -26.5390   -3.0940   48.6570 N.am      1 LEU        -0.2670
     77 CA        -27.5450   -4.1120   48.3150 C.3       1 LEU         0.1228
     78 C         -27.9880   -4.9200   49.5460 C.2       1 LEU         0.2149
     79 O         -27.6390   -6.0970   49.6980 O.co2     1 LEU        -0.4120
     80 CB        -27.0210   -5.0570   47.2190 C.3       1 LEU        -0.0132
     81 CG        -27.5710   -4.9410   45.7890 C.3       1 LEU        -0.0430
     82 CD1       -28.4340   -3.7050   45.6040 C.3       1 LEU        -0.0625
     83 CD2       -26.4360   -4.9710   44.7710 C.3       1 LEU        -0.0625
     84 H          -6.9661   -0.8329   42.8823 H         1 SER         0.2015
     85 H          -7.9637   -1.2440   41.6392 H         1 SER         0.2015
     86 H          -8.2649   -1.8062   43.1567 H         1 SER         0.2015
     87 H          -8.6995    0.3372   43.9772 H         1 SER         0.1095
     88 H          -8.8293    2.2498   42.4102 H         1 SER         0.0310
     89 H          -8.1761    1.2063   41.1022 H         1 SER         0.0310
     90 H          -7.1682    1.5790   42.5416 H         1 SER         0.0310
     91 H          -9.7475   -0.0818   40.5668 H         1 ALA         0.1884
     92 H         -12.2559    0.9523   40.8085 H         1 ALA         0.0797
     93 H         -12.9200   -0.4068   38.8534 H         1 ALA         0.0277
     94 H         -11.4412   -1.4027   39.0724 H         1 ALA         0.0277
     95 H         -11.2975    0.3441   38.6790 H         1 ALA         0.0277
     96 H         -11.5835   -2.5252   41.3169 H         1 THR         0.1884
     97 H         -14.1266   -3.4575   41.9108 H         1 THR         0.0826
     98 H         -13.0165   -5.0626   43.5035 H         1 THR         0.0639
     99 H         -10.7049   -4.7764   43.7077 H         1 THR         0.2101
    100 H         -11.4574   -6.0667   41.8076 H         1 THR         0.0257
    101 H         -11.4371   -4.5164   40.9004 H         1 THR         0.0257
    102 H         -12.9533   -5.4735   41.0094 H         1 THR         0.0257
    103 H         -11.9065   -1.6346   44.0855 H         1 ARG         0.1883
    104 H         -13.2712   -2.0355   46.4956 H         1 ARG         0.0797
    105 H         -12.2106    0.0291   47.2755 H         1 ARG         0.0277
    106 H         -11.7511    0.4167   45.5828 H         1 ARG         0.0277
    107 H         -11.0773   -1.0427   46.3846 H         1 ARG         0.0277
    108 H         -13.6895    0.9035   44.3855 H         1 GLU         0.1883
    109 H         -15.8340    1.9446   45.9371 H         1 GLU         0.0797
    110 H         -16.3587    3.2615   43.9144 H         1 GLU         0.0277
    111 H         -15.2705    2.2061   42.9509 H         1 GLU         0.0277
    112 H         -14.5952    3.2403   44.2552 H         1 GLU         0.0277
    113 H         -15.6847   -0.6894   43.6858 H         1 LEU         0.1883
    114 H         -18.5369   -0.7476   43.0756 H         1 LEU         0.0800
    115 H         -16.3895   -2.8696   42.6902 H         1 LEU         0.0315
    116 H         -16.8477   -1.6036   41.5010 H         1 LEU         0.0315
    117 H         -18.8325   -3.6784   42.4639 H         1 LEU         0.0298
    118 H         -19.8513   -3.1384   40.2808 H         1 LEU         0.0232
    119 H         -18.5179   -1.9823   39.9462 H         1 LEU         0.0232
    120 H         -19.6592   -1.6702   41.2977 H         1 LEU         0.0232
    121 H         -16.8442   -4.8485   41.5977 H         1 LEU         0.0232
    122 H         -16.8920   -3.8333   40.1165 H         1 LEU         0.0232
    123 H         -18.2300   -4.9808   40.4626 H         1 LEU         0.0232
    124 H         -16.3264   -2.7780   45.0685 H         1 ASP         0.1884
    125 H         -18.2847   -4.4982   46.1435 H         1 ASP         0.0819
    126 H         -16.8100   -4.7911   48.0868 H         1 ASP         0.0478
    127 H         -15.8807   -3.3255   47.6232 H         1 ASP         0.0478
    128 H         -17.2491   -1.2326   47.0659 H         1 GLU         0.1883
    129 H         -18.8815   -0.9323   49.3902 H         1 GLU         0.0797
    130 H         -18.5991    1.4920   48.9976 H         1 GLU         0.0277
    131 H         -17.9433    1.1519   47.3603 H         1 GLU         0.0277
    132 H         -17.0421    0.6144   48.8183 H         1 GLU         0.0277
    133 H         -19.3728   -0.0866   45.9440 H         1 LEU         0.1883
    134 H         -22.0248    0.8410   46.1280 H         1 LEU         0.0800
    135 H         -21.7008   -0.7576   43.7625 H         1 LEU         0.0315
    136 H         -20.1547    0.0892   44.1078 H         1 LEU         0.0315
    137 H         -21.3940    2.2432   44.1406 H         1 LEU         0.0298
    138 H         -21.7280    2.3440   41.6942 H         1 LEU         0.0232
    139 H         -21.7036    0.5494   41.6198 H         1 LEU         0.0232
    140 H         -20.2318    1.4476   42.1236 H         1 LEU         0.0232
    141 H         -23.6034    1.3327   44.7350 H         1 LEU         0.0232
    142 H         -23.6929    0.5141   43.1386 H         1 LEU         0.0232
    143 H         -23.6693    2.3080   43.2280 H         1 LEU         0.0232
    144 H         -20.6759   -2.3852   46.1672 H         1 MET         0.1883
    145 H         -23.0624   -3.8687   45.5578 H         1 MET         0.0800
    146 H         -20.9604   -5.1646   47.2203 H         1 MET         0.0320
    147 H         -20.3566   -4.3918   45.7153 H         1 MET         0.0320
    148 H         -22.6686   -6.3581   45.7386 H         1 MET         0.0378
    149 H         -20.9520   -6.8664   45.5907 H         1 MET         0.0378
    150 H         -23.3053   -6.5313   42.0738 H         1 MET         0.0340
    151 H         -24.0225   -6.3056   43.7051 H         1 MET         0.0340
    152 H         -22.9506   -7.7102   43.3817 H         1 MET         0.0340
    153 H         -21.3068   -3.1535   48.5768 H         1 ALA         0.1883
    154 H         -22.7558   -4.6561   50.3998 H         1 ALA         0.0797
    155 H         -22.1309   -2.9559   52.0815 H         1 ALA         0.0277
    156 H         -21.6763   -1.8242   50.7627 H         1 ALA         0.0277
    157 H         -20.7600   -3.3523   50.9906 H         1 ALA         0.0277
    158 H         -23.5679   -1.3289   49.2027 H         1 SER         0.1884
    159 H         -25.7275   -0.9167   50.9070 H         1 SER         0.0823
    160 H         -24.8453    0.8319   49.4152 H         1 SER         0.0606
    161 H         -26.6374    0.7125   49.3848 H         1 SER         0.0606
    162 H         -24.8556   -0.3479   47.4371 H         1 SER         0.2097
    163 H         -25.6243   -3.1665   48.2593 H         1 LEU         0.1876
    164 H         -28.4284   -3.5891   47.9198 H         1 LEU         0.0751
    165 O1        -28.7191   -4.3738   50.4148 O.co2     1 LEU        -0.4120
    166 H         -27.2259   -6.0833   47.5576 H         1 LEU         0.0309
    167 H         -25.9338   -4.9017   47.1565 H         1 LEU         0.0309
    168 H         -28.2083   -5.8189   45.6071 H         1 LEU         0.0297
    169 H         -28.8026   -3.6669   44.5683 H         1 LEU         0.0232
    170 H         -27.8363   -2.8057   45.8138 H         1 LEU         0.0232
    171 H         -29.2882   -3.7473   46.2958 H         1 LEU         0.0232
    172 H         -25.8277   -5.8742   44.9266 H         1 LEU         0.0232
    173 H         -25.8060   -4.0783   44.8978 H         1 LEU         0.0232
    174 H         -26.8556   -4.9823   43.7542 H         1 LEU         0.0232
@<TRIPOS>BOND
     1    1    2 1  
     2    2    3 1  
     3    2    5 1  
     4    3    4 2  
     5    3    6 am 
     6    6    7 1  
     7    7    8 1  
     8    7   10 1  
     9    8    9 2  
    10    8   11 am 
    11   11   12 1  
    12   12   13 1  
    13   12   15 1  
    14   13   14 2  
    15   13   18 am 
    16   15   16 1  
    17   15   17 1  
    18   18   19 1  
    19   19   20 1  
    20   19   22 1  
    21   20   21 2  
    22   20   23 am 
    23   23   24 1  
    24   24   25 1  
    25   24   27 1  
    26   25   26 2  
    27   25   28 am 
    28   28   29 1  
    29   29   30 1  
    30   29   32 1  
    31   30   31 2  
    32   30   36 am 
    33   32   33 1  
    34   33   34 1  
    35   33   35 1  
    36   36   37 1  
    37   37   38 1  
    38   37   40 1  
    39   38   39 2  
    40   38   44 am 
    41   40   41 1  
    42   41   42 ar 
    43   41   43 ar 
    44   44   45 1  
    45   45   46 1  
    46   45   48 1  
    47   46   47 2  
    48   46   49 am 
    49   49   50 1  
    50   50   51 1  
    51   50   53 1  
    52   51   52 2  
    53   51   57 am 
    54   53   54 1  
    55   54   55 1  
    56   54   56 1  
    57   57   58 1  
    58   58   59 1  
    59   58   61 1  
    60   59   60 2  
    61   59   65 am 
    62   61   62 1  
    63   62   63 1  
    64   63   64 1  
    65   65   66 1  
    66   66   67 1  
    67   66   69 1  
    68   67   68 2  
    69   67   70 am 
    70   70   71 1  
    71   71   72 1  
    72   71   74 1  
    73   72   73 2  
    74   72   76 am 
    75   74   75 1  
    76   76   77 1  
    77   77   78 1  
    78   77   80 1  
    79   78   79 ar 
    80   80   81 1  
    81   81   82 1  
    82   81   83 1  
    83    1   84 1  
    84    1   85 1  
    85    1   86 1  
    86    2   87 1  
    87    5   88 1  
    88    5   89 1  
    89    5   90 1  
    90    6   91 1  
    91    7   92 1  
    92   10   93 1  
    93   10   94 1  
    94   10   95 1  
    95   11   96 1  
    96   12   97 1  
    97   15   98 1  
    98   16   99 1  
    99   17  100 1  
   100   17  101 1  
   101   17  102 1  
   102   18  103 1  
   103   19  104 1  
   104   22  105 1  
   105   22  106 1  
   106   22  107 1  
   107   23  108 1  
   108   24  109 1  
   109   27  110 1  
   110   27  111 1  
   111   27  112 1  
   112   28  113 1  
   113   29  114 1  
   114   32  115 1  
   115   32  116 1  
   116   33  117 1  
   117   34  118 1  
   118   34  119 1  
   119   34  120 1  
   120   35  121 1  
   121   35  122 1  
   122   35  123 1  
   123   36  124 1  
   124   37  125 1  
   125   40  126 1  
   126   40  127 1  
   127   44  128 1  
   128   45  129 1  
   129   48  130 1  
   130   48  131 1  
   131   48  132 1  
   132   49  133 1  
   133   50  134 1  
   134   53  135 1  
   135   53  136 1  
   136   54  137 1  
   137   55  138 1  
   138   55  139 1  
   139   55  140 1  
   140   56  141 1  
   141   56  142 1  
   142   56  143 1  
   143   57  144 1  
   144   58  145 1  
   145   61  146 1  
   146   61  147 1  
   147   62  148 1  
   148   62  149 1  
   149   64  150 1  
   150   64  151 1  
   151   64  152 1  
   152   65  153 1  
   153   66  154 1  
   154   69  155 1  
   155   69  156 1  
   156   69  157 1  
   157   70  158 1  
   158   71  159 1  
   159   74  160 1  
   160   74  161 1  
   161   75  162 1  
   162   76  163 1  
   163   77  164 1  
   164   78  165 ar 
   165   80  166 1  
   166   80  167 1  
   167   81  168 1  
   168   82  169 1  
   169   82  170 1  
   170   82  171 1  
   171   83  172 1  
   172   83  173 1  
   173   83  174 1  
@<TRIPOS>SUBSTRUCTURE
     1 SER         1

