3u3f_ligand
  -I-interpret- 

176175  0  0  0  0  0  0  0  0999 V2000
   -7.9210   -1.0240   42.6220 N   0  3  0  0  0
   -8.7440    0.1510   42.8940 C   0  0  0  0  0
  -10.2070   -0.0560   42.5270 C   0  0  0  0  0
  -11.0410   -0.2030   43.4120 O   0  0  0  0  0
   -8.1910    1.3820   42.1880 C   0  0  0  0  0
  -10.5020   -0.0720   41.2230 N   0  0  0  0  0
  -11.8800   -0.0760   40.7020 C   0  0  0  0  0
  -12.8630   -0.9770   41.4590 C   0  0  0  0  0
  -13.9640   -0.5500   41.8120 O   0  0  0  0  0
  -11.8850   -0.4080   39.2260 C   0  0  0  0  0
  -12.4570   -2.2210   41.6970 N   0  0  0  0  0
  -13.2440   -3.1580   42.4950 C   0  0  0  0  0
  -13.7080   -2.5050   43.8010 C   0  0  0  0  0
  -14.8860   -2.6110   44.1510 O   0  0  0  0  0
  -12.4300   -4.4080   42.8420 C   0  0  0  0  0
  -11.2160   -4.0060   43.4890 O   0  0  0  0  0
  -12.0410   -5.1720   41.5450 C   0  0  0  0  0
  -12.8120   -1.7830   44.4830 N   0  0  0  0  0
  -13.1150   -1.2020   45.7950 C   0  0  0  0  0
  -14.3830   -0.3680   45.7910 C   0  0  0  0  0
  -15.3110   -0.6980   46.5020 O   0  0  0  0  0
  -11.9630   -0.3970   46.2920 C   0  0  0  0  0
  -14.4630    0.6810   44.9790 N   0  0  0  0  0
  -15.6630    1.5150   44.9390 C   0  0  0  0  0
  -16.8900    0.6840   44.5390 C   0  0  0  0  0
  -18.0320    1.0300   44.8740 O   0  0  0  0  0
  -15.4580    2.6310   43.9480 C   0  0  0  0  0
  -16.6350   -0.4500   43.8850 N   0  0  0  0  0
  -17.7010   -1.3580   43.4480 C   0  0  0  0  0
  -18.2110   -2.2030   44.6110 C   0  0  0  0  0
  -19.4190   -2.2800   44.8490 O   0  0  0  0  0
  -17.2190   -2.2610   42.3010 C   0  0  0  0  0
  -18.2250   -3.2160   41.6720 C   0  0  0  0  0
  -19.1240   -2.4500   40.7360 C   0  0  0  0  0
  -17.4990   -4.2920   40.9110 C   0  0  0  0  0
  -17.2900   -2.8470   45.3270 N   0  0  0  0  0
  -17.6700   -3.6520   46.4840 C   0  0  0  0  0
  -18.4600   -2.7960   47.4500 C   0  0  0  0  0
  -19.3700   -3.2870   48.1140 O   0  0  0  0  0
  -16.4560   -4.1820   47.2420 C   0  0  0  0  0
  -15.5500   -5.0250   46.3930 C   0  0  0  0  0
  -15.9270   -6.1680   46.0610 O   0  0  0  0  0
  -14.4360   -4.5510   46.0960 O   0  0  0  0  0
  -18.0690   -1.5270   47.5570 N   0  0  0  0  0
  -18.7900   -0.5550   48.3610 C   0  0  0  0  0
  -20.1780   -0.3670   47.7720 C   0  0  0  0  0
  -21.1840   -0.4100   48.4860 O   0  0  0  0  0
  -18.0420    0.7670   48.3860 C   0  0  0  0  0
  -20.2260   -0.1630   46.4600 N   0  0  0  0  0
  -21.4920   -0.0490   45.7620 C   0  0  0  0  0
  -22.3460   -1.2850   46.0390 C   0  0  0  0  0
  -23.5640   -1.1970   46.1510 O   0  0  0  0  0
  -21.2430    0.1060   44.2670 C   0  0  0  0  0
  -21.7850    1.3650   43.6060 C   0  0  0  0  0
  -21.3310    1.4310   42.1620 C   0  0  0  0  0
  -23.2890    1.3810   43.6820 C   0  0  0  0  0
  -21.6750   -2.4270   46.1770 N   0  0  0  0  0
  -22.3020   -3.7390   46.3420 C   0  0  0  0  0
  -22.9620   -3.8910   47.7010 C   0  0  0  0  0
  -24.0920   -4.3600   47.8020 O   0  0  0  0  0
  -21.2360   -4.8310   46.2090 C   0  0  0  0  0
  -21.6650   -6.0480   45.4120 C   0  0  0  0  0
  -21.7060   -5.6730   43.6470 S   0  0  0  0  0
  -23.1350   -6.6500   43.1540 C   0  0  0  0  0
  -22.2260   -3.5110   48.7420 N   0  0  0  0  0
  -22.7080   -3.5960   50.1100 C   0  0  0  0  0
  -24.1080   -3.0040   50.2100 C   0  0  0  0  0
  -25.0130   -3.6530   50.7230 O   0  0  0  0  0
  -21.7530   -2.8830   51.0510 C   0  0  0  0  0
  -24.3070   -1.7940   49.6900 N   0  0  0  0  0
  -25.6210   -1.1440   49.8360 C   0  0  0  0  0
  -26.8050   -2.0780   49.4790 C   0  0  0  0  0
  -27.9250   -1.9030   49.9710 O   0  0  0  0  0
  -25.6990    0.2130   49.1020 C   0  0  0  0  0
  -25.6660    0.0760   47.6940 O   0  0  0  0  0
  -26.5390   -3.0940   48.6570 N   0  0  0  0  0
  -27.5450   -4.1120   48.3150 C   0  0  0  0  0
  -27.9880   -4.9200   49.5460 C   0  0  0  0  0
  -27.6390   -6.0970   49.6980 O   0  0  0  0  0
  -27.0210   -5.0570   47.2190 C   0  0  0  0  0
  -27.5710   -4.9410   45.7890 C   0  0  0  0  0
  -28.4340   -3.7050   45.6040 C   0  0  0  0  0
  -26.4360   -4.9710   44.7710 C   0  0  0  0  0
  -28.7191   -4.3738   50.4148 O   0  0  0  0  0
   -8.3132   -1.8318   43.1058 H   0  0  0  0  0
   -7.9059   -1.2020   41.6178 H   0  0  0  0  0
   -6.9709   -0.8562   42.9531 H   0  0  0  0  0
   -8.7026    0.3112   43.9714 H   0  0  0  0  0
   -8.2724    1.2479   41.1093 H   0  0  0  0  0
   -8.7620    2.2599   42.4904 H   0  0  0  0  0
   -7.1443    1.5162   42.4608 H   0  0  0  0  0
   -9.7324   -0.0820   40.5537 H   0  0  0  0  0
  -12.2467    0.9377   40.8637 H   0  0  0  0  0
  -11.5907   -1.4484   39.0879 H   0  0  0  0  0
  -12.8867   -0.2560   38.8241 H   0  0  0  0  0
  -11.1812    0.2421   38.7063 H   0  0  0  0  0
  -11.5661   -2.5313   41.3092 H   0  0  0  0  0
  -14.1086   -3.4413   41.8947 H   0  0  0  0  0
  -13.0296   -5.0495   43.4878 H   0  0  0  0  0
  -10.6995   -4.7845   43.7100 H   0  0  0  0  0
  -12.9458   -5.4701   41.0153 H   0  0  0  0  0
  -11.4427   -4.5214   40.9072 H   0  0  0  0  0
  -11.4628   -6.0582   41.8065 H   0  0  0  0  0
  -11.8884   -1.6317   44.0775 H   0  0  0  0  0
  -13.2883   -2.0369   46.4740 H   0  0  0  0  0
  -11.0861   -1.0379   46.3833 H   0  0  0  0  0
  -11.7540    0.4088   45.5884 H   0  0  0  0  0
  -12.2095    0.0246   47.2665 H   0  0  0  0  0
  -13.6741    0.9080   44.3737 H   0  0  0  0  0
  -15.8386    1.9286   45.9321 H   0  0  0  0  0
  -14.6028    3.2339   44.2535 H   0  0  0  0  0
  -15.2723    2.2087   42.9605 H   0  0  0  0  0
  -16.3511    3.2550   43.9156 H   0  0  0  0  0
  -15.6657   -0.6942   43.6818 H   0  0  0  0  0
  -18.5260   -0.7475   43.0807 H   0  0  0  0  0
  -16.4498   -2.8978   42.7380 H   0  0  0  0  0
  -16.9265   -1.5810   41.5009 H   0  0  0  0  0
  -18.8252   -3.6775   42.4561 H   0  0  0  0  0
  -19.6536   -1.6777   41.2938 H   0  0  0  0  0
  -18.5222   -1.9871   39.9539 H   0  0  0  0  0
  -19.8441   -3.1332   40.2856 H   0  0  0  0  0
  -16.8948   -3.8360   40.1267 H   0  0  0  0  0
  -16.8536   -4.8453   41.5932 H   0  0  0  0  0
  -18.2245   -4.9715   40.4637 H   0  0  0  0  0
  -16.3072   -2.7766   45.0634 H   0  0  0  0  0
  -18.2533   -4.4933   46.1097 H   0  0  0  0  0
  -16.8223   -4.8077   48.0559 H   0  0  0  0  0
  -15.8807   -3.3225   47.5861 H   0  0  0  0  0
  -16.8135   -6.3212   46.3960 H   0  0  0  0  0
  -17.2327   -1.2267   47.0561 H   0  0  0  0  0
  -18.8733   -0.9154   49.3863 H   0  0  0  0  0
  -17.0514    0.6145   48.8145 H   0  0  0  0  0
  -17.9448    1.1473   47.3691 H   0  0  0  0  0
  -18.5950    1.4845   48.9923 H   0  0  0  0  0
  -19.3558   -0.0851   45.9337 H   0  0  0  0  0
  -22.0267    0.8312   46.1189 H   0  0  0  0  0
  -21.7592   -0.7273   43.7904 H   0  0  0  0  0
  -20.1604    0.1484   44.1475 H   0  0  0  0  0
  -21.3984    2.2367   44.1339 H   0  0  0  0  0
  -20.2417    1.4473   42.1253 H   0  0  0  0  0
  -21.7008    0.5570   41.6259 H   0  0  0  0  0
  -21.7250    2.3360   41.6996 H   0  0  0  0  0
  -23.6868    0.5060   43.1680 H   0  0  0  0  0
  -23.5989    1.3623   44.7268 H   0  0  0  0  0
  -23.6660    2.2862   43.2060 H   0  0  0  0  0
  -20.6559   -2.3844   46.1670 H   0  0  0  0  0
  -23.0668   -3.8316   45.5709 H   0  0  0  0  0
  -21.0114   -5.1774   47.2178 H   0  0  0  0  0
  -20.3938   -4.3870   45.6784 H   0  0  0  0  0
  -22.6637   -6.3448   45.7324 H   0  0  0  0  0
  -20.9499   -6.8523   45.5848 H   0  0  0  0  0
  -22.9510   -7.7003   43.3802 H   0  0  0  0  0
  -24.0136   -6.3078   43.7008 H   0  0  0  0  0
  -23.3027   -6.5316   42.0835 H   0  0  0  0  0
  -21.2884   -3.1464   48.5735 H   0  0  0  0  0
  -22.7556   -4.6448   50.4031 H   0  0  0  0  0
  -20.7695   -3.3490   50.9902 H   0  0  0  0  0
  -21.6779   -1.8341   50.7642 H   0  0  0  0  0
  -22.1285   -2.9560   52.0717 H   0  0  0  0  0
  -23.5531   -1.3196   49.1930 H   0  0  0  0  0
  -25.7233   -0.9254   50.8990 H   0  0  0  0  0
  -24.8338    0.8049   49.4007 H   0  0  0  0  0
  -26.6447    0.6842   49.3700 H   0  0  0  0  0
  -25.7170    0.9444   47.2878 H   0  0  0  0  0
  -25.6060   -3.1679   48.2514 H   0  0  0  0  0
  -28.4177   -3.5812   47.9345 H   0  0  0  0  0
  -27.3181   -6.0526   47.5485 H   0  0  0  0  0
  -25.9626   -4.8129   47.1277 H   0  0  0  0  0
  -28.2132   -5.8052   45.6191 H   0  0  0  0  0
  -29.2799   -3.7481   46.2900 H   0  0  0  0  0
  -27.8407   -2.8147   45.8122 H   0  0  0  0  0
  -28.7986   -3.6683   44.5774 H   0  0  0  0  0
  -25.7599   -4.1367   44.9579 H   0  0  0  0  0
  -25.8907   -5.9102   44.8643 H   0  0  0  0  0
  -26.8490   -4.8875   43.7657 H   0  0  0  0  0
  -28.9010   -3.4678   50.1546 H   0  0  0  0  0
  1  2  1  0  0  0
  2  3  1  0  0  0
  2  5  1  0  0  0
  3  4  2  0  0  0
  3  6  1  0  0  0
  6  7  1  0  0  0
  7  8  1  0  0  0
  7 10  1  0  0  0
  8  9  2  0  0  0
  8 11  1  0  0  0
 11 12  1  0  0  0
 12 13  1  0  0  0
 12 15  1  0  0  0
 13 14  2  0  0  0
 13 18  1  0  0  0
 15 16  1  0  0  0
 15 17  1  0  0  0
 18 19  1  0  0  0
 19 20  1  0  0  0
 19 22  1  0  0  0
 20 21  2  0  0  0
 20 23  1  0  0  0
 23 24  1  0  0  0
 24 25  1  0  0  0
 24 27  1  0  0  0
 25 26  2  0  0  0
 25 28  1  0  0  0
 28 29  1  0  0  0
 29 30  1  0  0  0
 29 32  1  0  0  0
 30 31  2  0  0  0
 30 36  1  0  0  0
 32 33  1  0  0  0
 33 34  1  0  0  0
 33 35  1  0  0  0
 36 37  1  0  0  0
 37 38  1  0  0  0
 37 40  1  0  0  0
 38 39  2  0  0  0
 38 44  1  0  0  0
 40 41  1  0  0  0
 41 42  1  0  0  0
 41 43  2  0  0  0
 44 45  1  0  0  0
 45 46  1  0  0  0
 45 48  1  0  0  0
 46 47  2  0  0  0
 46 49  1  0  0  0
 49 50  1  0  0  0
 50 51  1  0  0  0
 50 53  1  0  0  0
 51 52  2  0  0  0
 51 57  1  0  0  0
 53 54  1  0  0  0
 54 55  1  0  0  0
 54 56  1  0  0  0
 57 58  1  0  0  0
 58 59  1  0  0  0
 58 61  1  0  0  0
 59 60  2  0  0  0
 59 65  1  0  0  0
 61 62  1  0  0  0
 62 63  1  0  0  0
 63 64  1  0  0  0
 65 66  1  0  0  0
 66 67  1  0  0  0
 66 69  1  0  0  0
 67 68  2  0  0  0
 67 70  1  0  0  0
 70 71  1  0  0  0
 71 72  1  0  0  0
 71 74  1  0  0  0
 72 73  2  0  0  0
 72 76  1  0  0  0
 74 75  1  0  0  0
 76 77  1  0  0  0
 77 78  1  0  0  0
 77 80  1  0  0  0
 78 79  2  0  0  0
 80 81  1  0  0  0
 81 82  1  0  0  0
 81 83  1  0  0  0
 78 84  1  0  0  0
  1 85  1  0  0  0
  1 86  1  0  0  0
  1 87  1  0  0  0
  2 88  1  0  0  0
  5 89  1  0  0  0
  5 90  1  0  0  0
  5 91  1  0  0  0
  6 92  1  0  0  0
  7 93  1  0  0  0
 10 94  1  0  0  0
 10 95  1  0  0  0
 10 96  1  0  0  0
 11 97  1  0  0  0
 12 98  1  0  0  0
 15 99  1  0  0  0
 16100  1  0  0  0
 17101  1  0  0  0
 17102  1  0  0  0
 17103  1  0  0  0
 18104  1  0  0  0
 19105  1  0  0  0
 22106  1  0  0  0
 22107  1  0  0  0
 22108  1  0  0  0
 23109  1  0  0  0
 24110  1  0  0  0
 27111  1  0  0  0
 27112  1  0  0  0
 27113  1  0  0  0
 28114  1  0  0  0
 29115  1  0  0  0
 32116  1  0  0  0
 32117  1  0  0  0
 33118  1  0  0  0
 34119  1  0  0  0
 34120  1  0  0  0
 34121  1  0  0  0
 35122  1  0  0  0
 35123  1  0  0  0
 35124  1  0  0  0
 36125  1  0  0  0
 37126  1  0  0  0
 40127  1  0  0  0
 40128  1  0  0  0
 42129  1  0  0  0
 44130  1  0  0  0
 45131  1  0  0  0
 48132  1  0  0  0
 48133  1  0  0  0
 48134  1  0  0  0
 49135  1  0  0  0
 50136  1  0  0  0
 53137  1  0  0  0
 53138  1  0  0  0
 54139  1  0  0  0
 55140  1  0  0  0
 55141  1  0  0  0
 55142  1  0  0  0
 56143  1  0  0  0
 56144  1  0  0  0
 56145  1  0  0  0
 57146  1  0  0  0
 58147  1  0  0  0
 61148  1  0  0  0
 61149  1  0  0  0
 62150  1  0  0  0
 62151  1  0  0  0
 64152  1  0  0  0
 64153  1  0  0  0
 64154  1  0  0  0
 65155  1  0  0  0
 66156  1  0  0  0
 69157  1  0  0  0
 69158  1  0  0  0
 69159  1  0  0  0
 70160  1  0  0  0
 71161  1  0  0  0
 74162  1  0  0  0
 74163  1  0  0  0
 75164  1  0  0  0
 76165  1  0  0  0
 77166  1  0  0  0
 80167  1  0  0  0
 80168  1  0  0  0
 81169  1  0  0  0
 82170  1  0  0  0
 82171  1  0  0  0
 82172  1  0  0  0
 83173  1  0  0  0
 83174  1  0  0  0
 83175  1  0  0  0
 84176  1  0  0  0
M  END
$$$$
