2anm_ligand
  -I-interpret- 

 68 70  0  0  0  0  0  0  0  0999 V2000
   12.2240   21.1610   22.4720 C   0  0  0  0  0
   11.8780   22.3780   23.1190 C   0  0  0  0  0
   12.4600   23.5390   22.7430 N   0  0  0  0  0
   13.3600   23.6030   21.7510 C   0  0  0  0  0
   13.7480   22.4350   21.0680 C   0  0  0  0  0
   13.1690   21.1970   21.4270 C   0  0  0  0  0
   14.7580   22.5180   19.9670 C   0  0  0  0  0
   10.8950   22.3980   24.2200 C   0  0  0  0  0
   10.1260   21.3390   24.4680 N   0  0  0  0  0
   10.7800   23.4880   24.9690 N   0  0  0  0  0
   16.0820   22.4690   20.5770 N   0  0  0  0  0
   16.8770   21.3920   20.4140 C   0  0  0  0  0
   18.2340   21.3540   21.0660 C   0  0  0  0  0
   16.5080   20.4420   19.7560 O   0  0  0  0  0
   19.3380   21.4740   19.9700 C   0  0  0  0  0
   20.4280   20.4900   20.4650 C   0  0  0  0  0
   19.5900   19.3810   21.1110 C   0  0  0  0  0
   18.4210   20.0330   21.7250 N   0  0  0  0  0
   17.6310   19.5110   22.7320 C   0  0  0  0  0
   17.9190   18.1360   23.3220 C   0  0  0  0  0
   16.6820   20.1430   23.1600 O   0  0  0  0  0
   16.6680   17.3790   23.3980 N   0  3  0  0  0
   15.9240   16.9980   22.1960 C   0  0  0  0  0
   14.6610   16.2990   22.6260 C   0  0  0  0  0
   14.6840   15.5280   23.5820 O   0  0  0  0  0
   13.6130   16.5040   22.0240 O   0  0  0  0  0
   18.4930   18.2530   24.7500 C   0  0  0  0  0
   19.8870   18.8930   24.7340 C   0  0  0  0  0
   20.1930   19.5140   26.1080 C   0  0  0  0  0
   21.5740   20.2290   26.0500 C   0  0  0  0  0
   22.6870   19.2400   25.6310 C   0  0  0  0  0
   22.3340   18.5330   24.2990 C   0  0  0  0  0
   20.9570   17.8370   24.4050 C   0  0  0  0  0
   11.7680   20.2193   22.7776 H   0  0  0  0  0
   13.7930   24.5637   21.4723 H   0  0  0  0  0
   13.4492   20.2831   20.9033 H   0  0  0  0  0
   14.6325   23.4438   19.4055 H   0  0  0  0  0
   14.6297   21.6893   19.2707 H   0  0  0  0  0
    9.4507   21.3668   25.2319 H   0  0  0  0  0
   10.2124   20.5003   23.8940 H   0  0  0  0  0
   10.1039   23.5133   25.7324 H   0  0  0  0  0
   16.4103   23.2584   21.1333 H   0  0  0  0  0
   18.3045   22.1700   21.7853 H   0  0  0  0  0
   19.7092   22.4922   19.8537 H   0  0  0  0  0
   18.9714   21.2317   18.9725 H   0  0  0  0  0
   21.1410   20.9466   21.1515 H   0  0  0  0  0
   21.0777   20.1299   19.6673 H   0  0  0  0  0
   20.1711   18.8429   21.8599 H   0  0  0  0  0
   19.2782   18.6479   20.3670 H   0  0  0  0  0
   18.6468   17.6362   22.6827 H   0  0  0  0  0
   16.0325   18.0106   23.8855 H   0  0  0  0  0
   16.9503   16.4855   23.8009 H   0  0  0  0  0
   16.5273   16.3343   21.5766 H   0  0  0  0  0
   15.6808   17.8839   21.6093 H   0  0  0  0  0
   15.5759   15.4835   23.9344 H   0  0  0  0  0
   18.5730   17.2532   25.1768 H   0  0  0  0  0
   17.8278   18.8806   25.3430 H   0  0  0  0  0
   19.9032   19.6692   23.9690 H   0  0  0  0  0
   20.2179   18.7311   26.8660 H   0  0  0  0  0
   19.4176   20.2360   26.3640 H   0  0  0  0  0
   21.8078   20.6229   27.0391 H   0  0  0  0  0
   21.5232   21.0328   25.3156 H   0  0  0  0  0
   22.7924   18.4842   26.4093 H   0  0  0  0  0
   23.6143   19.7965   25.4949 H   0  0  0  0  0
   23.0948   17.7828   24.0833 H   0  0  0  0  0
   22.2953   19.2761   23.5025 H   0  0  0  0  0
   20.7163   17.3516   23.4592 H   0  0  0  0  0
   20.9851   17.0839   25.1925 H   0  0  0  0  0
  1  2  4  0  0  0
  1  6  4  0  0  0
  2  3  4  0  0  0
  2  8  1  0  0  0
  3  4  4  0  0  0
  4  5  4  0  0  0
  5  6  4  0  0  0
  5  7  1  0  0  0
  7 11  1  0  0  0
  8  9  1  0  0  0
  8 10  2  0  0  0
 11 12  1  0  0  0
 12 13  1  0  0  0
 12 14  2  0  0  0
 13 15  1  0  0  0
 13 18  1  0  0  0
 15 16  1  0  0  0
 16 17  1  0  0  0
 17 18  1  0  0  0
 18 19  1  0  0  0
 19 20  1  0  0  0
 19 21  2  0  0  0
 20 22  1  0  0  0
 20 27  1  0  0  0
 22 23  1  0  0  0
 23 24  1  0  0  0
 24 25  1  0  0  0
 24 26  2  0  0  0
 27 28  1  0  0  0
 28 29  1  0  0  0
 28 33  1  0  0  0
 29 30  1  0  0  0
 30 31  1  0  0  0
 31 32  1  0  0  0
 32 33  1  0  0  0
  1 34  1  0  0  0
  4 35  1  0  0  0
  6 36  1  0  0  0
  7 37  1  0  0  0
  7 38  1  0  0  0
  9 39  1  0  0  0
  9 40  1  0  0  0
 10 41  1  0  0  0
 11 42  1  0  0  0
 13 43  1  0  0  0
 15 44  1  0  0  0
 15 45  1  0  0  0
 16 46  1  0  0  0
 16 47  1  0  0  0
 17 48  1  0  0  0
 17 49  1  0  0  0
 20 50  1  0  0  0
 22 51  1  0  0  0
 22 52  1  0  0  0
 23 53  1  0  0  0
 23 54  1  0  0  0
 25 55  1  0  0  0
 27 56  1  0  0  0
 27 57  1  0  0  0
 28 58  1  0  0  0
 29 59  1  0  0  0
 29 60  1  0  0  0
 30 61  1  0  0  0
 30 62  1  0  0  0
 31 63  1  0  0  0
 31 64  1  0  0  0
 32 65  1  0  0  0
 32 66  1  0  0  0
 33 67  1  0  0  0
 33 68  1  0  0  0
M  END
$$$$
