### 
### Created by X-TOOL on Mon Sep 10 21:13:15 2018
### 

@<TRIPOS>MOLECULE
3zlk_ligand
   42    44     1     0     0
SMALL
GAST_HUCK


@<TRIPOS>ATOM
      1 CAW        38.0140    6.9480   10.3730 C.ar      1 Y46        -0.0578
      2 CAX        37.4770    8.0000   11.1280 C.ar      1 Y46        -0.0685
      3 CBA        37.3160    7.8520   12.5110 C.ar      1 Y46        -0.0687
      4 CAZ        37.6970    6.6570   13.1160 C.ar      1 Y46        -0.0685
      5 CAY        38.2340    5.6140   12.3650 C.ar      1 Y46        -0.0578
      6 CAV        38.3750    5.7300   10.9780 C.ar      1 Y46        -0.0133
      7 CAU        38.9190    4.6890   10.1980 C.3       1 Y46         0.1020
      8 NAN        38.1350    3.3910   10.1880 N.am      1 Y46        -0.1513
      9 CAO        37.2260    3.1360    9.2150 C.2       1 Y46         0.1622
     10 NAP        36.9720    4.0480    8.2600 N.2       1 Y46        -0.3924
     11 CAM        38.3700    2.4570   11.1350 C.2       1 Y46         0.3372
     12 OAL        39.2230    2.6550   11.9930 O.2       1 Y46        -0.3761
     13 NAD        37.6830    1.2450   11.1580 N.am      1 Y46        -0.1727
     14 CAE        36.7260    0.9560   10.2050 C.2       1 Y46         0.2500
     15 OAA        36.1460   -0.1290   10.2480 O.2       1 Y46        -0.3802
     16 CAF        36.4910    1.9280    9.2180 C.3       1 Y46         0.2150
     17 NAG        35.6320    1.6450    8.2250 N.am      1 Y46        -0.2040
     18 SAH        34.0260    2.0060    8.2040 S.o2      1 Y46         0.0730
     19 OAC        33.7910    3.5160    8.2170 O.2       1 Y46        -0.1500
     20 OAQ        33.4210    1.3680    6.9510 O.2       1 Y46        -0.1500
     21 CAI        33.2620    1.2790    9.6850 C.ar      1 Y46         0.1085
     22 CAJ        33.4930    1.8520   10.9360 C.ar      1 Y46        -0.0351
     23 CAK        32.8870    1.3030   12.0790 C.ar      1 Y46        -0.0599
     24 CAT        32.0710    0.1830   11.9550 C.ar      1 Y46        -0.0616
     25 CAS        31.8690   -0.3960   10.7090 C.ar      1 Y46        -0.0599
     26 CAR        32.4490    0.1630    9.5720 C.ar      1 Y46        -0.0351
     27 H1         38.1534    7.0749    9.3055 H         1 Y46         0.0557
     28 H2         37.1873    8.9250   10.6427 H         1 Y46         0.0599
     29 H3         36.8996    8.6583   13.1039 H         1 Y46         0.0559
     30 H4         37.5740    6.5368   14.1863 H         1 Y46         0.0599
     31 H5         38.5462    4.7021   12.8609 H         1 Y46         0.0557
     32 H6         39.9267    4.4713   10.5817 H         1 Y46         0.0774
     33 H7         38.9912    5.0473    9.1605 H         1 Y46         0.0774
     34 H8         36.2944    3.8492    7.5407 H         1 Y46         0.0533
     35 H9         37.8853    0.5762   11.8733 H         1 Y46         0.2272
     36 H10        35.6921    2.3884    9.8177 H         1 Y46         0.1051
     37 H11        36.0018    1.1718    7.4254 H         1 Y46         0.1745
     38 H12        34.1382    2.7184   11.0261 H         1 Y46         0.0637
     39 H13        33.0545    1.7499   13.0523 H         1 Y46         0.0618
     40 H14        31.5925   -0.2381   12.8318 H         1 Y46         0.0618
     41 H15        31.2575   -1.2867   10.6205 H         1 Y46         0.0618
     42 H16        32.2639   -0.2758    8.5982 H         1 Y46         0.0637
@<TRIPOS>BOND
     1    1    2 ar 
     2    1    6 ar 
     3    2    3 ar 
     4    3    4 ar 
     5    4    5 ar 
     6    5    6 ar 
     7    6    7 1  
     8    7    8 1  
     9    8    9 1  
    10    8   11 am 
    11    9   10 2  
    12    9   16 1  
    13   11   12 2  
    14   11   13 am 
    15   13   14 am 
    16   14   15 2  
    17   14   16 1  
    18   16   17 1  
    19   17   18 am 
    20   18   19 2  
    21   18   20 2  
    22   18   21 1  
    23   21   22 ar 
    24   21   26 ar 
    25   22   23 ar 
    26   23   24 ar 
    27   24   25 ar 
    28   25   26 ar 
    29    1   27 1  
    30    2   28 1  
    31    3   29 1  
    32    4   30 1  
    33    5   31 1  
    34    7   32 1  
    35    7   33 1  
    36   10   34 1  
    37   13   35 1  
    38   16   36 1  
    39   17   37 1  
    40   22   38 1  
    41   23   39 1  
    42   24   40 1  
    43   25   41 1  
    44   26   42 1  
@<TRIPOS>SUBSTRUCTURE
     1 Y46         1

