3zlk_ligand
  -I-interpret- 

 42 44  0  0  0  0  0  0  0  0999 V2000
   38.0140    6.9480   10.3730 C   0  0  0  0  0
   37.4770    8.0000   11.1280 C   0  0  0  0  0
   37.3160    7.8520   12.5110 C   0  0  0  0  0
   37.6970    6.6570   13.1160 C   0  0  0  0  0
   38.2340    5.6140   12.3650 C   0  0  0  0  0
   38.3750    5.7300   10.9780 C   0  0  0  0  0
   38.9190    4.6890   10.1980 C   0  0  0  0  0
   38.1350    3.3910   10.1880 N   0  0  0  0  0
   37.2260    3.1360    9.2150 C   0  0  0  0  0
   36.9720    4.0480    8.2600 N   0  0  0  0  0
   38.3700    2.4570   11.1350 C   0  0  0  0  0
   39.2230    2.6550   11.9930 O   0  0  0  0  0
   37.6830    1.2450   11.1580 N   0  0  0  0  0
   36.7260    0.9560   10.2050 C   0  0  0  0  0
   36.1460   -0.1290   10.2480 O   0  0  0  0  0
   36.4910    1.9280    9.2180 C   0  0  0  0  0
   35.6320    1.6450    8.2250 N   0  0  0  0  0
   34.0260    2.0060    8.2040 S   0  0  0  0  0
   33.7910    3.5160    8.2170 O   0  0  0  0  0
   33.4210    1.3680    6.9510 O   0  0  0  0  0
   33.2620    1.2790    9.6850 C   0  0  0  0  0
   33.4930    1.8520   10.9360 C   0  0  0  0  0
   32.8870    1.3030   12.0790 C   0  0  0  0  0
   32.0710    0.1830   11.9550 C   0  0  0  0  0
   31.8690   -0.3960   10.7090 C   0  0  0  0  0
   32.4490    0.1630    9.5720 C   0  0  0  0  0
   38.1542    7.0756    9.2996 H   0  0  0  0  0
   37.1857    8.9301   10.6400 H   0  0  0  0  0
   36.8973    8.6628   13.1072 H   0  0  0  0  0
   37.5733    6.5361   14.1922 H   0  0  0  0  0
   38.5479    4.6970   12.8637 H   0  0  0  0  0
   39.8921    4.4569   10.6309 H   0  0  0  0  0
   38.9300    5.0493    9.1693 H   0  0  0  0  0
   37.4650    4.9409    8.2635 H   0  0  0  0  0
   37.8894    0.5628   11.8876 H   0  0  0  0  0
   35.8280    2.6008    9.7620 H   0  0  0  0  0
   36.0092    1.1623    7.4094 H   0  0  0  0  0
   34.1418    2.7232   11.0266 H   0  0  0  0  0
   33.0554    1.7524   13.0577 H   0  0  0  0  0
   31.5898   -0.2404   12.8366 H   0  0  0  0  0
   31.2541   -1.2916   10.6200 H   0  0  0  0  0
   32.2629   -0.2782    8.5928 H   0  0  0  0  0
  1  2  4  0  0  0
  1  6  4  0  0  0
  2  3  4  0  0  0
  3  4  4  0  0  0
  4  5  4  0  0  0
  5  6  4  0  0  0
  6  7  1  0  0  0
  7  8  1  0  0  0
  8  9  1  0  0  0
  8 11  1  0  0  0
  9 10  2  0  0  0
  9 16  1  0  0  0
 11 12  2  0  0  0
 11 13  1  0  0  0
 13 14  1  0  0  0
 14 15  2  0  0  0
 14 16  1  0  0  0
 16 17  1  0  0  0
 17 18  1  0  0  0
 18 19  2  0  0  0
 18 20  2  0  0  0
 18 21  1  0  0  0
 21 22  4  0  0  0
 21 26  4  0  0  0
 22 23  4  0  0  0
 23 24  4  0  0  0
 24 25  4  0  0  0
 25 26  4  0  0  0
  1 27  1  0  0  0
  2 28  1  0  0  0
  3 29  1  0  0  0
  4 30  1  0  0  0
  5 31  1  0  0  0
  7 32  1  0  0  0
  7 33  1  0  0  0
 10 34  1  0  0  0
 13 35  1  0  0  0
 16 36  1  0  0  0
 17 37  1  0  0  0
 22 38  1  0  0  0
 23 39  1  0  0  0
 24 40  1  0  0  0
 25 41  1  0  0  0
 26 42  1  0  0  0
M  END
$$$$
