2oxy_ligand
  -I-interpret- 

 14 15  0  0  0  0  0  0  0  0999 V2000
  -10.8420    2.6260    6.6060 Br  0  0  0  0  0
  -11.0520    4.3300    5.8440 C   0  0  0  0  0
  -10.8190    5.4380    6.6640 C   0  0  0  0  0
  -10.2460    5.1060    8.4570 Br  0  0  0  0  0
  -11.4630    4.4630    4.5290 C   0  0  0  0  0
  -11.7410    3.5240    3.5610 N   0  0  0  0  0
  -12.0720    4.2500    2.4790 C   0  0  0  0  0
  -12.0180    5.5850    2.7590 N   0  0  0  0  0
  -11.6430    5.7520    4.0320 C   0  0  0  0  0
  -11.4170    6.8990    4.8430 C   0  0  0  0  0
  -11.6770    8.6770    4.1740 Br  0  0  0  0  0
  -11.0010    6.7360    6.1670 C   0  0  0  0  0
  -10.7180    8.2340    7.3270 Br  0  0  0  0  0
  -12.3459    3.8303    1.5110 H   0  0  0  0  0
  1  2  1  0  0  0
  2  3  4  0  0  0
  2  5  4  0  0  0
  3  4  1  0  0  0
  3 12  4  0  0  0
  5  6  4  0  0  0
  5  9  4  0  0  0
  6  7  4  0  0  0
  7  8  4  0  0  0
  8  9  4  0  0  0
  9 10  4  0  0  0
 10 11  1  0  0  0
 10 12  4  0  0  0
 12 13  1  0  0  0
  7 14  1  0  0  0
M  END
$$$$
