5qap_ligand
  -I-interpret- 

 32 33  0  0  0  0  0  0  0  0999 V2000
   90.7220  233.1780   -4.1300 C   0  0  0  0  0
   96.3590  233.8710   -6.5050 C   0  0  0  0  0
   91.8770  232.8430   -4.8130 C   0  0  0  0  0
   95.1280  234.2710   -6.0100 C   0  0  0  0  0
   91.4020  236.6790   -3.2190 N   0  0  0  0  0
   96.2210  230.1490   -5.8770 C   0  0  0  0  0
   97.3950  229.8530   -6.3470 O   0  0  0  0  0
   95.8480  231.5860   -5.9590 C   0  0  0  0  0
   96.7190  232.5340   -6.4830 C   0  0  0  0  0
   94.6120  231.9960   -5.4770 C   0  0  0  0  0
   94.2350  233.3360   -5.4880 C   0  0  0  0  0
   92.9330  233.7460   -4.9090 C   0  0  0  0  0
   92.7740  235.0100   -4.3440 C   0  0  0  0  0
   91.6060  235.3570   -3.6780 C   0  0  0  0  0
   90.3200  237.1780   -2.5730 C   0  0  0  0  0
   90.0230  238.6190   -2.8610 C   0  0  0  0  0
   90.5890  234.4240   -3.5460 C   0  0  0  0  0
   89.6050  236.5020   -1.8420 O   0  0  0  0  0
   95.4620  229.3240   -5.3770 O   0  0  0  0  0
   89.9107  232.4544   -4.0516 H   0  0  0  0  0
   97.0466  234.6117   -6.9133 H   0  0  0  0  0
   91.9617  231.8622   -5.2810 H   0  0  0  0  0
   94.8553  235.3262   -6.0289 H   0  0  0  0  0
   92.1613  237.3368   -3.3955 H   0  0  0  0  0
   97.8118  230.6479   -6.6876 H   0  0  0  0  0
   97.6869  232.2246   -6.8772 H   0  0  0  0  0
   93.9212  231.2516   -5.0810 H   0  0  0  0  0
   93.5804  235.7388   -4.4263 H   0  0  0  0  0
   89.0442  238.6995   -3.3338 H   0  0  0  0  0
   90.0247  239.1825   -1.9280 H   0  0  0  0  0
   90.7850  239.0190   -3.5299 H   0  0  0  0  0
   89.6884  234.6718   -2.9842 H   0  0  0  0  0
  3  1  4  0  0  0
  1 17  4  0  0  0
  4  2  4  0  0  0
  2  9  4  0  0  0
 12  3  4  0  0  0
 11  4  4  0  0  0
 14  5  1  0  0  0
  5 15  1  0  0  0
  6  7  1  0  0  0
  8  6  1  0  0  0
  6 19  2  0  0  0
  8  9  4  0  0  0
 10  8  4  0  0  0
 11 10  4  0  0  0
 12 11  1  0  0  0
 13 12  4  0  0  0
 13 14  4  0  0  0
 14 17  4  0  0  0
 15 16  1  0  0  0
 15 18  2  0  0  0
  1 20  1  0  0  0
  2 21  1  0  0  0
  3 22  1  0  0  0
  4 23  1  0  0  0
  5 24  1  0  0  0
  7 25  1  0  0  0
  9 26  1  0  0  0
 10 27  1  0  0  0
 13 28  1  0  0  0
 16 29  1  0  0  0
 16 30  1  0  0  0
 16 31  1  0  0  0
 17 32  1  0  0  0
M  END
$$$$
