6dyz_ligand
  -I-interpret- 

 40 42  0  0  0  0  0  0  0  0999 V2000
   61.7160   17.2870   32.6410 O   0  0  0  0  0
   60.6040   17.0930   31.7640 C   0  0  0  0  0
   60.9860   17.6160   30.3940 C   0  0  0  0  0
   61.7930   16.4790   29.9040 N   0  3  0  0  0
   61.0000   15.2740   30.2140 C   0  0  0  0  0
   60.2890   15.6160   31.5260 C   0  0  0  0  0
   58.7810   15.3560   31.4370 C   0  0  0  0  0
   58.3790   13.6470   31.1150 S   0  0  0  0  0
   58.9240   12.8310   32.5430 C   0  0  0  0  0
   58.3060   13.2600   33.7860 C   0  0  0  0  0
   57.7300   13.6700   34.8490 C   0  0  0  0  0
   62.2260   16.5950   28.5170 C   0  0  0  0  0
   61.2180   16.6900   27.4150 C   0  0  0  0  0
   60.5890   17.9060   26.9090 C   0  0  0  0  0
   60.6700   19.1640   27.3660 N   0  0  0  0  0
   60.8240   15.7010   26.5650 C   0  0  0  0  0
   59.9610   16.1390   25.6300 N   0  0  0  0  0
   59.7880   17.4750   25.7800 C   0  0  0  0  0
   59.0780   18.5300   25.1040 C   0  0  0  0  0
   58.3220   18.2470   24.0420 N   0  0  0  0  0
   59.1950   19.7660   25.6340 N   0  0  0  0  0
   59.9650   20.0570   26.6750 C   0  0  0  0  0
   61.8708   18.2274   32.7564 H   0  0  0  0  0
   59.7529   17.5942   32.2249 H   0  0  0  0  0
   61.5118   18.5707   30.4059 H   0  0  0  0  0
   60.1398   17.8761   29.7581 H   0  0  0  0  0
   62.6969   16.4420   30.3751 H   0  0  0  0  0
   61.6236   14.3847   30.3050 H   0  0  0  0  0
   60.2968   15.0296   29.4179 H   0  0  0  0  0
   60.6300   14.9924   32.3524 H   0  0  0  0  0
   58.3923   15.9482   30.6086 H   0  0  0  0  0
   58.3428   15.6225   32.3988 H   0  0  0  0  0
   59.9883   13.0473   32.6358 H   0  0  0  0  0
   58.6662   11.7796   32.4160 H   0  0  0  0  0
   62.7530   15.6614   28.3203 H   0  0  0  0  0
   62.7570   17.5462   28.4792 H   0  0  0  0  0
   61.1694   14.6695   26.6345 H   0  0  0  0  0
   58.2478   17.2852   23.7105 H   0  0  0  0  0
   57.8181   18.9924   23.5615 H   0  0  0  0  0
   60.0243   21.1000   26.9859 H   0  0  0  0  0
  1  2  1  0  0  0
  2  3  1  0  0  0
  2  6  1  0  0  0
  3  4  1  0  0  0
  4  5  1  0  0  0
  4 12  1  0  0  0
  5  6  1  0  0  0
  6  7  1  0  0  0
  7  8  1  0  0  0
  8  9  1  0  0  0
  9 10  1  0  0  0
 10 11  3  0  0  0
 12 13  1  0  0  0
 13 14  4  0  0  0
 13 16  4  0  0  0
 14 15  4  0  0  0
 14 18  4  0  0  0
 15 22  4  0  0  0
 16 17  4  0  0  0
 17 18  4  0  0  0
 18 19  4  0  0  0
 19 20  1  0  0  0
 19 21  4  0  0  0
 21 22  4  0  0  0
  1 23  1  0  0  0
  2 24  1  0  0  0
  3 25  1  0  0  0
  3 26  1  0  0  0
  4 27  1  0  0  0
  5 28  1  0  0  0
  5 29  1  0  0  0
  6 30  1  0  0  0
  7 31  1  0  0  0
  7 32  1  0  0  0
  9 33  1  0  0  0
  9 34  1  0  0  0
 12 35  1  0  0  0
 12 36  1  0  0  0
 16 37  1  0  0  0
 20 38  1  0  0  0
 20 39  1  0  0  0
 22 40  1  0  0  0
M  END
$$$$
