3b8r_ligand
  -I-interpret- 

 53 57  0  0  0  0  0  0  0  0999 V2000
    9.6630   -0.9740   57.7900 C   0  0  0  0  0
    8.2800   -0.9800   57.4030 C   0  0  0  0  0
    7.6460    0.2470   57.0080 C   0  0  0  0  0
    8.3930    1.5060   57.0020 C   0  0  0  0  0
    9.7940    1.4620   57.4040 C   0  0  0  0  0
   10.4050    0.2470   57.7900 C   0  0  0  0  0
    6.2790    0.2260   56.6280 C   0  0  0  0  0
    5.6380    1.4310   56.2390 C   0  0  0  0  0
    6.3430    2.6620   56.2200 C   0  0  0  0  0
    7.7130    2.7420   56.5880 C   0  0  0  0  0
   10.3100   -2.1490   58.1880 O   0  0  0  0  0
   10.9850   -2.9670   57.2490 C   0  0  0  0  0
   11.8120   -4.0190   57.7660 C   0  0  0  0  0
   12.5220   -4.8930   56.8690 C   0  0  0  0  0
   12.3780   -4.7020   55.5000 N   0  0  0  0  0
   11.5960   -3.7000   54.9880 C   0  0  0  0  0
   10.8780   -2.8110   55.8210 C   0  0  0  0  0
   11.9530   -4.2000   59.1780 C   0  0  0  0  0
   12.7810   -5.2430   59.7160 C   0  0  0  0  0
   13.4880   -6.1150   58.8180 C   0  0  0  0  0
   13.3340   -5.9210   57.4020 C   0  0  0  0  0
   12.8410   -5.3400   61.1450 O   0  0  0  0  0
   14.3000   -7.1330   59.3790 O   0  0  0  0  0
   14.7210   -8.2170   58.5470 C   0  0  0  0  0
   12.9530   -4.1590   61.9420 C   0  0  0  0  0
    8.3820    4.0670   56.5320 C   0  0  0  0  0
    7.5770    5.1570   56.8120 N   0  0  0  0  0
    8.0770    6.5130   56.8010 C   0  0  0  0  0
    9.5720    4.2070   56.2470 O   0  0  0  0  0
    8.0550    6.8510   55.3300 C   0  0  0  0  0
    7.2930    7.6450   56.3380 C   0  0  0  0  0
    7.7139   -1.9115   57.4090 H   0  0  0  0  0
   10.3799    2.3812   57.4069 H   0  0  0  0  0
   11.4527    0.2416   58.0906 H   0  0  0  0  0
    5.7235   -0.7118   56.6348 H   0  0  0  0  0
    4.5872    1.4104   55.9502 H   0  0  0  0  0
    5.8207    3.5689   55.9155 H   0  0  0  0  0
   11.5253   -3.5848   53.9064 H   0  0  0  0  0
   10.2570   -2.0247   55.3918 H   0  0  0  0  0
   11.4222   -3.5340   59.8583 H   0  0  0  0  0
   13.8595   -6.5870   56.7177 H   0  0  0  0  0
   13.8452   -8.7421   58.1657 H   0  0  0  0  0
   15.3046   -7.8276   57.7128 H   0  0  0  0  0
   15.3331   -8.9047   59.1305 H   0  0  0  0  0
   13.8676   -3.6286   61.6768 H   0  0  0  0  0
   12.0923   -3.5157   61.7590 H   0  0  0  0  0
   12.9842   -4.4351   62.9960 H   0  0  0  0  0
    6.5944    4.9976   57.0344 H   0  0  0  0  0
    8.7017    6.4680   57.6931 H   0  0  0  0  0
    7.9082    6.3671   54.3644 H   0  0  0  0  0
    8.7424    6.9991   54.4972 H   0  0  0  0  0
    7.1622    8.6943   56.6027 H   0  0  0  0  0
    6.2790    8.0250   56.4621 H   0  0  0  0  0
  1  2  4  0  0  0
  1  6  4  0  0  0
  1 11  1  0  0  0
  2  3  4  0  0  0
  3  4  4  0  0  0
  3  7  4  0  0  0
  4  5  4  0  0  0
  4 10  4  0  0  0
  5  6  4  0  0  0
  7  8  4  0  0  0
  8  9  4  0  0  0
  9 10  4  0  0  0
 10 26  1  0  0  0
 11 12  1  0  0  0
 12 13  4  0  0  0
 12 17  4  0  0  0
 13 14  4  0  0  0
 13 18  4  0  0  0
 14 15  4  0  0  0
 14 21  4  0  0  0
 15 16  4  0  0  0
 16 17  4  0  0  0
 18 19  4  0  0  0
 19 20  4  0  0  0
 19 22  1  0  0  0
 20 21  4  0  0  0
 20 23  1  0  0  0
 22 25  1  0  0  0
 23 24  1  0  0  0
 26 27  1  0  0  0
 26 29  2  0  0  0
 27 28  1  0  0  0
 28 30  1  0  0  0
 28 31  1  0  0  0
 30 31  1  0  0  0
  2 32  1  0  0  0
  5 33  1  0  0  0
  6 34  1  0  0  0
  7 35  1  0  0  0
  8 36  1  0  0  0
  9 37  1  0  0  0
 16 38  1  0  0  0
 17 39  1  0  0  0
 18 40  1  0  0  0
 21 41  1  0  0  0
 24 42  1  0  0  0
 24 43  1  0  0  0
 24 44  1  0  0  0
 25 45  1  0  0  0
 25 46  1  0  0  0
 25 47  1  0  0  0
 27 48  1  0  0  0
 28 49  1  0  0  0
 30 50  1  0  0  0
 30 51  1  0  0  0
 31 52  1  0  0  0
 31 53  1  0  0  0
M  END
$$$$
