3l3q_ligand
  -I-interpret- 

176177  0  0  0  0  0  0  0  0999 V2000
   35.9530   30.1400    2.6870 N   0  3  0  0  0
   35.7920   30.9260    3.9060 C   0  0  0  0  0
   36.8170   32.0620    4.0230 C   0  0  0  0  0
   37.9130   31.8440    4.5500 O   0  0  0  0  0
   36.0250   29.8880    5.0160 C   0  0  0  0  0
   36.8180   28.7600    4.3370 C   0  0  0  0  0
   36.9380   29.0590    2.8650 C   0  0  0  0  0
   36.4640   33.2550    3.5360 N   0  0  0  0  0
   37.3050   34.4700    3.6680 C   0  0  0  0  0
   38.5100   34.1910    4.5920 C   0  0  0  0  0
   38.3220   34.0630    5.8080 O   0  0  0  0  0
   36.4230   35.6170    4.2290 C   0  0  0  0  0
   36.6120   36.9810    3.5570 C   0  0  0  0  0
   37.0300   37.1000    2.2280 C   0  0  0  0  0
   36.3070   38.1530    4.2610 C   0  0  0  0  0
   37.1840   38.3570    1.6310 C   0  0  0  0  0
   36.4690   39.4180    3.6700 C   0  0  0  0  0
   36.9000   39.5130    2.3520 C   0  0  0  0  0
   39.7160   34.0590    4.0040 N   0  0  0  0  0
   41.0560   33.9340    4.7190 C   0  0  0  0  0
   41.3240   34.9910    5.8200 C   0  0  0  0  0
   42.0920   34.7600    6.7700 O   0  0  0  0  0
   42.2450   33.8830    3.7080 C   0  0  0  0  0
   41.8190   34.3050    2.2850 C   0  0  0  0  0
   42.6290   33.6210    1.1630 C   0  0  0  0  0
   41.7200   33.3270   -0.0520 C   0  0  0  0  0
   42.4720   32.7580   -1.2110 N   0  3  0  0  0
   40.7030   36.1450    5.6600 N   0  0  0  0  0
   40.9300   37.3170    6.5130 C   0  0  0  0  0
   39.5700   37.9290    6.7180 C   0  0  0  0  0
   38.7340   37.8420    5.8210 O   0  0  0  0  0
   41.8340   38.2970    5.8380 C   0  0  0  0  0
   43.2460   37.8770    5.8190 C   0  0  0  0  0
   44.0320   38.8280    5.0030 C   0  0  0  0  0
   45.4640   38.4580    5.0300 C   0  0  0  0  0
   46.2210   39.4210    4.2200 N   0  3  0  0  0
   39.3110   38.4440    7.9260 N   0  0  0  0  0
   38.0050   38.9760    8.3280 C   0  0  0  0  0
   38.2810   40.3180    9.0190 C   0  0  0  0  0
   38.9730   40.4010   10.0040 O   0  0  0  0  0
   37.3030   38.1140    9.3760 C   0  0  0  0  0
   36.6960   36.8020    8.9830 C   0  0  0  0  0
   36.4660   35.9500   10.2490 C   0  0  0  0  0
   35.7120   36.6000   11.4230 C   0  0  0  0  0
   36.1190   36.1420   12.8390 N   0  3  0  0  0
   37.6970   41.3630    8.5020 N   0  0  0  0  0
   37.6760   42.6050    9.2220 C   0  0  0  0  0
   36.6780   42.5340   10.4340 C   0  0  0  0  0
   35.6640   41.8040   10.4100 O   0  0  0  0  0
   37.2560   43.6690    8.2050 C   0  0  0  0  0
   37.6300   45.0050    8.7830 C   0  0  0  0  0
   38.2240   45.9880    7.8170 C   0  0  0  0  0
   37.4740   47.2320    7.9160 N   0  0  0  0  0
   36.6730   47.6730    6.9590 C   0  0  0  0  0
   36.5810   46.9710    5.8330 N   0  0  0  0  0
   35.9890   48.8070    7.1210 N   0  0  0  0  0
   36.9890   43.2760   11.4970 N   0  0  0  0  0
   35.9860   43.5370   12.5380 C   0  0  0  0  0
   35.2250   44.8560   12.2950 C   0  0  0  0  0
   35.7330   45.9560   12.5520 O   0  0  0  0  0
   36.6080   43.5100   13.8940 C   0  0  0  0  0
   35.5400   43.6540   14.8940 C   0  0  0  0  0
   36.1040   43.6250   16.2040 C   0  0  0  0  0
   34.9680   43.5990   17.0970 N   0  0  0  0  0
   35.0880   43.7270   18.3890 C   0  0  0  0  0
   36.3070   43.9080   18.8750 N   0  0  0  0  0
   34.0270   43.7000   19.1830 N   0  0  0  0  0
   34.0300   44.7650   11.7330 N   0  0  0  0  0
   33.3400   45.9620   11.1860 C   0  0  0  0  0
   32.2060   46.5260   12.1150 C   0  0  0  0  0
   31.6970   45.8180   12.9880 O   0  0  0  0  0
   32.8400   45.6910    9.7270 C   0  0  0  0  0
   32.5140   46.9610    8.9060 C   0  0  0  0  0
   31.5510   46.7230    7.7300 C   0  0  0  0  0
   30.8940   47.6960    7.2710 O   0  0  0  0  0
   31.4480   45.5680    7.2600 O   0  0  0  0  0
   31.8640   47.8070   11.9000 N   0  0  0  0  0
   30.7490   48.5820   12.5340 C   0  0  0  0  0
   30.7190   48.6330   14.0640 C   0  0  0  0  0
   31.4570   49.4030   14.6890 O   0  0  0  0  0
   29.3380   48.2080   11.9410 C   0  0  0  0  0
   29.9600   47.9150   14.7160 O   0  0  0  0  0
   36.2834   30.7583    1.9461 H   0  0  0  0  0
   35.0532   29.7207    2.4526 H   0  0  0  0  0
   34.8213   31.4203    3.9447 H   0  0  0  0  0
   35.0871   29.5277    5.4385 H   0  0  0  0  0
   36.5657   30.3124    5.8619 H   0  0  0  0  0
   36.2998   27.8114    4.4775 H   0  0  0  0  0
   37.8117   28.6924    4.7797 H   0  0  0  0  0
   37.9467   29.3421    2.5642 H   0  0  0  0  0
   36.7449   28.1924    2.2327 H   0  0  0  0  0
   35.5713   33.3344    3.0489 H   0  0  0  0  0
   37.7012   34.7610    2.6952 H   0  0  0  0  0
   36.7051   35.7435    5.2742 H   0  0  0  0  0
   35.3870   35.3258    4.0558 H   0  0  0  0  0
   37.2390   36.2009    1.6483 H   0  0  0  0  0
   35.9379   38.0828    5.2842 H   0  0  0  0  0
   37.5272   38.4304    0.5990 H   0  0  0  0  0
   36.2575   40.3208    4.2430 H   0  0  0  0  0
   37.0153   40.4907    1.8842 H   0  0  0  0  0
   39.7332   34.0411    2.9843 H   0  0  0  0  0
   40.9844   32.9831    5.2469 H   0  0  0  0  0
   42.6081   32.8562    3.6629 H   0  0  0  0  0
   43.0126   34.5763    4.0519 H   0  0  0  0  0
   41.9886   35.3784    2.2000 H   0  0  0  0  0
   40.7767   34.0125    2.1578 H   0  0  0  0  0
   43.0351   32.6820    1.5391 H   0  0  0  0  0
   43.4359   34.2844    0.8515 H   0  0  0  0  0
   41.2745   34.2689   -0.3722 H   0  0  0  0  0
   40.9758   32.5929    0.2568 H   0  0  0  0  0
   41.8264   32.5840   -1.9813 H   0  0  0  0  0
   43.1877   33.4209   -1.5089 H   0  0  0  0  0
   42.9135   31.8821   -0.9313 H   0  0  0  0  0
   40.0272   36.2264    4.9004 H   0  0  0  0  0
   41.4055   37.0405    7.4540 H   0  0  0  0  0
   41.7777   39.2323    6.3949 H   0  0  0  0  0
   41.5050   38.3873    4.8028 H   0  0  0  0  0
   43.3225   36.8787    5.3881 H   0  0  0  0  0
   43.6350   37.8638    6.8371 H   0  0  0  0  0
   43.9141   39.8319    5.4109 H   0  0  0  0  0
   43.6739   38.7975    3.9739 H   0  0  0  0  0
   45.5925   37.4546    4.6241 H   0  0  0  0  0
   45.8288   38.4740    6.0570 H   0  0  0  0  0
   47.2100   39.1720    4.2340 H   0  0  0  0  0
   45.8775   39.4001    3.2598 H   0  0  0  0  0
   46.0995   40.3575    4.6055 H   0  0  0  0  0
   40.0684   38.4679    8.6087 H   0  0  0  0  0
   37.3755   39.0300    7.4398 H   0  0  0  0  0
   36.4570   38.7183    9.7033 H   0  0  0  0  0
   38.0899   37.8493   10.0823 H   0  0  0  0  0
   37.3685   36.2761    8.3053 H   0  0  0  0  0
   35.7443   36.9750    8.4806 H   0  0  0  0  0
   37.4609   35.7228   10.6319 H   0  0  0  0  0
   35.8426   35.1151    9.9289 H   0  0  0  0  0
   34.6658   36.3184   11.3033 H   0  0  0  0  0
   35.9367   37.6654   11.3737 H   0  0  0  0  0
   35.5557   36.6373   13.5303 H   0  0  0  0  0
   35.9633   35.1379   12.9281 H   0  0  0  0  0
   37.1061   36.3491   12.9914 H   0  0  0  0  0
   37.2547   41.2980    7.5852 H   0  0  0  0  0
   38.6500   42.8391    9.6517 H   0  0  0  0  0
   36.1838   43.6183    8.0157 H   0  0  0  0  0
   37.7579   43.5085    7.2508 H   0  0  0  0  0
   38.3936   44.8127    9.5367 H   0  0  0  0  0
   36.7063   45.4523    9.1501 H   0  0  0  0  0
   38.1680   45.5962    6.8014 H   0  0  0  0  0
   39.2729   46.1624    8.0569 H   0  0  0  0  0
   37.5705   47.7907    8.7639 H   0  0  0  0  0
   37.1211   46.1130    5.7214 H   0  0  0  0  0
   35.3835   49.1484    6.3746 H   0  0  0  0  0
   36.0716   49.3325    7.9913 H   0  0  0  0  0
   37.9278   43.6643   11.5879 H   0  0  0  0  0
   35.2493   42.7353   12.4863 H   0  0  0  0  0
   37.3254   44.3247   13.9928 H   0  0  0  0  0
   37.1368   42.5688   14.0443 H   0  0  0  0  0
   34.8305   42.8335   14.7869 H   0  0  0  0  0
   35.0267   44.6034   14.7416 H   0  0  0  0  0
   36.7443   44.4876   16.3884 H   0  0  0  0  0
   36.7514   42.7598   16.3471 H   0  0  0  0  0
   34.0361   43.4757   16.7011 H   0  0  0  0  0
   37.1076   43.9427   18.2440 H   0  0  0  0  0
   34.1401   43.8199   20.1896 H   0  0  0  0  0
   33.0974   43.5593   18.7874 H   0  0  0  0  0
   33.5735   43.8547   11.6742 H   0  0  0  0  0
   34.0824   46.7592   11.1502 H   0  0  0  0  0
   31.9140   45.1221    9.8106 H   0  0  0  0  0
   33.6476   45.1765    9.2063 H   0  0  0  0  0
   33.4527   47.3209    8.4848 H   0  0  0  0  0
   32.0279   47.6645    9.5819 H   0  0  0  0  0
   31.1131   48.4898    7.7644 H   0  0  0  0  0
   32.4328   48.3144   11.2222 H   0  0  0  0  0
   30.9919   49.6060   12.2503 H   0  0  0  0  0
   31.9944   49.9024   14.0698 H   0  0  0  0  0
   29.3273   48.4188   10.8716 H   0  0  0  0  0
   29.1455   47.1478   12.1056 H   0  0  0  0  0
   28.5685   48.7996   12.4370 H   0  0  0  0  0
  1  2  1  0  0  0
  1  7  1  0  0  0
  2  3  1  0  0  0
  2  5  1  0  0  0
  3  4  2  0  0  0
  3  8  1  0  0  0
  5  6  1  0  0  0
  6  7  1  0  0  0
  8  9  1  0  0  0
  9 10  1  0  0  0
  9 12  1  0  0  0
 10 11  2  0  0  0
 10 19  1  0  0  0
 12 13  1  0  0  0
 13 14  4  0  0  0
 13 15  4  0  0  0
 14 16  4  0  0  0
 15 17  4  0  0  0
 16 18  4  0  0  0
 17 18  4  0  0  0
 19 20  1  0  0  0
 20 21  1  0  0  0
 20 23  1  0  0  0
 21 22  2  0  0  0
 21 28  1  0  0  0
 23 24  1  0  0  0
 24 25  1  0  0  0
 25 26  1  0  0  0
 26 27  1  0  0  0
 28 29  1  0  0  0
 29 30  1  0  0  0
 29 32  1  0  0  0
 30 31  2  0  0  0
 30 37  1  0  0  0
 32 33  1  0  0  0
 33 34  1  0  0  0
 34 35  1  0  0  0
 35 36  1  0  0  0
 37 38  1  0  0  0
 38 39  1  0  0  0
 38 41  1  0  0  0
 39 40  2  0  0  0
 39 46  1  0  0  0
 41 42  1  0  0  0
 42 43  1  0  0  0
 43 44  1  0  0  0
 44 45  1  0  0  0
 46 47  1  0  0  0
 47 48  1  0  0  0
 47 50  1  0  0  0
 48 49  2  0  0  0
 48 57  1  0  0  0
 50 51  1  0  0  0
 51 52  1  0  0  0
 52 53  1  0  0  0
 53 54  1  0  0  0
 54 55  2  0  0  0
 54 56  1  0  0  0
 57 58  1  0  0  0
 58 59  1  0  0  0
 58 61  1  0  0  0
 59 60  2  0  0  0
 59 68  1  0  0  0
 61 62  1  0  0  0
 62 63  1  0  0  0
 63 64  1  0  0  0
 64 65  1  0  0  0
 65 66  2  0  0  0
 65 67  1  0  0  0
 68 69  1  0  0  0
 69 70  1  0  0  0
 69 72  1  0  0  0
 70 71  2  0  0  0
 70 77  1  0  0  0
 72 73  1  0  0  0
 73 74  1  0  0  0
 74 75  1  0  0  0
 74 76  2  0  0  0
 77 78  1  0  0  0
 78 79  1  0  0  0
 78 81  1  0  0  0
 79 80  1  0  0  0
 79 82  2  0  0  0
  1 83  1  0  0  0
  1 84  1  0  0  0
  2 85  1  0  0  0
  5 86  1  0  0  0
  5 87  1  0  0  0
  6 88  1  0  0  0
  6 89  1  0  0  0
  7 90  1  0  0  0
  7 91  1  0  0  0
  8 92  1  0  0  0
  9 93  1  0  0  0
 12 94  1  0  0  0
 12 95  1  0  0  0
 14 96  1  0  0  0
 15 97  1  0  0  0
 16 98  1  0  0  0
 17 99  1  0  0  0
 18100  1  0  0  0
 19101  1  0  0  0
 20102  1  0  0  0
 23103  1  0  0  0
 23104  1  0  0  0
 24105  1  0  0  0
 24106  1  0  0  0
 25107  1  0  0  0
 25108  1  0  0  0
 26109  1  0  0  0
 26110  1  0  0  0
 27111  1  0  0  0
 27112  1  0  0  0
 27113  1  0  0  0
 28114  1  0  0  0
 29115  1  0  0  0
 32116  1  0  0  0
 32117  1  0  0  0
 33118  1  0  0  0
 33119  1  0  0  0
 34120  1  0  0  0
 34121  1  0  0  0
 35122  1  0  0  0
 35123  1  0  0  0
 36124  1  0  0  0
 36125  1  0  0  0
 36126  1  0  0  0
 37127  1  0  0  0
 38128  1  0  0  0
 41129  1  0  0  0
 41130  1  0  0  0
 42131  1  0  0  0
 42132  1  0  0  0
 43133  1  0  0  0
 43134  1  0  0  0
 44135  1  0  0  0
 44136  1  0  0  0
 45137  1  0  0  0
 45138  1  0  0  0
 45139  1  0  0  0
 46140  1  0  0  0
 47141  1  0  0  0
 50142  1  0  0  0
 50143  1  0  0  0
 51144  1  0  0  0
 51145  1  0  0  0
 52146  1  0  0  0
 52147  1  0  0  0
 53148  1  0  0  0
 55149  1  0  0  0
 56150  1  0  0  0
 56151  1  0  0  0
 57152  1  0  0  0
 58153  1  0  0  0
 61154  1  0  0  0
 61155  1  0  0  0
 62156  1  0  0  0
 62157  1  0  0  0
 63158  1  0  0  0
 63159  1  0  0  0
 64160  1  0  0  0
 66161  1  0  0  0
 67162  1  0  0  0
 67163  1  0  0  0
 68164  1  0  0  0
 69165  1  0  0  0
 72166  1  0  0  0
 72167  1  0  0  0
 73168  1  0  0  0
 73169  1  0  0  0
 75170  1  0  0  0
 77171  1  0  0  0
 78172  1  0  0  0
 80173  1  0  0  0
 81174  1  0  0  0
 81175  1  0  0  0
 81176  1  0  0  0
M  END
$$$$
