### 
### Created by X-TOOL on Mon Sep 10 21:13:03 2018
### 

@<TRIPOS>MOLECULE
3l3q_ligand
  176   177     1     0     0
SMALL
GAST_HUCK


@<TRIPOS>ATOM
      1 N          35.9530   30.1400    2.6870 N.4       1 PRO         0.2461
      2 CA         35.7920   30.9260    3.9060 C.3       1 PRO         0.0670
      3 C          36.8170   32.0620    4.0230 C.2       1 PRO         0.2269
      4 O          37.9130   31.8440    4.5500 O.2       1 PRO        -0.3907
      5 CB         36.0250   29.8880    5.0160 C.3       1 PRO         0.0127
      6 CG         36.8180   28.7600    4.3370 C.3       1 PRO        -0.0053
      7 CD         36.9380   29.0590    2.8650 C.3       1 PRO        -0.0313
      8 N          36.4640   33.2550    3.5360 N.am      1 PHE        -0.2592
      9 CA         37.3050   34.4700    3.6680 C.3       1 PHE         0.1406
     10 C          38.5100   34.1910    4.5920 C.2       1 PHE         0.2060
     11 O          38.3220   34.0630    5.8080 O.2       1 PHE        -0.3942
     12 CB         36.4230   35.6170    4.2290 C.3       1 PHE         0.0214
     13 CG         36.6120   36.9810    3.5570 C.ar      1 PHE        -0.0386
     14 CD1        37.0300   37.1000    2.2280 C.ar      1 PHE        -0.0601
     15 CD2        36.3070   38.1530    4.2610 C.ar      1 PHE        -0.0601
     16 CE1        37.1840   38.3570    1.6310 C.ar      1 PHE        -0.0686
     17 CE2        36.4690   39.4180    3.6700 C.ar      1 PHE        -0.0686
     18 CZ         36.9000   39.5130    2.3520 C.ar      1 PHE        -0.0687
     19 N          39.7160   34.0590    4.0040 N.am      1 LYS        -0.2636
     20 CA         41.0560   33.9340    4.7190 C.3       1 LYS         0.1310
     21 C          41.3240   34.9910    5.8200 C.2       1 LYS         0.2039
     22 O          42.0920   34.7600    6.7700 O.2       1 LYS        -0.3944
     23 CB         42.2450   33.8830    3.7080 C.3       1 LYS        -0.0122
     24 CG         41.8190   34.3050    2.2850 C.3       1 LYS        -0.0440
     25 CD         42.6290   33.6210    1.1630 C.3       1 LYS        -0.0124
     26 CE         41.7200   33.3270   -0.0520 C.3       1 LYS        -0.0354
     27 NZ         42.4720   32.7580   -1.2110 N.4       1 LYS         0.2185
     28 N          40.7030   36.1450    5.6600 N.am      1 LYS        -0.2637
     29 CA         40.9300   37.3170    6.5130 C.3       1 LYS         0.1310
     30 C          39.5700   37.9290    6.7180 C.2       1 LYS         0.2039
     31 O          38.7340   37.8420    5.8210 O.2       1 LYS        -0.3944
     32 CB         41.8340   38.2970    5.8380 C.3       1 LYS        -0.0122
     33 CG         43.2460   37.8770    5.8190 C.3       1 LYS        -0.0440
     34 CD         44.0320   38.8280    5.0030 C.3       1 LYS        -0.0124
     35 CE         45.4640   38.4580    5.0300 C.3       1 LYS        -0.0354
     36 NZ         46.2210   39.4210    4.2200 N.4       1 LYS         0.2185
     37 N          39.3110   38.4440    7.9260 N.am      1 LYS        -0.2637
     38 CA         38.0050   38.9760    8.3280 C.3       1 LYS         0.1310
     39 C          38.2810   40.3180    9.0190 C.2       1 LYS         0.2039
     40 O          38.9730   40.4010   10.0040 O.2       1 LYS        -0.3944
     41 CB         37.3030   38.1140    9.3760 C.3       1 LYS        -0.0122
     42 CG         36.6960   36.8020    8.9830 C.3       1 LYS        -0.0440
     43 CD         36.4660   35.9500   10.2490 C.3       1 LYS        -0.0124
     44 CE         35.7120   36.6000   11.4230 C.3       1 LYS        -0.0354
     45 NZ         36.1190   36.1420   12.8390 N.4       1 LYS         0.2185
     46 N          37.6970   41.3630    8.5020 N.am      1 ARG        -0.2637
     47 CA         37.6760   42.6050    9.2220 C.3       1 ARG         0.1311
     48 C          36.6780   42.5340   10.4340 C.2       1 ARG         0.2039
     49 O          35.6640   41.8040   10.4100 O.2       1 ARG        -0.3944
     50 CB         37.2560   43.6690    8.2050 C.3       1 ARG        -0.0092
     51 CG         37.6300   45.0050    8.7830 C.3       1 ARG        -0.0156
     52 CD         38.2240   45.9880    7.8170 C.3       1 ARG         0.0627
     53 NE         37.4740   47.2320    7.9160 N.pl3     1 ARG        -0.2723
     54 CZ         36.6730   47.6730    6.9590 C.cat     1 ARG         0.2882
     55 NH1        36.5810   46.9710    5.8330 N.pl3     1 ARG        -0.2849
     56 NH2        35.9890   48.8070    7.1210 N.pl3     1 ARG        -0.2849
     57 N          36.9890   43.2760   11.4970 N.am      1 ARG        -0.2637
     58 CA         35.9860   43.5370   12.5380 C.3       1 ARG         0.1311
     59 C          35.2250   44.8560   12.2950 C.2       1 ARG         0.2039
     60 O          35.7330   45.9560   12.5520 O.2       1 ARG        -0.3944
     61 CB         36.6080   43.5100   13.8940 C.3       1 ARG        -0.0092
     62 CG         35.5400   43.6540   14.8940 C.3       1 ARG        -0.0156
     63 CD         36.1040   43.6250   16.2040 C.3       1 ARG         0.0627
     64 NE         34.9680   43.5990   17.0970 N.pl3     1 ARG        -0.2723
     65 CZ         35.0880   43.7270   18.3890 C.cat     1 ARG         0.2882
     66 NH1        36.3070   43.9080   18.8750 N.pl3     1 ARG        -0.2849
     67 NH2        34.0270   43.7000   19.1830 N.pl3     1 ARG        -0.2849
     68 N          34.0300   44.7650   11.7330 N.am      1 GLU        -0.2636
     69 CA         33.3400   45.9620   11.1860 C.3       1 GLU         0.1324
     70 C          32.2060   46.5260   12.1150 C.2       1 GLU         0.2034
     71 O          31.6970   45.8180   12.9880 O.2       1 GLU        -0.3944
     72 CB         32.8400   45.6910    9.7270 C.3       1 GLU        -0.0008
     73 CG         32.5140   46.9610    8.9060 C.3       1 GLU         0.0044
     74 CD         31.5510   46.7230    7.7300 C.2       1 GLU         0.0350
     75 OE1        30.8940   47.6960    7.2710 O.co2     1 GLU        -0.5690
     76 OE2        31.4480   45.5680    7.2600 O.co2     1 GLU        -0.5690
     77 N          31.8640   47.8070   11.9000 N.am      1 ALA        -0.2698
     78 CA         30.7490   48.5820   12.5340 C.3       1 ALA         0.0916
     79 C          30.7190   48.6330   14.0640 C.2       1 ALA         0.0598
     80 O          31.4570   49.4030   14.6890 O.co2     1 ALA        -0.5666
     81 CB         29.3380   48.2080   11.9410 C.3       1 ALA        -0.0300
     82 OXT        29.9600   47.9150   14.7160 O.co2     1 ALA        -0.5666
     83 H          36.2834   30.7583    1.9461 H         1 PRO         0.2035
     84 H          35.0532   29.7207    2.4526 H         1 PRO         0.2035
     85 H          34.8213   31.4203    3.9447 H         1 PRO         0.1099
     86 H          35.0871   29.5277    5.4385 H         1 PRO         0.0347
     87 H          36.5657   30.3124    5.8619 H         1 PRO         0.0347
     88 H          36.2998   27.8114    4.4775 H         1 PRO         0.0320
     89 H          37.8117   28.6924    4.7797 H         1 PRO         0.0320
     90 H          37.9467   29.3421    2.5642 H         1 PRO         0.0814
     91 H          36.7449   28.1924    2.2327 H         1 PRO         0.0814
     92 H          35.5713   33.3344    3.0489 H         1 PHE         0.1886
     93 H          37.7012   34.7610    2.6952 H         1 PHE         0.0823
     94 H          36.7051   35.7435    5.2742 H         1 PHE         0.0474
     95 H          35.3870   35.3258    4.0558 H         1 PHE         0.0474
     96 H          37.2390   36.2009    1.6483 H         1 PHE         0.0557
     97 H          35.9379   38.0828    5.2842 H         1 PHE         0.0557
     98 H          37.5272   38.4304    0.5990 H         1 PHE         0.0599
     99 H          36.2575   40.3208    4.2430 H         1 PHE         0.0599
    100 H          37.0153   40.4907    1.8842 H         1 PHE         0.0559
    101 H          39.7332   34.0411    2.9843 H         1 LYS         0.1883
    102 H          40.9844   32.9831    5.2469 H         1 LYS         0.0800
    103 H          42.6081   32.8562    3.6629 H         1 LYS         0.0312
    104 H          43.0126   34.5763    4.0519 H         1 LYS         0.0312
    105 H          41.9886   35.3784    2.2000 H         1 LYS         0.0269
    106 H          40.7767   34.0125    2.1578 H         1 LYS         0.0269
    107 H          43.0351   32.6820    1.5391 H         1 LYS         0.0317
    108 H          43.4359   34.2844    0.8515 H         1 LYS         0.0317
    109 H          41.2745   34.2689   -0.3722 H         1 LYS         0.0813
    110 H          40.9758   32.5929    0.2568 H         1 LYS         0.0813
    111 H          41.8264   32.5840   -1.9813 H         1 LYS         0.1994
    112 H          43.1877   33.4209   -1.5089 H         1 LYS         0.1994
    113 H          42.9135   31.8821   -0.9313 H         1 LYS         0.1994
    114 H          40.0272   36.2264    4.9004 H         1 LYS         0.1883
    115 H          41.4055   37.0405    7.4540 H         1 LYS         0.0800
    116 H          41.7777   39.2323    6.3949 H         1 LYS         0.0312
    117 H          41.5050   38.3873    4.8028 H         1 LYS         0.0312
    118 H          43.3225   36.8787    5.3881 H         1 LYS         0.0269
    119 H          43.6350   37.8638    6.8371 H         1 LYS         0.0269
    120 H          43.9141   39.8319    5.4109 H         1 LYS         0.0317
    121 H          43.6739   38.7975    3.9739 H         1 LYS         0.0317
    122 H          45.5925   37.4546    4.6241 H         1 LYS         0.0813
    123 H          45.8288   38.4740    6.0570 H         1 LYS         0.0813
    124 H          47.2100   39.1720    4.2340 H         1 LYS         0.1994
    125 H          45.8775   39.4001    3.2598 H         1 LYS         0.1994
    126 H          46.0995   40.3575    4.6055 H         1 LYS         0.1994
    127 H          40.0684   38.4679    8.6087 H         1 LYS         0.1883
    128 H          37.3755   39.0300    7.4398 H         1 LYS         0.0800
    129 H          36.4570   38.7183    9.7033 H         1 LYS         0.0312
    130 H          38.0899   37.8493   10.0823 H         1 LYS         0.0312
    131 H          37.3685   36.2761    8.3053 H         1 LYS         0.0269
    132 H          35.7443   36.9750    8.4806 H         1 LYS         0.0269
    133 H          37.4609   35.7228   10.6319 H         1 LYS         0.0317
    134 H          35.8426   35.1151    9.9289 H         1 LYS         0.0317
    135 H          34.6658   36.3184   11.3033 H         1 LYS         0.0813
    136 H          35.9367   37.6654   11.3737 H         1 LYS         0.0813
    137 H          35.5557   36.6373   13.5303 H         1 LYS         0.1994
    138 H          35.9633   35.1379   12.9281 H         1 LYS         0.1994
    139 H          37.1061   36.3491   12.9914 H         1 LYS         0.1994
    140 H          37.2547   41.2980    7.5852 H         1 ARG         0.1883
    141 H          38.6500   42.8391    9.6517 H         1 ARG         0.0800
    142 H          36.1838   43.6183    8.0157 H         1 ARG         0.0313
    143 H          37.7579   43.5085    7.2508 H         1 ARG         0.0313
    144 H          38.3936   44.8127    9.5367 H         1 ARG         0.0301
    145 H          36.7063   45.4523    9.1501 H         1 ARG         0.0301
    146 H          38.1680   45.5962    6.8014 H         1 ARG         0.0689
    147 H          39.2729   46.1624    8.0569 H         1 ARG         0.0689
    148 H          37.5705   47.7907    8.7639 H         1 ARG         0.2642
    149 H          37.1211   46.1130    5.7214 H         1 ARG         0.2615
    150 H          35.9703   47.2907    5.0811 H         1 ARG         0.2615
    151 H          36.0817   49.3394    7.9861 H         1 ARG         0.2615
    152 H          35.3733   49.1416    6.3798 H         1 ARG         0.2615
    153 H          37.9278   43.6643   11.5879 H         1 ARG         0.1883
    154 H          35.2493   42.7353   12.4863 H         1 ARG         0.0800
    155 H          37.3254   44.3247   13.9928 H         1 ARG         0.0313
    156 H          37.1368   42.5688   14.0443 H         1 ARG         0.0313
    157 H          34.8305   42.8335   14.7869 H         1 ARG         0.0301
    158 H          35.0267   44.6034   14.7416 H         1 ARG         0.0301
    159 H          36.7443   44.4876   16.3884 H         1 ARG         0.0689
    160 H          36.7514   42.7598   16.3471 H         1 ARG         0.0689
    161 H          34.0361   43.4757   16.7011 H         1 ARG         0.2642
    162 H          37.1076   43.9427   18.2440 H         1 ARG         0.2615
    163 H          36.4449   44.0126   19.8802 H         1 ARG         0.2615
    164 H          33.0956   43.5773   18.7856 H         1 ARG         0.2615
    165 H          34.1419   43.8019   20.1914 H         1 ARG         0.2615
    166 H          33.5735   43.8547   11.6742 H         1 GLU         0.1883
    167 H          34.0824   46.7592   11.1502 H         1 GLU         0.0801
    168 H          31.9140   45.1221    9.8106 H         1 GLU         0.0330
    169 H          33.6476   45.1765    9.2063 H         1 GLU         0.0330
    170 H          33.4527   47.3209    8.4848 H         1 GLU         0.0433
    171 H          32.0279   47.6645    9.5819 H         1 GLU         0.0433
    172 H          32.4328   48.3144   11.2222 H         1 ALA         0.1875
    173 H          30.9919   49.6060   12.2503 H         1 ALA         0.0723
    174 H          29.3273   48.4188   10.8716 H         1 ALA         0.0270
    175 H          29.1455   47.1478   12.1056 H         1 ALA         0.0270
    176 H          28.5685   48.7996   12.4370 H         1 ALA         0.0270
@<TRIPOS>BOND
     1    1    2 1  
     2    1    7 1  
     3    2    3 1  
     4    2    5 1  
     5    3    4 2  
     6    3    8 am 
     7    5    6 1  
     8    6    7 1  
     9    8    9 1  
    10    9   10 1  
    11    9   12 1  
    12   10   11 2  
    13   10   19 am 
    14   12   13 1  
    15   13   14 ar 
    16   13   15 ar 
    17   14   16 ar 
    18   15   17 ar 
    19   16   18 ar 
    20   17   18 ar 
    21   19   20 1  
    22   20   21 1  
    23   20   23 1  
    24   21   22 2  
    25   21   28 am 
    26   23   24 1  
    27   24   25 1  
    28   25   26 1  
    29   26   27 1  
    30   28   29 1  
    31   29   30 1  
    32   29   32 1  
    33   30   31 2  
    34   30   37 am 
    35   32   33 1  
    36   33   34 1  
    37   34   35 1  
    38   35   36 1  
    39   37   38 1  
    40   38   39 1  
    41   38   41 1  
    42   39   40 2  
    43   39   46 am 
    44   41   42 1  
    45   42   43 1  
    46   43   44 1  
    47   44   45 1  
    48   46   47 1  
    49   47   48 1  
    50   47   50 1  
    51   48   49 2  
    52   48   57 am 
    53   50   51 1  
    54   51   52 1  
    55   52   53 1  
    56   53   54 ar 
    57   54   55 ar 
    58   54   56 ar 
    59   57   58 1  
    60   58   59 1  
    61   58   61 1  
    62   59   60 2  
    63   59   68 am 
    64   61   62 1  
    65   62   63 1  
    66   63   64 1  
    67   64   65 ar 
    68   65   66 ar 
    69   65   67 ar 
    70   68   69 1  
    71   69   70 1  
    72   69   72 1  
    73   70   71 2  
    74   70   77 am 
    75   72   73 1  
    76   73   74 1  
    77   74   75 ar 
    78   74   76 ar 
    79   77   78 1  
    80   78   79 1  
    81   78   81 1  
    82   79   80 ar 
    83   79   82 ar 
    84    1   83 1  
    85    1   84 1  
    86    2   85 1  
    87    5   86 1  
    88    5   87 1  
    89    6   88 1  
    90    6   89 1  
    91    7   90 1  
    92    7   91 1  
    93    8   92 1  
    94    9   93 1  
    95   12   94 1  
    96   12   95 1  
    97   14   96 1  
    98   15   97 1  
    99   16   98 1  
   100   17   99 1  
   101   18  100 1  
   102   19  101 1  
   103   20  102 1  
   104   23  103 1  
   105   23  104 1  
   106   24  105 1  
   107   24  106 1  
   108   25  107 1  
   109   25  108 1  
   110   26  109 1  
   111   26  110 1  
   112   27  111 1  
   113   27  112 1  
   114   27  113 1  
   115   28  114 1  
   116   29  115 1  
   117   32  116 1  
   118   32  117 1  
   119   33  118 1  
   120   33  119 1  
   121   34  120 1  
   122   34  121 1  
   123   35  122 1  
   124   35  123 1  
   125   36  124 1  
   126   36  125 1  
   127   36  126 1  
   128   37  127 1  
   129   38  128 1  
   130   41  129 1  
   131   41  130 1  
   132   42  131 1  
   133   42  132 1  
   134   43  133 1  
   135   43  134 1  
   136   44  135 1  
   137   44  136 1  
   138   45  137 1  
   139   45  138 1  
   140   45  139 1  
   141   46  140 1  
   142   47  141 1  
   143   50  142 1  
   144   50  143 1  
   145   51  144 1  
   146   51  145 1  
   147   52  146 1  
   148   52  147 1  
   149   53  148 1  
   150   55  149 1  
   151   55  150 1  
   152   56  151 1  
   153   56  152 1  
   154   57  153 1  
   155   58  154 1  
   156   61  155 1  
   157   61  156 1  
   158   62  157 1  
   159   62  158 1  
   160   63  159 1  
   161   63  160 1  
   162   64  161 1  
   163   66  162 1  
   164   66  163 1  
   165   67  164 1  
   166   67  165 1  
   167   68  166 1  
   168   69  167 1  
   169   72  168 1  
   170   72  169 1  
   171   73  170 1  
   172   73  171 1  
   173   77  172 1  
   174   78  173 1  
   175   81  174 1  
   176   81  175 1  
   177   81  176 1  
@<TRIPOS>SUBSTRUCTURE
     1 PRO         1

