4e6c_ligand
  -I-interpret- 

 39 39  0  0  0  0  0  0  0  0999 V2000
    3.9740    6.7320    2.6720 C   0  0  0  0  0
    3.5510    5.5890    3.5660 C   0  0  0  0  0
    2.1750    5.7430    4.2000 C   0  0  0  0  0
    1.5210    6.4380    1.8760 C   0  0  0  0  0
    2.8530    7.1760    1.7240 C   0  0  0  0  0
    0.6250    7.5740    3.8990 C   0  0  0  0  0
    0.0110    5.2550    3.3080 C   0  0  0  0  0
    5.9840    4.3260   -1.5170 C   0  0  0  0  0
    7.0370    4.4620   -2.6240 C   0  0  0  0  0
    7.2490    3.0530   -3.1570 C   0  0  0  0  0
    4.9720    3.7010    1.1490 O   0  0  0  0  0
    4.7980    5.1540    0.6560 P   0  0  0  0  0
    3.4630    5.5960    0.0440 O   0  0  0  0  0
    5.7860    5.4360   -0.6280 O   0  0  0  0  0
    5.0360    6.1930    1.9170 O   0  0  0  0  0
    1.0970    6.2690    3.3070 N   0  3  0  0  0
    4.2413    7.6131    3.2553 H   0  0  0  0  0
    4.2709    5.5457    4.3833 H   0  0  0  0  0
    3.5109    4.6978    2.9397 H   0  0  0  0  0
    2.2881    6.4700    5.0042 H   0  0  0  0  0
    1.8627    4.7428    4.5005 H   0  0  0  0  0
    1.6445    5.4429    1.4487 H   0  0  0  0  0
    0.7564    7.0301    1.3731 H   0  0  0  0  0
    3.2052    6.9704    0.7132 H   0  0  0  0  0
    2.6528    8.2227    1.9529 H   0  0  0  0  0
   -0.2098    7.9569    3.3120 H   0  0  0  0  0
    0.3027    7.4096    4.9272 H   0  0  0  0  0
    1.4423    8.2950    3.8840 H   0  0  0  0  0
   -0.3155    5.0751    4.3323 H   0  0  0  0  0
   -0.8280    5.6225    2.7171 H   0  0  0  0  0
    0.3826    4.3261    2.8753 H   0  0  0  0  0
    6.3356    3.5108   -0.8847 H   0  0  0  0  0
    5.0344    4.2020   -2.0375 H   0  0  0  0  0
    7.9647    4.8892   -2.2431 H   0  0  0  0  0
    6.7057    5.1410   -3.4097 H   0  0  0  0  0
    7.5993    2.4095   -2.3500 H   0  0  0  0  0
    6.3070    2.6681   -3.5475 H   0  0  0  0  0
    7.9921    3.0754   -3.9541 H   0  0  0  0  0
    5.8577    3.5878    1.5017 H   0  0  0  0  0
  1  2  1  0  0  0
  1  5  1  0  0  0
 15  1  1  0  0  0
  2  3  1  0  0  0
  3 16  1  0  0  0
  5  4  1  0  0  0
  4 16  1  0  0  0
 16  6  1  0  0  0
 16  7  1  0  0  0
  8  9  1  0  0  0
 14  8  1  0  0  0
  9 10  1  0  0  0
 12 11  1  0  0  0
 12 13  2  0  0  0
 12 14  1  0  0  0
 12 15  1  0  0  0
  1 17  1  0  0  0
  2 18  1  0  0  0
  2 19  1  0  0  0
  3 20  1  0  0  0
  3 21  1  0  0  0
  4 22  1  0  0  0
  4 23  1  0  0  0
  5 24  1  0  0  0
  5 25  1  0  0  0
  6 26  1  0  0  0
  6 27  1  0  0  0
  6 28  1  0  0  0
  7 29  1  0  0  0
  7 30  1  0  0  0
  7 31  1  0  0  0
  8 32  1  0  0  0
  8 33  1  0  0  0
  9 34  1  0  0  0
  9 35  1  0  0  0
 10 36  1  0  0  0
 10 37  1  0  0  0
 10 38  1  0  0  0
 11 39  1  0  0  0
M  END
$$$$
