### 
### Created by X-TOOL on Mon Sep 10 21:13:11 2018
### 

@<TRIPOS>MOLECULE
4e6c_ligand
   38    38     1     0     0
SMALL
GAST_HUCK


@<TRIPOS>ATOM
      1 C1          3.9740    6.7320    2.6720 C.3       1 0O8         0.1041
      2 C2          3.5510    5.5890    3.5660 C.3       1 0O8         0.0191
      3 C3          2.1750    5.7430    4.2000 C.3       1 0O8        -0.0278
      4 C5          1.5210    6.4380    1.8760 C.3       1 0O8        -0.0278
      5 C6          2.8530    7.1760    1.7240 C.3       1 0O8         0.0191
      6 C7          0.6250    7.5740    3.8990 C.3       1 0O8        -0.0415
      7 C8          0.0110    5.2550    3.3080 C.3       1 0O8        -0.0415
      8 C13         5.9840    4.3260   -1.5170 C.3       1 0O8         0.0834
      9 C15         7.0370    4.4620   -2.6240 C.3       1 0O8        -0.0272
     10 C16         7.2490    3.0530   -3.1570 C.3       1 0O8        -0.0628
     11 O11         4.9720    3.7010    1.1490 O.co2     1 0O8        -0.6177
     12 P9          4.7980    5.1540    0.6560 P.3       1 0O8         0.2554
     13 O10         3.4630    5.5960    0.0440 O.co2     1 0O8        -0.6177
     14 O12         5.7860    5.4360   -0.6280 O.3       1 0O8        -0.2541
     15 O14         5.0360    6.1930    1.9170 O.3       1 0O8        -0.2504
     16 N4          1.0970    6.2690    3.3070 N.4       1 0O8         0.2392
     17 H           4.2413    7.6131    3.2553 H         1 0O8         0.0660
     18 H           4.2709    5.5457    4.3833 H         1 0O8         0.0346
     19 H           3.5109    4.6978    2.9397 H         1 0O8         0.0346
     20 H           2.2881    6.4700    5.0042 H         1 0O8         0.0816
     21 H           1.8627    4.7428    4.5005 H         1 0O8         0.0816
     22 H           1.6445    5.4429    1.4487 H         1 0O8         0.0816
     23 H           0.7564    7.0301    1.3731 H         1 0O8         0.0816
     24 H           3.2052    6.9704    0.7132 H         1 0O8         0.0346
     25 H           2.6528    8.2227    1.9529 H         1 0O8         0.0346
     26 H          -0.2098    7.9569    3.3120 H         1 0O8         0.0778
     27 H           0.3027    7.4096    4.9272 H         1 0O8         0.0778
     28 H           1.4423    8.2950    3.8840 H         1 0O8         0.0778
     29 H          -0.3155    5.0751    4.3323 H         1 0O8         0.0778
     30 H          -0.8280    5.6225    2.7171 H         1 0O8         0.0778
     31 H           0.3826    4.3261    2.8753 H         1 0O8         0.0778
     32 H           6.3356    3.5108   -0.8847 H         1 0O8         0.0620
     33 H           5.0344    4.2020   -2.0375 H         1 0O8         0.0620
     34 H           7.9647    4.8892   -2.2431 H         1 0O8         0.0288
     35 H           6.7057    5.1410   -3.4097 H         1 0O8         0.0288
     36 H           7.5993    2.4095   -2.3500 H         1 0O8         0.0231
     37 H           6.3070    2.6681   -3.5475 H         1 0O8         0.0231
     38 H           7.9921    3.0754   -3.9541 H         1 0O8         0.0231
@<TRIPOS>BOND
     1    1    2 1  
     2    1    5 1  
     3   15    1 1  
     4    2    3 1  
     5    3   16 1  
     6    5    4 1  
     7    4   16 1  
     8   16    6 1  
     9   16    7 1  
    10    8    9 1  
    11   14    8 1  
    12    9   10 1  
    13   12   11 ar 
    14   12   13 ar 
    15   12   14 1  
    16   12   15 1  
    17    1   17 1  
    18    2   18 1  
    19    2   19 1  
    20    3   20 1  
    21    3   21 1  
    22    4   22 1  
    23    4   23 1  
    24    5   24 1  
    25    5   25 1  
    26    6   26 1  
    27    6   27 1  
    28    6   28 1  
    29    7   29 1  
    30    7   30 1  
    31    7   31 1  
    32    8   32 1  
    33    8   33 1  
    34    9   34 1  
    35    9   35 1  
    36   10   36 1  
    37   10   37 1  
    38   10   38 1  
@<TRIPOS>SUBSTRUCTURE
     1 0O8         1

