1d4k_ligand
  -I-interpret- 

106110  0  0  0  0  0  0  0  0999 V2000
    4.6010    2.0260   12.0620 N   0  0  0  0  0
    3.5320    1.9460   11.0500 C   0  0  0  0  0
    3.4530    3.3260   10.4420 C   0  0  0  0  0
    3.7690    4.3110   11.4310 O   0  0  0  0  0
    2.0440    3.4960   10.0130 C   0  0  0  0  0
    2.1400    1.6920   11.5350 C   0  0  0  0  0
    1.2750    2.5870   10.9310 C   0  0  0  0  0
    1.6650    0.7480   12.4320 C   0  0  0  0  0
   -0.0800    2.5520   11.2140 C   0  0  0  0  0
    0.3060    0.6990   12.7280 C   0  0  0  0  0
   -0.5720    1.6070   12.1160 C   0  0  0  0  0
    6.3910    1.1670   13.4710 C   0  0  0  0  0
    7.7430    1.2920   12.7740 C   0  0  0  0  0
    7.7380    2.2400   11.6180 C   0  0  0  0  0
    7.7230    1.7620   10.3130 C   0  0  0  0  0
    7.7280    3.6130   11.8330 C   0  0  0  0  0
    7.6960    2.6400    9.2390 C   0  0  0  0  0
    7.7010    4.4990   10.7670 C   0  0  0  0  0
    7.6840    4.0140    9.4670 C   0  0  0  0  0
    5.2850    0.9460   12.4290 C   0  0  0  0  0
    5.0570   -0.1810   11.9770 O   0  0  0  0  0
    6.4450   -0.0180   14.4210 C   0  0  0  0  0
    5.2810    0.3390   16.5060 O   0  0  0  0  0
    5.1870   -0.2920   15.2230 C   0  0  0  0  0
    5.0960   -1.7900   15.3930 C   0  0  0  0  0
    3.9150   -2.1480   16.1700 N   0  3  0  0  0
    4.0580   -3.4820   16.7620 C   0  0  0  0  0
    2.7160   -4.2190   16.7070 C   0  0  0  0  0
    2.8300   -5.6920   16.9950 C   0  0  0  0  0
    2.8980   -6.1600   18.3050 C   0  0  0  0  0
    3.0650   -7.5150   18.5750 C   0  0  0  0  0
    2.9240   -6.6160   15.9550 C   0  0  0  0  0
    3.0930   -7.9700   16.2120 C   0  0  0  0  0
    3.1640   -8.4180   17.5240 C   0  0  0  0  0
    3.3520   -9.7700   17.7500 O   0  0  0  0  0
    5.1730   -4.3830   16.2000 C   0  0  0  0  0
    5.2480   -4.6210   14.9940 O   0  0  0  0  0
    6.0830   -4.8000   17.0790 N   0  0  0  0  0
    7.1660   -5.7450   16.7330 C   0  0  0  0  0
    8.4860   -5.0290   16.3370 C   0  0  0  0  0
    9.1810   -5.8100   15.2170 C   0  0  0  0  0
    8.2170   -3.5990   15.8650 C   0  0  0  0  0
    9.3940   -2.9390   15.2290 C   0  0  0  0  0
    7.4300   -6.5950   17.9780 C   0  0  0  0  0
    7.4000   -6.0840   19.1040 O   0  0  0  0  0
    7.6450   -7.8940   17.7790 N   0  0  0  0  0
    7.9150   -8.8640   18.8560 C   0  0  0  0  0
    7.6090  -10.3010   18.4460 C   0  0  0  0  0
    6.1340  -10.5030   18.1270 C   0  0  0  0  0
    5.2480  -10.0060   19.2570 C   0  0  0  0  0
    3.7780  -10.3070   18.9950 C   0  0  0  0  0
    4.8201    2.9262   12.4886 H   0  0  0  0  0
    3.8032    1.1062   10.4103 H   0  0  0  0  0
    4.1512    3.4404    9.6128 H   0  0  0  0  0
    4.6812    4.2019   11.7096 H   0  0  0  0  0
    1.8976    3.2441    8.9627 H   0  0  0  0  0
    1.7121    4.5319   10.0824 H   0  0  0  0  0
    2.3533    0.0467   12.9038 H   0  0  0  0  0
   -0.7585    3.2582   10.7353 H   0  0  0  0  0
   -0.0747   -0.0411   13.4318 H   0  0  0  0  0
   -1.6372    1.5743   12.3448 H   0  0  0  0  0
    6.1728    2.0803   14.0245 H   0  0  0  0  0
    8.0021    0.3068   12.3863 H   0  0  0  0  0
    8.4531    1.6753   13.5067 H   0  0  0  0  0
    7.7325    0.6872   10.1316 H   0  0  0  0  0
    7.7416    3.9981   12.8526 H   0  0  0  0  0
    7.6842    2.2554    8.2192 H   0  0  0  0  0
    7.6931    5.5736   10.9496 H   0  0  0  0  0
    7.6613    4.7069    8.6259 H   0  0  0  0  0
    7.2252    0.2097   15.1473 H   0  0  0  0  0
    6.6075   -0.8987   13.7997 H   0  0  0  0  0
    4.4821    0.1616   17.0079 H   0  0  0  0  0
    4.3049    0.0998   14.7166 H   0  0  0  0  0
    5.9841   -2.1402   15.9190 H   0  0  0  0  0
    5.0249   -2.2533   14.4089 H   0  0  0  0  0
    3.1048   -2.1507   15.5504 H   0  0  0  0  0
    3.7997   -1.4678   16.9213 H   0  0  0  0  0
    4.3752   -3.2829   17.7856 H   0  0  0  0  0
    2.3236   -4.1116   15.6958 H   0  0  0  0  0
    2.0710   -3.7841   17.4705 H   0  0  0  0  0
    2.8192   -5.4540   19.1317 H   0  0  0  0  0
    3.1178   -7.8659   19.6056 H   0  0  0  0  0
    2.8638   -6.2697   14.9232 H   0  0  0  0  0
    3.1696   -8.6782   15.3870 H   0  0  0  0  0
    6.0301   -4.4508   18.0359 H   0  0  0  0  0
    6.8514   -6.3362   15.8730 H   0  0  0  0  0
    9.1278   -4.9886   17.2171 H   0  0  0  0  0
    9.4063   -6.8182   15.5646 H   0  0  0  0  0
    8.5230   -5.8619   14.3496 H   0  0  0  0  0
   10.1065   -5.3036   14.9429 H   0  0  0  0  0
    7.9533   -3.0121   16.7448 H   0  0  0  0  0
    7.4290   -3.6492   15.1135 H   0  0  0  0  0
   10.2143   -2.8933   15.9453 H   0  0  0  0  0
    9.7036   -3.5139   14.3562 H   0  0  0  0  0
    9.1210   -1.9293   14.9224 H   0  0  0  0  0
    7.6214   -8.2402   16.8198 H   0  0  0  0  0
    8.9755   -8.8049   19.1009 H   0  0  0  0  0
    7.2728   -8.6134   19.7003 H   0  0  0  0  0
    8.1854  -10.5291   17.5494 H   0  0  0  0  0
    7.8699  -10.9551   19.2780 H   0  0  0  0  0
    5.8946   -9.9382   17.2260 H   0  0  0  0  0
    5.9530  -11.5690   17.9890 H   0  0  0  0  0
    5.5443  -10.5145   20.1745 H   0  0  0  0  0
    5.3681   -8.9256   19.3376 H   0  0  0  0  0
    3.6457  -11.3886   18.9686 H   0  0  0  0  0
    3.1850   -9.8526   19.7888 H   0  0  0  0  0
 20  1  1  0  0  0
  1  2  1  0  0  0
  2  6  1  0  0  0
  2  3  1  0  0  0
  3  5  1  0  0  0
  3  4  1  0  0  0
  5  7  1  0  0  0
  7  9  4  0  0  0
  6  7  4  0  0  0
  6  8  4  0  0  0
  8 10  4  0  0  0
 10 11  4  0  0  0
  9 11  4  0  0  0
 20 21  2  0  0  0
 20 12  1  0  0  0
 12 22  1  0  0  0
 12 13  1  0  0  0
 13 14  1  0  0  0
 14 16  4  0  0  0
 14 15  4  0  0  0
 15 17  4  0  0  0
 17 19  4  0  0  0
 19 18  4  0  0  0
 16 18  4  0  0  0
 22 24  1  0  0  0
 24 23  1  0  0  0
 24 25  1  0  0  0
 25 26  1  0  0  0
 26 27  1  0  0  0
 27 36  1  0  0  0
 27 28  1  0  0  0
 28 29  1  0  0  0
 29 32  4  0  0  0
 29 30  4  0  0  0
 30 31  4  0  0  0
 31 34  4  0  0  0
 34 35  1  0  0  0
 34 33  4  0  0  0
 33 32  4  0  0  0
 35 51  1  0  0  0
 51 50  1  0  0  0
 50 49  1  0  0  0
 49 48  1  0  0  0
 48 47  1  0  0  0
 47 46  1  0  0  0
 46 44  1  0  0  0
 44 45  2  0  0  0
 44 39  1  0  0  0
 39 40  1  0  0  0
 39 38  1  0  0  0
 38 36  1  0  0  0
 36 37  2  0  0  0
 40 42  1  0  0  0
 40 41  1  0  0  0
 42 43  1  0  0  0
  1 52  1  0  0  0
  2 53  1  0  0  0
  3 54  1  0  0  0
  4 55  1  0  0  0
  5 56  1  0  0  0
  5 57  1  0  0  0
  8 58  1  0  0  0
  9 59  1  0  0  0
 10 60  1  0  0  0
 11 61  1  0  0  0
 12 62  1  0  0  0
 13 63  1  0  0  0
 13 64  1  0  0  0
 15 65  1  0  0  0
 16 66  1  0  0  0
 17 67  1  0  0  0
 18 68  1  0  0  0
 19 69  1  0  0  0
 22 70  1  0  0  0
 22 71  1  0  0  0
 23 72  1  0  0  0
 24 73  1  0  0  0
 25 74  1  0  0  0
 25 75  1  0  0  0
 26 76  1  0  0  0
 26 77  1  0  0  0
 27 78  1  0  0  0
 28 79  1  0  0  0
 28 80  1  0  0  0
 30 81  1  0  0  0
 31 82  1  0  0  0
 32 83  1  0  0  0
 33 84  1  0  0  0
 38 85  1  0  0  0
 39 86  1  0  0  0
 40 87  1  0  0  0
 41 88  1  0  0  0
 41 89  1  0  0  0
 41 90  1  0  0  0
 42 91  1  0  0  0
 42 92  1  0  0  0
 43 93  1  0  0  0
 43 94  1  0  0  0
 43 95  1  0  0  0
 46 96  1  0  0  0
 47 97  1  0  0  0
 47 98  1  0  0  0
 48 99  1  0  0  0
 48100  1  0  0  0
 49101  1  0  0  0
 49102  1  0  0  0
 50103  1  0  0  0
 50104  1  0  0  0
 51105  1  0  0  0
 51106  1  0  0  0
M  END
$$$$
