4cl9_ligand
  -I-interpret- 

 80 82  0  0  0  0  0  0  0  0999 V2000
   31.9210   47.2450   -2.8230 C   0  0  0  0  0
   31.0140   47.8930   -3.8220 C   0  0  0  0  0
   30.5080   46.9330   -4.8390 C   0  0  0  0  0
   29.8390   48.4130   -3.0550 O   0  0  0  0  0
   29.3800   49.6360   -3.3940 C   0  0  0  0  0
   29.9030   50.3460   -4.2220 O   0  0  0  0  0
   28.4560   50.0640   -2.5130 N   0  0  0  0  0
   27.7040   49.1620   -1.6380 C   0  0  0  0  0
   26.2590   49.6430   -1.5510 C   0  0  0  0  0
   25.4170   48.8630   -0.5370 C   0  0  0  0  0
   24.4320   49.7370    0.2200 C   0  0  0  0  0
   26.2310   48.0410    0.3850 N   0  0  0  0  0
   25.6980   46.8710    0.8660 C   0  0  0  0  0
   26.5330   46.0280    1.7800 C   0  0  0  0  0
   24.5710   46.5250    0.5400 O   0  0  0  0  0
   27.5100   48.5610    0.7440 C   0  0  0  0  0
   27.9560   48.5290    2.0550 C   0  0  0  0  0
   29.1940   49.0390    2.3720 C   0  0  0  0  0
   30.0240   49.5990    1.4060 C   0  0  0  0  0
   29.5590   49.6470    0.0870 C   0  0  0  0  0
   28.3170   49.1050   -0.2570 C   0  0  0  0  0
   31.3470   50.1520    1.7940 C   0  0  0  0  0
   31.8960   51.2610    1.1530 C   0  0  0  0  0
   33.1020   51.8040    1.5640 C   0  0  0  0  0
   33.7710   51.2720    2.6620 C   0  0  0  0  0
   35.0390   51.7500    3.0710 N   0  0  0  0  0
   35.6150   51.6790    4.2900 C   0  0  0  0  0
   35.0660   51.2200    5.2870 O   0  0  0  0  0
   37.0370   52.1780    4.3440 C   0  0  0  0  0
   38.0220   51.0090    4.2860 C   0  0  0  0  0
   37.9300   50.1570    3.0190 C   0  0  0  0  0
   38.5740   48.7640    3.1170 C   0  0  0  0  0
   40.0660   48.7800    3.4000 C   0  0  0  0  0
   40.7080   47.3910    3.3160 C   0  0  0  0  0
   40.4100   46.5250    4.5180 C   0  0  0  0  0
   40.5220   46.9510    5.6650 O   0  0  0  0  0
   40.0180   45.2970    4.2370 N   0  0  0  0  0
   39.7190   44.4240    5.2790 O   0  0  0  0  0
   33.2400   50.1600    3.3010 C   0  0  0  0  0
   32.0460   49.6190    2.8760 C   0  0  0  0  0
   32.2331   47.9837   -2.0848 H   0  0  0  0  0
   31.3903   46.4336   -2.3250 H   0  0  0  0  0
   32.7977   46.8475   -3.3343 H   0  0  0  0  0
   31.5665   48.6704   -4.3497 H   0  0  0  0  0
   29.9913   46.1141   -4.3384 H   0  0  0  0  0
   29.8168   47.4454   -5.5082 H   0  0  0  0  0
   31.3463   46.5384   -5.4131 H   0  0  0  0  0
   28.2708   51.0652   -2.4521 H   0  0  0  0  0
   27.7359   48.1565   -2.0576 H   0  0  0  0  0
   25.8061   49.5006   -2.5322 H   0  0  0  0  0
   26.2786   50.6843   -1.2293 H   0  0  0  0  0
   24.8266   48.1713   -1.1379 H   0  0  0  0  0
   24.9767   50.5071    0.7661 H   0  0  0  0  0
   23.7472   50.2062   -0.4864 H   0  0  0  0  0
   23.8677   49.1226    0.9216 H   0  0  0  0  0
   26.0190   45.9099    2.7339 H   0  0  0  0  0
   26.6902   45.0492    1.3269 H   0  0  0  0  0
   27.4953   46.5136    1.9420 H   0  0  0  0  0
   27.3268   48.1002    2.8349 H   0  0  0  0  0
   29.5334   49.0033    3.4072 H   0  0  0  0  0
   30.1737   50.1134   -0.6829 H   0  0  0  0  0
   31.3664   51.7094    0.3125 H   0  0  0  0  0
   33.5283   52.6506    1.0258 H   0  0  0  0  0
   35.5918   52.2099    2.3476 H   0  0  0  0  0
   37.1858   52.7185    5.2788 H   0  0  0  0  0
   37.2142   52.8312    3.4896 H   0  0  0  0  0
   37.7874   50.3548    5.1257 H   0  0  0  0  0
   39.0240   51.4374    4.3079 H   0  0  0  0  0
   38.4688   50.6963    2.2399 H   0  0  0  0  0
   36.8691   49.9979    2.8257 H   0  0  0  0  0
   38.4374   48.2801    2.1499 H   0  0  0  0  0
   38.0962   48.2490    3.9505 H   0  0  0  0  0
   40.2068   49.1493    4.4158 H   0  0  0  0  0
   40.5395   49.4101    2.6470 H   0  0  0  0  0
   41.7882   47.5284    3.2670 H   0  0  0  0  0
   40.2994   46.8903    2.4382 H   0  0  0  0  0
   39.9350   44.9910    3.2675 H   0  0  0  0  0
   39.4510   43.5760    4.9176 H   0  0  0  0  0
   33.7696   49.7129    4.1423 H   0  0  0  0  0
   31.6383   48.7535    3.3984 H   0  0  0  0  0
  1  2  1  0  0  0
  2  3  1  0  0  0
  2  4  1  0  0  0
  4  5  1  0  0  0
  5  6  2  0  0  0
  5  7  1  0  0  0
  7  8  1  0  0  0
  8  9  1  0  0  0
  8 21  1  0  0  0
  9 10  1  0  0  0
 10 11  1  0  0  0
 10 12  1  0  0  0
 12 13  1  0  0  0
 12 16  1  0  0  0
 13 14  1  0  0  0
 13 15  2  0  0  0
 16 17  4  0  0  0
 16 21  4  0  0  0
 17 18  4  0  0  0
 18 19  4  0  0  0
 19 20  4  0  0  0
 19 22  1  0  0  0
 20 21  4  0  0  0
 22 23  4  0  0  0
 22 40  4  0  0  0
 23 24  4  0  0  0
 24 25  4  0  0  0
 25 26  1  0  0  0
 25 39  4  0  0  0
 26 27  1  0  0  0
 27 28  2  0  0  0
 27 29  1  0  0  0
 29 30  1  0  0  0
 30 31  1  0  0  0
 31 32  1  0  0  0
 32 33  1  0  0  0
 33 34  1  0  0  0
 34 35  1  0  0  0
 35 36  2  0  0  0
 35 37  1  0  0  0
 37 38  1  0  0  0
 39 40  4  0  0  0
  1 41  1  0  0  0
  1 42  1  0  0  0
  1 43  1  0  0  0
  2 44  1  0  0  0
  3 45  1  0  0  0
  3 46  1  0  0  0
  3 47  1  0  0  0
  7 48  1  0  0  0
  8 49  1  0  0  0
  9 50  1  0  0  0
  9 51  1  0  0  0
 10 52  1  0  0  0
 11 53  1  0  0  0
 11 54  1  0  0  0
 11 55  1  0  0  0
 14 56  1  0  0  0
 14 57  1  0  0  0
 14 58  1  0  0  0
 17 59  1  0  0  0
 18 60  1  0  0  0
 20 61  1  0  0  0
 23 62  1  0  0  0
 24 63  1  0  0  0
 26 64  1  0  0  0
 29 65  1  0  0  0
 29 66  1  0  0  0
 30 67  1  0  0  0
 30 68  1  0  0  0
 31 69  1  0  0  0
 31 70  1  0  0  0
 32 71  1  0  0  0
 32 72  1  0  0  0
 33 73  1  0  0  0
 33 74  1  0  0  0
 34 75  1  0  0  0
 34 76  1  0  0  0
 37 77  1  0  0  0
 38 78  1  0  0  0
 39 79  1  0  0  0
 40 80  1  0  0  0
M  END
$$$$
