### 
### Created by X-TOOL on Mon Sep 10 21:13:00 2018
### 

@<TRIPOS>MOLECULE
3jzr_ligand
  207   212     1     0     0
SMALL
GAST_HUCK


@<TRIPOS>ATOM
      1 N           1.2450   -6.8280    1.9930 N.4       1 LEU         0.2379
      2 CA          0.2640   -7.6820    2.7230 C.3       1 LEU         0.0652
      3 C           0.6930   -9.1420    2.7840 C.2       1 LEU         0.2268
      4 O           0.3130   -9.8610    3.7120 O.2       1 LEU        -0.3907
      5 CB         -1.1100   -7.6130    2.0550 C.3       1 LEU         0.0102
      6 CG         -1.8710   -6.3190    2.3060 C.3       1 LEU        -0.0394
      7 CD1        -3.1900   -6.3670    1.5740 C.3       1 LEU        -0.0623
      8 CD2        -2.0850   -6.1440    3.8070 C.3       1 LEU        -0.0623
      9 N           1.4820   -9.5780    1.8020 N.am      1 THR        -0.2586
     10 CA          1.9330  -10.9600    1.7690 C.3       1 THR         0.1566
     11 C           2.9790  -11.2420    2.8550 C.2       1 THR         0.2066
     12 O           3.6370  -10.3200    3.3590 O.2       1 THR        -0.3943
     13 CB          2.5590  -11.3330    0.4010 C.3       1 THR         0.0924
     14 OG1         3.8390  -10.7010    0.2680 O.3       1 THR        -0.3874
     15 CG2         1.6250  -10.9500   -0.7650 C.3       1 THR        -0.0346
     16 N           3.1150  -12.5190    3.2160 N.am      1 PHE        -0.2619
     17 CA          4.0800  -12.9340    4.2310 C.3       1 PHE         0.1404
     18 C           5.4720  -12.4350    3.8930 C.2       1 PHE         0.2060
     19 O           6.1770  -11.9300    4.7610 O.2       1 PHE        -0.3942
     20 CB          4.1550  -14.4670    4.3730 C.3       1 PHE         0.0214
     21 CG          5.3930  -14.9310    5.1030 C.ar      1 PHE        -0.0386
     22 CD1         5.5170  -14.7280    6.4820 C.ar      1 PHE        -0.0601
     23 CD2         6.4740  -15.4630    4.4020 C.ar      1 PHE        -0.0601
     24 CE1         6.7040  -15.0450    7.1590 C.ar      1 PHE        -0.0686
     25 CE2         7.6670  -15.7850    5.0590 C.ar      1 PHE        -0.0686
     26 CZ          7.7840  -15.5710    6.4440 C.ar      1 PHE        -0.0687
     27 N           5.8820  -12.6000    2.6410 N.am      1 GLU        -0.2635
     28 CA          7.2180  -12.1700    2.2450 C.3       1 GLU         0.1325
     29 C           7.3770  -10.6490    2.2940 C.2       1 GLU         0.2041
     30 O           8.4630  -10.1460    2.5860 O.2       1 GLU        -0.3944
     31 CB          7.5710  -12.7450    0.8680 C.3       1 GLU        -0.0008
     32 CG          7.7480  -14.2790    0.9170 C.3       1 GLU         0.0044
     33 CD          8.4790  -14.8520   -0.2900 C.2       1 GLU         0.0350
     34 OE1         7.9150  -14.8350   -1.4100 O.co2     1 GLU        -0.5690
     35 OE2         9.6290  -15.3190   -0.1150 O.co2     1 GLU        -0.5690
     36 N           6.2980   -9.9140    2.0360 N.am      1 HIS        -0.2625
     37 CA          6.3610   -8.4590    2.1190 C.3       1 HIS         0.1369
     38 C           6.7420   -8.0890    3.5620 C.2       1 HIS         0.2054
     39 O           7.7350   -7.4000    3.7980 O.2       1 HIS        -0.3942
     40 CB          5.0010   -7.8420    1.7610 C.3       1 HIS         0.0145
     41 CG          4.9380   -6.3600    1.9640 C.2       1 HIS        -0.0027
     42 ND1         5.4360   -5.4590    1.0470 N.2       1 HIS        -0.3252
     43 CD2         4.4780   -5.6210    3.0020 C.2       1 HIS         0.0291
     44 CE1         5.2870   -4.2310    1.5110 C.2       1 HIS         0.0907
     45 NE2         4.7090   -4.3010    2.6970 N.pl3     1 HIS        -0.2752
     46 N           5.9580   -8.5650    4.5230 N.am      1 TRP        -0.2625
     47 CA          6.2170   -8.2890    5.9350 C.3       1 TRP         0.1352
     48 C           7.5990   -8.7810    6.3760 C.2       1 TRP         0.2052
     49 O           8.3350   -8.0580    7.0340 O.2       1 TRP        -0.3942
     50 CB          5.1380   -8.9490    6.8070 C.3       1 TRP         0.0042
     51 CG          3.7560   -8.4140    6.5550 C.2       1 TRP        -0.0418
     52 CD1         2.6490   -9.1270    6.1830 C.2       1 TRP         0.0167
     53 CD2         3.3430   -7.0440    6.6290 C.ar      1 TRP        -0.0214
     54 NE1         1.5720   -8.2830    6.0180 N.pl3     1 TRP        -0.2890
     55 CE2         1.9720   -6.9990    6.2860 C.ar      1 TRP         0.0603
     56 CE3         4.0010   -5.8480    6.9540 C.ar      1 TRP        -0.0747
     57 CZ2         1.2470   -5.8030    6.2490 C.ar      1 TRP        -0.0443
     58 CZ3         3.2830   -4.6610    6.9180 C.ar      1 TRP        -0.0792
     59 CH2         1.9150   -4.6490    6.5680 C.ar      1 TRP        -0.0768
     60 N           7.9490  -10.0090    5.9990 N.am      1 TRP        -0.2626
     61 CA          9.2320  -10.5890    6.3770 C.3       1 TRP         0.1352
     62 C          10.4190   -9.7920    5.8300 C.2       1 TRP         0.2052
     63 O          11.4420   -9.6280    6.5130 O.2       1 TRP        -0.3942
     64 CB          9.3110  -12.0470    5.8980 C.3       1 TRP         0.0042
     65 CG         10.4610  -12.8110    6.5090 C.2       1 TRP        -0.0418
     66 CD1        11.6910  -13.0430    5.9530 C.2       1 TRP         0.0167
     67 CD2        10.5100  -13.3550    7.8330 C.ar      1 TRP        -0.0214
     68 NE1        12.5020  -13.6930    6.8550 N.pl3     1 TRP        -0.2890
     69 CE2        11.8010  -13.8950    8.0140 C.ar      1 TRP         0.0603
     70 CE3         9.5840  -13.4380    8.8850 C.ar      1 TRP        -0.0747
     71 CZ2        12.1950  -14.5040    9.2100 C.ar      1 TRP        -0.0443
     72 CZ3         9.9810  -14.0520   10.0810 C.ar      1 TRP        -0.0792
     73 CH2        11.2750  -14.5740   10.2260 C.ar      1 TRP        -0.0768
     74 N          10.2850   -9.2970    4.6000 N.am      1 ALA        -0.2639
     75 CA         11.3450   -8.5160    3.9780 C.3       1 ALA         0.1282
     76 C          11.6400   -7.2100    4.7310 C.2       1 ALA         0.2036
     77 O          12.7420   -6.6820    4.6300 O.2       1 ALA        -0.3944
     78 CB         10.9870   -8.2150    2.5290 C.3       1 ALA        -0.0244
     79 N          10.6740   -6.7090    5.5010 N.am      1 GLN        -0.2636
     80 CA         10.8840   -5.4570    6.2510 C.3       1 GLN         0.1330
     81 C          11.8730   -5.5850    7.4090 C.2       1 GLN         0.2040
     82 O          12.4220   -4.5860    7.8720 O.2       1 GLN        -0.3944
     83 CB          9.5640   -4.9170    6.8030 C.3       1 GLN         0.0045
     84 CG          8.5090   -4.7010    5.7400 C.3       1 GLN         0.0412
     85 CD          7.2580   -4.0270    6.2780 C.2       1 GLN         0.1737
     86 OE1         6.8080   -4.3090    7.3980 O.2       1 GLN        -0.3973
     87 NE2         6.6770   -3.1370    5.4740 N.am      1 GLN        -0.3009
     88 N          12.0970   -6.8050    7.8850 N.am      1 LEU        -0.2637
     89 CA         13.0280   -7.0120    8.9800 C.3       1 LEU         0.1312
     90 C          14.4660   -6.7190    8.5840 C.2       1 LEU         0.2040
     91 O          15.2940   -6.3770    9.4280 O.2       1 LEU        -0.3944
     92 CB         12.9460   -8.4490    9.5040 C.3       1 LEU        -0.0101
     93 CG         11.7970   -8.7250   10.4600 C.3       1 LEU        -0.0425
     94 CD1        10.5470   -9.0720    9.6650 C.3       1 LEU        -0.0625
     95 CD2        12.1810   -9.8540   11.4010 C.3       1 LEU        -0.0625
     96 N          14.7630   -6.8620    7.2980 N.am      1 THR        -0.2613
     97 CA         16.1150   -6.6380    6.7930 C.3       1 THR         0.1564
     98 C          16.2040   -5.3880    5.9140 C.2       1 THR         0.2060
     99 O          15.3770   -5.1930    5.0220 O.2       1 THR        -0.3943
    100 CB         16.5860   -7.8470    5.9620 C.3       1 THR         0.0924
    101 OG1        15.6720   -8.0590    4.8800 O.3       1 THR        -0.3874
    102 CG2        16.6230   -9.0920    6.8100 C.3       1 THR        -0.0346
    103 N          17.2070   -4.5490    6.1640 N.am      1 SER        -0.2672
    104 CA         17.4020   -3.3210    5.3870 C.3       1 SER         0.1173
    105 C          18.2070   -3.5860    4.1170 C.2       1 SER         0.0623
    106 O          18.5350   -4.7670    3.8590 O.co2     1 SER        -0.5665
    107 CB         18.1270   -2.2600    6.2220 C.3       1 SER         0.0789
    108 OG         17.3890   -1.9110    7.3800 O.3       1 SER        -0.3910
    109 OXT        18.5060   -2.6070    3.3960 O.co2     1 SER        -0.5665
    110 H1          0.9168   -5.8750    1.9803 H         1 LEU         0.2015
    111 H2          1.3429   -7.1622    1.0471 H         1 LEU         0.2015
    112 H3          2.1382   -6.8695    2.4582 H         1 LEU         0.2015
    113 H4          0.1792   -7.3004    3.7512 H         1 LEU         0.1098
    114 H5         -1.7181   -8.4478    2.4335 H         1 LEU         0.0348
    115 H6         -0.9700   -7.7239    0.9696 H         1 LEU         0.0348
    116 H7         -1.2820   -5.4707    1.9271 H         1 LEU         0.0299
    117 H8         -3.7429   -5.4331    1.7532 H         1 LEU         0.0232
    118 H9         -3.7815   -7.2192    1.9397 H         1 LEU         0.0232
    119 H10        -3.0069   -6.4835    0.4956 H         1 LEU         0.0232
    120 H11        -1.1099   -6.1122    4.3151 H         1 LEU         0.0232
    121 H12        -2.6730   -6.9890    4.1945 H         1 LEU         0.0232
    122 H13        -2.6262   -5.2046    3.9932 H         1 LEU         0.0232
    123 H14         1.7669   -8.9476    1.0799 H         1 THR         0.1885
    124 H15         1.0594  -11.6050    1.9441 H         1 THR         0.0826
    125 H16         2.7068  -12.4227    0.3743 H         1 THR         0.0639
    126 H17         4.2193  -10.9320   -0.5713 H         1 THR         0.2101
    127 H18         2.0971  -11.2271   -1.7191 H         1 THR         0.0257
    128 H19         1.4425   -9.8654   -0.7476 H         1 THR         0.0257
    129 H20         0.6693  -11.4844   -0.6600 H         1 THR         0.0257
    130 H21         2.5404  -13.2114    2.7796 H         1 PHE         0.1885
    131 H22         3.7691  -12.5042    5.1946 H         1 PHE         0.0823
    132 H23         4.1530  -14.9129    3.3675 H         1 PHE         0.0474
    133 H24         3.2704  -14.8115    4.9287 H         1 PHE         0.0474
    134 H25         4.6808  -14.3184    7.0370 H         1 PHE         0.0557
    135 H26         6.3895  -15.6295    3.3342 H         1 PHE         0.0557
    136 H27         6.7832  -14.8834    8.2280 H         1 PHE         0.0599
    137 H28         8.4994  -16.1986    4.5013 H         1 PHE         0.0599
    138 H29         8.7086  -15.8131    6.9555 H         1 PHE         0.0559
    139 H30         5.2732  -13.0201    1.9680 H         1 GLU         0.1883
    140 H31         7.9287  -12.5918    2.9709 H         1 GLU         0.0801
    141 H32         8.5100  -12.2889    0.5214 H         1 GLU         0.0330
    142 H33         6.7629  -12.5019    0.1624 H         1 GLU         0.0330
    143 H34         6.7515  -14.7416    0.9707 H         1 GLU         0.0433
    144 H35         8.3197  -14.5335    1.8216 H         1 GLU         0.0433
    145 H36         5.4399  -10.3613    1.7840 H         1 HIS         0.1885
    146 H37         7.1248   -8.0808    1.4236 H         1 HIS         0.0817
    147 H38         4.2306   -8.3113    2.3905 H         1 HIS         0.0420
    148 H39         4.7906   -8.0564    0.7028 H         1 HIS         0.0420
    149 H40         4.0118   -6.0020    3.9094 H         1 HIS         0.0729
    150 H41         5.5892   -3.3167    1.0024 H         1 HIS         0.1199
    151 H42         4.4704   -3.4973    3.2954 H         1 HIS         0.2361
    152 H43         5.1695   -9.1272    4.2738 H         1 TRP         0.1884
    153 H44         6.1743   -7.2001    6.0849 H         1 TRP         0.0815
    154 H45         5.3908   -8.7774    7.8637 H         1 TRP         0.0397
    155 H46         5.1363  -10.0295    6.6011 H         1 TRP         0.0397
    156 H47         2.6227  -10.2060    6.0382 H         1 TRP         0.0795
    157 H48         0.6227   -8.5696    5.7392 H         1 TRP         0.2216
    158 H49         5.0498   -5.8512    7.2279 H         1 TRP         0.0540
    159 H50         0.1974   -5.7893    5.9785 H         1 TRP         0.0541
    160 H51         3.7798   -3.7290    7.1622 H         1 TRP         0.0510
    161 H52         1.3808   -3.7059    6.5512 H         1 TRP         0.0530
    162 H53         7.3159  -10.5471    5.4425 H         1 TRP         0.1884
    163 H54         9.2965  -10.5806    7.4751 H         1 TRP         0.0815
    164 H55         9.4307  -12.0500    4.8045 H         1 TRP         0.0397
    165 H56         8.3725  -12.5545    6.1655 H         1 TRP         0.0397
    166 H57        11.9843  -12.7552    4.9445 H         1 TRP         0.0795
    167 H58        13.4765  -13.9805    6.6861 H         1 TRP         0.2216
    168 H59         8.5834  -13.0359    8.7748 H         1 TRP         0.0540
    169 H60        13.1939  -14.9073    9.3304 H         1 TRP         0.0541
    170 H61         9.2793  -14.1243   10.9041 H         1 TRP         0.0510
    171 H62        11.5547  -15.0435   11.1622 H         1 TRP         0.0530
    172 H63         9.4392   -9.4653    4.0938 H         1 ALA         0.1883
    173 H64        12.2615   -9.1242    3.9887 H         1 ALA         0.0797
    174 H65        11.7925   -7.6252    2.0672 H         1 ALA         0.0277
    175 H66        10.0479   -7.6432    2.4945 H         1 ALA         0.0277
    176 H67        10.8620   -9.1591    1.9785 H         1 ALA         0.0277
    177 H68         9.7984   -7.1870    5.5706 H         1 GLN         0.1883
    178 H69        11.2902   -4.7188    5.5438 H         1 GLN         0.0801
    179 H70         9.7613   -3.9549    7.2984 H         1 GLN         0.0337
    180 H71         9.1745   -5.6355    7.5392 H         1 GLN         0.0337
    181 H72         8.2284   -5.6782    5.3201 H         1 GLN         0.0504
    182 H73         8.9344   -4.0693    4.9463 H         1 GLN         0.0504
    183 H74         5.8501   -2.6596    5.7712 H         1 GLN         0.1814
    184 H75         7.0679   -2.9466    4.5735 H         1 GLN         0.1814
    185 H76        11.6201   -7.5879    7.4855 H         1 LEU         0.1883
    186 H77        12.7483   -6.3264    9.7934 H         1 LEU         0.0800
    187 H78        13.8864   -8.6742   10.0284 H         1 LEU         0.0315
    188 H79        12.8382   -9.1207    8.6396 H         1 LEU         0.0315
    189 H80        11.5984   -7.8211   11.0546 H         1 LEU         0.0298
    190 H81         9.7158   -9.2716   10.3573 H         1 LEU         0.0232
    191 H82        10.7378   -9.9663    9.0536 H         1 LEU         0.0232
    192 H83        10.2836   -8.2289    9.0094 H         1 LEU         0.0232
    193 H84        13.0859   -9.5736   11.9600 H         1 LEU         0.0232
    194 H85        12.3779  -10.7660   10.8184 H         1 LEU         0.0232
    195 H86        11.3574  -10.0399   12.1060 H         1 LEU         0.0232
    196 H87        14.0424   -7.1300    6.6586 H         1 THR         0.1884
    197 H88        16.7875   -6.5113    7.6542 H         1 THR         0.0826
    198 H89        17.5915   -7.6454    5.5643 H         1 THR         0.0639
    199 H90        15.6476   -7.2840    4.3311 H         1 THR         0.2101
    200 H91        16.9612   -9.9419    6.1990 H         1 THR         0.0257
    201 H92        15.6160   -9.2993    7.2011 H         1 THR         0.0257
    202 H93        17.3189   -8.9437    7.6489 H         1 THR         0.0257
    203 H94        17.8459   -4.7625    6.9031 H         1 SER         0.1876
    204 H95        16.4132   -2.9324    5.1019 H         1 SER         0.0749
    205 H96        18.2719   -1.3597    5.6068 H         1 SER         0.0599
    206 H97        19.1063   -2.6558    6.5291 H         1 SER         0.0599
    207 H98        17.8664   -1.2534    7.8721 H         1 SER         0.2096
@<TRIPOS>BOND
     1    1    2 1  
     2    2    3 1  
     3    2    5 1  
     4    3    4 2  
     5    3    9 am 
     6    5    6 1  
     7    6    7 1  
     8    6    8 1  
     9    9   10 1  
    10   10   11 1  
    11   10   13 1  
    12   11   12 2  
    13   11   16 am 
    14   13   14 1  
    15   13   15 1  
    16   16   17 1  
    17   17   18 1  
    18   17   20 1  
    19   18   19 2  
    20   18   27 am 
    21   20   21 1  
    22   21   22 ar 
    23   21   23 ar 
    24   22   24 ar 
    25   23   25 ar 
    26   24   26 ar 
    27   25   26 ar 
    28   27   28 1  
    29   28   29 1  
    30   28   31 1  
    31   29   30 2  
    32   29   36 am 
    33   31   32 1  
    34   32   33 1  
    35   33   34 ar 
    36   33   35 ar 
    37   36   37 1  
    38   37   38 1  
    39   37   40 1  
    40   38   39 2  
    41   38   46 am 
    42   40   41 1  
    43   41   42 1  
    44   41   43 2  
    45   42   44 2  
    46   43   45 1  
    47   44   45 1  
    48   46   47 1  
    49   47   48 1  
    50   47   50 1  
    51   48   49 2  
    52   48   60 am 
    53   50   51 1  
    54   51   52 2  
    55   51   53 1  
    56   52   54 1  
    57   53   55 ar 
    58   53   56 ar 
    59   54   55 1  
    60   55   57 ar 
    61   56   58 ar 
    62   57   59 ar 
    63   58   59 ar 
    64   60   61 1  
    65   61   62 1  
    66   61   64 1  
    67   62   63 2  
    68   62   74 am 
    69   64   65 1  
    70   65   66 2  
    71   65   67 1  
    72   66   68 1  
    73   67   69 ar 
    74   67   70 ar 
    75   68   69 1  
    76   69   71 ar 
    77   70   72 ar 
    78   71   73 ar 
    79   72   73 ar 
    80   74   75 1  
    81   75   76 1  
    82   75   78 1  
    83   76   77 2  
    84   76   79 am 
    85   79   80 1  
    86   80   81 1  
    87   80   83 1  
    88   81   82 2  
    89   81   88 am 
    90   83   84 1  
    91   84   85 1  
    92   85   86 2  
    93   85   87 am 
    94   88   89 1  
    95   89   90 1  
    96   89   92 1  
    97   90   91 2  
    98   90   96 am 
    99   92   93 1  
   100   93   94 1  
   101   93   95 1  
   102   96   97 1  
   103   97   98 1  
   104   97  100 1  
   105   98   99 2  
   106   98  103 am 
   107  100  101 1  
   108  100  102 1  
   109  103  104 1  
   110  104  105 1  
   111  104  107 1  
   112  105  106 ar 
   113  105  109 ar 
   114  107  108 1  
   115    1  110 1  
   116    1  111 1  
   117    1  112 1  
   118    2  113 1  
   119    5  114 1  
   120    5  115 1  
   121    6  116 1  
   122    7  117 1  
   123    7  118 1  
   124    7  119 1  
   125    8  120 1  
   126    8  121 1  
   127    8  122 1  
   128    9  123 1  
   129   10  124 1  
   130   13  125 1  
   131   14  126 1  
   132   15  127 1  
   133   15  128 1  
   134   15  129 1  
   135   16  130 1  
   136   17  131 1  
   137   20  132 1  
   138   20  133 1  
   139   22  134 1  
   140   23  135 1  
   141   24  136 1  
   142   25  137 1  
   143   26  138 1  
   144   27  139 1  
   145   28  140 1  
   146   31  141 1  
   147   31  142 1  
   148   32  143 1  
   149   32  144 1  
   150   36  145 1  
   151   37  146 1  
   152   40  147 1  
   153   40  148 1  
   154   43  149 1  
   155   44  150 1  
   156   45  151 1  
   157   46  152 1  
   158   47  153 1  
   159   50  154 1  
   160   50  155 1  
   161   52  156 1  
   162   54  157 1  
   163   56  158 1  
   164   57  159 1  
   165   58  160 1  
   166   59  161 1  
   167   60  162 1  
   168   61  163 1  
   169   64  164 1  
   170   64  165 1  
   171   66  166 1  
   172   68  167 1  
   173   70  168 1  
   174   71  169 1  
   175   72  170 1  
   176   73  171 1  
   177   74  172 1  
   178   75  173 1  
   179   78  174 1  
   180   78  175 1  
   181   78  176 1  
   182   79  177 1  
   183   80  178 1  
   184   83  179 1  
   185   83  180 1  
   186   84  181 1  
   187   84  182 1  
   188   87  183 1  
   189   87  184 1  
   190   88  185 1  
   191   89  186 1  
   192   92  187 1  
   193   92  188 1  
   194   93  189 1  
   195   94  190 1  
   196   94  191 1  
   197   94  192 1  
   198   95  193 1  
   199   95  194 1  
   200   95  195 1  
   201   96  196 1  
   202   97  197 1  
   203  100  198 1  
   204  101  199 1  
   205  102  200 1  
   206  102  201 1  
   207  102  202 1  
   208  103  203 1  
   209  104  204 1  
   210  107  205 1  
   211  107  206 1  
   212  108  207 1  
@<TRIPOS>SUBSTRUCTURE
     1 LEU         1

