3jzr_ligand
  -I-interpret- 

206211  0  0  0  0  0  0  0  0999 V2000
    1.2450   -6.8280    1.9930 N   0  3  0  0  0
    0.2640   -7.6820    2.7230 C   0  0  0  0  0
    0.6930   -9.1420    2.7840 C   0  0  0  0  0
    0.3130   -9.8610    3.7120 O   0  0  0  0  0
   -1.1100   -7.6130    2.0550 C   0  0  0  0  0
   -1.8710   -6.3190    2.3060 C   0  0  0  0  0
   -3.1900   -6.3670    1.5740 C   0  0  0  0  0
   -2.0850   -6.1440    3.8070 C   0  0  0  0  0
    1.4820   -9.5780    1.8020 N   0  0  0  0  0
    1.9330  -10.9600    1.7690 C   0  0  0  0  0
    2.9790  -11.2420    2.8550 C   0  0  0  0  0
    3.6370  -10.3200    3.3590 O   0  0  0  0  0
    2.5590  -11.3330    0.4010 C   0  0  0  0  0
    3.8390  -10.7010    0.2680 O   0  0  0  0  0
    1.6250  -10.9500   -0.7650 C   0  0  0  0  0
    3.1150  -12.5190    3.2160 N   0  0  0  0  0
    4.0800  -12.9340    4.2310 C   0  0  0  0  0
    5.4720  -12.4350    3.8930 C   0  0  0  0  0
    6.1770  -11.9300    4.7610 O   0  0  0  0  0
    4.1550  -14.4670    4.3730 C   0  0  0  0  0
    5.3930  -14.9310    5.1030 C   0  0  0  0  0
    5.5170  -14.7280    6.4820 C   0  0  0  0  0
    6.4740  -15.4630    4.4020 C   0  0  0  0  0
    6.7040  -15.0450    7.1590 C   0  0  0  0  0
    7.6670  -15.7850    5.0590 C   0  0  0  0  0
    7.7840  -15.5710    6.4440 C   0  0  0  0  0
    5.8820  -12.6000    2.6410 N   0  0  0  0  0
    7.2180  -12.1700    2.2450 C   0  0  0  0  0
    7.3770  -10.6490    2.2940 C   0  0  0  0  0
    8.4630  -10.1460    2.5860 O   0  0  0  0  0
    7.5710  -12.7450    0.8680 C   0  0  0  0  0
    7.7480  -14.2790    0.9170 C   0  0  0  0  0
    8.4790  -14.8520   -0.2900 C   0  0  0  0  0
    7.9150  -14.8350   -1.4100 O   0  0  0  0  0
    9.6290  -15.3190   -0.1150 O   0  0  0  0  0
    6.2980   -9.9140    2.0360 N   0  0  0  0  0
    6.3610   -8.4590    2.1190 C   0  0  0  0  0
    6.7420   -8.0890    3.5620 C   0  0  0  0  0
    7.7350   -7.4000    3.7980 O   0  0  0  0  0
    5.0010   -7.8420    1.7610 C   0  0  0  0  0
    4.9380   -6.3600    1.9640 C   0  0  0  0  0
    5.4360   -5.4590    1.0470 N   0  0  0  0  0
    4.4780   -5.6210    3.0020 C   0  0  0  0  0
    5.2870   -4.2310    1.5110 C   0  0  0  0  0
    4.7090   -4.3010    2.6970 N   0  0  0  0  0
    5.9580   -8.5650    4.5230 N   0  0  0  0  0
    6.2170   -8.2890    5.9350 C   0  0  0  0  0
    7.5990   -8.7810    6.3760 C   0  0  0  0  0
    8.3350   -8.0580    7.0340 O   0  0  0  0  0
    5.1380   -8.9490    6.8070 C   0  0  0  0  0
    3.7560   -8.4140    6.5550 C   0  0  0  0  0
    2.6490   -9.1270    6.1830 C   0  0  0  0  0
    3.3430   -7.0440    6.6290 C   0  0  0  0  0
    1.5720   -8.2830    6.0180 N   0  0  0  0  0
    1.9720   -6.9990    6.2860 C   0  0  0  0  0
    4.0010   -5.8480    6.9540 C   0  0  0  0  0
    1.2470   -5.8030    6.2490 C   0  0  0  0  0
    3.2830   -4.6610    6.9180 C   0  0  0  0  0
    1.9150   -4.6490    6.5680 C   0  0  0  0  0
    7.9490  -10.0090    5.9990 N   0  0  0  0  0
    9.2320  -10.5890    6.3770 C   0  0  0  0  0
   10.4190   -9.7920    5.8300 C   0  0  0  0  0
   11.4420   -9.6280    6.5130 O   0  0  0  0  0
    9.3110  -12.0470    5.8980 C   0  0  0  0  0
   10.4610  -12.8110    6.5090 C   0  0  0  0  0
   11.6910  -13.0430    5.9530 C   0  0  0  0  0
   10.5100  -13.3550    7.8330 C   0  0  0  0  0
   12.5020  -13.6930    6.8550 N   0  0  0  0  0
   11.8010  -13.8950    8.0140 C   0  0  0  0  0
    9.5840  -13.4380    8.8850 C   0  0  0  0  0
   12.1950  -14.5040    9.2100 C   0  0  0  0  0
    9.9810  -14.0520   10.0810 C   0  0  0  0  0
   11.2750  -14.5740   10.2260 C   0  0  0  0  0
   10.2850   -9.2970    4.6000 N   0  0  0  0  0
   11.3450   -8.5160    3.9780 C   0  0  0  0  0
   11.6400   -7.2100    4.7310 C   0  0  0  0  0
   12.7420   -6.6820    4.6300 O   0  0  0  0  0
   10.9870   -8.2150    2.5290 C   0  0  0  0  0
   10.6740   -6.7090    5.5010 N   0  0  0  0  0
   10.8840   -5.4570    6.2510 C   0  0  0  0  0
   11.8730   -5.5850    7.4090 C   0  0  0  0  0
   12.4220   -4.5860    7.8720 O   0  0  0  0  0
    9.5640   -4.9170    6.8030 C   0  0  0  0  0
    8.5090   -4.7010    5.7400 C   0  0  0  0  0
    7.2580   -4.0270    6.2780 C   0  0  0  0  0
    6.8080   -4.3090    7.3980 O   0  0  0  0  0
    6.6770   -3.1370    5.4740 N   0  0  0  0  0
   12.0970   -6.8050    7.8850 N   0  0  0  0  0
   13.0280   -7.0120    8.9800 C   0  0  0  0  0
   14.4660   -6.7190    8.5840 C   0  0  0  0  0
   15.2940   -6.3770    9.4280 O   0  0  0  0  0
   12.9460   -8.4490    9.5040 C   0  0  0  0  0
   11.7970   -8.7250   10.4600 C   0  0  0  0  0
   10.5470   -9.0720    9.6650 C   0  0  0  0  0
   12.1810   -9.8540   11.4010 C   0  0  0  0  0
   14.7630   -6.8620    7.2980 N   0  0  0  0  0
   16.1150   -6.6380    6.7930 C   0  0  0  0  0
   16.2040   -5.3880    5.9140 C   0  0  0  0  0
   15.3770   -5.1930    5.0220 O   0  0  0  0  0
   16.5860   -7.8470    5.9620 C   0  0  0  0  0
   15.6720   -8.0590    4.8800 O   0  0  0  0  0
   16.6230   -9.0920    6.8100 C   0  0  0  0  0
   17.2070   -4.5490    6.1640 N   0  0  0  0  0
   17.4020   -3.3210    5.3870 C   0  0  0  0  0
   18.2070   -3.5860    4.1170 C   0  0  0  0  0
   18.5350   -4.7670    3.8590 O   0  0  0  0  0
   18.1270   -2.2600    6.2220 C   0  0  0  0  0
   17.3890   -1.9110    7.3800 O   0  0  0  0  0
   18.5060   -2.6070    3.3960 O   0  0  0  0  0
    2.1536   -6.8871    2.4527 H   0  0  0  0  0
    1.3279   -7.1545    1.0302 H   0  0  0  0  0
    0.9220   -5.8605    1.9986 H   0  0  0  0  0
    0.2170   -7.2909    3.7393 H   0  0  0  0  0
   -1.7090   -8.4213    2.4744 H   0  0  0  0  0
   -0.9453   -7.6822    0.9797 H   0  0  0  0  0
   -1.3003   -5.4673    1.9358 H   0  0  0  0  0
   -3.7791   -7.2061    1.9441 H   0  0  0  0  0
   -3.7327   -5.4372    1.7444 H   0  0  0  0  0
   -3.0074   -6.4922    0.5067 H   0  0  0  0  0
   -2.6214   -5.2129    3.9901 H   0  0  0  0  0
   -2.6678   -6.9818    4.1897 H   0  0  0  0  0
   -1.1182   -6.1127    4.3093 H   0  0  0  0  0
    1.7726   -8.9350    1.0655 H   0  0  0  0  0
    1.0425  -11.5638    1.9434 H   0  0  0  0  0
    2.6946  -12.4138    0.3617 H   0  0  0  0  0
    4.2233  -10.9344   -0.5802 H   0  0  0  0  0
    0.6784  -11.4801   -0.6598 H   0  0  0  0  0
    1.4450   -9.8751   -0.7466 H   0  0  0  0  0
    2.0938  -11.2250   -1.7098 H   0  0  0  0  0
    2.5289  -13.2252    2.7709 H   0  0  0  0  0
    3.7327  -12.5006    5.1689 H   0  0  0  0  0
    4.1812  -14.8929    3.3700 H   0  0  0  0  0
    3.2883  -14.7903    4.9496 H   0  0  0  0  0
    4.6762  -14.3162    7.0401 H   0  0  0  0  0
    6.3890  -15.6304    3.3283 H   0  0  0  0  0
    6.7836  -14.8825    8.2339 H   0  0  0  0  0
    8.5040  -16.2009    4.4982 H   0  0  0  0  0
    8.7137  -15.8145    6.9583 H   0  0  0  0  0
    5.2611  -13.0285    1.9546 H   0  0  0  0  0
    7.9285  -12.5658    2.9707 H   0  0  0  0  0
    8.5115  -12.3012    0.5416 H   0  0  0  0  0
    6.7565  -12.5152    0.1810 H   0  0  0  0  0
    6.7517  -14.7209    0.9337 H   0  0  0  0  0
    8.3460  -14.5093    1.7987 H   0  0  0  0  0
    7.0457  -14.4371   -1.3232 H   0  0  0  0  0
    5.4227  -10.3703    1.7790 H   0  0  0  0  0
    7.0995   -8.0740    1.4158 H   0  0  0  0  0
    4.2567   -8.2921    2.4179 H   0  0  0  0  0
    4.8259   -8.0329    0.7022 H   0  0  0  0  0
    4.0114   -6.0024    3.9103 H   0  0  0  0  0
    5.5895   -3.3158    1.0020 H   0  0  0  0  0
    5.1537   -9.1385    4.2688 H   0  0  0  0  0
    6.1909   -7.2068    6.0622 H   0  0  0  0  0
    5.3854   -8.7420    7.8482 H   0  0  0  0  0
    5.1272  -10.0122    6.5672 H   0  0  0  0  0
    2.6227  -10.2070    6.0380 H   0  0  0  0  0
    5.0556   -5.8512    7.2294 H   0  0  0  0  0
    0.1916   -5.7892    5.9770 H   0  0  0  0  0
    3.7825   -3.7238    7.1636 H   0  0  0  0  0
    1.3779   -3.7007    6.5511 H   0  0  0  0  0
    7.3032  -10.5578    5.4314 H   0  0  0  0  0
    9.2944  -10.5535    7.4646 H   0  0  0  0  0
    9.4598  -12.0328    4.8183 H   0  0  0  0  0
    8.3880  -12.5438    6.1968 H   0  0  0  0  0
   11.9846  -12.7549    4.9436 H   0  0  0  0  0
    8.5779  -13.0336    8.7741 H   0  0  0  0  0
   13.1995  -14.9096    9.3311 H   0  0  0  0  0
    9.2755  -14.1247   10.9087 H   0  0  0  0  0
   11.5563  -15.0461   11.1673 H   0  0  0  0  0
    9.4223   -9.4687    4.0837 H   0  0  0  0  0
   12.2527   -9.1182    4.0184 H   0  0  0  0  0
   10.8634   -9.1512    1.9846 H   0  0  0  0  0
   10.0564   -7.6485    2.4962 H   0  0  0  0  0
   11.7859   -7.6306    2.0726 H   0  0  0  0  0
    9.7809   -7.1965    5.5720 H   0  0  0  0  0
   11.3111   -4.7662    5.5241 H   0  0  0  0  0
    9.7713   -3.9496    7.2604 H   0  0  0  0  0
    9.1758   -5.6552    7.5048 H   0  0  0  0  0
    8.2207   -5.6784    5.3532 H   0  0  0  0  0
    8.9347   -4.0515    4.9752 H   0  0  0  0  0
    5.8277   -2.6577    5.7729 H   0  0  0  0  0
    7.0816   -2.9351    4.5597 H   0  0  0  0  0
   11.6105   -7.6036    7.4775 H   0  0  0  0  0
   12.7357   -6.3111    9.7619 H   0  0  0  0  0
   13.8659   -8.6325   10.0592 H   0  0  0  0  0
   12.7917   -9.0901    8.6361 H   0  0  0  0  0
   11.5868   -7.8380   11.0576 H   0  0  0  0  0
   10.2871   -8.2359    9.0158 H   0  0  0  0  0
   10.7373   -9.9582    9.0596 H   0  0  0  0  0
    9.7242   -9.2696   10.3521 H   0  0  0  0  0
   12.3954  -10.7516   10.8210 H   0  0  0  0  0
   13.0659   -9.5668   11.9689 H   0  0  0  0  0
   11.3562  -10.0508   12.0859 H   0  0  0  0  0
   14.0280   -7.1354    6.6458 H   0  0  0  0  0
   16.7535   -6.5000    7.6656 H   0  0  0  0  0
   17.5874   -7.6404    5.5844 H   0  0  0  0  0
   15.9626   -8.8118    4.3600 H   0  0  0  0  0
   17.3128   -8.9438    7.6409 H   0  0  0  0  0
   15.6247   -9.2963    7.1969 H   0  0  0  0  0
   16.9582   -9.9334    6.2035 H   0  0  0  0  0
   17.8586   -4.7668    6.9179 H   0  0  0  0  0
   16.4126   -2.9573    5.1098 H   0  0  0  0  0
   18.1997   -5.3483    4.5455 H   0  0  0  0  0
   18.2498   -1.3662    5.6104 H   0  0  0  0  0
   19.0877   -2.6677    6.5366 H   0  0  0  0  0
   17.8714   -1.2465    7.8773 H   0  0  0  0  0
  1  2  1  0  0  0
  2  3  1  0  0  0
  2  5  1  0  0  0
  3  4  2  0  0  0
  3  9  1  0  0  0
  5  6  1  0  0  0
  6  7  1  0  0  0
  6  8  1  0  0  0
  9 10  1  0  0  0
 10 11  1  0  0  0
 10 13  1  0  0  0
 11 12  2  0  0  0
 11 16  1  0  0  0
 13 14  1  0  0  0
 13 15  1  0  0  0
 16 17  1  0  0  0
 17 18  1  0  0  0
 17 20  1  0  0  0
 18 19  2  0  0  0
 18 27  1  0  0  0
 20 21  1  0  0  0
 21 22  4  0  0  0
 21 23  4  0  0  0
 22 24  4  0  0  0
 23 25  4  0  0  0
 24 26  4  0  0  0
 25 26  4  0  0  0
 27 28  1  0  0  0
 28 29  1  0  0  0
 28 31  1  0  0  0
 29 30  2  0  0  0
 29 36  1  0  0  0
 31 32  1  0  0  0
 32 33  1  0  0  0
 33 34  1  0  0  0
 33 35  2  0  0  0
 36 37  1  0  0  0
 37 38  1  0  0  0
 37 40  1  0  0  0
 38 39  2  0  0  0
 38 46  1  0  0  0
 40 41  1  0  0  0
 41 42  4  0  0  0
 41 43  4  0  0  0
 42 44  4  0  0  0
 43 45  4  0  0  0
 44 45  4  0  0  0
 46 47  1  0  0  0
 47 48  1  0  0  0
 47 50  1  0  0  0
 48 49  2  0  0  0
 48 60  1  0  0  0
 50 51  1  0  0  0
 51 52  4  0  0  0
 51 53  4  0  0  0
 52 54  4  0  0  0
 53 55  4  0  0  0
 53 56  4  0  0  0
 54 55  4  0  0  0
 55 57  4  0  0  0
 56 58  4  0  0  0
 57 59  4  0  0  0
 58 59  4  0  0  0
 60 61  1  0  0  0
 61 62  1  0  0  0
 61 64  1  0  0  0
 62 63  2  0  0  0
 62 74  1  0  0  0
 64 65  1  0  0  0
 65 66  4  0  0  0
 65 67  4  0  0  0
 66 68  4  0  0  0
 67 69  4  0  0  0
 67 70  4  0  0  0
 68 69  4  0  0  0
 69 71  4  0  0  0
 70 72  4  0  0  0
 71 73  4  0  0  0
 72 73  4  0  0  0
 74 75  1  0  0  0
 75 76  1  0  0  0
 75 78  1  0  0  0
 76 77  2  0  0  0
 76 79  1  0  0  0
 79 80  1  0  0  0
 80 81  1  0  0  0
 80 83  1  0  0  0
 81 82  2  0  0  0
 81 88  1  0  0  0
 83 84  1  0  0  0
 84 85  1  0  0  0
 85 86  2  0  0  0
 85 87  1  0  0  0
 88 89  1  0  0  0
 89 90  1  0  0  0
 89 92  1  0  0  0
 90 91  2  0  0  0
 90 96  1  0  0  0
 92 93  1  0  0  0
 93 94  1  0  0  0
 93 95  1  0  0  0
 96 97  1  0  0  0
 97 98  1  0  0  0
 97100  1  0  0  0
 98 99  2  0  0  0
 98103  1  0  0  0
100101  1  0  0  0
100102  1  0  0  0
103104  1  0  0  0
104105  1  0  0  0
104107  1  0  0  0
105106  1  0  0  0
105109  2  0  0  0
107108  1  0  0  0
  1110  1  0  0  0
  1111  1  0  0  0
  1112  1  0  0  0
  2113  1  0  0  0
  5114  1  0  0  0
  5115  1  0  0  0
  6116  1  0  0  0
  7117  1  0  0  0
  7118  1  0  0  0
  7119  1  0  0  0
  8120  1  0  0  0
  8121  1  0  0  0
  8122  1  0  0  0
  9123  1  0  0  0
 10124  1  0  0  0
 13125  1  0  0  0
 14126  1  0  0  0
 15127  1  0  0  0
 15128  1  0  0  0
 15129  1  0  0  0
 16130  1  0  0  0
 17131  1  0  0  0
 20132  1  0  0  0
 20133  1  0  0  0
 22134  1  0  0  0
 23135  1  0  0  0
 24136  1  0  0  0
 25137  1  0  0  0
 26138  1  0  0  0
 27139  1  0  0  0
 28140  1  0  0  0
 31141  1  0  0  0
 31142  1  0  0  0
 32143  1  0  0  0
 32144  1  0  0  0
 34145  1  0  0  0
 36146  1  0  0  0
 37147  1  0  0  0
 40148  1  0  0  0
 40149  1  0  0  0
 43150  1  0  0  0
 44151  1  0  0  0
 46152  1  0  0  0
 47153  1  0  0  0
 50154  1  0  0  0
 50155  1  0  0  0
 52156  1  0  0  0
 56157  1  0  0  0
 57158  1  0  0  0
 58159  1  0  0  0
 59160  1  0  0  0
 60161  1  0  0  0
 61162  1  0  0  0
 64163  1  0  0  0
 64164  1  0  0  0
 66165  1  0  0  0
 70166  1  0  0  0
 71167  1  0  0  0
 72168  1  0  0  0
 73169  1  0  0  0
 74170  1  0  0  0
 75171  1  0  0  0
 78172  1  0  0  0
 78173  1  0  0  0
 78174  1  0  0  0
 79175  1  0  0  0
 80176  1  0  0  0
 83177  1  0  0  0
 83178  1  0  0  0
 84179  1  0  0  0
 84180  1  0  0  0
 87181  1  0  0  0
 87182  1  0  0  0
 88183  1  0  0  0
 89184  1  0  0  0
 92185  1  0  0  0
 92186  1  0  0  0
 93187  1  0  0  0
 94188  1  0  0  0
 94189  1  0  0  0
 94190  1  0  0  0
 95191  1  0  0  0
 95192  1  0  0  0
 95193  1  0  0  0
 96194  1  0  0  0
 97195  1  0  0  0
100196  1  0  0  0
101197  1  0  0  0
102198  1  0  0  0
102199  1  0  0  0
102200  1  0  0  0
103201  1  0  0  0
104202  1  0  0  0
106203  1  0  0  0
107204  1  0  0  0
107205  1  0  0  0
108206  1  0  0  0
M  END
$$$$
