5d6e_ligand
  -I-interpret- 

 53 55  0  0  0  0  0  0  0  0999 V2000
   30.4150   21.1720   22.5620 O   0  0  0  0  0
   29.8330   20.1180   22.2050 C   0  0  0  0  0
   29.8850   18.8930   22.7840 N   0  0  0  0  0
   30.7180   18.5720   23.9410 C   0  0  0  0  0
   31.9810   17.7980   23.5010 C   0  0  0  0  0
   29.9210   17.8660   25.0340 C   0  0  0  0  0
   28.9430   20.2800   21.0860 O   0  0  0  0  0
   28.7680   21.6090   20.4740 C   0  0  0  0  0
   28.5570   21.2960   19.0630 C   0  0  0  0  0
   29.5120   20.8300   18.1780 N   0  0  0  0  0
   28.7790   20.6520   17.0440 N   0  0  0  0  0
   27.4350   20.9570   17.1950 N   0  0  0  0  0
   27.3390   21.3570   18.4880 C   0  0  0  0  0
   26.0400   21.8170   19.0590 C   0  0  0  0  0
   25.7120   23.2440   18.4930 C   0  0  0  0  0
   24.9920   20.9210   18.6950 O   0  0  0  0  0
   26.2410   21.7580   20.5970 C   0  0  0  0  0
   27.5830   22.3230   21.0690 C   0  0  0  0  0
   26.5190   20.7770   16.0720 C   0  0  0  0  0
   25.9960   19.3330   15.9740 C   0  0  0  0  0
   26.8250   18.2690   16.2240 C   0  0  0  0  0
   26.2890   16.9750   16.0080 C   0  0  0  0  0
   24.9480   16.7890   15.6570 C   0  0  0  0  0
   24.3250   15.5900   15.4230 O   0  0  0  0  0
   25.1660   14.4240   15.5360 C   0  0  0  0  0
   24.1000   17.8400   15.3950 C   0  0  0  0  0
   24.6640   19.1150   15.5840 C   0  0  0  0  0
   29.3080   18.1509   22.3882 H   0  0  0  0  0
   31.0621   19.5029   24.3917 H   0  0  0  0  0
   32.6433   17.6693   24.3571 H   0  0  0  0  0
   31.6906   16.8211   23.1145 H   0  0  0  0  0
   32.4968   18.3596   22.7221 H   0  0  0  0  0
   29.5969   16.8900   24.6727 H   0  0  0  0  0
   30.5496   17.7382   25.9153 H   0  0  0  0  0
   29.0492   18.4672   25.2920 H   0  0  0  0  0
   29.6137   22.2773   20.6360 H   0  0  0  0  0
   26.5049   23.9365   18.7754 H   0  0  0  0  0
   25.6406   23.1949   17.4065 H   0  0  0  0  0
   24.7635   23.5879   18.9056 H   0  0  0  0  0
   24.1638   21.2301   19.0694 H   0  0  0  0  0
   26.2109   20.7080   20.8879 H   0  0  0  0  0
   25.4566   22.3643   21.0500 H   0  0  0  0  0
   27.6323   23.3653   20.7538 H   0  0  0  0  0
   27.6316   22.1998   22.1509 H   0  0  0  0  0
   27.0598   21.0049   15.1534 H   0  0  0  0  0
   25.6650   21.4375   16.2218 H   0  0  0  0  0
   27.8479   18.4121   16.5724 H   0  0  0  0  0
   26.9365   16.1051   16.1179 H   0  0  0  0  0
   25.9814   14.4945   14.8161 H   0  0  0  0  0
   25.5744   14.3686   16.5451 H   0  0  0  0  0
   24.5757   13.5307   15.3320 H   0  0  0  0  0
   23.0707   17.6961   15.0664 H   0  0  0  0  0
   24.0296   19.9857   15.4179 H   0  0  0  0  0
  1  2  2  0  0  0
  2  3  1  0  0  0
  2  7  1  0  0  0
  3  4  1  0  0  0
  4  5  1  0  0  0
  4  6  1  0  0  0
  7  8  1  0  0  0
  8  9  1  0  0  0
  8 18  1  0  0  0
  9 10  4  0  0  0
  9 13  4  0  0  0
 10 11  4  0  0  0
 11 12  4  0  0  0
 12 13  4  0  0  0
 12 19  1  0  0  0
 13 14  1  0  0  0
 14 15  1  0  0  0
 14 16  1  0  0  0
 14 17  1  0  0  0
 17 18  1  0  0  0
 19 20  1  0  0  0
 20 21  4  0  0  0
 20 27  4  0  0  0
 21 22  4  0  0  0
 22 23  4  0  0  0
 23 24  1  0  0  0
 23 26  4  0  0  0
 24 25  1  0  0  0
 26 27  4  0  0  0
  3 28  1  0  0  0
  4 29  1  0  0  0
  5 30  1  0  0  0
  5 31  1  0  0  0
  5 32  1  0  0  0
  6 33  1  0  0  0
  6 34  1  0  0  0
  6 35  1  0  0  0
  8 36  1  0  0  0
 15 37  1  0  0  0
 15 38  1  0  0  0
 15 39  1  0  0  0
 16 40  1  0  0  0
 17 41  1  0  0  0
 17 42  1  0  0  0
 18 43  1  0  0  0
 18 44  1  0  0  0
 19 45  1  0  0  0
 19 46  1  0  0  0
 21 47  1  0  0  0
 22 48  1  0  0  0
 25 49  1  0  0  0
 25 50  1  0  0  0
 25 51  1  0  0  0
 26 52  1  0  0  0
 27 53  1  0  0  0
M  END
$$$$
