4nmo_ligand
  -I-interpret- 

134136  0  0  0  0  0  0  0  0999 V2000
   22.2400   26.5080   16.1560 N   0  3  0  0  0
   21.8880   27.8990   15.8910 C   0  0  0  0  0
   20.3920   28.1330   16.0850 C   0  0  0  0  0
   19.9810   29.1780   16.5960 O   0  0  0  0  0
   22.3170   28.2920   14.4790 C   0  0  0  0  0
   22.3970   29.7860   14.2400 C   0  0  0  0  0
   23.1120   30.0730   12.9360 C   0  0  0  0  0
   23.1270   31.4950   12.6180 N   0  0  0  0  0
   22.1580   32.1190   11.9610 C   0  0  0  0  0
   21.0920   31.4440   11.5550 N   0  0  0  0  0
   22.2530   33.4170   11.7090 N   0  0  0  0  0
   19.5830   27.1570   15.6730 N   0  0  0  0  0
   18.1510   27.1710   15.9590 C   0  0  0  0  0
   17.8780   26.3690   17.2230 C   0  0  0  0  0
   18.5970   25.4220   17.5320 O   0  0  0  0  0
   17.3440   26.5490   14.8230 C   0  0  0  0  0
   17.6170   27.1020   13.4600 C   0  0  0  0  0
   18.1400   28.3260   13.1480 C   0  0  0  0  0
   17.3820   26.4320   12.2200 C   0  0  0  0  0
   18.2440   28.4540   11.7790 N   0  0  0  0  0
   17.7880   27.3020   11.1880 C   0  0  0  0  0
   16.8770   25.1730   11.8810 C   0  0  0  0  0
   17.6930   26.9550    9.8380 C   0  0  0  0  0
   16.7850   24.8290   10.5400 C   0  0  0  0  0
   17.1920   25.7160    9.5360 C   0  0  0  0  0
   16.8550   26.7140   17.9120 N   0  0  0  0  0
   16.4530   25.9820   19.0960 C   0  0  0  0  0
   15.6810   24.7060   18.7000 C   0  0  0  0  0
   15.1170   24.6560   17.6620 O   0  0  0  0  0
   15.5310   26.9670   19.7830 C   0  0  0  0  0
   14.9150   27.7230   18.6880 C   0  0  0  0  0
   16.0640   27.9420   17.7460 C   0  0  0  0  0
   15.6860   23.7350   19.6010 N   0  0  0  0  0
   14.8880   22.5380   19.4130 C   0  0  0  0  0
   14.0640   22.3360   20.6670 C   0  0  0  0  0
   14.5660   22.5060   21.7780 O   0  0  0  0  0
   15.7850   21.3200   19.2010 C   0  0  0  0  0
   16.5220   21.5010   17.9910 O   0  0  0  0  0
   14.9590   20.0420   19.0870 C   0  0  0  0  0
   12.7950   21.9780   20.4970 N   0  0  0  0  0
   11.9360   21.6700   21.6300 C   0  0  0  0  0
   11.3080   20.3060   21.4060 C   0  0  0  0  0
   10.8520   19.9940   20.3030 O   0  0  0  0  0
   10.8250   22.7090   21.7800 C   0  0  0  0  0
   11.3500   24.0030   22.0430 O   0  0  0  0  0
   14.2300   19.3370   27.5270 O   0  0  0  0  0
   14.6460   18.4100   26.8310 C   0  0  0  0  0
   16.1570   18.2430   26.6210 C   0  0  0  0  0
   13.4170   17.5340   25.9460 N   0  0  0  0  0
   14.2970   16.6880   25.0930 C   0  0  0  0  0
   13.5380   16.0780   23.9250 C   0  0  0  0  0
   12.8730   17.1500   23.0780 C   0  0  0  0  0
   11.3750   17.2040   23.3320 C   0  0  0  0  0
   10.6280   18.2060   22.4510 C   0  0  0  0  0
   11.2970   19.4990   22.4630 N   0  0  0  0  0
    9.2100   18.4050   22.9630 C   0  0  0  0  0
    9.0030   18.9420   24.0520 O   0  0  0  0  0
    8.2330   17.9830   22.1700 N   0  0  0  0  0
    6.8340   18.2570   22.4740 C   0  0  0  0  0
    5.9570   17.0440   22.2400 C   0  0  0  0  0
    6.4170   16.0130   21.7250 O   0  0  0  0  0
    6.2810   19.4350   21.6350 C   0  0  0  0  0
    6.3460   19.1320   20.1400 C   0  0  0  0  0
    7.0360   20.7250   21.9510 C   0  0  0  0  0
    5.7240   20.2380   19.2870 C   0  0  0  0  0
    4.7720   17.1130   22.5590 O   0  0  0  0  0
   21.9483   26.2588   17.1011 H   0  0  0  0  0
   21.7674   25.9048   15.4829 H   0  0  0  0  0
   23.2495   26.3914   16.0686 H   0  0  0  0  0
   22.4189   28.5284   16.6052 H   0  0  0  0  0
   21.5639   27.8994   13.7958 H   0  0  0  0  0
   23.3187   27.8903   14.3264 H   0  0  0  0  0
   22.9501   30.2478   15.0579 H   0  0  0  0  0
   21.3869   30.1925   14.1886 H   0  0  0  0  0
   22.5832   29.5524   12.1375 H   0  0  0  0  0
   24.1441   29.7364   13.0339 H   0  0  0  0  0
   23.9320   32.0443   12.9190 H   0  0  0  0  0
   21.0169   30.4452   11.7477 H   0  0  0  0  0
   21.5066   33.8944   11.2036 H   0  0  0  0  0
   23.0725   33.9384   12.0205 H   0  0  0  0  0
   19.9751   26.3786   15.1432 H   0  0  0  0  0
   17.8508   28.2119   16.0798 H   0  0  0  0  0
   16.2957   26.7565   15.0376 H   0  0  0  0  0
   17.6170   25.4943   14.7901 H   0  0  0  0  0
   18.4311   29.0865   13.8726 H   0  0  0  0  0
   16.5614   24.4746   12.6560 H   0  0  0  0  0
   18.0059   27.6445    9.0539 H   0  0  0  0  0
   16.3892   23.8518   10.2634 H   0  0  0  0  0
   17.1085   25.4144    8.4919 H   0  0  0  0  0
   17.2861   25.6527   19.7170 H   0  0  0  0  0
   16.0697   27.6159   20.4735 H   0  0  0  0  0
   14.7864   26.4653   20.4010 H   0  0  0  0  0
   14.4565   28.6541   19.0211 H   0  0  0  0  0
   14.0816   27.1949   18.2246 H   0  0  0  0  0
   15.7451   28.1070   16.7168 H   0  0  0  0  0
   16.6303   28.8464   17.9684 H   0  0  0  0  0
   16.2593   23.8302   20.4393 H   0  0  0  0  0
   14.2522   22.6514   18.5349 H   0  0  0  0  0
   16.4540   21.2254   20.0563 H   0  0  0  0  0
   17.0902   20.7407   17.8469 H   0  0  0  0  0
   14.3860   19.8983   20.0030 H   0  0  0  0  0
   14.2778   20.1255   18.2402 H   0  0  0  0  0
   15.6252   19.1925   18.9366 H   0  0  0  0  0
   12.4156   21.9180   19.5521 H   0  0  0  0  0
   12.5390   21.6776   22.5380 H   0  0  0  0  0
   10.1922   22.4175   22.6182 H   0  0  0  0  0
   10.2629   22.7488   20.8470 H   0  0  0  0  0
   10.6271   24.6285   22.1312 H   0  0  0  0  0
   16.5575   19.1381   26.1451 H   0  0  0  0  0
   16.6424   18.0947   27.5856 H   0  0  0  0  0
   16.3405   17.3780   25.9836 H   0  0  0  0  0
   12.3997   17.5870   25.9987 H   0  0  0  0  0
   14.6900   15.8770   25.7061 H   0  0  0  0  0
   15.0921   17.3170   24.6928 H   0  0  0  0  0
   12.7649   15.4189   24.3200 H   0  0  0  0  0
   14.2441   15.5308   23.3004 H   0  0  0  0  0
   13.0385   16.9141   22.0268 H   0  0  0  0  0
   13.3044   18.1162   23.3395 H   0  0  0  0  0
   11.2345   17.5169   24.3666 H   0  0  0  0  0
   10.9740   16.2156   23.1075 H   0  0  0  0  0
   10.6109   17.8057   21.4373 H   0  0  0  0  0
   11.7749   19.7969   23.3135 H   0  0  0  0  0
    8.4663   17.4551   21.3290 H   0  0  0  0  0
    6.8063   18.5230   23.5307 H   0  0  0  0  0
    7.3514   16.1370   21.5430 H   0  0  0  0  0
    5.2336   19.5696   21.9051 H   0  0  0  0  0
    5.7857   18.2146   19.9595 H   0  0  0  0  0
    7.3961   19.0446   19.8613 H   0  0  0  0  0
    6.9220   20.9614   23.0089 H   0  0  0  0  0
    8.0927   20.5922   21.7189 H   0  0  0  0  0
    6.6301   21.5386   21.3498 H   0  0  0  0  0
    4.6754   20.3585   19.5589 H   0  0  0  0  0
    6.2559   21.1731   19.4625 H   0  0  0  0  0
    5.7988   19.9682   18.2336 H   0  0  0  0  0
  2  1  1  0  0  0
  3  2  1  0  0  0
  2  5  1  0  0  0
  3  4  2  0  0  0
 12  3  1  0  0  0
  5  6  1  0  0  0
  6  7  1  0  0  0
  7  8  1  0  0  0
  8  9  1  0  0  0
  9 10  2  0  0  0
  9 11  1  0  0  0
 13 12  1  0  0  0
 14 13  1  0  0  0
 13 16  1  0  0  0
 14 15  2  0  0  0
 26 14  1  0  0  0
 16 17  1  0  0  0
 17 18  4  0  0  0
 17 19  4  0  0  0
 18 20  4  0  0  0
 19 21  4  0  0  0
 19 22  4  0  0  0
 21 20  4  0  0  0
 21 23  4  0  0  0
 22 24  4  0  0  0
 23 25  4  0  0  0
 24 25  4  0  0  0
 27 26  1  0  0  0
 26 32  1  0  0  0
 28 27  1  0  0  0
 27 30  1  0  0  0
 28 29  2  0  0  0
 33 28  1  0  0  0
 30 31  1  0  0  0
 31 32  1  0  0  0
 34 33  1  0  0  0
 35 34  1  0  0  0
 34 37  1  0  0  0
 35 36  2  0  0  0
 40 35  1  0  0  0
 37 38  1  0  0  0
 37 39  1  0  0  0
 41 40  1  0  0  0
 42 41  1  0  0  0
 41 44  1  0  0  0
 42 43  2  0  0  0
 55 42  1  0  0  0
 44 45  1  0  0  0
 47 46  2  0  0  0
 47 48  1  0  0  0
 49 47  1  0  0  0
 50 49  1  0  0  0
 51 50  1  0  0  0
 52 51  1  0  0  0
 53 52  1  0  0  0
 54 53  1  0  0  0
 54 55  1  0  0  0
 54 56  1  0  0  0
 56 57  2  0  0  0
 56 58  1  0  0  0
 58 59  1  0  0  0
 59 60  1  0  0  0
 59 62  1  0  0  0
 60 61  1  0  0  0
 60 66  2  0  0  0
 62 63  1  0  0  0
 62 64  1  0  0  0
 63 65  1  0  0  0
  1 67  1  0  0  0
  1 68  1  0  0  0
  1 69  1  0  0  0
  2 70  1  0  0  0
  5 71  1  0  0  0
  5 72  1  0  0  0
  6 73  1  0  0  0
  6 74  1  0  0  0
  7 75  1  0  0  0
  7 76  1  0  0  0
  8 77  1  0  0  0
 10 78  1  0  0  0
 11 79  1  0  0  0
 11 80  1  0  0  0
 12 81  1  0  0  0
 13 82  1  0  0  0
 16 83  1  0  0  0
 16 84  1  0  0  0
 18 85  1  0  0  0
 22 86  1  0  0  0
 23 87  1  0  0  0
 24 88  1  0  0  0
 25 89  1  0  0  0
 27 90  1  0  0  0
 30 91  1  0  0  0
 30 92  1  0  0  0
 31 93  1  0  0  0
 31 94  1  0  0  0
 32 95  1  0  0  0
 32 96  1  0  0  0
 33 97  1  0  0  0
 34 98  1  0  0  0
 37 99  1  0  0  0
 38100  1  0  0  0
 39101  1  0  0  0
 39102  1  0  0  0
 39103  1  0  0  0
 40104  1  0  0  0
 41105  1  0  0  0
 44106  1  0  0  0
 44107  1  0  0  0
 45108  1  0  0  0
 48109  1  0  0  0
 48110  1  0  0  0
 48111  1  0  0  0
 49112  1  0  0  0
 50113  1  0  0  0
 50114  1  0  0  0
 51115  1  0  0  0
 51116  1  0  0  0
 52117  1  0  0  0
 52118  1  0  0  0
 53119  1  0  0  0
 53120  1  0  0  0
 54121  1  0  0  0
 55122  1  0  0  0
 58123  1  0  0  0
 59124  1  0  0  0
 61125  1  0  0  0
 62126  1  0  0  0
 63127  1  0  0  0
 63128  1  0  0  0
 64129  1  0  0  0
 64130  1  0  0  0
 64131  1  0  0  0
 65132  1  0  0  0
 65133  1  0  0  0
 65134  1  0  0  0
M  END
$$$$
