### 
### Created by X-TOOL on Mon Sep 10 21:13:18 2018
### 

@<TRIPOS>MOLECULE
4nmo_ligand
  135   137     1     0     0
SMALL
GAST_HUCK


@<TRIPOS>ATOM
      1 N          22.2400   26.5080   16.1560 N.4       1 ARG         0.2379
      2 CA         21.8880   27.8990   15.8910 C.3       1 ARG         0.0651
      3 C          20.3920   28.1330   16.0850 C.2       1 ARG         0.2268
      4 O          19.9810   29.1780   16.5960 O.2       1 ARG        -0.3907
      5 CB         22.3170   28.2920   14.4790 C.3       1 ARG         0.0110
      6 CG         22.3970   29.7860   14.2400 C.3       1 ARG        -0.0125
      7 CD         23.1120   30.0730   12.9360 C.3       1 ARG         0.0629
      8 NE         23.1270   31.4950   12.6180 N.pl3     1 ARG        -0.2723
      9 CZ         22.1580   32.1190   11.9610 C.cat     1 ARG         0.2882
     10 NH1        21.0920   31.4440   11.5550 N.pl3     1 ARG        -0.2849
     11 NH2        22.2530   33.4170   11.7090 N.pl3     1 ARG        -0.2849
     12 N          19.5830   27.1570   15.6730 N.am      1 TRP        -0.2599
     13 CA         18.1510   27.1710   15.9590 C.3       1 TRP         0.1355
     14 C          17.8780   26.3690   17.2230 C.2       1 TRP         0.2077
     15 O          18.5970   25.4220   17.5320 O.2       1 TRP        -0.3940
     16 CB         17.3440   26.5490   14.8230 C.3       1 TRP         0.0042
     17 CG         17.6170   27.1020   13.4600 C.2       1 TRP        -0.0418
     18 CD1        18.1400   28.3260   13.1480 C.2       1 TRP         0.0167
     19 CD2        17.3820   26.4320   12.2200 C.ar      1 TRP        -0.0214
     20 NE1        18.2440   28.4540   11.7790 N.pl3     1 TRP        -0.2890
     21 CE2        17.7880   27.3020   11.1880 C.ar      1 TRP         0.0603
     22 CE3        16.8770   25.1730   11.8810 C.ar      1 TRP        -0.0747
     23 CZ2        17.6930   26.9550    9.8380 C.ar      1 TRP        -0.0443
     24 CZ3        16.7850   24.8290   10.5400 C.ar      1 TRP        -0.0792
     25 CH2        17.1920   25.7160    9.5360 C.ar      1 TRP        -0.0768
     26 N          16.8550   26.7140   17.9120 N.am      1 PRO        -0.2497
     27 CA         16.4530   25.9820   19.0960 C.3       1 PRO         0.1338
     28 C          15.6810   24.7060   18.7000 C.2       1 PRO         0.2042
     29 O          15.1170   24.6560   17.6620 O.2       1 PRO        -0.3944
     30 CB         15.5310   26.9670   19.7830 C.3       1 PRO        -0.0104
     31 CG         14.9150   27.7230   18.6880 C.3       1 PRO        -0.0281
     32 CD         16.0640   27.9420   17.7460 C.3       1 PRO         0.0369
     33 N          15.6860   23.7350   19.6010 N.am      1 THR        -0.2613
     34 CA         14.8880   22.5380   19.4130 C.3       1 THR         0.1565
     35 C          14.0640   22.3360   20.6670 C.2       1 THR         0.2065
     36 O          14.5660   22.5060   21.7780 O.2       1 THR        -0.3943
     37 CB         15.7850   21.3200   19.2010 C.3       1 THR         0.0924
     38 OG1        16.5220   21.5010   17.9910 O.3       1 THR        -0.3874
     39 CG2        14.9590   20.0420   19.0870 C.3       1 THR        -0.0346
     40 N          12.7950   21.9780   20.4970 N.am      1 SER        -0.2615
     41 CA         11.9360   21.6700   21.6300 C.3       1 SER         0.1539
     42 C          11.3080   20.3060   21.4060 C.2       1 SER         0.2062
     43 O          10.8520   19.9940   20.3030 O.2       1 SER        -0.3943
     44 CB         10.8250   22.7090   21.7800 C.3       1 SER         0.0843
     45 OG         11.3500   24.0030   22.0430 O.3       1 SER        -0.3903
     46 OH         14.2300   19.3370   27.5270 O.2       1 ALY        -0.3974
     47 CH         14.6460   18.4100   26.8310 C.2       1 ALY         0.1729
     48 CH3        16.1570   18.2430   26.6210 C.3       1 ALY         0.0256
     49 NZ         13.4170   17.5340   25.9460 N.am      1 ALY        -0.2872
     50 CE         14.2970   16.6880   25.0930 C.3       1 ALY         0.0309
     51 CD         13.5380   16.0780   23.9250 C.3       1 ALY        -0.0325
     52 CG         12.8730   17.1500   23.0780 C.3       1 ALY        -0.0470
     53 CB         11.3750   17.2040   23.3320 C.3       1 ALY        -0.0123
     54 CA         10.6280   18.2060   22.4510 C.3       1 ALY         0.1309
     55 N          11.2970   19.4990   22.4630 N.am      1 ALY        -0.2637
     56 C           9.2100   18.4050   22.9630 C.2       1 ALY         0.2033
     57 O           9.0030   18.9420   24.0520 O.2       1 ALY        -0.3944
     58 N           8.2330   17.9830   22.1700 N.am      1 ILE        -0.2692
     59 CA          6.8340   18.2570   22.4740 C.3       1 ILE         0.0969
     60 C           5.9570   17.0440   22.2400 C.2       1 ILE         0.0604
     61 O           6.4170   16.0130   21.7250 O.co2     1 ILE        -0.5666
     62 CB          6.2810   19.4350   21.6350 C.3       1 ILE        -0.0092
     63 CG1         6.3460   19.1320   20.1400 C.3       1 ILE        -0.0497
     64 CG2         7.0360   20.7250   21.9510 C.3       1 ILE        -0.0588
     65 CD1         5.7240   20.2380   19.2870 C.3       1 ILE        -0.0649
     66 OXT         4.7720   17.1130   22.5590 O.co2     1 ILE        -0.5666
     67 H          23.2308   26.3806   16.0211 H         1 ARG         0.2015
     68 H          21.7348   25.9072   15.5236 H         1 ARG         0.2015
     69 H          21.9977   26.2752   17.1063 H         1 ARG         0.2015
     70 H          22.4302   28.5343   16.6068 H         1 ARG         0.1098
     71 H          21.5912   27.8688   13.7690 H         1 ARG         0.0347
     72 H          23.3106   27.8599   14.2889 H         1 ARG         0.0347
     73 H          22.9485   30.2567   15.0672 H         1 ARG         0.0302
     74 H          21.3794   30.2011   14.1946 H         1 ARG         0.0302
     75 H          22.6000   29.5341   12.1252 H         1 ARG         0.0689
     76 H          24.1497   29.7167   13.0151 H         1 ARG         0.0689
     77 H          23.9399   32.0497   12.9220 H         1 ARG         0.2642
     78 H          20.3394   31.9281   11.0449 H         1 ARG         0.2615
     79 H          21.0162   30.4354   11.7496 H         1 ARG         0.2615
     80 H          23.0805   33.9435   12.0236 H         1 ARG         0.2615
     81 H          21.4993   33.8990   11.1986 H         1 ARG         0.2615
     82 H          19.9674   26.3939   15.1535 H         1 TRP         0.1886
     83 H          17.8270   28.2120   16.1048 H         1 TRP         0.0815
     84 H          16.2770   26.7011   15.0427 H         1 TRP         0.0397
     85 H          17.5641   25.4715   14.8016 H         1 TRP         0.0397
     86 H          18.4308   29.0858   13.8719 H         1 TRP         0.0795
     87 H          18.6052   29.2799   11.2807 H         1 TRP         0.2216
     88 H          16.5631   24.4784   12.6518 H         1 TRP         0.0540
     89 H          18.0042   27.6407    9.0582 H         1 TRP         0.0541
     90 H          16.3914   23.8571   10.2650 H         1 TRP         0.0510
     91 H          17.1090   25.4161    8.4976 H         1 TRP         0.0530
     92 H          17.3152   25.7222   19.7277 H         1 PRO         0.0802
     93 H          16.1010   27.6362   20.4442 H         1 PRO         0.0313
     94 H          14.7648   26.4381   20.3688 H         1 PRO         0.0313
     95 H          14.5091   28.6803   19.0469 H         1 PRO         0.0287
     96 H          14.1140   27.1423   18.2073 H         1 PRO         0.0287
     97 H          15.7122   28.0504   16.7094 H         1 PRO         0.0524
     98 H          16.6464   28.8307   18.0304 H         1 PRO         0.0524
     99 H          16.2480   23.8284   20.4228 H         1 THR         0.1884
    100 H          14.2274   22.6633   18.5424 H         1 THR         0.0826
    101 H          16.4795   21.2284   20.0491 H         1 THR         0.0639
    102 H          17.0527   22.2859   18.0592 H         1 THR         0.2101
    103 H          15.6303   19.1839   18.9352 H         1 THR         0.0257
    104 H          14.2711   20.1250   18.2326 H         1 THR         0.0257
    105 H          14.3802   19.8958   20.0109 H         1 THR         0.0257
    106 H          12.4230   21.9192   19.5706 H         1 SER         0.1884
    107 H          12.5407   21.6530   22.5487 H         1 SER         0.0823
    108 H          10.1702   22.4136   22.6130 H         1 SER         0.0606
    109 H          10.2406   22.7436   20.8487 H         1 SER         0.0606
    110 H          11.9130   24.2671   21.3248 H         1 SER         0.2097
    111 H          16.3435   17.3703   25.9779 H         1 ALY         0.0467
    112 H          16.6481   18.0932   27.5938 H         1 ALY         0.0467
    113 H          16.5625   19.1457   26.1407 H         1 ALY         0.0467
    114 H          12.4197   17.5860   25.9976 H         1 ALY         0.1850
    115 H          14.7152   15.8772   25.7076 H         1 ALY         0.0520
    116 H          15.1151   17.3094   24.6998 H         1 ALY         0.0520
    117 H          12.7653   15.3992   24.3152 H         1 ALY         0.0285
    118 H          14.2414   15.5109   23.2976 H         1 ALY         0.0285
    119 H          13.0484   16.9271   22.0152 H         1 ALY         0.0268
    120 H          13.3138   18.1269   23.3254 H         1 ALY         0.0268
    121 H          11.2128   17.4811   24.3841 H         1 ALY         0.0312
    122 H          10.9571   16.2033   23.1477 H         1 ALY         0.0312
    123 H          10.5952   17.8211   21.4211 H         1 ALY         0.0800
    124 H          11.7655   19.7911   23.2968 H         1 ALY         0.1883
    125 H           8.4618   17.4655   21.3455 H         1 ILE         0.1875
    126 H           6.7704   18.5300   23.5377 H         1 ILE         0.0729
    127 H           5.2252   19.5800   21.9076 H         1 ILE         0.0338
    128 H           5.8062   18.1931   19.9472 H         1 ILE         0.0267
    129 H           7.4006   19.0148   19.8500 H         1 ILE         0.0267
    130 H           6.9792   20.9280   23.0306 H         1 ILE         0.0234
    131 H           6.5831   21.5601   21.3966 H         1 ILE         0.0234
    132 H           8.0893   20.6157   21.6535 H         1 ILE         0.0234
    133 H           5.7989   19.9668   18.2236 H         1 ILE         0.0230
    134 H           6.2600   21.1823   19.4632 H         1 ILE         0.0230
    135 H           4.6656   20.3606   19.5604 H         1 ILE         0.0230
@<TRIPOS>BOND
     1    2    1 1  
     2    3    2 1  
     3    2    5 1  
     4    3    4 2  
     5   12    3 am 
     6    5    6 1  
     7    6    7 1  
     8    7    8 1  
     9    8    9 ar 
    10    9   10 ar 
    11    9   11 ar 
    12   13   12 1  
    13   14   13 1  
    14   13   16 1  
    15   14   15 2  
    16   26   14 am 
    17   16   17 1  
    18   17   18 2  
    19   17   19 1  
    20   18   20 1  
    21   19   21 ar 
    22   19   22 ar 
    23   21   20 1  
    24   21   23 ar 
    25   22   24 ar 
    26   23   25 ar 
    27   24   25 ar 
    28   27   26 1  
    29   26   32 1  
    30   28   27 1  
    31   27   30 1  
    32   28   29 2  
    33   33   28 am 
    34   30   31 1  
    35   31   32 1  
    36   34   33 1  
    37   35   34 1  
    38   34   37 1  
    39   35   36 2  
    40   40   35 am 
    41   37   38 1  
    42   37   39 1  
    43   41   40 1  
    44   42   41 1  
    45   41   44 1  
    46   42   43 2  
    47   55   42 am 
    48   44   45 1  
    49   47   46 2  
    50   47   48 1  
    51   49   47 am 
    52   50   49 1  
    53   51   50 1  
    54   52   51 1  
    55   53   52 1  
    56   54   53 1  
    57   54   55 1  
    58   54   56 1  
    59   56   57 2  
    60   56   58 am 
    61   58   59 1  
    62   59   60 1  
    63   59   62 1  
    64   60   61 ar 
    65   60   66 ar 
    66   62   63 1  
    67   62   64 1  
    68   63   65 1  
    69    1   67 1  
    70    1   68 1  
    71    1   69 1  
    72    2   70 1  
    73    5   71 1  
    74    5   72 1  
    75    6   73 1  
    76    6   74 1  
    77    7   75 1  
    78    7   76 1  
    79    8   77 1  
    80   10   78 1  
    81   10   79 1  
    82   11   80 1  
    83   11   81 1  
    84   12   82 1  
    85   13   83 1  
    86   16   84 1  
    87   16   85 1  
    88   18   86 1  
    89   20   87 1  
    90   22   88 1  
    91   23   89 1  
    92   24   90 1  
    93   25   91 1  
    94   27   92 1  
    95   30   93 1  
    96   30   94 1  
    97   31   95 1  
    98   31   96 1  
    99   32   97 1  
   100   32   98 1  
   101   33   99 1  
   102   34  100 1  
   103   37  101 1  
   104   38  102 1  
   105   39  103 1  
   106   39  104 1  
   107   39  105 1  
   108   40  106 1  
   109   41  107 1  
   110   44  108 1  
   111   44  109 1  
   112   45  110 1  
   113   48  111 1  
   114   48  112 1  
   115   48  113 1  
   116   49  114 1  
   117   50  115 1  
   118   50  116 1  
   119   51  117 1  
   120   51  118 1  
   121   52  119 1  
   122   52  120 1  
   123   53  121 1  
   124   53  122 1  
   125   54  123 1  
   126   55  124 1  
   127   58  125 1  
   128   59  126 1  
   129   62  127 1  
   130   63  128 1  
   131   63  129 1  
   132   64  130 1  
   133   64  131 1  
   134   64  132 1  
   135   65  133 1  
   136   65  134 1  
   137   65  135 1  
@<TRIPOS>SUBSTRUCTURE
     1 ARG         1

