6eu6_ligand
  -I-interpret- 

 66 67  0  0  0  0  0  0  0  0999 V2000
  -15.1630  -25.1940  -18.8170 C   0  0  0  0  0
  -13.6030  -27.4840  -23.9640 O   0  0  0  0  0
  -15.4830  -25.6160  -20.2680 C   0  0  0  0  0
  -16.3050  -29.2670  -25.7930 O   0  0  0  0  0
  -14.4260  -26.3930  -21.1100 C   0  0  0  0  0
  -16.4310  -24.9890  -23.6750 O   0  0  0  0  0
  -13.1730  -26.7490  -20.2950 C   0  0  0  0  0
  -17.6930  -27.1850  -24.8410 O   0  0  0  0  0
  -15.5880  -25.9260  -24.3620 C   0  0  0  0  0
  -12.8450  -25.6380  -19.4840 O   0  0  0  0  0
  -13.6640  -25.2490  -18.3880 C   0  0  0  0  0
  -12.0130  -29.4530  -25.0870 O   0  0  0  0  0
  -16.3050  -27.2640  -24.4940 C   0  0  0  0  0
  -14.0580  -25.6780  -22.3110 O   0  0  0  0  0
  -15.5190  -28.1080  -25.4700 C   0  0  0  0  0
  -14.1840  -28.4880  -24.8040 C   0  0  0  0  0
  -14.3860  -26.3370  -23.5350 C   0  0  0  0  0
  -13.0840  -28.8200  -25.8050 C   0  0  0  0  0
  -13.1320  -25.9780  -17.2540 O   0  0  0  0  0
  -13.8190  -26.2680  -16.0360 C   0  0  0  0  0
  -14.2940  -25.0400  -15.2890 C   0  0  0  0  0
  -14.1140  -25.1580  -13.7840 C   0  0  0  0  0
  -15.4260  -25.2400  -13.0310 C   0  0  0  0  0
  -15.2620  -25.5940  -11.5460 C   0  0  0  0  0
  -15.1010  -24.3760  -10.6520 C   0  0  0  0  0
  -15.5540  -24.6360   -9.2330 C   0  0  0  0  0
  -16.1380  -25.8210  -17.9610 O   0  0  0  0  0
  -15.8130  -24.3970  -20.9090 O   0  0  0  0  0
  -11.9460  -27.0230  -21.1770 C   0  0  0  0  0
  -12.1980  -28.1850  -21.9680 O   0  0  0  0  0
  -15.2748  -24.1146  -18.7148 H   0  0  0  0  0
  -16.2624  -26.3754  -20.2042 H   0  0  0  0  0
  -15.8216  -29.8173  -26.4135 H   0  0  0  0  0
  -14.9065  -27.3263  -21.4037 H   0  0  0  0  0
  -15.9743  -24.1484  -23.5948 H   0  0  0  0  0
  -13.4041  -27.6490  -19.7251 H   0  0  0  0  0
  -18.0576  -28.0710  -24.9011 H   0  0  0  0  0
  -15.3240  -25.4311  -25.2966 H   0  0  0  0  0
  -13.6391  -24.2220  -18.0236 H   0  0  0  0  0
  -11.3056  -29.6725  -25.6978 H   0  0  0  0  0
  -16.3322  -27.7254  -23.5068 H   0  0  0  0  0
  -15.3025  -27.5725  -26.3944 H   0  0  0  0  0
  -14.4912  -29.3492  -24.2106 H   0  0  0  0  0
  -13.9650  -25.3705  -23.8123 H   0  0  0  0  0
  -13.4655  -29.4855  -26.5794 H   0  0  0  0  0
  -12.7284  -27.9117  -26.2914 H   0  0  0  0  0
  -13.1174  -26.7905  -15.3858 H   0  0  0  0  0
  -14.7029  -26.8510  -16.2945 H   0  0  0  0  0
  -15.3587  -24.9193  -15.4889 H   0  0  0  0  0
  -13.7004  -24.1919  -15.6302 H   0  0  0  0  0
  -13.5923  -24.2639  -13.4425 H   0  0  0  0  0
  -13.5626  -26.0777  -13.5883 H   0  0  0  0  0
  -16.0182  -26.0306  -13.4918 H   0  0  0  0  0
  -15.8942  -24.2570  -13.0827 H   0  0  0  0  0
  -14.3584  -26.1958  -11.4487 H   0  0  0  0  0
  -16.1646  -26.1172  -11.2305 H   0  0  0  0  0
  -15.7171  -23.5750  -11.0605 H   0  0  0  0  0
  -14.0428  -24.1158  -10.6251 H   0  0  0  0  0
  -16.6076  -24.9152   -9.2347 H   0  0  0  0  0
  -14.9627  -25.4466   -8.8070 H   0  0  0  0  0
  -15.4170  -23.7330   -8.6380 H   0  0  0  0  0
  -17.0128  -25.7129  -18.3414 H   0  0  0  0  0
  -16.4639  -23.9263  -20.3833 H   0  0  0  0  0
  -11.0694  -27.1860  -20.5500 H   0  0  0  0  0
  -11.7594  -26.1676  -21.8263 H   0  0  0  0  0
  -11.4356  -28.3643  -22.5232 H   0  0  0  0  0
  3  1  1  0  0  0
  1 11  1  0  0  0
  1 27  1  0  0  0
 16  2  1  0  0  0
  2 17  1  0  0  0
  5  3  1  0  0  0
  3 28  1  0  0  0
 15  4  1  0  0  0
  5  7  1  0  0  0
 14  5  1  0  0  0
  9  6  1  0  0  0
  7 10  1  0  0  0
  7 29  1  0  0  0
 13  8  1  0  0  0
 13  9  1  0  0  0
 17  9  1  0  0  0
 10 11  1  0  0  0
 11 19  1  0  0  0
 18 12  1  0  0  0
 15 13  1  0  0  0
 17 14  1  0  0  0
 16 15  1  0  0  0
 16 18  1  0  0  0
 19 20  1  0  0  0
 20 21  1  0  0  0
 21 22  1  0  0  0
 22 23  1  0  0  0
 23 24  1  0  0  0
 24 25  1  0  0  0
 25 26  1  0  0  0
 29 30  1  0  0  0
  1 31  1  0  0  0
  3 32  1  0  0  0
  4 33  1  0  0  0
  5 34  1  0  0  0
  6 35  1  0  0  0
  7 36  1  0  0  0
  8 37  1  0  0  0
  9 38  1  0  0  0
 11 39  1  0  0  0
 12 40  1  0  0  0
 13 41  1  0  0  0
 15 42  1  0  0  0
 16 43  1  0  0  0
 17 44  1  0  0  0
 18 45  1  0  0  0
 18 46  1  0  0  0
 20 47  1  0  0  0
 20 48  1  0  0  0
 21 49  1  0  0  0
 21 50  1  0  0  0
 22 51  1  0  0  0
 22 52  1  0  0  0
 23 53  1  0  0  0
 23 54  1  0  0  0
 24 55  1  0  0  0
 24 56  1  0  0  0
 25 57  1  0  0  0
 25 58  1  0  0  0
 26 59  1  0  0  0
 26 60  1  0  0  0
 26 61  1  0  0  0
 27 62  1  0  0  0
 28 63  1  0  0  0
 29 64  1  0  0  0
 29 65  1  0  0  0
 30 66  1  0  0  0
M  END
$$$$
