3fuf_ligand
  -I-interpret- 

 15 16  0  0  0  0  0  0  0  0999 V2000
   14.2750   -0.0260    4.3190 C   0  0  0  0  0
   13.8010    0.2660    3.0390 C   0  0  0  0  0
   14.0930   -0.5400    1.9480 C   0  0  0  0  0
   14.8910   -1.6760    2.1150 C   0  0  0  0  0
   15.3830   -1.9530    3.4010 C   0  0  0  0  0
   15.0730   -1.1400    4.4880 C   0  0  0  0  0
   16.3640   -2.8250    5.1840 C   0  0  0  0  0
   16.2050   -3.0490    3.8130 C   0  0  0  0  0
   13.5790   -0.1670    0.7650 F   0  0  0  0  0
   15.7000   -1.6830    5.5640 N   0  0  0  0  0
   14.0209    0.6111    5.1661 H   0  0  0  0  0
   13.1839    1.1524    2.8923 H   0  0  0  0  0
   15.1242   -2.3270    1.2725 H   0  0  0  0  0
   16.9342   -3.4657    5.8567 H   0  0  0  0  0
   16.6085   -3.8600    3.2067 H   0  0  0  0  0
  1  2  4  0  0  0
  1  6  4  0  0  0
  2  3  4  0  0  0
  3  4  4  0  0  0
  3  9  1  0  0  0
  4  5  4  0  0  0
  5  6  4  0  0  0
  5  8  4  0  0  0
  6 10  4  0  0  0
  8  7  4  0  0  0
  7 10  4  0  0  0
  1 11  1  0  0  0
  2 12  1  0  0  0
  4 13  1  0  0  0
  7 14  1  0  0  0
  8 15  1  0  0  0
M  END
$$$$
