1q72_ligand
  -I-interpret- 

 44 46  0  0  0  0  0  0  0  0999 V2000
   26.3810   -4.0800   26.7430 C   0  0  0  0  0
   25.5390   -2.9110   26.5920 O   0  0  0  0  0
   24.2900   -3.0860   26.1160 C   0  0  0  0  0
   23.6110   -4.0370   26.3700 O   0  0  0  0  0
   23.9380   -1.8880   25.2240 C   0  0  0  0  0
   22.5220   -1.3510   25.6380 C   0  0  0  0  0
   21.5380   -2.4100   25.3550 N   0  3  0  0  0
   20.2770   -2.2520   26.1220 C   0  0  0  0  0
   22.0760   -0.0980   24.8530 C   0  0  0  0  0
   21.2930   -0.6930   23.6530 C   0  0  0  0  0
   21.3600   -2.2180   23.9070 C   0  0  0  0  0
   22.5960   -2.8680   23.2080 C   0  0  0  0  0
   23.9070   -2.2180   23.6970 C   0  0  0  0  0
   25.0570   -3.0600   23.3510 O   0  0  0  0  0
   26.2790   -2.4850   23.2340 C   0  0  0  0  0
   26.4940   -1.3160   23.4500 O   0  0  0  0  0
   27.3340   -3.4750   22.7920 C   0  0  0  0  0
   28.6940   -3.1000   22.9020 C   0  0  0  0  0
   29.6990   -4.0100   22.4880 C   0  0  0  0  0
   29.3650   -5.2450   21.9850 C   0  0  0  0  0
   28.0320   -5.6150   21.8770 C   0  0  0  0  0
   27.0100   -4.7280   22.2830 C   0  0  0  0  0
   25.9098   -4.7787   27.4343 H   0  0  0  0  0
   26.5122   -4.5594   25.7729 H   0  0  0  0  0
   27.3523   -3.7784   27.1350 H   0  0  0  0  0
   24.7252   -1.1492   25.3744 H   0  0  0  0  0
   22.5820   -1.0782   26.6916 H   0  0  0  0  0
   21.8348   -3.3478   25.6250 H   0  0  0  0  0
   19.8825   -1.2478   25.9672 H   0  0  0  0  0
   19.5493   -2.9867   25.7776 H   0  0  0  0  0
   20.4766   -2.4059   27.1825 H   0  0  0  0  0
   22.9150    0.5241   24.5413 H   0  0  0  0  0
   21.4723    0.5823   25.4538 H   0  0  0  0  0
   21.7187   -0.4082   22.6908 H   0  0  0  0  0
   20.2700   -0.3216   23.5932 H   0  0  0  0  0
   20.4512   -2.6768   23.5177 H   0  0  0  0  0
   22.5099   -2.7186   22.1317 H   0  0  0  0  0
   22.6186   -3.9303   23.4509 H   0  0  0  0  0
   23.9629   -1.2606   23.1789 H   0  0  0  0  0
   28.9658   -2.1225   23.3005 H   0  0  0  0  0
   30.7485   -3.7273   22.5694 H   0  0  0  0  0
   30.1484   -5.9346   21.6706 H   0  0  0  0  0
   27.7720   -6.5950   21.4769 H   0  0  0  0  0
   25.9652   -5.0264   22.1971 H   0  0  0  0  0
  1  2  1  0  0  0
  2  3  1  0  0  0
  3  4  2  0  0  0
  3  5  1  0  0  0
  5  6  1  0  0  0
  5 13  1  0  0  0
  6  7  1  0  0  0
  6  9  1  0  0  0
  7  8  1  0  0  0
  7 11  1  0  0  0
  9 10  1  0  0  0
 10 11  1  0  0  0
 11 12  1  0  0  0
 12 13  1  0  0  0
 13 14  1  0  0  0
 14 15  1  0  0  0
 15 16  2  0  0  0
 15 17  1  0  0  0
 17 18  4  0  0  0
 17 22  4  0  0  0
 18 19  4  0  0  0
 19 20  4  0  0  0
 20 21  4  0  0  0
 21 22  4  0  0  0
  1 23  1  0  0  0
  1 24  1  0  0  0
  1 25  1  0  0  0
  5 26  1  0  0  0
  6 27  1  0  0  0
  7 28  1  0  0  0
  8 29  1  0  0  0
  8 30  1  0  0  0
  8 31  1  0  0  0
  9 32  1  0  0  0
  9 33  1  0  0  0
 10 34  1  0  0  0
 10 35  1  0  0  0
 11 36  1  0  0  0
 12 37  1  0  0  0
 12 38  1  0  0  0
 13 39  1  0  0  0
 18 40  1  0  0  0
 19 41  1  0  0  0
 20 42  1  0  0  0
 21 43  1  0  0  0
 22 44  1  0  0  0
M  END
$$$$
