5xzr_ligand
  -I-interpret- 

 58 61  0  0  0  0  0  0  0  0999 V2000
  -16.3740   65.8680   21.2730 C   0  0  0  0  0
  -16.8550   66.8490   20.2050 C   0  0  0  0  0
  -18.1110   67.5430   20.7210 C   0  0  0  0  0
  -17.2110   66.0650   18.9470 C   0  0  0  0  0
  -15.7290   67.7950   19.9000 N   0  3  0  0  0
  -16.0190   69.2590   19.7240 C   0  0  0  0  0
  -15.4280   69.7070   18.3810 C   0  0  0  0  0
  -15.2500   69.9970   20.8390 C   0  0  0  0  0
  -17.4820   69.7270   19.8020 C   0  0  0  0  0
  -18.4890   68.6180   19.7650 C   0  0  0  0  0
  -19.8920   69.0920   20.0730 N   0  0  0  0  0
  -20.2660   70.1140   21.0800 C   0  0  0  0  0
  -21.4100   70.8340   21.0550 N   0  0  0  0  0
  -19.4190   70.6240   22.4650 S   0  0  0  0  0
  -20.5460   71.7860   23.0260 C   0  0  0  0  0
  -21.5890   71.7320   22.0770 C   0  0  0  0  0
  -22.8640   72.6300   22.1690 C   0  0  0  0  0
  -22.7580   73.9620   22.5600 C   0  0  0  0  0
  -23.9080   74.7590   22.6370 C   0  0  0  0  0
  -25.1610   74.2190   22.3220 C   0  0  0  0  0
  -24.1180   72.0880   21.8500 C   0  0  0  0  0
  -25.2670   72.8850   21.9290 C   0  0  0  0  0
  -26.6570   72.2800   21.5730 C   0  0  0  0  0
  -27.5930   73.0480   20.8810 C   0  0  0  0  0
  -28.8400   72.5080   20.5550 C   0  0  0  0  0
  -26.9640   70.9700   21.9310 C   0  0  0  0  0
  -28.2120   70.4300   21.6020 C   0  0  0  0  0
  -29.1490   71.1990   20.9150 C   0  0  0  0  0
  -15.5115   65.3177   20.8970 H   0  0  0  0  0
  -16.0920   66.4191   22.1702 H   0  0  0  0  0
  -17.1765   65.1698   21.5111 H   0  0  0  0  0
  -17.9191   67.9726   21.7042 H   0  0  0  0  0
  -18.9236   66.8217   20.8072 H   0  0  0  0  0
  -17.5183   66.7577   18.1635 H   0  0  0  0  0
  -16.3402   65.5005   18.6136 H   0  0  0  0  0
  -18.0282   65.3782   19.1675 H   0  0  0  0  0
  -15.3739   67.4908   18.9935 H   0  0  0  0  0
  -15.1226   67.7480   20.7188 H   0  0  0  0  0
  -15.5454   70.7855   18.2755 H   0  0  0  0  0
  -14.3691   69.4505   18.3478 H   0  0  0  0  0
  -15.9510   69.2021   17.5688 H   0  0  0  0  0
  -14.1928   69.7378   20.7823 H   0  0  0  0  0
  -15.3691   71.0728   20.7100 H   0  0  0  0  0
  -15.6466   69.7001   21.8099 H   0  0  0  0  0
  -17.6644   70.3541   18.9293 H   0  0  0  0  0
  -17.6040   70.2383   20.7569 H   0  0  0  0  0
  -18.4874   68.2311   18.7460 H   0  0  0  0  0
  -20.6511   68.6695   19.5385 H   0  0  0  0  0
  -20.4741   72.4195   23.9101 H   0  0  0  0  0
  -21.7833   74.3837   22.8055 H   0  0  0  0  0
  -23.8270   75.8021   22.9429 H   0  0  0  0  0
  -26.0537   74.8414   22.3840 H   0  0  0  0  0
  -24.1982   71.0460   21.5405 H   0  0  0  0  0
  -27.3515   74.0714   20.5939 H   0  0  0  0  0
  -29.5715   73.1122   20.0183 H   0  0  0  0  0
  -26.2325   70.3655   22.4673 H   0  0  0  0  0
  -28.4520   69.4048   21.8839 H   0  0  0  0  0
  -30.1212   70.7770   20.6601 H   0  0  0  0  0
  1  2  1  0  0  0
  2  3  1  0  0  0
  2  4  1  0  0  0
  2  5  1  0  0  0
  3 10  1  0  0  0
  5  6  1  0  0  0
  6  7  1  0  0  0
  6  8  1  0  0  0
  6  9  1  0  0  0
  9 10  1  0  0  0
 10 11  1  0  0  0
 11 12  1  0  0  0
 12 13  4  0  0  0
 12 14  4  0  0  0
 13 16  4  0  0  0
 14 15  4  0  0  0
 15 16  4  0  0  0
 16 17  1  0  0  0
 17 18  4  0  0  0
 17 21  4  0  0  0
 18 19  4  0  0  0
 19 20  4  0  0  0
 20 22  4  0  0  0
 21 22  4  0  0  0
 22 23  1  0  0  0
 23 24  4  0  0  0
 23 26  4  0  0  0
 24 25  4  0  0  0
 25 28  4  0  0  0
 26 27  4  0  0  0
 27 28  4  0  0  0
  1 29  1  0  0  0
  1 30  1  0  0  0
  1 31  1  0  0  0
  3 32  1  0  0  0
  3 33  1  0  0  0
  4 34  1  0  0  0
  4 35  1  0  0  0
  4 36  1  0  0  0
  5 37  1  0  0  0
  5 38  1  0  0  0
  7 39  1  0  0  0
  7 40  1  0  0  0
  7 41  1  0  0  0
  8 42  1  0  0  0
  8 43  1  0  0  0
  8 44  1  0  0  0
  9 45  1  0  0  0
  9 46  1  0  0  0
 10 47  1  0  0  0
 11 48  1  0  0  0
 15 49  1  0  0  0
 18 50  1  0  0  0
 19 51  1  0  0  0
 20 52  1  0  0  0
 21 53  1  0  0  0
 24 54  1  0  0  0
 25 55  1  0  0  0
 26 56  1  0  0  0
 27 57  1  0  0  0
 28 58  1  0  0  0
M  END
$$$$
