1o1s_ligand
  -I-interpret- 

 65 66  0  0  0  0  0  0  0  0999 V2000
  193.6470  123.4910   29.0520 C   0  0  0  0  0
  193.1760  122.9000   30.3810 C   0  0  0  0  0
  191.8450  122.1070   30.3570 C   0  0  0  0  0
  191.0540  122.1600   31.6910 C   0  0  0  0  0
  189.7860  121.3160   31.5510 C   0  0  0  0  0
  188.7920  121.3270   32.4690 C   0  0  0  0  0
  188.8850  122.1830   33.7040 C   0  0  0  0  0
  187.5480  120.4760   32.2900 C   0  0  0  0  0
  186.4070  121.1140   32.8820 O   0  0  0  0  0
  185.1590  120.4650   32.5340 C   0  0  0  0  0
  184.4970  121.1980   31.3860 C   0  0  0  0  0
  183.3470  120.6930   30.7560 C   0  0  0  0  0
  182.7810  121.4170   29.6930 C   0  0  0  0  0
  183.3590  122.6390   29.2640 C   0  0  0  0  0
  184.5100  123.1410   29.9030 C   0  0  0  0  0
  185.0540  122.4070   30.9590 C   0  0  0  0  0
  185.2070  124.4140   29.5550 C   0  0  0  0  0
  186.1140  124.8310   30.2820 O   0  0  0  0  0
  184.8340  125.1750   28.3450 C   0  0  0  0  0
  184.0360  124.6380   27.3230 C   0  0  0  0  0
  183.8300  125.3600   26.1380 C   0  0  0  0  0
  184.4050  126.6270   25.9730 C   0  0  0  0  0
  185.1500  127.1970   27.0140 C   0  0  0  0  0
  185.3560  126.4750   28.1970 C   0  0  0  0  0
  193.9180  123.0780   31.5040 C   0  0  0  0  0
  195.2300  123.8540   31.5140 C   0  0  0  0  0
  195.1140  125.0980   32.2780 O   0  0  0  0  0
  196.3480  125.5950   33.1190 P   0  0  0  0  0
  196.1040  127.1000   33.3530 O   0  0  0  0  0
  197.6720  125.3390   32.4640 O   0  0  0  0  0
  196.2410  124.9470   34.5310 O   0  0  0  0  0
  197.0750  123.8600   35.2780 P   0  0  0  0  0
  196.2780  123.6140   36.5860 O   0  0  0  0  0
  196.9840  122.6040   34.3840 O   0  0  0  0  0
  198.4780  124.2910   35.5320 O   0  0  0  0  0
  193.7285  124.5739   29.1459 H   0  0  0  0  0
  194.6202  123.0731   28.7946 H   0  0  0  0  0
  192.9269  123.2459   28.2713 H   0  0  0  0  0
  192.0945  121.0625   30.1705 H   0  0  0  0  0
  191.2148  122.5565   29.5896 H   0  0  0  0  0
  190.7859  123.1916   31.9190 H   0  0  0  0  0
  191.6700  121.7670   32.4998 H   0  0  0  0  0
  189.6785  120.6781   30.6737 H   0  0  0  0  0
  189.7612  121.8901   34.2824 H   0  0  0  0  0
  188.9733  123.2298   33.4132 H   0  0  0  0  0
  187.9876  122.0467   34.3074 H   0  0  0  0  0
  187.7061  119.5141   32.7776 H   0  0  0  0  0
  187.3632  120.3422   31.2242 H   0  0  0  0  0
  184.4949  120.4776   33.3982 H   0  0  0  0  0
  185.3608  119.4366   32.2343 H   0  0  0  0  0
  182.9012  119.7549   31.0865 H   0  0  0  0  0
  181.8900  121.0361   29.1938 H   0  0  0  0  0
  182.9116  123.1913   28.4377 H   0  0  0  0  0
  185.9403  122.7885   31.4660 H   0  0  0  0  0
  183.5755  123.6583   27.4502 H   0  0  0  0  0
  183.2198  124.9334   25.3419 H   0  0  0  0  0
  184.2730  127.1685   25.0363 H   0  0  0  0  0
  185.5675  128.1978   26.9039 H   0  0  0  0  0
  185.9258  126.9236   29.0108 H   0  0  0  0  0
  193.5600  122.6473   32.4391 H   0  0  0  0  0
  195.4902  124.1042   30.4855 H   0  0  0  0  0
  195.9943  123.2328   31.9810 H   0  0  0  0  0
  195.2493  127.2230   33.7725 H   0  0  0  0  0
  195.3843  123.3395   36.3680 H   0  0  0  0  0
  196.0617  122.3717   34.2535 H   0  0  0  0  0
  1  2  1  0  0  0
  2  3  1  0  0  0
  2 25  2  0  0  0
  3  4  1  0  0  0
  4  5  1  0  0  0
  5  6  2  0  0  0
  6  7  1  0  0  0
  6  8  1  0  0  0
  8  9  1  0  0  0
  9 10  1  0  0  0
 10 11  1  0  0  0
 11 12  4  0  0  0
 11 16  4  0  0  0
 12 13  4  0  0  0
 13 14  4  0  0  0
 14 15  4  0  0  0
 15 16  4  0  0  0
 15 17  1  0  0  0
 17 18  2  0  0  0
 17 19  1  0  0  0
 19 20  4  0  0  0
 19 24  4  0  0  0
 20 21  4  0  0  0
 21 22  4  0  0  0
 22 23  4  0  0  0
 23 24  4  0  0  0
 25 26  1  0  0  0
 26 27  1  0  0  0
 27 28  1  0  0  0
 28 29  1  0  0  0
 28 30  2  0  0  0
 28 31  1  0  0  0
 31 32  1  0  0  0
 32 33  1  0  0  0
 32 34  1  0  0  0
 32 35  2  0  0  0
  1 36  1  0  0  0
  1 37  1  0  0  0
  1 38  1  0  0  0
  3 39  1  0  0  0
  3 40  1  0  0  0
  4 41  1  0  0  0
  4 42  1  0  0  0
  5 43  1  0  0  0
  7 44  1  0  0  0
  7 45  1  0  0  0
  7 46  1  0  0  0
  8 47  1  0  0  0
  8 48  1  0  0  0
 10 49  1  0  0  0
 10 50  1  0  0  0
 12 51  1  0  0  0
 13 52  1  0  0  0
 14 53  1  0  0  0
 16 54  1  0  0  0
 20 55  1  0  0  0
 21 56  1  0  0  0
 22 57  1  0  0  0
 23 58  1  0  0  0
 24 59  1  0  0  0
 25 60  1  0  0  0
 26 61  1  0  0  0
 26 62  1  0  0  0
 29 63  1  0  0  0
 33 64  1  0  0  0
 34 65  1  0  0  0
M  END
$$$$
