4yzm_ligand
  -I-interpret- 

 82 87  0  0  0  0  0  0  0  0999 V2000
  -21.6110  -10.4730  -30.4760 C   0  0  0  0  0
  -22.4590  -10.0990  -29.4240 C   0  0  0  0  0
  -23.7990  -10.4460  -29.5550 C   0  0  0  0  0
  -24.2160  -11.1180  -30.7060 N   0  0  0  0  0
  -22.0750  -11.1100  -31.5840 N   0  0  0  0  0
  -14.3050  -14.8380  -37.2370 C   0  0  0  0  0
  -13.4100  -15.8890  -37.9410 C   0  0  0  0  0
  -14.1920  -17.1000  -38.2900 N   0  3  0  0  0
  -13.4550  -18.0020  -39.1970 C   0  0  0  0  0
  -14.5960  -17.8040  -37.0570 C   0  0  0  0  0
  -15.3670  -16.8770  -36.0710 C   0  0  0  0  0
  -15.4270  -15.4280  -36.4390 N   0  3  0  0  0
  -16.8150  -14.8850  -36.6240 C   0  0  0  0  0
  -17.1070  -13.6090  -35.7640 C   0  0  0  0  0
  -18.5380  -13.0120  -36.0210 C   0  0  0  0  0
  -17.1890  -14.6340  -38.1070 C   0  0  0  0  0
  -18.6870  -14.2670  -38.2870 C   0  0  0  0  0
  -19.3810  -13.7380  -37.0580 N   0  0  0  0  0
  -20.7470  -13.9290  -36.9670 C   0  0  0  0  0
  -21.3620  -14.5270  -37.8510 O   0  0  0  0  0
  -21.5280  -13.4560  -35.8870 C   0  0  0  0  0
  -22.5420  -14.2640  -35.3220 C   0  0  0  0  0
  -23.3320  -13.7580  -34.2620 C   0  0  0  0  0
  -24.3320  -14.4810  -33.5950 O   0  0  0  0  0
  -25.4000  -15.0370  -34.3090 C   0  0  0  0  0
  -21.3320  -12.1570  -35.3870 C   0  0  0  0  0
  -22.0770  -11.6580  -34.3250 C   0  0  0  0  0
  -23.0580  -12.4600  -33.7650 C   0  0  0  0  0
  -23.8310  -12.0550  -32.7650 N   0  0  0  0  0
  -23.3570  -11.4380  -31.6920 C   0  0  0  0  0
  -20.2960  -10.1830  -30.5790 N   0  0  0  0  0
  -19.2980  -11.1270  -31.1840 C   0  0  0  0  0
  -19.8690   -8.9650  -30.2680 C   0  0  0  0  0
  -19.0900   -8.4390  -31.2920 C   0  0  0  0  0
  -18.5740   -7.1780  -31.1660 C   0  0  0  0  0
  -18.8670   -6.4680  -30.0090 C   0  0  0  0  0
  -19.6780   -6.9710  -28.9960 C   0  0  0  0  0
  -20.1920   -8.2530  -29.1220 C   0  0  0  0  0
  -21.0410   -8.6490  -28.0660 C   0  0  0  0  0
  -20.9170   -8.1650  -26.9270 O   0  0  0  0  0
  -22.1270   -9.4560  -28.2480 N   0  0  0  0  0
  -22.9300   -9.7240  -26.9600 C   0  0  0  0  0
  -24.5138  -10.1971  -28.7706 H   0  0  0  0  0
  -14.7525  -14.2210  -38.0162 H   0  0  0  0  0
  -13.6706  -14.2863  -36.5433 H   0  0  0  0  0
  -12.6049  -16.1743  -37.2639 H   0  0  0  0  0
  -13.0109  -15.4530  -38.8568 H   0  0  0  0  0
  -15.0256  -16.7995  -38.7952 H   0  0  0  0  0
  -13.2202  -17.4736  -40.1210 H   0  0  0  0  0
  -12.5312  -18.3235  -38.7160 H   0  0  0  0  0
  -14.0713  -18.8726  -39.4213 H   0  0  0  0  0
  -13.6930  -18.1531  -36.5562 H   0  0  0  0  0
  -15.2577  -18.6235  -37.3374 H   0  0  0  0  0
  -14.8323  -16.9288  -35.1226 H   0  0  0  0  0
  -16.3975  -17.2321  -36.0613 H   0  0  0  0  0
  -15.1408  -14.9766  -35.5703 H   0  0  0  0  0
  -17.4591  -15.6831  -36.2548 H   0  0  0  0  0
  -16.3753  -12.8488  -36.0374 H   0  0  0  0  0
  -17.0495  -13.8952  -34.7138 H   0  0  0  0  0
  -18.3866  -12.0013  -36.4000 H   0  0  0  0  0
  -19.0777  -13.0884  -35.0771 H   0  0  0  0  0
  -16.9981  -15.5521  -38.6626 H   0  0  0  0  0
  -16.5914  -13.7970  -38.4680 H   0  0  0  0  0
  -19.2007  -15.1890  -38.5595 H   0  0  0  0  0
  -18.7230  -13.4700  -39.0297 H   0  0  0  0  0
  -22.7143  -15.2714  -35.7009 H   0  0  0  0  0
  -25.9478  -14.2435  -34.8173 H   0  0  0  0  0
  -25.0151  -15.7433  -35.0446 H   0  0  0  0  0
  -26.0658  -15.5556  -33.6191 H   0  0  0  0  0
  -20.5736  -11.5225  -35.8455 H   0  0  0  0  0
  -21.8929  -10.6549  -33.9402 H   0  0  0  0  0
  -24.8347  -12.2262  -32.8249 H   0  0  0  0  0
  -18.9182  -10.7049  -32.1144 H   0  0  0  0  0
  -18.4727  -11.2764  -30.4878 H   0  0  0  0  0
  -19.7809  -12.0828  -31.3876 H   0  0  0  0  0
  -18.8917   -9.0265  -32.1884 H   0  0  0  0  0
  -17.9524   -6.7443  -31.9493 H   0  0  0  0  0
  -18.4424   -5.4713  -29.8888 H   0  0  0  0  0
  -19.9056   -6.3671  -28.1176 H   0  0  0  0  0
  -22.2863  -10.2094  -26.2264 H   0  0  0  0  0
  -23.2939   -8.7789  -26.5570 H   0  0  0  0  0
  -23.7756  -10.3725  -27.1889 H   0  0  0  0  0
  1  2  4  0  0  0
  5  1  4  0  0  0
  1 31  1  0  0  0
  3  2  4  0  0  0
  2 41  1  0  0  0
  4  3  4  0  0  0
 30  4  4  0  0  0
 30  5  4  0  0  0
  6  7  1  0  0  0
 12  6  1  0  0  0
  7  8  1  0  0  0
  8  9  1  0  0  0
 10  8  1  0  0  0
 11 10  1  0  0  0
 12 11  1  0  0  0
 13 12  1  0  0  0
 14 13  1  0  0  0
 16 13  1  0  0  0
 15 14  1  0  0  0
 18 15  1  0  0  0
 17 16  1  0  0  0
 18 17  1  0  0  0
 19 18  1  0  0  0
 19 20  2  0  0  0
 21 19  1  0  0  0
 22 21  4  0  0  0
 26 21  4  0  0  0
 23 22  4  0  0  0
 23 24  1  0  0  0
 28 23  4  0  0  0
 24 25  1  0  0  0
 27 26  4  0  0  0
 28 27  4  0  0  0
 29 28  1  0  0  0
 29 30  1  0  0  0
 31 32  1  0  0  0
 31 33  1  0  0  0
 33 34  4  0  0  0
 33 38  4  0  0  0
 34 35  4  0  0  0
 35 36  4  0  0  0
 36 37  4  0  0  0
 37 38  4  0  0  0
 38 39  1  0  0  0
 39 40  2  0  0  0
 39 41  1  0  0  0
 41 42  1  0  0  0
  3 43  1  0  0  0
  6 44  1  0  0  0
  6 45  1  0  0  0
  7 46  1  0  0  0
  7 47  1  0  0  0
  8 48  1  0  0  0
  9 49  1  0  0  0
  9 50  1  0  0  0
  9 51  1  0  0  0
 10 52  1  0  0  0
 10 53  1  0  0  0
 11 54  1  0  0  0
 11 55  1  0  0  0
 12 56  1  0  0  0
 13 57  1  0  0  0
 14 58  1  0  0  0
 14 59  1  0  0  0
 15 60  1  0  0  0
 15 61  1  0  0  0
 16 62  1  0  0  0
 16 63  1  0  0  0
 17 64  1  0  0  0
 17 65  1  0  0  0
 22 66  1  0  0  0
 25 67  1  0  0  0
 25 68  1  0  0  0
 25 69  1  0  0  0
 26 70  1  0  0  0
 27 71  1  0  0  0
 29 72  1  0  0  0
 32 73  1  0  0  0
 32 74  1  0  0  0
 32 75  1  0  0  0
 34 76  1  0  0  0
 35 77  1  0  0  0
 36 78  1  0  0  0
 37 79  1  0  0  0
 42 80  1  0  0  0
 42 81  1  0  0  0
 42 82  1  0  0  0
M  END
$$$$
