1o4l_ligand
  -I-interpret- 

 21 20  0  0  0  0  0  0  0  0999 V2000
   15.2200   28.7550   17.7270 C   0  0  0  0  0
   14.5170   28.5700   16.6050 O   0  0  0  0  0
   14.8940   28.3450   18.8290 O   0  0  0  0  0
   16.4970   29.5970   17.5930 C   0  0  0  0  0
   17.5950   28.6730   17.0620 C   0  0  0  0  0
   17.6300   27.5480   17.9420 O   0  0  0  0  0
   18.8300   29.6540   17.1360 C   0  0  0  0  0
   20.1450   29.0290   16.5860 C   0  0  0  0  0
   21.2650   29.4800   16.9030 O   0  0  0  0  0
   20.0690   27.9750   15.7340 O   0  0  0  0  0
   17.3640   28.2000   15.6890 C   0  0  0  0  0
   17.3380   29.1900   14.7920 O   0  0  0  0  0
   16.9790   27.0780   15.3980 O   0  0  0  0  0
   14.9752   28.9836   15.8698 H   0  0  0  0  0
   16.7824   30.0174   18.5573 H   0  0  0  0  0
   16.3360   30.4325   16.9118 H   0  0  0  0  0
   16.8377   27.0205   17.8169 H   0  0  0  0  0
   18.9947   29.8984   18.1854 H   0  0  0  0  0
   18.5969   30.5245   16.5229 H   0  0  0  0  0
   19.1476   27.7475   15.5896 H   0  0  0  0  0
   17.6752   29.9938   15.1943 H   0  0  0  0  0
  1  2  1  0  0  0
  1  3  2  0  0  0
  1  4  1  0  0  0
  4  5  1  0  0  0
  5  6  1  0  0  0
  5  7  1  0  0  0
  5 11  1  0  0  0
  7  8  1  0  0  0
  8  9  2  0  0  0
  8 10  1  0  0  0
 11 12  1  0  0  0
 11 13  2  0  0  0
  2 14  1  0  0  0
  4 15  1  0  0  0
  4 16  1  0  0  0
  6 17  1  0  0  0
  7 18  1  0  0  0
  7 19  1  0  0  0
 10 20  1  0  0  0
 12 21  1  0  0  0
M  END
$$$$
