6e4c_ligand
  -I-interpret- 

 35 37  0  0  0  0  0  0  0  0999 V2000
  -17.3930   16.1710   14.5340 O   0  0  0  0  0
  -18.3870   16.4560   15.2480 C   0  0  0  0  0
  -18.3040   16.4170   16.4730 O   0  0  0  0  0
  -19.5730   16.9570   14.7670 C   0  0  0  0  0
  -20.5780   17.1150   15.7280 N   0  0  0  0  0
  -19.8080   17.2850   13.4470 C   0  0  0  0  0
  -18.8420   17.0860   12.5530 O   0  0  0  0  0
  -21.0280   17.8260   13.0550 C   0  0  0  0  0
  -21.2880   18.1550   11.8830 O   0  0  0  0  0
  -22.0040   17.9840   14.0460 C   0  0  0  0  0
  -21.8180   17.6030   15.3820 C   0  0  0  0  0
  -22.9030   17.8530   16.2660 C   0  0  0  0  0
  -24.1590   17.2870   16.0160 C   0  0  0  0  0
  -24.3830   16.3660   14.9490 C   0  0  0  0  0
  -25.2430   17.6120   16.8210 C   0  0  0  0  0
  -22.7830   18.7500   17.3310 C   0  0  0  0  0
  -23.8830   19.0610   18.1500 C   0  0  0  0  0
  -25.1410   18.4870   17.9130 C   0  0  0  0  0
  -26.2550   18.7830   18.6480 C   0  0  0  0  0
  -26.3050   19.2380   19.9090 N   0  0  0  0  0
  -27.8830   19.4250   20.1700 O   0  0  0  0  0
  -28.4570   19.0910   19.0330 C   0  0  0  0  0
  -29.6840   19.1120   18.8200 O   0  0  0  0  0
  -27.5210   18.7280   18.1330 N   0  0  0  0  0
  -17.6318   16.2525   13.6078 H   0  0  0  0  0
  -20.8804   17.1815   13.2817 H   0  0  0  0  0
  -18.0750   16.7095   12.9907 H   0  0  0  0  0
  -22.9592   18.4268   13.7638 H   0  0  0  0  0
  -24.1422   16.8455   14.0002 H   0  0  0  0  0
  -23.7480   15.4909   15.0868 H   0  0  0  0  0
  -25.4294   16.0607   14.9479 H   0  0  0  0  0
  -26.2130   17.1691   16.5951 H   0  0  0  0  0
  -21.8187   19.2173   17.5305 H   0  0  0  0  0
  -23.7566   19.7568   18.9794 H   0  0  0  0  0
  -27.7330   18.4445   17.1764 H   0  0  0  0  0
  1  2  1  0  0  0
  2  3  2  0  0  0
  2  4  1  0  0  0
  4  5  2  0  0  0
  4  6  1  0  0  0
  5 11  1  0  0  0
  6  7  1  0  0  0
  6  8  1  0  0  0
  8  9  2  0  0  0
  8 10  1  0  0  0
 10 11  2  0  0  0
 11 12  1  0  0  0
 12 13  4  0  0  0
 12 16  4  0  0  0
 13 14  1  0  0  0
 13 15  4  0  0  0
 15 18  4  0  0  0
 16 17  4  0  0  0
 17 18  4  0  0  0
 18 19  1  0  0  0
 19 20  2  0  0  0
 19 24  1  0  0  0
 20 21  1  0  0  0
 21 22  1  0  0  0
 22 23  2  0  0  0
 22 24  1  0  0  0
  1 25  1  0  0  0
  6 26  1  0  0  0
  7 27  1  0  0  0
 10 28  1  0  0  0
 14 29  1  0  0  0
 14 30  1  0  0  0
 14 31  1  0  0  0
 15 32  1  0  0  0
 16 33  1  0  0  0
 17 34  1  0  0  0
 24 35  1  0  0  0
M  END
$$$$
