5kxi_ligand
  -I-interpret- 

 27 28  0  0  0  0  0  0  0  0999 V2000
   69.3500  -25.7340  -42.4450 N   0  0  0  0  0
   68.4560  -26.2350  -41.5570 C   0  0  0  0  0
   68.3180  -27.6120  -41.2940 C   0  0  0  0  0
   69.1440  -28.4790  -42.0040 C   0  0  0  0  0
   70.0670  -27.9890  -42.9290 C   0  0  0  0  0
   70.1380  -26.6050  -43.1220 C   0  0  0  0  0
   67.3670  -27.2020  -39.0760 N   0  3  0  0  0
   67.3240  -28.1100  -40.2920 C   0  0  0  0  0
   65.8770  -28.0320  -40.6550 C   0  0  0  0  0
   65.1070  -27.9140  -39.3700 C   0  0  0  0  0
   66.0000  -27.0950  -38.4900 C   0  0  0  0  0
   68.1510  -28.0170  -38.1560 C   0  0  0  0  0
   67.8125  -25.5379  -41.0203 H   0  0  0  0  0
   69.0689  -29.5533  -41.8354 H   0  0  0  0  0
   70.7149  -28.6659  -43.4859 H   0  0  0  0  0
   70.8540  -26.2123  -43.8440 H   0  0  0  0  0
   67.7189  -26.2642  -39.2688 H   0  0  0  0  0
   67.6171  -29.1532  -40.1736 H   0  0  0  0  0
   65.5700  -28.9195  -41.2083 H   0  0  0  0  0
   65.6868  -27.1732  -41.2987 H   0  0  0  0  0
   64.8754  -28.8863  -38.9351 H   0  0  0  0  0
   64.1301  -27.4523  -39.5134 H   0  0  0  0  0
   65.6688  -26.0574  -38.4486 H   0  0  0  0  0
   65.9819  -27.4583  -37.4625 H   0  0  0  0  0
   67.6355  -28.9610  -37.9792 H   0  0  0  0  0
   69.1311  -28.2127  -38.5909 H   0  0  0  0  0
   68.2705  -27.4846  -37.2124 H   0  0  0  0  0
  1  2  4  0  0  0
  1  6  4  0  0  0
  2  3  4  0  0  0
  3  4  4  0  0  0
  3  8  1  0  0  0
  4  5  4  0  0  0
  5  6  4  0  0  0
  8  7  1  0  0  0
  7 11  1  0  0  0
  7 12  1  0  0  0
  8  9  1  0  0  0
  9 10  1  0  0  0
 10 11  1  0  0  0
  2 13  1  0  0  0
  4 14  1  0  0  0
  5 15  1  0  0  0
  6 16  1  0  0  0
  7 17  1  0  0  0
  8 18  1  0  0  0
  9 19  1  0  0  0
  9 20  1  0  0  0
 10 21  1  0  0  0
 10 22  1  0  0  0
 11 23  1  0  0  0
 11 24  1  0  0  0
 12 25  1  0  0  0
 12 26  1  0  0  0
 12 27  1  0  0  0
M  END
$$$$
