6uh0_ligand
  -I-interpret- 

 22 23  0  0  0  0  0  0  0  0999 V2000
   15.5140   -0.0240   15.9510 N   0  0  0  0  0
   14.5690    3.8230   16.5880 C   0  0  0  0  0
   14.8770    5.0700   16.0240 C   0  0  0  0  0
   15.7570    5.1940   14.9520 C   0  0  0  0  0
   16.3390    4.0700   14.4580 C   0  0  0  0  0
   16.0220    2.8310   15.0350 C   0  0  0  0  0
   15.1560    2.6420   16.1060 C   0  0  0  0  0
   14.8840    1.1730   16.8320 S   0  0  0  0  0
   16.7340    1.6300   14.3560 N   0  0  0  0  0
   16.4550    0.2310   14.8860 C   0  0  0  0  0
   13.4460    1.0210   17.0350 O   0  0  0  0  0
   15.7110    1.1560   18.0510 O   0  0  0  0  0
   16.9650   -0.6650   14.3470 O   0  0  0  0  0
   17.6270    1.8030   13.2220 C   0  0  0  0  0
   15.2401   -0.9858   16.1520 H   0  0  0  0  0
   13.8613    3.7699   17.4153 H   0  0  0  0  0
   14.4146    5.9668   16.4364 H   0  0  0  0  0
   15.9740    6.1705   14.5190 H   0  0  0  0  0
   17.0412    4.1299   13.6265 H   0  0  0  0  0
   18.6121    1.4100   13.4736 H   0  0  0  0  0
   17.2285    1.2648   12.3620 H   0  0  0  0  0
   17.7076    2.8634   12.9831 H   0  0  0  0  0
  8  1  1  0  0  0
  1 10  1  0  0  0
  2  3  4  0  0  0
  7  2  4  0  0  0
  3  4  4  0  0  0
  5  4  4  0  0  0
  6  5  4  0  0  0
  7  6  4  0  0  0
  6  9  1  0  0  0
  7  8  1  0  0  0
  8 11  2  0  0  0
  8 12  2  0  0  0
  9 10  1  0  0  0
  9 14  1  0  0  0
 10 13  2  0  0  0
  1 15  1  0  0  0
  2 16  1  0  0  0
  3 17  1  0  0  0
  4 18  1  0  0  0
  5 19  1  0  0  0
 14 20  1  0  0  0
 14 21  1  0  0  0
 14 22  1  0  0  0
M  END
$$$$
