2gzl_ligand
  -I-interpret- 

 75 78  0  0  0  0  0  0  0  0999 V2000
    2.0430   21.1520   38.9010 C   0  0  0  0  0
    3.2500   20.9920   38.3810 N   0  0  0  0  0
    4.3100   21.3390   39.0950 C   0  0  0  0  0
    3.3870   20.4910   37.1420 C   0  0  0  0  0
    3.1060   21.3230   36.0560 C   0  0  0  0  0
    3.2310   20.8520   34.7520 C   0  0  0  0  0
    3.6350   19.5390   34.5250 C   0  0  0  0  0
    3.9210   18.6770   35.5890 C   0  0  0  0  0
    3.7930   19.1610   36.9080 C   0  0  0  0  0
    4.0760   18.3050   37.9800 C   0  0  0  0  0
    4.4790   16.9910   37.7530 C   0  0  0  0  0
    4.6070   16.5170   36.4490 C   0  0  0  0  0
    4.3310   17.3450   35.3560 C   0  0  0  0  0
    4.5090   16.6820   33.8120 S   0  0  0  0  0
    3.9250   15.2930   33.7970 O   0  0  0  0  0
    3.8010   17.5150   32.7840 O   0  0  0  0  0
    6.1170   16.5780   33.4340 N   0  0  0  0  0
    6.3820   16.8480   32.0100 C   0  0  0  0  0
    5.9900   15.6310   31.1720 C   0  0  0  0  0
    7.1550   14.8740   30.8370 O   0  0  0  0  0
    7.6500   14.7930   29.2970 P   0  0  0  0  0
    6.7500   15.6350   28.4650 O   0  0  0  0  0
    9.1180   15.0230   29.2310 O   0  0  0  0  0
    7.3720   13.2060   28.9570 O   0  0  0  0  0
    8.5080   12.0420   28.8410 P   0  0  0  0  0
    7.8000   10.7440   28.8520 O   0  0  0  0  0
    9.4520   12.3280   27.7470 O   0  0  0  0  0
    9.3160   12.1810   30.2210 O   0  0  0  0  0
    8.9290   11.4290   31.3920 C   0  0  0  0  0
   10.1370   11.0050   32.2330 C   0  0  0  0  0
   10.4520    9.6410   31.9150 O   0  0  0  0  0
   11.3670   11.8100   31.8230 C   0  0  0  0  0
   11.4500   12.9790   32.6340 O   0  0  0  0  0
   12.5080   10.8680   32.1440 C   0  0  0  0  0
   12.9120   11.0640   33.4930 O   0  0  0  0  0
   11.8800    9.4760   32.0220 C   0  0  0  0  0
   12.2910    8.7070   30.8180 N   0  0  0  0  0
   11.9230    9.0820   29.5070 C   0  0  0  0  0
   12.3470    8.2880   28.4430 C   0  0  0  0  0
   13.1070    7.1480   28.6980 C   0  0  0  0  0
   13.5230    6.3730   27.7000 N   0  0  0  0  0
   13.4360    6.8090   29.9500 N   0  0  0  0  0
   13.0570    7.5510   30.9980 C   0  0  0  0  0
   13.3880    7.2080   32.1250 O   0  0  0  0  0
    1.4667   21.8336   38.2754 H   0  0  0  0  0
    1.5387   20.1869   38.9493 H   0  0  0  0  0
    2.1334   21.5668   39.9049 H   0  0  0  0  0
    4.9491   20.4682   39.2410 H   0  0  0  0  0
    4.8649   22.1139   38.5662 H   0  0  0  0  0
    3.9854   21.7195   40.0635 H   0  0  0  0  0
    2.7860   22.3502   36.2310 H   0  0  0  0  0
    3.0131   21.5096   33.9105 H   0  0  0  0  0
    3.7300   19.1768   33.5013 H   0  0  0  0  0
    3.9799   18.6708   39.0023 H   0  0  0  0  0
    4.6942   16.3337   38.5954 H   0  0  0  0  0
    4.9260   15.4887   36.2786 H   0  0  0  0  0
    6.8445   16.3519   34.1122 H   0  0  0  0  0
    7.4436   17.0536   31.8731 H   0  0  0  0  0
    5.7959   17.7098   31.6909 H   0  0  0  0  0
    5.5045   15.9672   30.2558 H   0  0  0  0  0
    5.3075   15.0044   31.7462 H   0  0  0  0  0
    9.5638   14.4084   29.8185 H   0  0  0  0  0
    7.2237   10.7016   29.6186 H   0  0  0  0  0
    8.4132   10.5276   31.0609 H   0  0  0  0  0
    8.2931   12.0646   32.0083 H   0  0  0  0  0
    9.8971   11.1528   33.2860 H   0  0  0  0  0
   11.3612   12.1364   30.7830 H   0  0  0  0  0
   12.2225   13.4892   32.3799 H   0  0  0  0  0
   13.3732   11.0142   31.4974 H   0  0  0  0  0
   13.6356   10.4677   33.6990 H   0  0  0  0  0
   12.2124    8.9235   32.9008 H   0  0  0  0  0
   11.3204    9.9731   29.3312 H   0  0  0  0  0
   12.0862    8.5566   27.4193 H   0  0  0  0  0
   14.0797    5.5416   27.8979 H   0  0  0  0  0
   13.2852    6.6102   26.7369 H   0  0  0  0  0
  1  2  1  0  0  0
  2  3  1  0  0  0
  2  4  1  0  0  0
  4  5  4  0  0  0
  4  9  4  0  0  0
  5  6  4  0  0  0
  6  7  4  0  0  0
  7  8  4  0  0  0
  8  9  4  0  0  0
  8 13  4  0  0  0
  9 10  4  0  0  0
 10 11  4  0  0  0
 11 12  4  0  0  0
 12 13  4  0  0  0
 13 14  1  0  0  0
 14 15  2  0  0  0
 14 16  2  0  0  0
 14 17  1  0  0  0
 17 18  1  0  0  0
 18 19  1  0  0  0
 19 20  1  0  0  0
 20 21  1  0  0  0
 21 22  2  0  0  0
 21 23  1  0  0  0
 21 24  1  0  0  0
 24 25  1  0  0  0
 25 26  1  0  0  0
 25 27  2  0  0  0
 25 28  1  0  0  0
 28 29  1  0  0  0
 29 30  1  0  0  0
 30 31  1  0  0  0
 30 32  1  0  0  0
 31 36  1  0  0  0
 32 33  1  0  0  0
 32 34  1  0  0  0
 34 35  1  0  0  0
 34 36  1  0  0  0
 36 37  1  0  0  0
 37 38  1  0  0  0
 37 43  1  0  0  0
 38 39  2  0  0  0
 39 40  1  0  0  0
 40 41  1  0  0  0
 40 42  2  0  0  0
 42 43  1  0  0  0
 43 44  2  0  0  0
  1 45  1  0  0  0
  1 46  1  0  0  0
  1 47  1  0  0  0
  3 48  1  0  0  0
  3 49  1  0  0  0
  3 50  1  0  0  0
  5 51  1  0  0  0
  6 52  1  0  0  0
  7 53  1  0  0  0
 10 54  1  0  0  0
 11 55  1  0  0  0
 12 56  1  0  0  0
 17 57  1  0  0  0
 18 58  1  0  0  0
 18 59  1  0  0  0
 19 60  1  0  0  0
 19 61  1  0  0  0
 23 62  1  0  0  0
 26 63  1  0  0  0
 29 64  1  0  0  0
 29 65  1  0  0  0
 30 66  1  0  0  0
 32 67  1  0  0  0
 33 68  1  0  0  0
 34 69  1  0  0  0
 35 70  1  0  0  0
 36 71  1  0  0  0
 38 72  1  0  0  0
 39 73  1  0  0  0
 41 74  1  0  0  0
 41 75  1  0  0  0
M  END
$$$$
