4ia0_ligand
  -I-interpret- 

 73 75  0  0  0  0  0  0  0  0999 V2000
  -24.9830   20.7240   23.1290 C   0  0  0  0  0
  -23.5280   21.0450   23.3290 C   0  0  0  0  0
  -22.8220   19.9680   23.9630 N   0  3  0  0  0
  -21.3870   19.8170   23.8320 C   0  0  0  0  0
  -23.4310   19.5410   25.1910 C   0  0  0  0  0
  -24.8830   19.1820   24.9970 C   0  0  0  0  0
  -25.6820   20.1620   24.2760 N   0  0  0  0  0
  -27.3350   20.2120   23.9260 S   0  0  0  0  0
  -28.2260   20.2160   25.1000 O   0  0  0  0  0
  -27.6530   21.3680   23.1100 O   0  0  0  0  0
  -27.7000   18.7270   23.0130 C   0  0  0  0  0
  -28.0430   18.8330   21.6480 C   0  0  0  0  0
  -27.6190   17.4840   23.6310 C   0  0  0  0  0
  -27.9010   16.3180   22.9020 C   0  0  0  0  0
  -28.2400   16.4230   21.5400 C   0  0  0  0  0
  -28.5300   15.2990   20.7610 O   0  0  0  0  0
  -28.2540   13.9700   21.1610 C   0  0  0  0  0
  -28.9320   12.8920   20.3040 C   0  0  0  0  0
  -28.3060   17.6870   20.9210 C   0  0  0  0  0
  -28.6930   17.8360   19.4660 C   0  0  0  0  0
  -28.0580   18.7330   18.6950 N   0  0  0  0  0
  -29.6930   17.0790   18.9760 N   0  0  0  0  0
  -30.0790   17.1910   17.6870 C   0  0  0  0  0
  -31.1160   16.3710   17.2180 O   0  0  0  0  0
  -29.4390   18.1210   16.8550 C   0  0  0  0  0
  -30.0190   18.2780   15.0070 Br  0  0  0  0  0
  -28.3900   18.9060   17.3940 C   0  0  0  0  0
  -27.6080   19.9680   16.5860 C   0  0  0  0  0
  -26.1400   19.7420   16.1470 C   0  0  0  0  0
  -25.2310   20.9320   16.0080 C   0  0  0  0  0
  -25.8470   22.3120   16.0430 C   0  0  0  0  0
  -25.2200   23.3950   15.2030 C   0  0  0  0  0
  -25.9430   24.7590   15.1050 C   0  0  0  0  0
  -27.2560   24.8440   14.3770 C   0  0  0  0  0
  -27.5200   26.0190   13.4550 C   0  0  0  0  0
  -25.0223   19.9652   22.3474 H   0  0  0  0  0
  -25.4754   21.6707   22.9069 H   0  0  0  0  0
  -23.4578   21.9232   23.9709 H   0  0  0  0  0
  -23.0794   21.2174   22.3507 H   0  0  0  0  0
  -22.9797   19.2290   23.2779 H   0  0  0  0  0
  -20.8896   20.3923   24.6129 H   0  0  0  0  0
  -21.1232   18.7640   23.9308 H   0  0  0  0  0
  -21.0724   20.1815   22.8541 H   0  0  0  0  0
  -23.3722   20.3606   25.9071 H   0  0  0  0  0
  -22.9028   18.6566   25.5474 H   0  0  0  0  0
  -25.3176   19.1008   25.9933 H   0  0  0  0  0
  -24.8994   18.2699   24.4004 H   0  0  0  0  0
  -28.1001   19.8112   21.1706 H   0  0  0  0  0
  -27.3365   17.4150   24.6815 H   0  0  0  0  0
  -27.8579   15.3420   23.3854 H   0  0  0  0  0
  -28.6358   13.8570   22.1757 H   0  0  0  0  0
  -27.1782   13.8248   21.0630 H   0  0  0  0  0
  -30.0135   13.0192   20.3511 H   0  0  0  0  0
  -28.5983   12.9880   19.2708 H   0  0  0  0  0
  -28.6640   11.9060   20.6837 H   0  0  0  0  0
  -30.1651   16.4122   19.5866 H   0  0  0  0  0
  -27.5454   20.8161   17.2679 H   0  0  0  0  0
  -28.1526   20.0274   15.6437 H   0  0  0  0  0
  -26.2079   19.3210   15.1439 H   0  0  0  0  0
  -25.6978   19.1414   16.9419 H   0  0  0  0  0
  -24.7886   20.8406   15.0160 H   0  0  0  0  0
  -24.5704   20.8909   16.8740 H   0  0  0  0  0
  -25.7377   22.6489   17.0738 H   0  0  0  0  0
  -26.8540   22.1869   15.6449 H   0  0  0  0  0
  -25.2126   23.0011   14.1867 H   0  0  0  0  0
  -24.2644   23.6110   15.6809 H   0  0  0  0  0
  -25.2656   25.3930   14.5330 H   0  0  0  0  0
  -26.1781   25.0245   16.1357 H   0  0  0  0  0
  -28.0047   24.9345   15.1639 H   0  0  0  0  0
  -27.2693   23.9706   13.7250 H   0  0  0  0  0
  -27.4664   26.9462   14.0256 H   0  0  0  0  0
  -26.7704   26.0339   12.6638 H   0  0  0  0  0
  -28.5123   25.9184   13.0153 H   0  0  0  0  0
  1  2  1  0  0  0
  1  7  1  0  0  0
  2  3  1  0  0  0
  3  4  1  0  0  0
  3  5  1  0  0  0
  5  6  1  0  0  0
  6  7  1  0  0  0
  7  8  1  0  0  0
  8  9  2  0  0  0
  8 10  2  0  0  0
  8 11  1  0  0  0
 11 12  4  0  0  0
 11 13  4  0  0  0
 12 19  4  0  0  0
 13 14  4  0  0  0
 14 15  4  0  0  0
 15 16  1  0  0  0
 15 19  4  0  0  0
 16 17  1  0  0  0
 17 18  1  0  0  0
 19 20  1  0  0  0
 20 21  2  0  0  0
 20 22  1  0  0  0
 21 27  1  0  0  0
 22 23  1  0  0  0
 23 24  2  0  0  0
 23 25  1  0  0  0
 25 26  1  0  0  0
 25 27  2  0  0  0
 27 28  1  0  0  0
 28 29  1  0  0  0
 29 30  1  0  0  0
 30 31  1  0  0  0
 31 32  1  0  0  0
 32 33  1  0  0  0
 33 34  1  0  0  0
 34 35  1  0  0  0
  1 36  1  0  0  0
  1 37  1  0  0  0
  2 38  1  0  0  0
  2 39  1  0  0  0
  3 40  1  0  0  0
  4 41  1  0  0  0
  4 42  1  0  0  0
  4 43  1  0  0  0
  5 44  1  0  0  0
  5 45  1  0  0  0
  6 46  1  0  0  0
  6 47  1  0  0  0
 12 48  1  0  0  0
 13 49  1  0  0  0
 14 50  1  0  0  0
 17 51  1  0  0  0
 17 52  1  0  0  0
 18 53  1  0  0  0
 18 54  1  0  0  0
 18 55  1  0  0  0
 22 56  1  0  0  0
 28 57  1  0  0  0
 28 58  1  0  0  0
 29 59  1  0  0  0
 29 60  1  0  0  0
 30 61  1  0  0  0
 30 62  1  0  0  0
 31 63  1  0  0  0
 31 64  1  0  0  0
 32 65  1  0  0  0
 32 66  1  0  0  0
 33 67  1  0  0  0
 33 68  1  0  0  0
 34 69  1  0  0  0
 34 70  1  0  0  0
 35 71  1  0  0  0
 35 72  1  0  0  0
 35 73  1  0  0  0
M  END
$$$$
