2vnn_ligand
  -I-interpret- 

 80 84  0  0  0  0  0  0  0  0999 V2000
   28.0290   -3.7130   34.0220 C   0  0  0  0  0
   29.5170   -4.1010   34.0840 C   0  0  0  0  0
   30.1880   -3.4720   35.3270 C   0  0  0  0  0
   30.7030   -4.1960   36.4760 C   0  0  0  0  0
   31.1790   -3.2100   37.3480 N   0  0  0  0  0
   31.8340   -3.7520   38.5960 C   0  0  0  0  0
   31.8670   -3.0210   39.9480 C   0  0  0  0  0
   31.4380   -1.2320   39.7790 S   0  0  0  0  0
   31.8700   -0.5150   41.0080 O   0  0  0  0  0
   29.9970   -1.2530   39.6780 O   0  0  0  0  0
   32.0540   -0.4680   38.5710 N   0  0  0  0  0
   33.4640   -0.0320   38.5780 C   0  0  0  0  0
   31.4460   -0.5260   37.2340 C   0  0  0  0  0
   31.1400    0.6180   36.4380 C   0  0  0  0  0
   30.5060    0.4270   35.1950 C   0  0  0  0  0
   30.1070   -0.8920   34.6760 C   0  0  0  0  0
   30.4090   -2.0590   35.5230 C   0  0  0  0  0
   31.0590   -1.8730   36.7730 C   0  0  0  0  0
   30.2720    1.6930   34.4300 C   0  0  0  0  0
   31.1980    2.4440   34.2440 O   0  0  0  0  0
   29.0830    1.7020   33.6420 N   0  0  0  0  0
   28.8930    2.6290   32.5370 C   0  0  0  0  0
   28.1850    1.7930   31.4290 C   0  0  0  0  0
   28.9130    0.4470   31.1660 C   0  0  0  0  0
   30.3650    0.3810   31.0300 C   0  0  0  0  0
   30.9940   -0.8900   30.7820 C   0  0  0  0  0
   30.1570   -2.0920   30.6660 C   0  0  0  0  0
   28.7190   -2.0330   30.7990 C   0  0  0  0  0
   28.0880   -0.7550   31.0420 C   0  0  0  0  0
   27.9810    3.7610   33.0520 C   0  0  0  0  0
   27.6430    4.6050   31.9330 O   0  0  0  0  0
   28.7370    4.6580   34.0760 C   0  0  0  0  0
   27.8310    5.7880   34.4490 N   0  3  0  0  0
   28.5550    6.9540   35.0210 C   0  0  0  0  0
   29.6340    7.5070   34.0570 C   0  0  0  0  0
   31.0420    7.4930   34.4380 C   0  0  0  0  0
   32.0430    8.0170   33.5250 C   0  0  0  0  0
   31.6450    8.5720   32.2390 C   0  0  0  0  0
   30.2480    8.5690   31.8650 C   0  0  0  0  0
   29.2390    8.0480   32.7670 C   0  0  0  0  0
   29.7930    9.1300   30.5180 C   0  0  0  0  0
   28.7770   10.0050   30.6680 F   0  0  0  0  0
   29.3420    8.1140   29.7590 F   0  0  0  0  0
   30.8140    9.7480   29.8910 F   0  0  0  0  0
   27.5235   -4.0722   34.9184 H   0  0  0  0  0
   27.9398   -2.6283   33.9630 H   0  0  0  0  0
   27.5735   -4.1647   33.1408 H   0  0  0  0  0
   30.0168   -3.7341   33.1875 H   0  0  0  0  0
   29.5981   -5.1861   34.1482 H   0  0  0  0  0
   30.7160   -5.2754   36.6268 H   0  0  0  0  0
   32.8873   -3.7815   38.3170 H   0  0  0  0  0
   31.2301   -4.6320   38.8173 H   0  0  0  0  0
   32.8779   -3.0924   40.3492 H   0  0  0  0  0
   31.1326   -3.4868   40.6051 H   0  0  0  0  0
   33.6290    0.6465   39.4149 H   0  0  0  0  0
   34.1117   -0.9026   38.6813 H   0  0  0  0  0
   33.6890    0.4809   37.6429 H   0  0  0  0  0
   31.3920    1.6201   36.7851 H   0  0  0  0  0
   29.6117   -0.9998   33.7110 H   0  0  0  0  0
   28.3415    1.0365   33.8605 H   0  0  0  0  0
   29.8124    3.0708   32.1528 H   0  0  0  0  0
   28.1932    2.3723   30.5057 H   0  0  0  0  0
   27.1705    1.5737   31.7618 H   0  0  0  0  0
   30.9672    1.2855   31.1154 H   0  0  0  0  0
   32.0771   -0.9597   30.6816 H   0  0  0  0  0
   30.6331   -3.0536   30.4746 H   0  0  0  0  0
   28.1187   -2.9391   30.7173 H   0  0  0  0  0
   27.0039   -0.6874   31.1323 H   0  0  0  0  0
   27.1043    3.3162   33.5228 H   0  0  0  0  0
   27.0742    5.3182   32.2319 H   0  0  0  0  0
   29.6583    5.0405   33.6367 H   0  0  0  0  0
   29.0052    4.0799   34.9603 H   0  0  0  0  0
   27.1857    5.4451   35.1606 H   0  0  0  0  0
   27.3618    6.1017   33.5994 H   0  0  0  0  0
   29.0527    6.6280   35.9343 H   0  0  0  0  0
   27.8287    7.7456   35.2054 H   0  0  0  0  0
   31.3423    7.0903   35.4054 H   0  0  0  0  0
   33.0965    7.9946   33.8038 H   0  0  0  0  0
   32.3938    8.9863   31.5638 H   0  0  0  0  0
   28.1879    8.0621   32.4786 H   0  0  0  0  0
  1  2  1  0  0  0
  2  3  1  0  0  0
  3  4  4  0  0  0
  3 17  4  0  0  0
  4  5  4  0  0  0
  5  6  1  0  0  0
  5 18  4  0  0  0
  6  7  1  0  0  0
  7  8  1  0  0  0
  8  9  2  0  0  0
  8 10  2  0  0  0
  8 11  1  0  0  0
 11 12  1  0  0  0
 11 13  1  0  0  0
 13 14  4  0  0  0
 13 18  4  0  0  0
 14 15  4  0  0  0
 15 16  4  0  0  0
 15 19  1  0  0  0
 16 17  4  0  0  0
 17 18  4  0  0  0
 19 20  2  0  0  0
 19 21  1  0  0  0
 21 22  1  0  0  0
 22 23  1  0  0  0
 22 30  1  0  0  0
 23 24  1  0  0  0
 24 25  4  0  0  0
 24 29  4  0  0  0
 25 26  4  0  0  0
 26 27  4  0  0  0
 27 28  4  0  0  0
 28 29  4  0  0  0
 30 31  1  0  0  0
 30 32  1  0  0  0
 32 33  1  0  0  0
 33 34  1  0  0  0
 34 35  1  0  0  0
 35 36  4  0  0  0
 35 40  4  0  0  0
 36 37  4  0  0  0
 37 38  4  0  0  0
 38 39  4  0  0  0
 39 40  4  0  0  0
 39 41  1  0  0  0
 41 42  1  0  0  0
 41 43  1  0  0  0
 41 44  1  0  0  0
  1 45  1  0  0  0
  1 46  1  0  0  0
  1 47  1  0  0  0
  2 48  1  0  0  0
  2 49  1  0  0  0
  4 50  1  0  0  0
  6 51  1  0  0  0
  6 52  1  0  0  0
  7 53  1  0  0  0
  7 54  1  0  0  0
 12 55  1  0  0  0
 12 56  1  0  0  0
 12 57  1  0  0  0
 14 58  1  0  0  0
 16 59  1  0  0  0
 21 60  1  0  0  0
 22 61  1  0  0  0
 23 62  1  0  0  0
 23 63  1  0  0  0
 25 64  1  0  0  0
 26 65  1  0  0  0
 27 66  1  0  0  0
 28 67  1  0  0  0
 29 68  1  0  0  0
 30 69  1  0  0  0
 31 70  1  0  0  0
 32 71  1  0  0  0
 32 72  1  0  0  0
 33 73  1  0  0  0
 33 74  1  0  0  0
 34 75  1  0  0  0
 34 76  1  0  0  0
 36 77  1  0  0  0
 37 78  1  0  0  0
 38 79  1  0  0  0
 40 80  1  0  0  0
M  END
$$$$
