5i2f_ligand
  -I-interpret- 

 43 45  0  0  0  0  0  0  0  0999 V2000
  -31.7270    4.3470  -23.9250 S   0  0  0  0  0
  -27.0070    4.8310  -33.7520 N   0  0  0  0  0
  -26.4060    5.0580  -32.5670 C   0  0  0  0  0
  -27.0800    5.3140  -31.4320 N   0  0  0  0  0
  -28.4300    5.3480  -31.4280 C   0  0  0  0  0
  -29.1610    5.1130  -32.6760 C   0  0  0  0  0
  -28.3530    4.8410  -33.8830 C   0  0  0  0  0
  -29.0120    4.5910  -35.1920 N   0  0  0  0  0
  -30.4690    5.2180  -32.3780 N   0  0  0  0  0
  -30.5710    5.4890  -31.0520 C   0  0  0  0  0
  -29.3510    5.5720  -30.4980 N   0  0  0  0  0
  -29.0340    5.8500  -29.0840 C   0  0  0  0  0
  -29.8980    6.9510  -28.5100 C   0  0  0  0  0
  -29.3400    8.2210  -28.8450 O   0  0  0  0  0
  -29.8850    6.6480  -27.0190 C   0  0  0  0  0
  -28.8800    7.3680  -26.2830 O   0  0  0  0  0
  -29.5710    5.1620  -26.9660 C   0  0  0  0  0
  -29.3430    4.7100  -28.2960 O   0  0  0  0  0
  -30.7190    4.3790  -26.3710 C   0  0  0  0  0
  -30.5210    4.4830  -24.9510 N   0  0  0  0  0
  -32.7270    7.9260  -24.9120 C   0  0  0  0  0
  -32.5090    6.9260  -23.8030 C   0  0  0  0  0
  -32.7190    5.6280  -24.1030 N   0  0  0  0  0
  -32.1390    7.3100  -22.7000 O   0  0  0  0  0
  -31.0990    4.2120  -22.6410 O   0  0  0  0  0
  -32.4510    3.1310  -24.1990 O   0  0  0  0  0
  -25.3170    5.0327  -32.5267 H   0  0  0  0  0
  -28.4466    4.4059  -36.0205 H   0  0  0  0  0
  -30.0295    4.6046  -35.2616 H   0  0  0  0  0
  -31.5096    5.6205  -30.5137 H   0  0  0  0  0
  -27.9800    6.1267  -29.0589 H   0  0  0  0  0
  -30.9174    6.9899  -28.8940 H   0  0  0  0  0
  -29.8903    8.9175  -28.4795 H   0  0  0  0  0
  -30.8301    6.9413  -26.5620 H   0  0  0  0  0
  -28.9311    7.1279  -25.3549 H   0  0  0  0  0
  -28.6932    5.0071  -26.3387 H   0  0  0  0  0
  -30.7283    3.3429  -26.7094 H   0  0  0  0  0
  -31.6877    4.7716  -26.6803 H   0  0  0  0  0
  -29.5807    4.6486  -24.5921 H   0  0  0  0  0
  -33.4917    8.6413  -24.6093 H   0  0  0  0  0
  -31.7941    8.4527  -25.1131 H   0  0  0  0  0
  -33.0521    7.4037  -25.8118 H   0  0  0  0  0
  -33.6344    5.4166  -24.5002 H   0  0  0  0  0
  1 20  1  0  0  0
 23  1  1  0  0  0
  1 25  2  0  0  0
  1 26  2  0  0  0
  3  2  4  0  0  0
  7  2  4  0  0  0
  4  3  4  0  0  0
  5  4  4  0  0  0
  5  6  4  0  0  0
 11  5  4  0  0  0
  6  7  4  0  0  0
  9  6  4  0  0  0
  7  8  1  0  0  0
 10  9  4  0  0  0
 11 10  4  0  0  0
 12 11  1  0  0  0
 12 13  1  0  0  0
 18 12  1  0  0  0
 13 14  1  0  0  0
 15 13  1  0  0  0
 15 16  1  0  0  0
 17 15  1  0  0  0
 17 18  1  0  0  0
 19 17  1  0  0  0
 20 19  1  0  0  0
 22 21  1  0  0  0
 22 23  1  0  0  0
 22 24  2  0  0  0
  3 27  1  0  0  0
  8 28  1  0  0  0
  8 29  1  0  0  0
 10 30  1  0  0  0
 12 31  1  0  0  0
 13 32  1  0  0  0
 14 33  1  0  0  0
 15 34  1  0  0  0
 16 35  1  0  0  0
 17 36  1  0  0  0
 19 37  1  0  0  0
 19 38  1  0  0  0
 20 39  1  0  0  0
 21 40  1  0  0  0
 21 41  1  0  0  0
 21 42  1  0  0  0
 23 43  1  0  0  0
M  END
$$$$
