2fs9_ligand
  -I-interpret- 

 74 77  0  0  0  0  0  0  0  0999 V2000
   71.3580   45.0280   85.5190 N   0  3  0  0  0
   70.2200   44.4320   84.8080 C   0  0  0  0  0
   67.8510   43.5560   85.3260 C   0  0  0  0  0
   66.4300   43.9870   85.7780 C   0  0  0  0  0
   65.2910   42.9920   85.3790 C   0  0  0  0  0
   68.9020   44.6680   85.5820 C   0  0  0  0  0
   64.4300   42.5540   83.0580 C   0  0  0  0  0
   64.5020   41.3250   83.1490 O   0  0  0  0  0
   64.7830   43.3600   84.0670 N   0  0  0  0  0
   63.9830   43.1440   81.9400 O   0  0  0  0  0
   63.7940   42.5570   80.6320 C   0  0  0  0  0
   62.8870   43.4610   79.7640 C   0  0  0  0  0
   64.5770   42.6490   87.7360 O   0  0  0  0  0
   63.0270   42.0300   86.0940 C   0  0  0  0  0
   62.8730   40.7830   86.5850 N   0  0  0  0  0
   61.8220   40.2280   86.0480 O   0  0  0  0  0
   61.2920   41.1410   85.1940 C   0  0  0  0  0
   60.0870   40.9360   84.3570 C   0  0  0  0  0
   58.8380   40.7000   85.1410 C   0  0  0  0  0
   58.6920   39.5190   85.9640 C   0  0  0  0  0
   57.4960   39.2930   86.7060 C   0  0  0  0  0
   56.3910   40.2350   86.6650 C   0  0  0  0  0
   56.5500   41.4110   85.8360 C   0  0  0  0  0
   57.7480   41.6400   85.0920 C   0  0  0  0  0
   55.2080   40.0070   87.4020 C   0  0  0  0  0
   55.1020   38.9830   88.1020 O   0  0  0  0  0
   54.1870   40.8760   87.3600 N   0  0  0  0  0
   52.9430   40.7750   88.0600 C   0  0  0  0  0
   52.3760   42.1320   88.5460 C   0  0  0  0  0
   50.9510   41.8500   88.6200 C   0  0  0  0  0
   50.6170   40.6960   87.8510 C   0  0  0  0  0
   51.8040   40.1340   87.2110 C   0  0  0  0  0
   49.2610   40.2320   87.7760 C   0  0  0  0  0
   48.2440   40.9480   88.4990 C   0  0  0  0  0
   48.5870   42.1130   89.2780 C   0  0  0  0  0
   49.9510   42.5690   89.3440 C   0  0  0  0  0
   62.0360   42.2600   85.2200 N   0  0  0  0  0
   64.1060   43.0000   86.4370 C   0  0  0  0  0
   72.2138   44.8595   84.9902 H   0  0  0  0  0
   71.2088   46.0324   85.6156 H   0  0  0  0  0
   71.4393   44.6047   86.4434 H   0  0  0  0  0
   70.3862   43.3586   84.7172 H   0  0  0  0  0
   70.1379   44.8966   83.8254 H   0  0  0  0  0
   67.8221   43.3531   84.2554 H   0  0  0  0  0
   68.1393   42.6749   85.8993 H   0  0  0  0  0
   66.2126   44.9343   85.2846 H   0  0  0  0  0
   66.4433   44.0357   86.8668 H   0  0  0  0  0
   65.7048   41.9838   85.3577 H   0  0  0  0  0
   68.4789   45.6134   85.2425 H   0  0  0  0  0
   69.1347   44.6702   86.6469 H   0  0  0  0  0
   64.6828   44.3601   83.8933 H   0  0  0  0  0
   63.3210   41.5815   80.7446 H   0  0  0  0  0
   64.7636   42.4531   80.1450 H   0  0  0  0  0
   61.9169   43.5723   80.2484 H   0  0  0  0  0
   63.3529   44.4400   79.6515 H   0  0  0  0  0
   62.7544   43.0054   78.7827 H   0  0  0  0  0
   65.2766   43.2530   87.9955 H   0  0  0  0  0
   60.2614   40.0475   83.7502 H   0  0  0  0  0
   59.9376   41.8459   83.7758 H   0  0  0  0  0
   59.5048   38.7947   86.0172 H   0  0  0  0  0
   57.4088   38.3945   87.3169 H   0  0  0  0  0
   55.7389   42.1369   85.7782 H   0  0  0  0  0
   57.8381   42.5373   84.4797 H   0  0  0  0  0
   54.3105   41.6959   86.7660 H   0  0  0  0  0
   53.2109   40.1446   88.9079 H   0  0  0  0  0
   52.6193   42.9647   87.8861 H   0  0  0  0  0
   52.8015   42.4656   89.4924 H   0  0  0  0  0
   51.8232   39.0442   87.2046 H   0  0  0  0  0
   51.8738   40.3562   86.1462 H   0  0  0  0  0
   49.0065   39.3538   87.1826 H   0  0  0  0  0
   47.2090   40.6086   88.4581 H   0  0  0  0  0
   47.8090   42.6510   89.8196 H   0  0  0  0  0
   50.2156   43.4459   89.9349 H   0  0  0  0  0
   63.7092   44.0150   86.4200 H   0  0  0  0  0
  2  1  1  0  0  0
  6  2  1  0  0  0
  4  3  1  0  0  0
  3  6  1  0  0  0
  5  4  1  0  0  0
  5  9  1  0  0  0
 38  5  1  0  0  0
  7  8  2  0  0  0
  9  7  1  0  0  0
  7 10  1  0  0  0
 10 11  1  0  0  0
 11 12  1  0  0  0
 38 13  1  0  0  0
 14 15  4  0  0  0
 14 37  4  0  0  0
 14 38  1  0  0  0
 15 16  4  0  0  0
 16 17  4  0  0  0
 17 18  1  0  0  0
 17 37  4  0  0  0
 18 19  1  0  0  0
 19 20  4  0  0  0
 19 24  4  0  0  0
 20 21  4  0  0  0
 21 22  4  0  0  0
 22 23  4  0  0  0
 22 25  1  0  0  0
 23 24  4  0  0  0
 25 26  2  0  0  0
 25 27  1  0  0  0
 27 28  1  0  0  0
 28 29  1  0  0  0
 28 32  1  0  0  0
 29 30  1  0  0  0
 30 31  4  0  0  0
 30 36  4  0  0  0
 31 32  1  0  0  0
 31 33  4  0  0  0
 33 34  4  0  0  0
 34 35  4  0  0  0
 35 36  4  0  0  0
  1 39  1  0  0  0
  1 40  1  0  0  0
  1 41  1  0  0  0
  2 42  1  0  0  0
  2 43  1  0  0  0
  3 44  1  0  0  0
  3 45  1  0  0  0
  4 46  1  0  0  0
  4 47  1  0  0  0
  5 48  1  0  0  0
  6 49  1  0  0  0
  6 50  1  0  0  0
  9 51  1  0  0  0
 11 52  1  0  0  0
 11 53  1  0  0  0
 12 54  1  0  0  0
 12 55  1  0  0  0
 12 56  1  0  0  0
 13 57  1  0  0  0
 18 58  1  0  0  0
 18 59  1  0  0  0
 20 60  1  0  0  0
 21 61  1  0  0  0
 23 62  1  0  0  0
 24 63  1  0  0  0
 27 64  1  0  0  0
 28 65  1  0  0  0
 29 66  1  0  0  0
 29 67  1  0  0  0
 32 68  1  0  0  0
 32 69  1  0  0  0
 33 70  1  0  0  0
 34 71  1  0  0  0
 35 72  1  0  0  0
 36 73  1  0  0  0
 38 74  1  0  0  0
M  END
$$$$
