4efk_ligand
  -I-interpret- 

 20 20  0  0  0  0  0  0  0  0999 V2000
   13.8160    9.8840    6.5560 C   0  0  0  0  0
   13.7950    8.9570    7.7000 N   0  0  0  0  0
   13.7080    7.5100    7.5260 C   0  0  0  0  0
   13.0790    9.6110    9.2260 S   0  0  0  0  0
   12.4200   11.0090    9.0130 O   0  0  0  0  0
   12.3190    8.5500   10.0090 O   0  0  0  0  0
   14.6710    9.9220   10.0250 C   0  0  0  0  0
   15.5160    8.9220   10.4260 C   0  0  0  0  0
   16.7200    9.3090   11.0030 C   0  0  0  0  0
   16.5220   11.0950   11.0200 S   0  0  0  0  0
   14.9690   11.2150   10.2880 C   0  0  0  0  0
   12.7961   10.1819    6.3126 H   0  0  0  0  0
   14.4014   10.7661    6.8155 H   0  0  0  0  0
   14.2659    9.3878    5.6961 H   0  0  0  0  0
   14.2302    7.0148    8.3447 H   0  0  0  0  0
   12.6608    7.2077    7.5257 H   0  0  0  0  0
   14.1683    7.2310    6.5782 H   0  0  0  0  0
   15.2566    7.8710   10.2987 H   0  0  0  0  0
   17.5536    8.6981   11.3493 H   0  0  0  0  0
   14.3757   12.1071   10.0872 H   0  0  0  0  0
  1  2  1  0  0  0
  2  3  1  0  0  0
  2  4  1  0  0  0
  4  5  2  0  0  0
  4  6  2  0  0  0
  4  7  1  0  0  0
  7  8  4  0  0  0
  7 11  4  0  0  0
  8  9  4  0  0  0
  9 10  4  0  0  0
 10 11  4  0  0  0
  1 12  1  0  0  0
  1 13  1  0  0  0
  1 14  1  0  0  0
  3 15  1  0  0  0
  3 16  1  0  0  0
  3 17  1  0  0  0
  8 18  1  0  0  0
  9 19  1  0  0  0
 11 20  1  0  0  0
M  END
$$$$
