3hmp_ligand
  -I-interpret- 

 28 30  0  0  0  0  0  0  0  0999 V2000
  -33.9980  -15.4210   -5.6650 C   0  0  0  0  0
  -34.9880  -16.5700   -5.8940 C   0  0  0  0  0
  -34.6760  -15.5890   -7.0260 C   0  0  0  0  0
  -33.7660  -16.1340   -8.1280 C   0  0  0  0  0
  -34.5750  -16.9000   -9.0850 N   0  0  0  0  0
  -35.1530  -16.3300  -10.1480 C   0  0  0  0  0
  -35.9620  -17.0620  -11.0250 C   0  0  0  0  0
  -36.2030  -18.4320  -10.8580 C   0  0  0  0  0
  -37.0090  -19.1190  -11.7690 C   0  0  0  0  0
  -37.5780  -18.4260  -12.8410 C   0  0  0  0  0
  -38.5940  -19.2230  -13.9780 Cl  0  0  0  0  0
  -37.3420  -17.0630  -13.0100 C   0  0  0  0  0
  -36.5340  -16.3780  -12.1070 C   0  0  0  0  0
  -36.3040  -15.0660  -12.2780 N   0  0  0  0  0
  -35.5360  -14.4130  -11.4240 C   0  0  0  0  0
  -34.9700  -15.0170  -10.3850 N   0  0  0  0  0
  -32.9958  -15.2725   -5.2630 H   0  0  0  0  0
  -33.8136  -14.6333   -4.9345 H   0  0  0  0  0
  -35.8597  -17.0082   -5.4079 H   0  0  0  0  0
  -35.0421  -17.6472   -5.7364 H   0  0  0  0  0
  -35.2743  -14.9524   -7.6779 H   0  0  0  0  0
  -33.0066  -16.7813   -7.6894 H   0  0  0  0  0
  -33.2765  -15.3066   -8.6417 H   0  0  0  0  0
  -34.7003  -17.9009   -8.9338 H   0  0  0  0  0
  -35.7605  -18.9631  -10.0152 H   0  0  0  0  0
  -37.1925  -20.1862  -11.6448 H   0  0  0  0  0
  -37.7906  -16.5328  -13.8501 H   0  0  0  0  0
  -35.3618  -13.3479  -11.5764 H   0  0  0  0  0
  1  2  1  0  0  0
  1  3  1  0  0  0
  2  3  1  0  0  0
  3  4  1  0  0  0
  4  5  1  0  0  0
  5  6  1  0  0  0
  6  7  4  0  0  0
  6 16  4  0  0  0
  7  8  4  0  0  0
  7 13  4  0  0  0
  8  9  4  0  0  0
  9 10  4  0  0  0
 10 11  1  0  0  0
 10 12  4  0  0  0
 12 13  4  0  0  0
 13 14  4  0  0  0
 14 15  4  0  0  0
 15 16  4  0  0  0
  1 17  1  0  0  0
  1 18  1  0  0  0
  2 19  1  0  0  0
  2 20  1  0  0  0
  3 21  1  0  0  0
  4 22  1  0  0  0
  4 23  1  0  0  0
  5 24  1  0  0  0
  8 25  1  0  0  0
  9 26  1  0  0  0
 12 27  1  0  0  0
 15 28  1  0  0  0
M  END
$$$$
