1rpj_ligand
  -I-interpret- 

 24 24  0  0  0  0  0  0  0  0999 V2000
    4.8590    7.1330   10.4580 C   0  0  0  0  0
    5.1900    8.5360   11.0230 C   0  0  0  0  0
    4.7500    8.6290   12.4810 C   0  0  0  0  0
    3.2470    8.3340   12.5700 C   0  0  0  0  0
    2.9950    6.9600   11.9330 C   0  0  0  0  0
    1.5900    6.4550   12.0040 C   0  0  0  0  0
    5.2420    7.0060    9.1070 O   0  0  0  0  0
    6.5850    8.7610   10.9250 O   0  0  0  0  0
    5.4730    7.5950   13.2340 O   0  0  0  0  0
    2.7870    8.2700   13.9250 O   0  0  0  0  0
    3.4670    6.9210   10.5920 O   0  0  0  0  0
    0.6840    7.3450   11.2990 O   0  0  0  0  0
    5.4194    6.3845   11.0181 H   0  0  0  0  0
    4.6574    9.2933   10.4477 H   0  0  0  0  0
    4.9567    9.6219   12.8805 H   0  0  0  0  0
    2.7152    9.1379   12.0611 H   0  0  0  0  0
    3.5699    6.2741   12.5552 H   0  0  0  0  0
    1.2881    6.4037   13.0501 H   0  0  0  0  0
    1.5472    5.4702   11.5387 H   0  0  0  0  0
    6.1876    7.1518    9.0286 H   0  0  0  0  0
    6.8539    8.7009   10.0054 H   0  0  0  0  0
    6.4163    7.7672   13.1869 H   0  0  0  0  0
    2.9318    9.1179   14.3513 H   0  0  0  0  0
   -0.2105    7.0015   11.3578 H   0  0  0  0  0
  1 11  1  0  0  0
  1  7  1  0  0  0
  1  2  1  0  0  0
  2  8  1  0  0  0
  2  3  1  0  0  0
  3  9  1  0  0  0
  3  4  1  0  0  0
  4 10  1  0  0  0
  4  5  1  0  0  0
  5 11  1  0  0  0
  5  6  1  0  0  0
  6 12  1  0  0  0
  1 13  1  0  0  0
  2 14  1  0  0  0
  3 15  1  0  0  0
  4 16  1  0  0  0
  5 17  1  0  0  0
  6 18  1  0  0  0
  6 19  1  0  0  0
  7 20  1  0  0  0
  8 21  1  0  0  0
  9 22  1  0  0  0
 10 23  1  0  0  0
 12 24  1  0  0  0
M  END
$$$$
