1oq5_ligand
  -I-interpret- 

 40 42  0  0  0  0  0  0  0  0999 V2000
   15.2890    2.8460   16.6520 S   0  0  0  0  0
   15.9880    4.1960   15.7120 C   0  0  0  0  0
   15.1860    5.2150   15.2560 C   0  0  0  0  0
   15.7540    6.3000   14.6040 C   0  0  0  0  0
   17.1130    6.3320   14.4410 C   0  0  0  0  0
   17.9260    5.3110   14.8920 C   0  0  0  0  0
   17.3580    4.2110   15.5450 C   0  0  0  0  0
   17.6970    7.5280   13.8490 N   0  0  0  0  0
   17.5200    8.1910   12.6670 C   0  0  0  0  0
   16.7620    7.8190   11.4780 C   0  0  0  0  0
   16.8180    6.4970   11.0640 C   0  0  0  0  0
   16.1520    6.0970    9.9300 C   0  0  0  0  0
   15.3810    6.9930    9.2250 C   0  0  0  0  0
   14.6630    6.5370    7.9810 C   0  0  0  0  0
   15.2560    8.3000    9.6820 C   0  0  0  0  0
   15.9710    8.7060   10.7780 C   0  0  0  0  0
   18.3570    9.3030   12.7050 C   0  0  0  0  0
   18.9230    9.2700   13.9750 C   0  0  0  0  0
   19.8490   10.2670   14.5820 C   0  0  0  0  0
   21.0600   10.2580   14.0890 F   0  0  0  0  0
   19.9160   10.2130   15.9080 F   0  0  0  0  0
   19.3800   11.4890   14.3610 F   0  0  0  0  0
   18.5310    8.2110   14.6570 N   0  0  0  0  0
   15.8130    1.4840   16.0220 N   0  0  0  0  0
   13.8900    2.9120   16.5270 O   0  0  0  0  0
   15.8140    3.0120   17.9850 O   0  0  0  0  0
   14.1073    5.1708   15.4062 H   0  0  0  0  0
   15.1303    7.1113   14.2288 H   0  0  0  0  0
   19.0042    5.3614   14.7403 H   0  0  0  0  0
   17.9779    3.3922   15.9101 H   0  0  0  0  0
   17.3926    5.7718   11.6402 H   0  0  0  0  0
   16.2349    5.0655    9.5876 H   0  0  0  0  0
   15.3912    6.1782    7.2536 H   0  0  0  0  0
   13.9743    5.7313    8.2352 H   0  0  0  0  0
   14.1060    7.3728    7.5575 H   0  0  0  0  0
   14.5927    8.9980    9.1711 H   0  0  0  0  0
   15.9139    9.7453   11.1015 H   0  0  0  0  0
   18.5299   10.0352   11.9163 H   0  0  0  0  0
   15.1519    0.8237   15.6129 H   0  0  0  0  0
   16.8104    1.2703   16.0268 H   0  0  0  0  0
  1  2  1  0  0  0
  1 24  1  0  0  0
  1 25  2  0  0  0
  1 26  2  0  0  0
  2  3  4  0  0  0
  2  7  4  0  0  0
  3  4  4  0  0  0
  4  5  4  0  0  0
  5  6  4  0  0  0
  5  8  1  0  0  0
  6  7  4  0  0  0
  8  9  4  0  0  0
  8 23  4  0  0  0
  9 10  1  0  0  0
  9 17  4  0  0  0
 10 11  4  0  0  0
 10 16  4  0  0  0
 11 12  4  0  0  0
 12 13  4  0  0  0
 13 14  1  0  0  0
 13 15  4  0  0  0
 15 16  4  0  0  0
 17 18  4  0  0  0
 18 19  1  0  0  0
 18 23  4  0  0  0
 19 20  1  0  0  0
 19 21  1  0  0  0
 19 22  1  0  0  0
  3 27  1  0  0  0
  4 28  1  0  0  0
  6 29  1  0  0  0
  7 30  1  0  0  0
 11 31  1  0  0  0
 12 32  1  0  0  0
 14 33  1  0  0  0
 14 34  1  0  0  0
 14 35  1  0  0  0
 15 36  1  0  0  0
 16 37  1  0  0  0
 17 38  1  0  0  0
 24 39  1  0  0  0
 24 40  1  0  0  0
M  END
$$$$
