### 
### Created by X-TOOL on Mon Sep 10 21:13:14 2018
### 

@<TRIPOS>MOLECULE
4i7b_ligand
  190   191     1     0     0
SMALL
GAST_HUCK


@<TRIPOS>ATOM
      1 N           1.4990   -2.7550   22.7510 N.4       1 LEU         0.2379
      2 CA          1.3880   -3.6710   21.5780 C.3       1 LEU         0.0652
      3 C           2.5140   -3.4070   20.5670 C.2       1 LEU         0.2267
      4 O           3.5580   -2.8490   20.9200 O.2       1 LEU        -0.3907
      5 CB          0.0180   -3.5110   20.9020 C.3       1 LEU         0.0102
      6 CG         -1.2350   -3.5900   21.7680 C.3       1 LEU        -0.0394
      7 CD1        -2.4620   -3.3290   20.9100 C.3       1 LEU        -0.0623
      8 CD2        -1.3330   -4.9450   22.4490 C.3       1 LEU        -0.0623
      9 N           2.2840   -3.8080   19.3140 N.am      1 ARG        -0.2610
     10 CA          3.2680   -3.7150   18.2380 C.3       1 ARG         0.1314
     11 C           2.5540   -3.5620   16.8920 C.2       1 ARG         0.2064
     12 O           2.0260   -4.5450   16.3630 O.2       1 ARG        -0.3942
     13 CB          4.1240   -4.9850   18.2000 C.3       1 ARG        -0.0092
     14 CG          5.4160   -4.9240   18.9930 C.3       1 ARG        -0.0156
     15 CD          6.1770   -6.2350   18.8670 C.3       1 ARG         0.0627
     16 NE          7.3180   -6.3100   19.7810 N.pl3     1 ARG        -0.2723
     17 CZ          8.5130   -5.7580   19.5690 C.cat     1 ARG         0.2882
     18 NH1         8.7630   -5.0580   18.4650 N.pl3     1 ARG        -0.2849
     19 NH2         9.4720   -5.8950   20.4790 N.pl3     1 ARG        -0.2849
     20 N           2.5180   -2.3340   16.3350 N.am      1 PRO        -0.2498
     21 CA          1.9400   -2.1660   14.9970 C.3       1 PRO         0.1338
     22 C           2.8150   -2.7810   13.9020 C.2       1 PRO         0.2041
     23 O           4.0370   -2.8180   14.0360 O.2       1 PRO        -0.3944
     24 CB          1.8460   -0.6440   14.8340 C.3       1 PRO        -0.0104
     25 CG          2.8480   -0.0870   15.7820 C.3       1 PRO        -0.0281
     26 CD          2.8940   -1.0410   16.9380 C.3       1 PRO         0.0369
     27 N           2.1780   -3.2470   12.8300 N.am      1 VAL        -0.2635
     28 CA          2.8560   -3.9860   11.7630 C.3       1 VAL         0.1332
     29 C           2.8660   -3.2220   10.4390 C.2       1 VAL         0.2041
     30 O           1.8080   -2.8810    9.9070 O.2       1 VAL        -0.3944
     31 CB          2.1630   -5.3400   11.5180 C.3       1 VAL        -0.0063
     32 CG1         2.8770   -6.1170   10.4180 C.3       1 VAL        -0.0584
     33 CG2         2.1000   -6.1460   12.8070 C.3       1 VAL        -0.0584
     34 N           4.0600   -2.9680    9.9080 N.am      1 ABA        -0.2637
     35 CA          4.2120   -2.3520    8.5950 C.3       1 ABA         0.1307
     36 C           4.5790   -3.4310    7.5780 C.2       1 ABA         0.2039
     37 O           5.5340   -4.1790    7.7820 O.2       1 ABA        -0.3944
     38 CB          5.3040   -1.2650    8.6100 C.3       1 ABA        -0.0152
     39 CG          5.2150   -0.3890    7.3610 C.3       1 ABA        -0.0610
     40 N           3.8070   -3.5160    6.4960 N.am      1 MET        -0.2637
     41 CA          4.0850   -4.4550    5.4100 C.3       1 MET         0.1317
     42 C           4.9660   -3.7720    4.3740 C.2       1 MET         0.2039
     43 O           4.4630   -3.1070    3.4700 O.2       1 MET        -0.3944
     44 CB          2.7830   -4.9090    4.7450 C.3       1 MET        -0.0034
     45 CG          1.8040   -5.6170    5.6700 C.3       1 MET        -0.0024
     46 SD          0.1200   -5.6440    5.0150 S.3       1 MET        -0.1639
     47 CE         -0.3510   -3.9210    5.1690 C.3       1 MET        -0.0181
     48 N           6.2770   -3.9320    4.5040 N.am      1 VAL        -0.2635
     49 CA          7.2160   -3.3000    3.5810 C.3       1 VAL         0.1332
     50 C           7.5150   -4.2070    2.3900 C.2       1 VAL         0.2041
     51 O           7.7730   -5.4020    2.5560 O.2       1 VAL        -0.3944
     52 CB          8.5260   -2.9350    4.2880 C.3       1 VAL        -0.0063
     53 CG1         9.5400   -2.3940    3.2920 C.3       1 VAL        -0.0584
     54 CG2         8.2480   -1.9210    5.3860 C.3       1 VAL        -0.0584
     55 N           7.4760   -3.6240    1.1930 N.am      1 ARG        -0.2637
     56 CA          7.7350   -4.3570   -0.0410 C.3       1 ARG         0.1313
     57 C           9.1700   -4.1600   -0.4980 C.2       1 ARG         0.2064
     58 O           9.7920   -3.1420   -0.1830 O.2       1 ARG        -0.3942
     59 CB          6.7930   -3.8980   -1.1430 C.3       1 ARG        -0.0092
     60 CG          5.3550   -4.3140   -0.9230 C.3       1 ARG        -0.0156
     61 CD          4.4860   -3.8630   -2.0820 C.3       1 ARG         0.0627
     62 NE          3.0870   -4.2270   -1.8870 N.pl3     1 ARG        -0.2723
     63 CZ          2.1000   -3.9170   -2.7240 C.cat     1 ARG         0.2882
     64 NH1         2.3430   -3.2280   -3.8360 N.pl3     1 ARG        -0.2849
     65 NH2         0.8580   -4.3000   -2.4470 N.pl3     1 ARG        -0.2849
     66 N           9.6990   -5.1340   -1.2540 N.am      1 PRO        -0.2498
     67 CA         11.0820   -5.0460   -1.7150 C.3       1 PRO         0.1338
     68 C          11.2940   -4.0190   -2.8270 C.2       1 PRO         0.2042
     69 O          10.4210   -3.8300   -3.6730 O.2       1 PRO        -0.3944
     70 CB         11.3770   -6.4600   -2.2340 C.3       1 PRO        -0.0104
     71 CG         10.0510   -7.0550   -2.5440 C.3       1 PRO        -0.0281
     72 CD          9.0600   -6.4110   -1.6250 C.3       1 PRO         0.0369
     73 N          12.4480   -3.3560   -2.7940 N.am      1 THR        -0.2613
     74 CA         12.9340   -2.5450   -3.9090 C.3       1 THR         0.1564
     75 C          14.1200   -3.2850   -4.5240 C.2       1 THR         0.2059
     76 O          15.0680   -3.6290   -3.8190 O.2       1 THR        -0.3943
     77 CB         13.4080   -1.1520   -3.4420 C.3       1 THR         0.0924
     78 OG1        12.5910   -0.6930   -2.3580 O.3       1 THR        -0.3874
     79 CG2        13.3470   -0.1550   -4.5880 C.3       1 THR        -0.0346
     80 N          14.0690   -3.5350   -5.8290 N.am      1 VAL        -0.2692
     81 CA         15.1240   -4.2900   -6.5110 C.3       1 VAL         0.0967
     82 C          15.8060   -3.4320   -7.5720 C.2       1 VAL         0.0603
     83 O          17.0533   -3.4914   -7.7400 O.co2     1 VAL        -0.5666
     84 CB         14.5620   -5.5730   -7.1600 C.3       1 VAL        -0.0118
     85 CG1        15.6150   -6.2490   -8.0310 C.3       1 VAL        -0.0590
     86 CG2        14.0550   -6.5300   -6.0900 C.3       1 VAL        -0.0590
     87 O          15.1159   -2.6571   -8.2867 O.co2     1 VAL        -0.5666
     88 H1          0.7511   -2.9468   23.3990 H         1 LEU         0.2015
     89 H2          1.4354   -1.7990   22.4380 H         1 LEU         0.2015
     90 H3          2.3854   -2.9006   23.2083 H         1 LEU         0.2015
     91 H4          1.4806   -4.7065   21.9374 H         1 LEU         0.1098
     92 H5         -0.0629   -4.3013   20.1412 H         1 LEU         0.0348
     93 H6          0.0114   -2.5269   20.4106 H         1 LEU         0.0348
     94 H7         -1.1763   -2.8134   22.5448 H         1 LEU         0.0299
     95 H8         -3.3654   -3.3861   21.5351 H         1 LEU         0.0232
     96 H9         -2.5195   -4.0847   20.1127 H         1 LEU         0.0232
     97 H10        -2.3894   -2.3273   20.4613 H         1 LEU         0.0232
     98 H11        -0.4360   -5.1123   23.0634 H         1 LEU         0.0232
     99 H12        -1.4074   -5.7342   21.6863 H         1 LEU         0.0232
    100 H13        -2.2264   -4.9694   23.0903 H         1 LEU         0.0232
    101 H14         1.3867   -4.1941   19.1000 H         1 ARG         0.1884
    102 H15         3.9145   -2.8422   18.4120 H         1 ARG         0.0800
    103 H16         4.3799   -5.1903   17.1501 H         1 ARG         0.0313
    104 H17         3.5200   -5.8132   18.5990 H         1 ARG         0.0313
    105 H18         5.1830   -4.7404   20.0522 H         1 ARG         0.0301
    106 H19         6.0398   -4.1042   18.6073 H         1 ARG         0.0301
    107 H20         6.5447   -6.3318   17.8348 H         1 ARG         0.0689
    108 H21         5.4903   -7.0646   19.0910 H         1 ARG         0.0689
    109 H22         7.1870   -6.8317   20.6594 H         1 ARG         0.2642
    110 H23         9.6929   -4.6395   18.3201 H         1 ARG         0.2615
    111 H24         8.0265   -4.9348   17.7555 H         1 ARG         0.2615
    112 H25         9.2933   -6.4339   21.3384 H         1 ARG         0.2615
    113 H26        10.3939   -5.4623   20.3248 H         1 ARG         0.2615
    114 H27         0.9404   -2.6229   14.9524 H         1 PRO         0.0802
    115 H28         0.8360   -0.2905   15.0888 H         1 PRO         0.0313
    116 H29         2.0875   -0.3511   13.8016 H         1 PRO         0.0313
    117 H30         2.5386    0.9122   16.1225 H         1 PRO         0.0287
    118 H31         3.8349   -0.0211   15.3007 H         1 PRO         0.0287
    119 H32         3.9050   -1.0876   17.3688 H         1 PRO         0.0524
    120 H33         2.1761   -0.7477   17.7181 H         1 PRO         0.0524
    121 H34         1.1944   -3.0855   12.7499 H         1 VAL         0.1883
    122 H35         3.8953   -4.1646   12.0759 H         1 VAL         0.0802
    123 H36         1.1329   -5.1447   11.1854 H         1 VAL         0.0343
    124 H37         2.3676   -7.0788   10.2587 H         1 VAL         0.0234
    125 H38         3.9201   -6.2994   10.7158 H         1 VAL         0.0234
    126 H39         2.8585   -5.5335    9.4857 H         1 VAL         0.0234
    127 H40         1.5806   -5.5609   13.5802 H         1 VAL         0.0234
    128 H41         3.1209   -6.3765   13.1456 H         1 VAL         0.0234
    129 H42         1.5530   -7.0832   12.6271 H         1 VAL         0.0234
    130 H43         4.8804   -3.2077   10.4271 H         1 ABA         0.1883
    131 H44         3.2565   -1.8905    8.3052 H         1 ABA         0.0800
    132 H45         6.2922   -1.7470    8.6427 H         1 ABA         0.0310
    133 H46         5.1736   -0.6351    9.5023 H         1 ABA         0.0310
    134 H47         6.0028    0.3779    7.3942 H         1 ABA         0.0232
    135 H48         4.2298    0.0988    7.3247 H         1 ABA         0.0232
    136 H49         5.3484   -1.0131    6.4651 H         1 ABA         0.0232
    137 H50         3.0096   -2.9169    6.4238 H         1 MET         0.1883
    138 H51         4.6090   -5.3330    5.8157 H         1 MET         0.0800
    139 H52         3.0394   -5.5982    3.9269 H         1 MET         0.0320
    140 H53         2.2821   -4.0207    4.3328 H         1 MET         0.0320
    141 H54         1.7963   -5.0965    6.6390 H         1 MET         0.0378
    142 H55         2.1424   -6.6538    5.8134 H         1 MET         0.0378
    143 H56        -1.3781   -3.7872    4.7988 H         1 MET         0.0340
    144 H57         0.3361   -3.2987    4.5769 H         1 MET         0.0340
    145 H58        -0.3001   -3.6200    6.2258 H         1 MET         0.0340
    146 H59         6.6294   -4.4973    5.2498 H         1 VAL         0.1883
    147 H60         6.7547   -2.3747    3.2054 H         1 VAL         0.0802
    148 H61         8.9423   -3.8435    4.7476 H         1 VAL         0.0343
    149 H62        10.4712   -2.1386    3.8189 H         1 VAL         0.0234
    150 H63         9.1340   -1.4936    2.8078 H         1 VAL         0.0234
    151 H64         9.7483   -3.1584    2.5290 H         1 VAL         0.0234
    152 H65         7.5131   -2.3365    6.0912 H         1 VAL         0.0234
    153 H66         7.8476   -0.9985    4.9404 H         1 VAL         0.0234
    154 H67         9.1821   -1.6944    5.9209 H         1 VAL         0.0234
    155 H68         7.2615   -2.6488    1.1385 H         1 ARG         0.1883
    156 H69         7.5670   -5.4277    0.1471 H         1 ARG         0.0800
    157 H70         7.1371   -4.3269   -2.0957 H         1 ARG         0.0313
    158 H71         6.8326   -2.8002   -1.1995 H         1 ARG         0.0313
    159 H72         4.9843   -3.8566    0.0062 H         1 ARG         0.0301
    160 H73         5.3044   -5.4095   -0.8381 H         1 ARG         0.0301
    161 H74         4.8511   -4.3363   -3.0054 H         1 ARG         0.0689
    162 H75         4.5590   -2.7695   -2.1767 H         1 ARG         0.0689
    163 H76         2.8458   -4.7624   -1.0408 H         1 ARG         0.2642
    164 H77         1.5707   -2.9941   -4.4760 H         1 ARG         0.2615
    165 H78         3.3035   -2.9285   -4.0568 H         1 ARG         0.2615
    166 H79         0.6631   -4.8336   -1.5878 H         1 ARG         0.2615
    167 H80         0.0902   -4.0632   -3.0915 H         1 ARG         0.2615
    168 H81        11.7438   -4.7950   -0.8729 H         1 PRO         0.0802
    169 H82        11.8932   -7.0521   -1.4639 H         1 PRO         0.0313
    170 H83        11.9991   -6.4148   -3.1401 H         1 PRO         0.0313
    171 H84        10.0746   -8.1414   -2.3734 H         1 PRO         0.0287
    172 H85         9.7817   -6.8540   -3.5914 H         1 PRO         0.0287
    173 H86         8.1045   -6.2353   -2.1408 H         1 PRO         0.0524
    174 H87         8.8874   -7.0353   -0.7359 H         1 PRO         0.0524
    175 H88        13.0085   -3.4155   -1.9680 H         1 THR         0.1884
    176 H89        12.1334   -2.4253   -4.6538 H         1 THR         0.0826
    177 H90        14.4490   -1.2307   -3.0954 H         1 THR         0.0639
    178 H91        12.8904    0.1641   -2.0781 H         1 THR         0.2101
    179 H92        13.6880    0.8297   -4.2358 H         1 THR         0.0257
    180 H93        12.3115   -0.0762   -4.9508 H         1 THR         0.0257
    181 H94        13.9973   -0.4970   -5.4066 H         1 THR         0.0257
    182 H95        13.2904   -3.1991   -6.3590 H         1 VAL         0.1875
    183 H96        15.8758   -4.5809   -5.7626 H         1 VAL         0.0729
    184 H97        13.7141   -5.2917   -7.8018 H         1 VAL         0.0336
    185 H98        15.1900   -7.1585   -8.4806 H         1 VAL         0.0234
    186 H99        16.4847   -6.5174   -7.4132 H         1 VAL         0.0234
    187 H100       15.9300   -5.5589   -8.8276 H         1 VAL         0.0234
    188 H101       13.2976   -6.0232   -5.4739 H         1 VAL         0.0234
    189 H102       14.8943   -6.8458   -5.4530 H         1 VAL         0.0234
    190 H103       13.6067   -7.4124   -6.5699 H         1 VAL         0.0234
@<TRIPOS>BOND
     1    1    2 1  
     2    2    3 1  
     3    2    5 1  
     4    3    4 2  
     5    3    9 am 
     6    5    6 1  
     7    6    7 1  
     8    6    8 1  
     9    9   10 1  
    10   10   11 1  
    11   10   13 1  
    12   11   12 2  
    13   11   20 am 
    14   13   14 1  
    15   14   15 1  
    16   15   16 1  
    17   16   17 ar 
    18   17   18 ar 
    19   17   19 ar 
    20   20   21 1  
    21   20   26 1  
    22   21   22 1  
    23   21   24 1  
    24   22   23 2  
    25   22   27 am 
    26   24   25 1  
    27   25   26 1  
    28   27   28 1  
    29   28   29 1  
    30   28   31 1  
    31   29   30 2  
    32   29   34 am 
    33   31   32 1  
    34   31   33 1  
    35   34   35 1  
    36   35   36 1  
    37   35   38 1  
    38   36   37 2  
    39   36   40 am 
    40   38   39 1  
    41   40   41 1  
    42   41   42 1  
    43   41   44 1  
    44   42   43 2  
    45   42   48 am 
    46   44   45 1  
    47   45   46 1  
    48   46   47 1  
    49   48   49 1  
    50   49   50 1  
    51   49   52 1  
    52   50   51 2  
    53   50   55 am 
    54   52   53 1  
    55   52   54 1  
    56   55   56 1  
    57   56   57 1  
    58   56   59 1  
    59   57   58 2  
    60   57   66 am 
    61   59   60 1  
    62   60   61 1  
    63   61   62 1  
    64   62   63 ar 
    65   63   64 ar 
    66   63   65 ar 
    67   66   67 1  
    68   66   72 1  
    69   67   68 1  
    70   67   70 1  
    71   68   69 2  
    72   68   73 am 
    73   70   71 1  
    74   71   72 1  
    75   73   74 1  
    76   74   75 1  
    77   74   77 1  
    78   75   76 2  
    79   75   80 am 
    80   77   78 1  
    81   77   79 1  
    82   80   81 1  
    83   81   82 1  
    84   81   84 1  
    85   82   83 ar 
    86   84   85 1  
    87   84   86 1  
    88   82   87 ar 
    89    1   88 1  
    90    1   89 1  
    91    1   90 1  
    92    2   91 1  
    93    5   92 1  
    94    5   93 1  
    95    6   94 1  
    96    7   95 1  
    97    7   96 1  
    98    7   97 1  
    99    8   98 1  
   100    8   99 1  
   101    8  100 1  
   102    9  101 1  
   103   10  102 1  
   104   13  103 1  
   105   13  104 1  
   106   14  105 1  
   107   14  106 1  
   108   15  107 1  
   109   15  108 1  
   110   16  109 1  
   111   18  110 1  
   112   18  111 1  
   113   19  112 1  
   114   19  113 1  
   115   21  114 1  
   116   24  115 1  
   117   24  116 1  
   118   25  117 1  
   119   25  118 1  
   120   26  119 1  
   121   26  120 1  
   122   27  121 1  
   123   28  122 1  
   124   31  123 1  
   125   32  124 1  
   126   32  125 1  
   127   32  126 1  
   128   33  127 1  
   129   33  128 1  
   130   33  129 1  
   131   34  130 1  
   132   35  131 1  
   133   38  132 1  
   134   38  133 1  
   135   39  134 1  
   136   39  135 1  
   137   39  136 1  
   138   40  137 1  
   139   41  138 1  
   140   44  139 1  
   141   44  140 1  
   142   45  141 1  
   143   45  142 1  
   144   47  143 1  
   145   47  144 1  
   146   47  145 1  
   147   48  146 1  
   148   49  147 1  
   149   52  148 1  
   150   53  149 1  
   151   53  150 1  
   152   53  151 1  
   153   54  152 1  
   154   54  153 1  
   155   54  154 1  
   156   55  155 1  
   157   56  156 1  
   158   59  157 1  
   159   59  158 1  
   160   60  159 1  
   161   60  160 1  
   162   61  161 1  
   163   61  162 1  
   164   62  163 1  
   165   64  164 1  
   166   64  165 1  
   167   65  166 1  
   168   65  167 1  
   169   67  168 1  
   170   70  169 1  
   171   70  170 1  
   172   71  171 1  
   173   71  172 1  
   174   72  173 1  
   175   72  174 1  
   176   73  175 1  
   177   74  176 1  
   178   77  177 1  
   179   78  178 1  
   180   79  179 1  
   181   79  180 1  
   182   79  181 1  
   183   80  182 1  
   184   81  183 1  
   185   84  184 1  
   186   85  185 1  
   187   85  186 1  
   188   85  187 1  
   189   86  188 1  
   190   86  189 1  
   191   86  190 1  
@<TRIPOS>SUBSTRUCTURE
     1 LEU         1

