4i7b_ligand
  -I-interpret- 

189190  0  0  0  0  0  0  0  0999 V2000
    1.4990   -2.7550   22.7510 N   0  3  0  0  0
    1.3880   -3.6710   21.5780 C   0  0  0  0  0
    2.5140   -3.4070   20.5670 C   0  0  0  0  0
    3.5580   -2.8490   20.9200 O   0  0  0  0  0
    0.0180   -3.5110   20.9020 C   0  0  0  0  0
   -1.2350   -3.5900   21.7680 C   0  0  0  0  0
   -2.4620   -3.3290   20.9100 C   0  0  0  0  0
   -1.3330   -4.9450   22.4490 C   0  0  0  0  0
    2.2840   -3.8080   19.3140 N   0  0  0  0  0
    3.2680   -3.7150   18.2380 C   0  0  0  0  0
    2.5540   -3.5620   16.8920 C   0  0  0  0  0
    2.0260   -4.5450   16.3630 O   0  0  0  0  0
    4.1240   -4.9850   18.2000 C   0  0  0  0  0
    5.4160   -4.9240   18.9930 C   0  0  0  0  0
    6.1770   -6.2350   18.8670 C   0  0  0  0  0
    7.3180   -6.3100   19.7810 N   0  0  0  0  0
    8.5130   -5.7580   19.5690 C   0  0  0  0  0
    8.7630   -5.0580   18.4650 N   0  0  0  0  0
    9.4720   -5.8950   20.4790 N   0  0  0  0  0
    2.5180   -2.3340   16.3350 N   0  0  0  0  0
    1.9400   -2.1660   14.9970 C   0  0  0  0  0
    2.8150   -2.7810   13.9020 C   0  0  0  0  0
    4.0370   -2.8180   14.0360 O   0  0  0  0  0
    1.8460   -0.6440   14.8340 C   0  0  0  0  0
    2.8480   -0.0870   15.7820 C   0  0  0  0  0
    2.8940   -1.0410   16.9380 C   0  0  0  0  0
    2.1780   -3.2470   12.8300 N   0  0  0  0  0
    2.8560   -3.9860   11.7630 C   0  0  0  0  0
    2.8660   -3.2220   10.4390 C   0  0  0  0  0
    1.8080   -2.8810    9.9070 O   0  0  0  0  0
    2.1630   -5.3400   11.5180 C   0  0  0  0  0
    2.8770   -6.1170   10.4180 C   0  0  0  0  0
    2.1000   -6.1460   12.8070 C   0  0  0  0  0
    4.0600   -2.9680    9.9080 N   0  0  0  0  0
    4.2120   -2.3520    8.5950 C   0  0  0  0  0
    4.5790   -3.4310    7.5780 C   0  0  0  0  0
    5.5340   -4.1790    7.7820 O   0  0  0  0  0
    5.3040   -1.2650    8.6100 C   0  0  0  0  0
    5.2150   -0.3890    7.3610 C   0  0  0  0  0
    3.8070   -3.5160    6.4960 N   0  0  0  0  0
    4.0850   -4.4550    5.4100 C   0  0  0  0  0
    4.9660   -3.7720    4.3740 C   0  0  0  0  0
    4.4630   -3.1070    3.4700 O   0  0  0  0  0
    2.7830   -4.9090    4.7450 C   0  0  0  0  0
    1.8040   -5.6170    5.6700 C   0  0  0  0  0
    0.1200   -5.6440    5.0150 S   0  0  0  0  0
   -0.3510   -3.9210    5.1690 C   0  0  0  0  0
    6.2770   -3.9320    4.5040 N   0  0  0  0  0
    7.2160   -3.3000    3.5810 C   0  0  0  0  0
    7.5150   -4.2070    2.3900 C   0  0  0  0  0
    7.7730   -5.4020    2.5560 O   0  0  0  0  0
    8.5260   -2.9350    4.2880 C   0  0  0  0  0
    9.5400   -2.3940    3.2920 C   0  0  0  0  0
    8.2480   -1.9210    5.3860 C   0  0  0  0  0
    7.4760   -3.6240    1.1930 N   0  0  0  0  0
    7.7350   -4.3570   -0.0410 C   0  0  0  0  0
    9.1700   -4.1600   -0.4980 C   0  0  0  0  0
    9.7920   -3.1420   -0.1830 O   0  0  0  0  0
    6.7930   -3.8980   -1.1430 C   0  0  0  0  0
    5.3550   -4.3140   -0.9230 C   0  0  0  0  0
    4.4860   -3.8630   -2.0820 C   0  0  0  0  0
    3.0870   -4.2270   -1.8870 N   0  0  0  0  0
    2.1000   -3.9170   -2.7240 C   0  0  0  0  0
    2.3430   -3.2280   -3.8360 N   0  0  0  0  0
    0.8580   -4.3000   -2.4470 N   0  0  0  0  0
    9.6990   -5.1340   -1.2540 N   0  0  0  0  0
   11.0820   -5.0460   -1.7150 C   0  0  0  0  0
   11.2940   -4.0190   -2.8270 C   0  0  0  0  0
   10.4210   -3.8300   -3.6730 O   0  0  0  0  0
   11.3770   -6.4600   -2.2340 C   0  0  0  0  0
   10.0510   -7.0550   -2.5440 C   0  0  0  0  0
    9.0600   -6.4110   -1.6250 C   0  0  0  0  0
   12.4480   -3.3560   -2.7940 N   0  0  0  0  0
   12.9340   -2.5450   -3.9090 C   0  0  0  0  0
   14.1200   -3.2850   -4.5240 C   0  0  0  0  0
   15.0680   -3.6290   -3.8190 O   0  0  0  0  0
   13.4080   -1.1520   -3.4420 C   0  0  0  0  0
   12.5910   -0.6930   -2.3580 O   0  0  0  0  0
   13.3470   -0.1550   -4.5880 C   0  0  0  0  0
   14.0690   -3.5350   -5.8290 N   0  0  0  0  0
   15.1240   -4.2900   -6.5110 C   0  0  0  0  0
   15.8060   -3.4320   -7.5720 C   0  0  0  0  0
   17.0533   -3.4914   -7.7400 O   0  0  0  0  0
   14.5620   -5.5730   -7.1600 C   0  0  0  0  0
   15.6150   -6.2490   -8.0310 C   0  0  0  0  0
   14.0550   -6.5300   -6.0900 C   0  0  0  0  0
   15.1159   -2.6571   -8.2867 O   0  0  0  0  0
    2.4130   -2.8734   23.1880 H   0  0  0  0  0
    1.3927   -1.7899   22.4385 H   0  0  0  0  0
    0.7669   -2.9779   23.4254 H   0  0  0  0  0
    1.4853   -4.6954   21.9375 H   0  0  0  0  0
   -0.0591   -4.3514   20.2122 H   0  0  0  0  0
    0.0184   -2.5006   20.4932 H   0  0  0  0  0
   -1.1778   -2.8295   22.5468 H   0  0  0  0  0
   -2.5409   -4.1026   20.1462 H   0  0  0  0  0
   -3.3528   -3.3444   21.5379 H   0  0  0  0  0
   -2.3692   -2.3535   20.4327 H   0  0  0  0  0
   -2.2186   -4.9679   23.0840 H   0  0  0  0  0
   -1.4067   -5.7260   21.6923 H   0  0  0  0  0
   -0.4437   -5.1096   23.0574 H   0  0  0  0  0
    1.3688   -4.2018   19.0957 H   0  0  0  0  0
    3.9032   -2.8483   18.4209 H   0  0  0  0  0
    4.4055   -5.1391   17.1583 H   0  0  0  0  0
    3.5233   -5.7783   18.6449 H   0  0  0  0  0
    5.1806   -4.7493   20.0428 H   0  0  0  0  0
    6.0343   -4.1154   18.6032 H   0  0  0  0  0
    6.5568   -6.3071   17.8479 H   0  0  0  0  0
    5.4929   -7.0465   19.1153 H   0  0  0  0  0
    7.1883   -6.8266   20.6509 H   0  0  0  0  0
    9.6808   -4.6352   18.3261 H   0  0  0  0  0
    8.0368   -4.9443   17.7578 H   0  0  0  0  0
    9.2920   -6.4204   21.3345 H   0  0  0  0  0
    0.9793   -2.6719   14.9011 H   0  0  0  0  0
    0.8421   -0.2780   15.0493 H   0  0  0  0  0
    2.0489   -0.3364   13.8082 H   0  0  0  0  0
    2.5706    0.9157   16.1071 H   0  0  0  0  0
    3.8261    0.0119   15.3112 H   0  0  0  0  0
    3.8739   -1.0722   17.4144 H   0  0  0  0  0
    2.2253   -0.7481   17.7474 H   0  0  0  0  0
    1.1747   -3.0823   12.7483 H   0  0  0  0  0
    3.8831   -4.1283   12.0990 H   0  0  0  0  0
    1.1416   -5.1529   11.1865 H   0  0  0  0  0
    2.8580   -5.5378    9.4948 H   0  0  0  0  0
    3.9104   -6.2971   10.7143 H   0  0  0  0  0
    2.3714   -7.0698   10.2611 H   0  0  0  0  0
    3.1114   -6.3255   13.1715 H   0  0  0  0  0
    1.5363   -5.5888   13.5552 H   0  0  0  0  0
    1.6073   -7.0990   12.6144 H   0  0  0  0  0
    4.8968   -3.2125   10.4374 H   0  0  0  0  0
    3.2686   -1.8792    8.3221 H   0  0  0  0  0
    6.2807   -1.7483    8.6314 H   0  0  0  0  0
    5.1632   -0.6375    9.4901 H   0  0  0  0  0
    5.3473   -1.0086    6.4740 H   0  0  0  0  0
    4.2383    0.0937    7.3262 H   0  0  0  0  0
    5.9961    0.3705    7.3950 H   0  0  0  0  0
    2.9936   -2.9049    6.4223 H   0  0  0  0  0
    4.5926   -5.3283    5.8195 H   0  0  0  0  0
    3.0575   -5.6239    3.9694 H   0  0  0  0  0
    2.2827   -4.0102    4.3845 H   0  0  0  0  0
    1.7864   -5.0757    6.6159 H   0  0  0  0  0
    2.1361   -6.6492    5.7817 H   0  0  0  0  0
   -0.3001   -3.6240    6.2165 H   0  0  0  0  0
    0.3306   -3.3055    4.5819 H   0  0  0  0  0
   -1.3689   -3.7897    4.8019 H   0  0  0  0  0
    6.6365   -4.5086    5.2647 H   0  0  0  0  0
    6.7440   -2.3868    3.2185 H   0  0  0  0  0
    8.9501   -3.8324    4.7385 H   0  0  0  0  0
    9.7455   -3.1523    2.5365 H   0  0  0  0  0
    9.1365   -1.5020    2.8129 H   0  0  0  0  0
   10.4622   -2.1413    3.8153 H   0  0  0  0  0
    7.8101   -1.0240    4.9481 H   0  0  0  0  0
    7.5536   -2.3505    6.1081 H   0  0  0  0  0
    9.1817   -1.6640    5.8863 H   0  0  0  0  0
    7.2572   -2.6293    1.1374 H   0  0  0  0  0
    7.5677   -5.4147    0.1622 H   0  0  0  0  0
    7.1280   -4.3588   -2.0723 H   0  0  0  0  0
    6.8187   -2.8085   -1.1621 H   0  0  0  0  0
    4.9895   -3.8512   -0.0063 H   0  0  0  0  0
    5.3089   -5.4005   -0.8486 H   0  0  0  0  0
    4.8434   -4.3527   -2.9878 H   0  0  0  0  0
    4.5497   -2.7773   -2.1545 H   0  0  0  0  0
    2.8481   -4.7572   -1.0490 H   0  0  0  0  0
    1.5782   -2.9967   -4.4701 H   0  0  0  0  0
    3.2941   -2.9311   -4.0544 H   0  0  0  0  0
    0.6651   -4.8288   -1.5964 H   0  0  0  0  0
   11.7411   -4.7148   -0.9125 H   0  0  0  0  0
   11.9169   -7.0518   -1.4948 H   0  0  0  0  0
   12.0192   -6.4360   -3.1144 H   0  0  0  0  0
   10.0682   -8.1351   -2.3986 H   0  0  0  0  0
    9.7827   -6.8802   -3.5859 H   0  0  0  0  0
    8.0891   -6.2661   -2.0988 H   0  0  0  0  0
    8.8373   -7.0305   -0.7563 H   0  0  0  0  0
   13.0197   -3.4167   -1.9515 H   0  0  0  0  0
   12.1241   -2.3973   -4.6234 H   0  0  0  0  0
   14.4410   -1.2351   -3.1043 H   0  0  0  0  0
   12.8936    0.1731   -2.0752 H   0  0  0  0  0
   13.9917   -0.4950   -5.3984 H   0  0  0  0  0
   12.3206   -0.0779   -4.9466 H   0  0  0  0  0
   13.6851    0.8203   -4.2378 H   0  0  0  0  0
   13.2748   -3.1923   -6.3696 H   0  0  0  0  0
   15.8599   -4.5749   -5.7591 H   0  0  0  0  0
   17.4285   -4.1232   -7.1223 H   0  0  0  0  0
   13.7251   -5.2937   -7.8000 H   0  0  0  0  0
   15.9263   -5.5642   -8.8199 H   0  0  0  0  0
   16.4761   -6.5144   -7.4177 H   0  0  0  0  0
   15.1927   -7.1500   -8.4760 H   0  0  0  0  0
   14.8763   -6.7979   -5.4253 H   0  0  0  0  0
   13.2647   -6.0459   -5.5163 H   0  0  0  0  0
   13.6623   -7.4290   -6.5650 H   0  0  0  0  0
  1  2  1  0  0  0
  2  3  1  0  0  0
  2  5  1  0  0  0
  3  4  2  0  0  0
  3  9  1  0  0  0
  5  6  1  0  0  0
  6  7  1  0  0  0
  6  8  1  0  0  0
  9 10  1  0  0  0
 10 11  1  0  0  0
 10 13  1  0  0  0
 11 12  2  0  0  0
 11 20  1  0  0  0
 13 14  1  0  0  0
 14 15  1  0  0  0
 15 16  1  0  0  0
 16 17  1  0  0  0
 17 18  1  0  0  0
 17 19  2  0  0  0
 20 21  1  0  0  0
 20 26  1  0  0  0
 21 22  1  0  0  0
 21 24  1  0  0  0
 22 23  2  0  0  0
 22 27  1  0  0  0
 24 25  1  0  0  0
 25 26  1  0  0  0
 27 28  1  0  0  0
 28 29  1  0  0  0
 28 31  1  0  0  0
 29 30  2  0  0  0
 29 34  1  0  0  0
 31 32  1  0  0  0
 31 33  1  0  0  0
 34 35  1  0  0  0
 35 36  1  0  0  0
 35 38  1  0  0  0
 36 37  2  0  0  0
 36 40  1  0  0  0
 38 39  1  0  0  0
 40 41  1  0  0  0
 41 42  1  0  0  0
 41 44  1  0  0  0
 42 43  2  0  0  0
 42 48  1  0  0  0
 44 45  1  0  0  0
 45 46  1  0  0  0
 46 47  1  0  0  0
 48 49  1  0  0  0
 49 50  1  0  0  0
 49 52  1  0  0  0
 50 51  2  0  0  0
 50 55  1  0  0  0
 52 53  1  0  0  0
 52 54  1  0  0  0
 55 56  1  0  0  0
 56 57  1  0  0  0
 56 59  1  0  0  0
 57 58  2  0  0  0
 57 66  1  0  0  0
 59 60  1  0  0  0
 60 61  1  0  0  0
 61 62  1  0  0  0
 62 63  1  0  0  0
 63 64  1  0  0  0
 63 65  2  0  0  0
 66 67  1  0  0  0
 66 72  1  0  0  0
 67 68  1  0  0  0
 67 70  1  0  0  0
 68 69  2  0  0  0
 68 73  1  0  0  0
 70 71  1  0  0  0
 71 72  1  0  0  0
 73 74  1  0  0  0
 74 75  1  0  0  0
 74 77  1  0  0  0
 75 76  2  0  0  0
 75 80  1  0  0  0
 77 78  1  0  0  0
 77 79  1  0  0  0
 80 81  1  0  0  0
 81 82  1  0  0  0
 81 84  1  0  0  0
 82 83  1  0  0  0
 84 85  1  0  0  0
 84 86  1  0  0  0
 82 87  2  0  0  0
  1 88  1  0  0  0
  1 89  1  0  0  0
  1 90  1  0  0  0
  2 91  1  0  0  0
  5 92  1  0  0  0
  5 93  1  0  0  0
  6 94  1  0  0  0
  7 95  1  0  0  0
  7 96  1  0  0  0
  7 97  1  0  0  0
  8 98  1  0  0  0
  8 99  1  0  0  0
  8100  1  0  0  0
  9101  1  0  0  0
 10102  1  0  0  0
 13103  1  0  0  0
 13104  1  0  0  0
 14105  1  0  0  0
 14106  1  0  0  0
 15107  1  0  0  0
 15108  1  0  0  0
 16109  1  0  0  0
 18110  1  0  0  0
 18111  1  0  0  0
 19112  1  0  0  0
 21113  1  0  0  0
 24114  1  0  0  0
 24115  1  0  0  0
 25116  1  0  0  0
 25117  1  0  0  0
 26118  1  0  0  0
 26119  1  0  0  0
 27120  1  0  0  0
 28121  1  0  0  0
 31122  1  0  0  0
 32123  1  0  0  0
 32124  1  0  0  0
 32125  1  0  0  0
 33126  1  0  0  0
 33127  1  0  0  0
 33128  1  0  0  0
 34129  1  0  0  0
 35130  1  0  0  0
 38131  1  0  0  0
 38132  1  0  0  0
 39133  1  0  0  0
 39134  1  0  0  0
 39135  1  0  0  0
 40136  1  0  0  0
 41137  1  0  0  0
 44138  1  0  0  0
 44139  1  0  0  0
 45140  1  0  0  0
 45141  1  0  0  0
 47142  1  0  0  0
 47143  1  0  0  0
 47144  1  0  0  0
 48145  1  0  0  0
 49146  1  0  0  0
 52147  1  0  0  0
 53148  1  0  0  0
 53149  1  0  0  0
 53150  1  0  0  0
 54151  1  0  0  0
 54152  1  0  0  0
 54153  1  0  0  0
 55154  1  0  0  0
 56155  1  0  0  0
 59156  1  0  0  0
 59157  1  0  0  0
 60158  1  0  0  0
 60159  1  0  0  0
 61160  1  0  0  0
 61161  1  0  0  0
 62162  1  0  0  0
 64163  1  0  0  0
 64164  1  0  0  0
 65165  1  0  0  0
 67166  1  0  0  0
 70167  1  0  0  0
 70168  1  0  0  0
 71169  1  0  0  0
 71170  1  0  0  0
 72171  1  0  0  0
 72172  1  0  0  0
 73173  1  0  0  0
 74174  1  0  0  0
 77175  1  0  0  0
 78176  1  0  0  0
 79177  1  0  0  0
 79178  1  0  0  0
 79179  1  0  0  0
 80180  1  0  0  0
 81181  1  0  0  0
 83182  1  0  0  0
 84183  1  0  0  0
 85184  1  0  0  0
 85185  1  0  0  0
 85186  1  0  0  0
 86187  1  0  0  0
 86188  1  0  0  0
 86189  1  0  0  0
M  END
$$$$
