6c98_ligand
  -I-interpret- 

 33 35  0  0  0  0  0  0  0  0999 V2000
   20.4730   12.0650   22.9950 N   0  0  0  0  0
   16.6490   12.6270   18.9040 C   0  0  0  0  0
   19.8210   10.4780   21.6350 N   0  0  0  0  0
   18.7020   11.0110   22.2860 N   0  0  0  0  0
   16.9350   10.9980   20.6990 C   0  0  0  0  0
   16.3650   11.4410   22.9920 C   0  0  0  0  0
   14.8950   11.0710   22.8660 C   0  0  0  0  0
   16.9430   12.5110   23.8820 C   0  0  0  0  0
   18.2780   12.7090   23.8800 N   0  0  0  0  0
   16.2690   10.2920   18.4620 C   0  0  0  0  0
   14.6500   10.0300   22.2750 O   0  0  0  0  0
   16.3020   11.6080   18.0180 C   0  0  0  0  0
   16.1070   13.3820   24.7990 C   0  0  0  0  0
   19.1280   11.9910   23.1080 C   0  0  0  0  0
   20.8990   11.1440   22.0990 C   0  0  0  0  0
   16.5860    9.9790   19.7980 C   0  0  0  0  0
   16.9650   12.3240   20.2410 C   0  0  0  0  0
   17.2930   10.7000   22.1540 C   0  0  0  0  0
   13.7790   11.9100   23.4300 C   0  0  0  0  0
   15.9370    9.3170   17.6060 F   0  0  0  0  0
   16.6755   13.6609   18.5600 H   0  0  0  0  0
   15.7491   11.9180   23.7544 H   0  0  0  0  0
   16.0578   11.8427   16.9820 H   0  0  0  0  0
   16.4230   13.2291   25.8309 H   0  0  0  0  0
   16.2431   14.4288   24.5274 H   0  0  0  0  0
   15.0560   13.1122   24.6957 H   0  0  0  0  0
   21.9337   10.9704   21.8035 H   0  0  0  0  0
   16.5604    8.9423   20.1338 H   0  0  0  0  0
   17.2356   13.1265   20.9273 H   0  0  0  0  0
   17.1808    9.6643   22.4747 H   0  0  0  0  0
   13.1156   12.2201   22.6226 H   0  0  0  0  0
   13.2181   11.3242   24.1582 H   0  0  0  0  0
   14.1984   12.7909   23.9160 H   0  0  0  0  0
 14  1  4  0  0  0
  1 15  4  0  0  0
  2 12  4  0  0  0
 17  2  4  0  0  0
  4  3  4  0  0  0
  3 15  4  0  0  0
  4 14  4  0  0  0
 18  4  1  0  0  0
  5 16  4  0  0  0
  5 17  4  0  0  0
 18  5  1  0  0  0
  6  7  1  0  0  0
  6  8  1  0  0  0
  6 18  1  0  0  0
  7 11  2  0  0  0
  7 19  1  0  0  0
  8  9  2  0  0  0
  8 13  1  0  0  0
  9 14  1  0  0  0
 12 10  4  0  0  0
 10 16  4  0  0  0
 10 20  1  0  0  0
  2 21  1  0  0  0
  6 22  1  0  0  0
 12 23  1  0  0  0
 13 24  1  0  0  0
 13 25  1  0  0  0
 13 26  1  0  0  0
 15 27  1  0  0  0
 16 28  1  0  0  0
 17 29  1  0  0  0
 18 30  1  0  0  0
 19 31  1  0  0  0
 19 32  1  0  0  0
 19 33  1  0  0  0
M  END
$$$$
