5ci7_ligand
  -I-interpret- 

 52 54  0  0  0  0  0  0  0  0999 V2000
   -4.7170  -41.1960  -17.8050 N   0  0  0  0  0
   -3.4090  -40.5840  -17.9560 C   0  0  0  0  0
   -1.5640  -39.2060  -17.3170 C   0  0  0  0  0
    0.4400  -38.5730  -15.9770 C   0  0  0  0  0
    2.4050  -37.1230  -13.2090 C   0  0  0  0  0
    1.2760  -36.1520  -13.2390 C   0  0  0  0  0
    0.4910  -36.4660  -14.4910 C   0  0  0  0  0
   -0.8640  -39.5320  -18.4590 C   0  0  0  0  0
   -2.6810  -40.9250  -19.1020 C   0  0  0  0  0
   -3.4290  -35.3390  -14.8380 N   0  3  0  0  0
   -3.7160  -36.7340  -14.7380 C   0  0  0  0  0
   -5.0780  -37.1460  -14.2570 C   0  0  0  0  0
   -5.1680  -38.4460  -13.5130 C   0  0  0  0  0
   -6.3760  -39.2000  -13.6890 N   0  0  0  0  0
   -6.5120  -40.0800  -14.8020 C   0  0  0  0  0
   -7.6710  -40.8500  -14.9270 C   0  0  0  0  0
   -9.2580  -40.7810  -13.5310 I   0  0  0  0  0
   -7.7840  -41.7050  -16.0080 C   0  0  0  0  0
   -6.7960  -41.7420  -16.8910 N   0  0  0  0  0
   -5.6920  -41.0180  -16.7770 C   0  0  0  0  0
   -2.8490  -39.7300  -17.0470 C   0  0  0  0  0
   -0.9290  -38.3030  -16.3930 N   0  0  0  0  0
    1.0860  -37.6550  -15.0520 N   0  0  0  0  0
    2.4200  -37.7650  -14.5350 C   0  0  0  0  0
    1.0310  -39.5710  -16.4080 O   0  0  0  0  0
   -1.4330  -40.4030  -19.3670 C   0  0  0  0  0
   -5.5380  -40.1840  -15.7270 N   0  0  0  0  0
   -4.9782  -41.8502  -18.5427 H   0  0  0  0  0
    2.2740  -37.8580  -12.4148 H   0  0  0  0  0
    3.3511  -36.6237  -13.0002 H   0  0  0  0  0
    1.6389  -35.1242  -13.2476 H   0  0  0  0  0
    0.6532  -36.2426  -12.3490 H   0  0  0  0  0
    0.5296  -35.6367  -15.1972 H   0  0  0  0  0
   -0.5634  -36.6238  -14.2643 H   0  0  0  0  0
    0.1236  -39.1087  -18.6424 H   0  0  0  0  0
   -3.1169  -41.6291  -19.8108 H   0  0  0  0  0
   -2.4747  -35.2128  -15.1752 H   0  0  0  0  0
   -4.0817  -34.9047  -15.4906 H   0  0  0  0  0
   -3.5263  -34.9064  -13.9194 H   0  0  0  0  0
   -3.0197  -37.1179  -13.9925 H   0  0  0  0  0
   -3.6431  -37.1161  -15.7562 H   0  0  0  0  0
   -5.6866  -37.2709  -15.1526 H   0  0  0  0  0
   -5.3924  -36.3757  -13.5528 H   0  0  0  0  0
   -5.1213  -38.1923  -12.4540 H   0  0  0  0  0
   -4.3624  -39.0712  -13.8979 H   0  0  0  0  0
   -7.1378  -39.1062  -13.0173 H   0  0  0  0  0
   -8.6655  -42.3342  -16.1312 H   0  0  0  0  0
   -3.3811  -39.4593  -16.1350 H   0  0  0  0  0
   -1.4291  -37.4887  -16.0362 H   0  0  0  0  0
    2.7267  -38.8084  -14.4615 H   0  0  0  0  0
    3.1377  -37.2802  -15.1968 H   0  0  0  0  0
   -0.9029  -40.6739  -20.2801 H   0  0  0  0  0
  1  2  1  0  0  0
 20  1  1  0  0  0
  2  9  4  0  0  0
  2 21  4  0  0  0
  3  8  4  0  0  0
 21  3  4  0  0  0
  3 22  1  0  0  0
 22  4  1  0  0  0
  4 23  1  0  0  0
  4 25  2  0  0  0
  6  5  1  0  0  0
  5 24  1  0  0  0
  7  6  1  0  0  0
 23  7  1  0  0  0
 26  8  4  0  0  0
  9 26  4  0  0  0
 11 10  1  0  0  0
 12 11  1  0  0  0
 13 12  1  0  0  0
 14 13  1  0  0  0
 15 14  1  0  0  0
 16 15  4  0  0  0
 15 27  4  0  0  0
 16 17  1  0  0  0
 18 16  4  0  0  0
 19 18  4  0  0  0
 19 20  4  0  0  0
 20 27  4  0  0  0
 23 24  1  0  0  0
  1 28  1  0  0  0
  5 29  1  0  0  0
  5 30  1  0  0  0
  6 31  1  0  0  0
  6 32  1  0  0  0
  7 33  1  0  0  0
  7 34  1  0  0  0
  8 35  1  0  0  0
  9 36  1  0  0  0
 10 37  1  0  0  0
 10 38  1  0  0  0
 10 39  1  0  0  0
 11 40  1  0  0  0
 11 41  1  0  0  0
 12 42  1  0  0  0
 12 43  1  0  0  0
 13 44  1  0  0  0
 13 45  1  0  0  0
 14 46  1  0  0  0
 18 47  1  0  0  0
 21 48  1  0  0  0
 22 49  1  0  0  0
 24 50  1  0  0  0
 24 51  1  0  0  0
 26 52  1  0  0  0
M  END
$$$$
