3iof_ligand
  -I-interpret- 

 39 39  0  0  0  0  0  0  0  0999 V2000
    3.5910   48.7810   48.7590 C   0  0  0  0  0
    5.1610   50.8020   47.7220 O   0  0  0  0  0
    5.1510   49.2880   48.2010 P   0  0  0  0  0
    3.5750   45.3880   46.8610 S   0  0  0  0  0
    3.2080   47.3310   48.8720 C   0  0  0  0  0
    1.9250   47.0810   49.3540 C   0  0  0  0  0
    1.0520   48.1170   49.7120 C   0  0  0  0  0
    1.4290   49.4490   49.5980 C   0  0  0  0  0
    2.6950   49.7780   49.1200 C   0  0  0  0  0
    4.0700   46.1180   48.4740 C   0  0  0  0  0
    6.8870   51.3010   50.3660 C   0  0  0  0  0
    7.4760   46.6310   46.7740 C   0  0  0  0  0
    5.7420   48.2740   47.1100 O   0  0  0  0  0
    6.1360   49.1910   49.4500 O   0  0  0  0  0
    5.9190   50.1240   50.5190 C   0  0  0  0  0
    7.1470   48.1170   46.8510 C   0  0  0  0  0
    6.0580   49.3830   51.8450 C   0  0  0  0  0
    7.4310   48.8370   45.5490 C   0  0  0  0  0
    4.3605   44.3506   46.5860 H   0  0  0  0  0
    1.5903   46.0487   49.4557 H   0  0  0  0  0
    0.0581   47.8729   50.0871 H   0  0  0  0  0
    0.7330   50.2379   49.8831 H   0  0  0  0  0
    2.9842   50.8250   49.0288 H   0  0  0  0  0
    5.1017   46.4578   48.3833 H   0  0  0  0  0
    3.9418   45.3526   49.2394 H   0  0  0  0  0
    7.9125   50.9336   50.4034 H   0  0  0  0  0
    6.7106   51.7929   49.4094 H   0  0  0  0  0
    6.7244   52.0113   51.1767 H   0  0  0  0  0
    7.2212   46.1542   47.7205 H   0  0  0  0  0
    6.9005   46.1740   45.9690 H   0  0  0  0  0
    8.5408   46.5056   46.5776 H   0  0  0  0  0
    4.9144   50.5460   50.4907 H   0  0  0  0  0
    7.7682   48.5395   47.6407 H   0  0  0  0  0
    7.0691   48.9856   51.9334 H   0  0  0  0  0
    5.8639   50.0721   52.6669 H   0  0  0  0  0
    5.3399   48.5636   51.8789 H   0  0  0  0  0
    8.4882   48.7370   45.3031 H   0  0  0  0  0
    6.8286   48.3981   44.7537 H   0  0  0  0  0
    7.1799   49.8922   45.6566 H   0  0  0  0  0
  3  1  1  0  0  0
  1  5  4  0  0  0
  1  9  4  0  0  0
  3  2  2  0  0  0
  3 13  1  0  0  0
 14  3  1  0  0  0
 10  4  1  0  0  0
  5  6  4  0  0  0
  5 10  1  0  0  0
  6  7  4  0  0  0
  8  7  4  0  0  0
  9  8  4  0  0  0
 15 11  1  0  0  0
 16 12  1  0  0  0
 13 16  1  0  0  0
 14 15  1  0  0  0
 15 17  1  0  0  0
 16 18  1  0  0  0
  4 19  1  0  0  0
  6 20  1  0  0  0
  7 21  1  0  0  0
  8 22  1  0  0  0
  9 23  1  0  0  0
 10 24  1  0  0  0
 10 25  1  0  0  0
 11 26  1  0  0  0
 11 27  1  0  0  0
 11 28  1  0  0  0
 12 29  1  0  0  0
 12 30  1  0  0  0
 12 31  1  0  0  0
 15 32  1  0  0  0
 16 33  1  0  0  0
 17 34  1  0  0  0
 17 35  1  0  0  0
 17 36  1  0  0  0
 18 37  1  0  0  0
 18 38  1  0  0  0
 18 39  1  0  0  0
M  END
$$$$
