3di6_ligand
  -I-interpret- 

 35 37  0  0  0  0  0  0  0  0999 V2000
   48.6610   62.2320   21.2910 C   0  0  0  0  0
   48.3150   60.9520   20.8780 C   0  0  0  0  0
   47.9040   60.7240   19.5700 C   0  0  0  0  0
   47.8330   61.7730   18.6660 C   0  0  0  0  0
   48.1790   63.0540   19.0830 C   0  0  0  0  0
   48.5900   63.2800   20.3900 C   0  0  0  0  0
   48.1170   64.1040   18.2300 O   0  0  0  0  0
   48.5460   63.9850   16.9560 C   0  0  0  0  0
   47.6240   63.9640   15.9320 C   0  0  0  0  0
   48.0140   63.8380   14.6030 C   0  0  0  0  0
   49.3680   63.7360   14.3290 C   0  0  0  0  0
   50.3040   63.7530   15.3610 C   0  0  0  0  0
   49.8940   63.8900   16.6800 C   0  0  0  0  0
   51.7710   63.6660   15.0450 C   0  0  0  0  0
   45.9680   64.0980   16.3830 Cl  0  0  0  0  0
   50.7650   63.9150   17.7120 F   0  0  0  0  0
   52.1560   65.1050   14.7970 C   0  0  0  0  0
   52.7750   65.8640   15.8140 C   0  0  0  0  0
   53.0870   67.1690   15.5460 C   0  0  0  0  0
   52.7500   67.6670   14.2640 C   0  0  0  0  0
   52.1520   66.8670   13.3600 N   0  0  0  0  0
   51.8730   65.6470   13.6340 N   0  0  0  0  0
   53.0010   68.8170   13.9570 O   0  0  0  0  0
   48.9858   62.4097   22.3162 H   0  0  0  0  0
   48.3660   60.1222   21.5830 H   0  0  0  0  0
   47.6363   59.7159   19.2534 H   0  0  0  0  0
   47.5097   61.5957   17.6402 H   0  0  0  0  0
   48.8580   64.2876   20.7078 H   0  0  0  0  0
   47.2762   63.8200   13.8009 H   0  0  0  0  0
   49.7043   63.6416   13.2965 H   0  0  0  0  0
   51.9799   63.0215   14.1911 H   0  0  0  0  0
   52.3480   63.2087   15.8488 H   0  0  0  0  0
   52.9981   65.4227   16.7854 H   0  0  0  0  0
   54.1732   67.2321   15.6109 H   0  0  0  0  0
   52.5087   67.7622   16.2544 H   0  0  0  0  0
  1  2  4  0  0  0
  1  6  4  0  0  0
  2  3  4  0  0  0
  3  4  4  0  0  0
  4  5  4  0  0  0
  5  6  4  0  0  0
  5  7  1  0  0  0
  7  8  1  0  0  0
  8  9  4  0  0  0
  8 13  4  0  0  0
  9 10  4  0  0  0
  9 15  1  0  0  0
 10 11  4  0  0  0
 11 12  4  0  0  0
 12 13  4  0  0  0
 12 14  1  0  0  0
 13 16  1  0  0  0
 14 17  1  0  0  0
 17 18  2  0  0  0
 17 22  1  0  0  0
 18 19  1  0  0  0
 19 20  1  0  0  0
 20 21  1  0  0  0
 20 23  2  0  0  0
 21 22  2  0  0  0
  1 24  1  0  0  0
  2 25  1  0  0  0
  3 26  1  0  0  0
  4 27  1  0  0  0
  6 28  1  0  0  0
 10 29  1  0  0  0
 11 30  1  0  0  0
 14 31  1  0  0  0
 14 32  1  0  0  0
 18 33  1  0  0  0
 19 34  1  0  0  0
 19 35  1  0  0  0
M  END
$$$$
