1xog_ligand
  -I-interpret- 

 44 44  0  0  0  0  0  0  0  0999 V2000
   24.4830   16.4930   63.0060 C   0  0  0  0  0
   25.3620   17.6270   62.4610 C   0  0  0  0  0
   25.4500   18.5300   63.5570 O   0  0  0  0  0
   24.3470   18.3540   64.4150 C   0  0  0  0  0
   23.4660   17.2780   63.7970 C   0  0  0  0  0
   23.5920   19.6620   64.6450 C   0  0  0  0  0
   22.6040   19.6340   65.3560 O   0  0  0  0  0
   24.0330   20.6860   64.0940 O   0  0  0  0  0
   26.8100   16.3090   60.9210 N   0  0  0  0  0
   27.1940   15.0070   61.0790 C   0  0  0  0  0
   27.0930   14.1490   59.8070 C   0  0  0  0  0
   27.5780   14.5440   62.1360 O   0  0  0  0  0
   26.8220   17.2870   62.0190 C   0  0  0  0  0
   27.4680   18.5960   61.5060 C   0  0  0  0  0
   28.7780   19.1620   62.1010 C   0  0  0  0  0
   29.0500   20.4490   61.3160 C   0  0  0  0  0
   28.6970   19.5270   63.6070 C   0  0  0  0  0
   23.7800   15.6740   61.8930 C   0  0  0  0  0
   23.2170   16.1670   60.9490 O   0  0  0  0  0
   23.8690   14.3570   62.1030 O   0  0  0  0  0
   23.2740   13.4440   61.1790 C   0  0  0  0  0
   25.0486   15.7478   63.5654 H   0  0  0  0  0
   24.8989   17.9790   61.5392 H   0  0  0  0  0
   24.6789   18.0403   65.4047 H   0  0  0  0  0
   22.9197   16.6817   64.5278 H   0  0  0  0  0
   22.6466   17.6708   63.1951 H   0  0  0  0  0
   24.8168   20.4627   63.5867 H   0  0  0  0  0
   26.5008   16.6166   59.9989 H   0  0  0  0  0
   28.0775   13.7525   59.5586 H   0  0  0  0  0
   26.4011   13.3248   59.9802 H   0  0  0  0  0
   26.7291   14.7636   58.9837 H   0  0  0  0  0
   27.3758   16.8665   62.8584 H   0  0  0  0  0
   26.7281   19.3572   61.7536 H   0  0  0  0  0
   27.7394   18.3580   60.4775 H   0  0  0  0  0
   29.5535   18.4001   62.0223 H   0  0  0  0  0
   29.1590   20.2115   60.2578 H   0  0  0  0  0
   28.2166   21.1384   61.4510 H   0  0  0  0  0
   29.9673   20.9097   61.6826 H   0  0  0  0  0
   27.9279   20.2851   63.7550 H   0  0  0  0  0
   28.4462   18.6359   64.1825 H   0  0  0  0  0
   29.6602   19.9155   63.9377 H   0  0  0  0  0
   22.2015   13.6308   61.1252 H   0  0  0  0  0
   23.7185   13.5848   60.1938 H   0  0  0  0  0
   23.4497   12.4223   61.5156 H   0  0  0  0  0
  2  1  1  0  0  0
  1  5  1  0  0  0
  1 18  1  0  0  0
  2  3  1  0  0  0
 13  2  1  0  0  0
  3  4  1  0  0  0
  4  5  1  0  0  0
  4  6  1  0  0  0
  6  7  2  0  0  0
  6  8  1  0  0  0
  9 10  1  0  0  0
  9 13  1  0  0  0
 10 11  1  0  0  0
 10 12  2  0  0  0
 13 14  1  0  0  0
 14 15  1  0  0  0
 15 16  1  0  0  0
 15 17  1  0  0  0
 18 19  2  0  0  0
 18 20  1  0  0  0
 20 21  1  0  0  0
  1 22  1  0  0  0
  2 23  1  0  0  0
  4 24  1  0  0  0
  5 25  1  0  0  0
  5 26  1  0  0  0
  8 27  1  0  0  0
  9 28  1  0  0  0
 11 29  1  0  0  0
 11 30  1  0  0  0
 11 31  1  0  0  0
 13 32  1  0  0  0
 14 33  1  0  0  0
 14 34  1  0  0  0
 15 35  1  0  0  0
 16 36  1  0  0  0
 16 37  1  0  0  0
 16 38  1  0  0  0
 17 39  1  0  0  0
 17 40  1  0  0  0
 17 41  1  0  0  0
 21 42  1  0  0  0
 21 43  1  0  0  0
 21 44  1  0  0  0
M  END
$$$$
