3oy8_ligand
  -I-interpret- 

 46 46  0  0  0  0  0  0  0  0999 V2000
   23.3490    0.1910   17.9290 C   0  0  0  0  0
   23.9110    1.4600   17.2830 C   0  0  0  0  0
   23.1930    2.6990   17.8260 C   0  0  0  0  0
   21.6770    2.5290   17.7030 C   0  0  0  0  0
   21.2560    1.2360   18.4100 C   0  0  0  0  0
   19.7530    1.0050   18.3310 C   0  0  0  0  0
   25.2960    1.5570   17.5260 O   0  0  0  0  0
   23.6200    3.8570   17.1440 O   0  0  0  0  0
   21.3080    2.4860   16.3340 O   0  0  0  0  0
   21.9300    0.1400   17.8240 O   0  0  0  0  0
   19.4270   -0.1960   18.9850 O   0  0  0  0  0
   23.2520   -5.6550   16.3750 C   0  0  0  0  0
   23.4320   -4.6380   17.4670 C   0  0  0  0  0
   23.6630   -3.2390   16.8770 C   0  0  0  0  0
   23.9880   -2.1900   17.9510 C   0  0  0  0  0
   25.3480   -2.4370   18.6270 C   0  0  0  0  0
   26.5430   -2.0210   17.7670 C   0  0  0  0  0
   22.2350   -6.3810   16.4100 O   0  0  0  0  0
   24.1120   -5.7400   15.4680 O   0  0  0  0  0
   22.2740   -4.6320   18.3100 O   0  0  0  0  0
   22.5140   -2.8330   16.1230 O   0  0  0  0  0
   23.9340   -0.8740   17.3790 O   0  0  0  0  0
   25.3960   -1.7370   19.8780 O   0  0  0  0  0
   27.7520   -2.2400   18.5040 O   0  0  0  0  0
   23.5732    0.1973   18.9957 H   0  0  0  0  0
   23.7447    1.4046   16.2072 H   0  0  0  0  0
   23.4443    2.8125   18.8805 H   0  0  0  0  0
   21.1724    3.3738   18.1719 H   0  0  0  0  0
   21.5234    1.3305   19.4625 H   0  0  0  0  0
   19.4500    0.9428   17.2858 H   0  0  0  0  0
   19.2329    1.8331   18.8126 H   0  0  0  0  0
   25.7356    0.7760   17.1819 H   0  0  0  0  0
   24.5717    3.9464   17.2324 H   0  0  0  0  0
   21.5779    3.3014   15.9052 H   0  0  0  0  0
   18.4792   -0.3397   18.9341 H   0  0  0  0  0
   24.3090   -4.9069   18.0558 H   0  0  0  0  0
   24.5325   -3.3039   16.2229 H   0  0  0  0  0
   23.2338   -2.2768   18.7331 H   0  0  0  0  0
   25.4291   -3.5134   18.7782 H   0  0  0  0  0
   26.4581   -0.9655   17.5084 H   0  0  0  0  0
   26.5595   -2.6135   16.8522 H   0  0  0  0  0
   24.8076   -5.0978   15.6269 H   0  0  0  0  0
   22.3903   -3.9821   19.0069 H   0  0  0  0  0
   22.6653   -1.9583   15.7574 H   0  0  0  0  0
   26.2451   -1.8924   20.2980 H   0  0  0  0  0
   28.5042   -1.9800   17.9672 H   0  0  0  0  0
  1  2  1  0  0  0
  1 10  1  0  0  0
 22  1  1  0  0  0
  2  3  1  0  0  0
  2  7  1  0  0  0
  3  4  1  0  0  0
  3  8  1  0  0  0
  5  4  1  0  0  0
  4  9  1  0  0  0
  5  6  1  0  0  0
 10  5  1  0  0  0
  6 11  1  0  0  0
 13 12  1  0  0  0
 12 18  2  0  0  0
 12 19  1  0  0  0
 14 13  1  0  0  0
 13 20  1  0  0  0
 15 14  1  0  0  0
 14 21  1  0  0  0
 15 16  1  0  0  0
 15 22  1  0  0  0
 16 17  1  0  0  0
 16 23  1  0  0  0
 17 24  1  0  0  0
  1 25  1  0  0  0
  2 26  1  0  0  0
  3 27  1  0  0  0
  4 28  1  0  0  0
  5 29  1  0  0  0
  6 30  1  0  0  0
  6 31  1  0  0  0
  7 32  1  0  0  0
  8 33  1  0  0  0
  9 34  1  0  0  0
 11 35  1  0  0  0
 13 36  1  0  0  0
 14 37  1  0  0  0
 15 38  1  0  0  0
 16 39  1  0  0  0
 17 40  1  0  0  0
 17 41  1  0  0  0
 19 42  1  0  0  0
 20 43  1  0  0  0
 21 44  1  0  0  0
 23 45  1  0  0  0
 24 46  1  0  0  0
M  END
$$$$
