3dng_ligand
  -I-interpret- 

 54 58  0  0  0  0  0  0  0  0999 V2000
    9.2080   -4.3840   31.6160 C   0  0  0  0  0
    9.0470   -3.0500   31.2610 C   0  0  0  0  0
    8.8550   -2.0900   32.2610 N   0  0  0  0  0
    8.7630   -0.7460   31.8870 C   0  0  0  0  0
    8.5490    0.1250   32.7290 O   0  0  0  0  0
    8.9080   -0.4250   30.5420 C   0  0  0  0  0
    8.6610   -1.4260   29.5420 O   0  0  0  0  0
    9.0330   -2.6800   29.9200 C   0  0  0  0  0
    9.2260   -3.6470   28.9380 C   0  0  0  0  0
    9.4020   -4.9790   29.2940 C   0  0  0  0  0
    9.3860   -5.3520   30.6340 C   0  0  0  0  0
    9.5610   -6.8180   31.0350 C   0  0  0  0  0
    9.6780   -7.6380   29.8210 N   0  0  0  0  0
   10.8340   -7.7920   29.1810 C   0  0  0  0  0
   11.8880   -7.2450   29.5020 O   0  0  0  0  0
   10.7490   -8.6630   27.9280 C   0  0  0  0  0
    9.5640   -9.1650   27.5570 N   0  0  0  0  0
   11.8400   -8.7350   27.0560 N   0  0  0  0  0
   11.6630   -9.2950   25.7860 C   0  0  0  0  0
   12.6230   -9.3560   25.0190 O   0  0  0  0  0
   10.4140   -9.7760   25.4050 C   0  0  0  0  0
   10.0270  -10.2690   24.1580 C   0  0  0  0  0
    9.3840   -9.7010   26.3420 C   0  0  0  0  0
    7.9740  -10.3020   25.5820 S   0  0  0  0  0
    8.6810  -10.6240   24.0550 C   0  0  0  0  0
    8.0040  -11.1580   22.7910 C   0  0  0  0  0
    8.8500  -10.8460   21.5560 C   0  0  0  0  0
   10.2930  -11.2640   21.8420 C   0  0  0  0  0
   10.9070  -10.3530   22.9060 C   0  0  0  0  0
   11.0690   -8.9430   22.3320 C   0  0  0  0  0
   11.9610   -8.9220   21.0880 C   0  0  0  0  0
   11.6270   -8.2970   20.0830 O   0  0  0  0  0
   13.0970   -9.6060   21.1900 N   0  0  0  0  0
    9.1947   -4.6721   32.6671 H   0  0  0  0  0
    8.7838   -2.3647   33.2407 H   0  0  0  0  0
    9.9638   -0.1784   30.4300 H   0  0  0  0  0
    8.1533    0.3397   30.3585 H   0  0  0  0  0
    9.2392   -3.3591   27.8868 H   0  0  0  0  0
    9.5529   -5.7330   28.5214 H   0  0  0  0  0
    8.6987   -7.1446   31.6163 H   0  0  0  0  0
   10.4612   -6.9278   31.6398 H   0  0  0  0  0
    8.8465   -8.1038   29.4576 H   0  0  0  0  0
   12.7537   -8.3835   27.3424 H   0  0  0  0  0
    7.0303  -10.6801   22.6826 H   0  0  0  0  0
    7.8923  -12.2387   22.8793 H   0  0  0  0  0
    8.8073   -9.7797   21.3341 H   0  0  0  0  0
    8.4672  -11.3920   20.6938 H   0  0  0  0  0
   10.8759  -11.1835   20.9245 H   0  0  0  0  0
   10.3010  -12.2917   22.2051 H   0  0  0  0  0
   11.8719  -10.7747   23.1875 H   0  0  0  0  0
   11.5360   -8.3190   23.0939 H   0  0  0  0  0
   10.0822   -8.5781   22.0471 H   0  0  0  0  0
   13.7488   -9.6321   20.4058 H   0  0  0  0  0
   13.3165  -10.1045   22.0524 H   0  0  0  0  0
  1  2  4  0  0  0
  1 11  4  0  0  0
  2  3  1  0  0  0
  2  8  4  0  0  0
  3  4  1  0  0  0
  4  5  2  0  0  0
  4  6  1  0  0  0
  6  7  1  0  0  0
  7  8  1  0  0  0
  8  9  4  0  0  0
  9 10  4  0  0  0
 10 11  4  0  0  0
 11 12  1  0  0  0
 12 13  1  0  0  0
 13 14  1  0  0  0
 14 15  2  0  0  0
 14 16  1  0  0  0
 16 17  2  0  0  0
 16 18  1  0  0  0
 17 23  1  0  0  0
 18 19  1  0  0  0
 19 20  2  0  0  0
 19 21  1  0  0  0
 21 22  4  0  0  0
 21 23  4  0  0  0
 22 25  4  0  0  0
 22 29  1  0  0  0
 23 24  4  0  0  0
 24 25  4  0  0  0
 25 26  1  0  0  0
 26 27  1  0  0  0
 27 28  1  0  0  0
 28 29  1  0  0  0
 29 30  1  0  0  0
 30 31  1  0  0  0
 31 32  2  0  0  0
 31 33  1  0  0  0
  1 34  1  0  0  0
  3 35  1  0  0  0
  6 36  1  0  0  0
  6 37  1  0  0  0
  9 38  1  0  0  0
 10 39  1  0  0  0
 12 40  1  0  0  0
 12 41  1  0  0  0
 13 42  1  0  0  0
 18 43  1  0  0  0
 26 44  1  0  0  0
 26 45  1  0  0  0
 27 46  1  0  0  0
 27 47  1  0  0  0
 28 48  1  0  0  0
 28 49  1  0  0  0
 29 50  1  0  0  0
 30 51  1  0  0  0
 30 52  1  0  0  0
 33 53  1  0  0  0
 33 54  1  0  0  0
M  END
$$$$
