4ng9_ligand
  -I-interpret- 

 73 76  0  0  0  0  0  0  0  0999 V2000
    5.1270   36.2720   24.8080 C   0  0  0  0  0
    5.7750   37.1000   25.7570 C   0  0  0  0  0
    7.1530   38.2490   24.1430 C   0  0  0  0  0
    3.7870   35.9300   25.0210 C   0  0  0  0  0
    3.0630   36.4330   26.1760 C   0  0  0  0  0
    3.7490   37.2520   27.1230 C   0  0  0  0  0
    5.1000   37.5730   26.9150 C   0  0  0  0  0
    9.6220   33.6090   27.2470 C   0  0  0  0  0
    2.8490   38.6080   21.0260 C   0  0  0  0  0
    0.7740   36.5460   27.2120 C   0  0  0  0  0
    2.7950   38.8070   22.4270 C   0  0  0  0  0
    6.5840   39.5000   24.1610 N   0  0  0  0  0
    9.6950   33.5190   31.0160 N   0  0  0  0  0
    9.0770   34.7000   31.2740 C   0  0  0  0  0
    8.5530   35.5480   30.3010 C   0  0  0  0  0
    8.7080   35.1790   28.9300 C   0  0  0  0  0
    9.3890   33.9460   28.6050 C   0  0  0  0  0
    9.8290   33.1210   29.7130 C   0  0  0  0  0
    8.2210   36.0290   27.8800 C   0  0  0  0  0
    8.4460   35.6370   26.5430 C   0  0  0  0  0
    9.1770   34.4130   26.2510 C   0  0  0  0  0
   10.3420   31.8370   29.5270 N   0  0  0  0  0
    8.0320   36.3440   25.4060 N   0  0  0  0  0
    7.1950   37.5330   25.4940 C   0  0  0  0  0
    7.6240   37.7380   23.1190 O   0  0  0  0  0
    1.7090   36.0400   26.2310 O   0  0  0  0  0
    3.1100   35.0230   24.2330 O   0  0  0  0  0
    3.5860   34.7810   22.9200 C   0  0  0  0  0
    2.8830   33.6710   22.4360 C   0  0  0  0  0
   -0.5940   36.4200   26.6050 C   0  0  0  0  0
    0.9200   35.7800   28.5000 C   0  0  0  0  0
    6.3650   40.2760   22.9610 C   0  0  0  0  0
    5.1470   39.6200   22.2970 C   0  0  0  0  0
    3.9790   39.3070   23.0470 C   0  0  0  0  0
    4.0020   38.8870   20.2820 C   0  0  0  0  0
    5.1510   39.3900   20.9180 C   0  0  0  0  0
    1.3440   38.5330   23.2980 S   0  0  0  0  0
    1.5810   38.7720   24.6900 O   0  0  0  0  0
    0.3170   39.2620   22.6290 O   0  0  0  0  0
    0.9500   36.9650   23.0940 N   0  0  0  0  0
    5.6611   35.9087   23.9300 H   0  0  0  0  0
    3.2265   37.6263   28.0033 H   0  0  0  0  0
    5.6320   38.1859   27.6427 H   0  0  0  0  0
   10.1637   32.6953   27.0024 H   0  0  0  0  0
    1.9670   38.2264   20.5116 H   0  0  0  0  0
    0.9596   37.5902   27.4634 H   0  0  0  0  0
    6.3047   39.8973   25.0580 H   0  0  0  0  0
    8.9843   35.0062   32.3160 H   0  0  0  0  0
    8.0387   36.4681   30.5784 H   0  0  0  0  0
    7.6911   36.9534   28.1097 H   0  0  0  0  0
    9.3698   34.1383   25.2139 H   0  0  0  0  0
   10.5886   31.2644   30.3343 H   0  0  0  0  0
   10.4704   31.4708   28.5837 H   0  0  0  0  0
    8.3265   36.0152   24.4865 H   0  0  0  0  0
    7.5960   38.1784   26.2755 H   0  0  0  0  0
    4.6590   34.5895   22.9248 H   0  0  0  0  0
    3.4263   35.6504   22.2823 H   0  0  0  0  0
    3.0714   32.8134   23.0818 H   0  0  0  0  0
    1.8160   33.8937   22.4276 H   0  0  0  0  0
    3.2163   33.4449   21.4231 H   0  0  0  0  0
   -0.6380   37.0057   25.6868 H   0  0  0  0  0
   -0.7950   35.3727   26.3795 H   0  0  0  0  0
   -1.3384   36.7905   27.3098 H   0  0  0  0  0
    0.7165   34.7246   28.3187 H   0  0  0  0  0
    1.9362   35.8959   28.8770 H   0  0  0  0  0
    0.2127   36.1669   29.2335 H   0  0  0  0  0
    7.2375   40.2735   22.3077 H   0  0  0  0  0
    6.1925   41.3295   23.1812 H   0  0  0  0  0
    3.9890   39.4535   24.1271 H   0  0  0  0  0
    4.0090   38.7137   19.2059 H   0  0  0  0  0
    6.0470   39.6011   20.3343 H   0  0  0  0  0
    0.9084   36.3406   23.8995 H   0  0  0  0  0
    0.7450   36.6079   22.1608 H   0  0  0  0  0
  2  1  4  0  0  0
  1  4  4  0  0  0
  2  7  4  0  0  0
 24  2  1  0  0  0
 12  3  1  0  0  0
  3 24  1  0  0  0
  3 25  2  0  0  0
  4  5  4  0  0  0
  4 27  1  0  0  0
  6  5  4  0  0  0
  5 26  1  0  0  0
  7  6  4  0  0  0
  8 17  4  0  0  0
 21  8  4  0  0  0
 11  9  4  0  0  0
  9 35  4  0  0  0
 26 10  1  0  0  0
 10 30  1  0  0  0
 10 31  1  0  0  0
 34 11  4  0  0  0
 11 37  1  0  0  0
 32 12  1  0  0  0
 14 13  4  0  0  0
 18 13  4  0  0  0
 15 14  4  0  0  0
 16 15  4  0  0  0
 16 17  4  0  0  0
 19 16  4  0  0  0
 17 18  4  0  0  0
 18 22  1  0  0  0
 20 19  4  0  0  0
 20 21  4  0  0  0
 23 20  1  0  0  0
 24 23  1  0  0  0
 27 28  1  0  0  0
 28 29  1  0  0  0
 33 32  1  0  0  0
 33 34  4  0  0  0
 33 36  4  0  0  0
 35 36  4  0  0  0
 37 38  2  0  0  0
 37 39  2  0  0  0
 37 40  1  0  0  0
  1 41  1  0  0  0
  6 42  1  0  0  0
  7 43  1  0  0  0
  8 44  1  0  0  0
  9 45  1  0  0  0
 10 46  1  0  0  0
 12 47  1  0  0  0
 14 48  1  0  0  0
 15 49  1  0  0  0
 19 50  1  0  0  0
 21 51  1  0  0  0
 22 52  1  0  0  0
 22 53  1  0  0  0
 23 54  1  0  0  0
 24 55  1  0  0  0
 28 56  1  0  0  0
 28 57  1  0  0  0
 29 58  1  0  0  0
 29 59  1  0  0  0
 29 60  1  0  0  0
 30 61  1  0  0  0
 30 62  1  0  0  0
 30 63  1  0  0  0
 31 64  1  0  0  0
 31 65  1  0  0  0
 31 66  1  0  0  0
 32 67  1  0  0  0
 32 68  1  0  0  0
 34 69  1  0  0  0
 35 70  1  0  0  0
 36 71  1  0  0  0
 40 72  1  0  0  0
 40 73  1  0  0  0
M  END
$$$$
