6ilq_ligand
  -I-interpret- 

 78 81  0  0  0  0  0  0  0  0999 V2000
  -24.8880  -19.5090    5.4930 C   0  0  0  0  0
  -24.9950  -21.3140    3.9930 C   0  0  0  0  0
  -24.0020  -17.7190    7.9170 C   0  0  0  0  0
  -23.3150  -14.6150    8.8880 C   0  0  0  0  0
  -23.2410  -13.2330    8.8120 C   0  0  0  0  0
  -22.0620  -12.5870    9.1390 C   0  0  0  0  0
  -21.0410  -14.6840    9.6520 C   0  0  0  0  0
  -21.2300  -10.4910   10.1280 C   0  0  0  0  0
  -21.4980   -8.3410    9.1300 C   0  0  0  0  0
  -22.4530  -20.5280   13.8930 C   0  0  0  0  0
  -22.7980  -19.0540   13.6720 C   0  0  0  0  0
  -23.9710  -18.8640   12.7130 C   0  0  0  0  0
  -23.8170  -17.6180   11.8490 C   0  0  0  0  0
  -24.3310  -17.8790   10.4420 C   0  0  0  0  0
  -26.1280  -18.7920    8.9030 C   0  0  0  0  0
  -25.3110  -18.3870    7.7310 C   0  0  0  0  0
  -25.8210  -18.6480    6.3250 C   0  0  0  0  0
  -26.1320  -22.2850    3.6720 C   0  0  0  0  0
  -22.2310  -16.8430    9.4290 C   0  0  0  0  0
  -22.2120  -15.3280    9.3150 C   0  0  0  0  0
  -20.9710  -13.3130    9.5700 C   0  0  0  0  0
  -21.9070  -11.0750    9.0720 C   0  0  0  0  0
  -21.0200   -9.1280   10.1660 C   0  0  0  0  0
  -22.1740   -8.9210    8.0670 C   0  0  0  0  0
  -22.3940  -10.2900    8.0190 C   0  0  0  0  0
  -23.1080  -10.8550    6.7670 C   0  0  0  0  0
  -23.5710  -12.2250    4.9140 C   0  0  0  0  0
  -27.4610  -19.4780    8.6400 C   0  0  0  0  0
  -28.4390  -19.2000    9.7750 C   0  0  0  0  0
  -27.2350  -20.9790    8.4900 C   0  0  0  0  0
  -25.6430  -18.5470   10.2570 N   0  0  0  0  0
  -23.5280  -17.4620    9.2570 N   0  0  0  0  0
  -24.2290  -10.3020    6.0450 N   0  3  0  0  0
  -22.7030  -12.0250    6.0520 N   0  0  0  0  0
  -23.9330  -19.0080    5.0010 O   0  0  0  0  0
  -25.1640  -20.8680    5.3070 O   0  0  0  0  0
  -23.3680  -17.3980    6.9720 O   0  0  0  0  0
  -24.5100  -11.1550    4.9160 O   0  0  0  0  0
  -23.5110  -13.1220    4.1370 O   0  0  0  0  0
  -25.0156  -20.4698    3.3038 H   0  0  0  0  0
  -24.0323  -21.8139    3.8864 H   0  0  0  0  0
  -24.2338  -15.1334    8.6137 H   0  0  0  0  0
  -24.1100  -12.6562    8.4952 H   0  0  0  0  0
  -20.1751  -15.2582    9.9817 H   0  0  0  0  0
  -20.8579  -11.1157   10.9401 H   0  0  0  0  0
  -21.3420   -7.2624    9.1508 H   0  0  0  0  0
  -23.3169  -21.0430   14.3131 H   0  0  0  0  0
  -22.1847  -20.9839   12.9400 H   0  0  0  0  0
  -21.6124  -20.6036   14.5828 H   0  0  0  0  0
  -21.9258  -18.5666   13.2364 H   0  0  0  0  0
  -23.0787  -18.6268   14.6347 H   0  0  0  0  0
  -24.8783  -18.7533   13.3068 H   0  0  0  0  0
  -24.0111  -19.7302   12.0526 H   0  0  0  0  0
  -22.7614  -17.3515   11.7967 H   0  0  0  0  0
  -24.3940  -16.8063   12.2920 H   0  0  0  0  0
  -23.4762  -18.0099    9.7784 H   0  0  0  0  0
  -26.7675  -19.1813    6.4134 H   0  0  0  0  0
  -25.9106  -17.6838    5.8246 H   0  0  0  0  0
  -26.0949  -23.1271    4.3631 H   0  0  0  0  0
  -27.0874  -21.7705    3.7750 H   0  0  0  0  0
  -26.0212  -22.6471    2.6499 H   0  0  0  0  0
  -21.9030  -17.0833   10.4403 H   0  0  0  0  0
  -21.5959  -17.2234    8.6290 H   0  0  0  0  0
  -20.0507  -12.7984    9.8464 H   0  0  0  0  0
  -20.4846   -8.6755   11.0007 H   0  0  0  0  0
  -22.5385   -8.2908    7.2558 H   0  0  0  0  0
  -22.9386  -10.4841    7.7779 H   0  0  0  0  0
  -27.8905  -19.0836    7.7191 H   0  0  0  0  0
  -28.0250  -19.5771   10.7102 H   0  0  0  0  0
  -28.6035  -18.1255    9.8561 H   0  0  0  0  0
  -29.3855  -19.6992    9.5677 H   0  0  0  0  0
  -26.5590  -21.1617    7.6547 H   0  0  0  0  0
  -26.7962  -21.3725    9.4069 H   0  0  0  0  0
  -28.1889  -21.4717    8.3016 H   0  0  0  0  0
  -26.1977  -18.8307   11.0646 H   0  0  0  0  0
  -24.0063   -9.3600    5.7235 H   0  0  0  0  0
  -25.0451  -10.2502    6.6546 H   0  0  0  0  0
  -21.9201  -12.6272    6.3065 H   0  0  0  0  0
 17  1  1  0  0  0
  1 35  2  0  0  0
  1 36  1  0  0  0
  2 18  1  0  0  0
 36  2  1  0  0  0
  3 16  1  0  0  0
 32  3  1  0  0  0
  3 37  2  0  0  0
  4  5  4  0  0  0
 20  4  4  0  0  0
  5  6  4  0  0  0
 21  6  4  0  0  0
  6 22  1  0  0  0
 20  7  4  0  0  0
  7 21  4  0  0  0
 22  8  4  0  0  0
  8 23  4  0  0  0
 23  9  4  0  0  0
  9 24  4  0  0  0
 11 10  1  0  0  0
 12 11  1  0  0  0
 13 12  1  0  0  0
 14 13  1  0  0  0
 14 31  1  0  0  0
 32 14  1  0  0  0
 16 15  2  0  0  0
 15 28  1  0  0  0
 31 15  1  0  0  0
 16 17  1  0  0  0
 19 20  1  0  0  0
 19 32  1  0  0  0
 22 25  4  0  0  0
 24 25  4  0  0  0
 25 26  1  0  0  0
 26 33  1  0  0  0
 26 34  1  0  0  0
 34 27  1  0  0  0
 27 38  1  0  0  0
 27 39  2  0  0  0
 28 29  1  0  0  0
 28 30  1  0  0  0
 33 38  1  0  0  0
  2 40  1  0  0  0
  2 41  1  0  0  0
  4 42  1  0  0  0
  5 43  1  0  0  0
  7 44  1  0  0  0
  8 45  1  0  0  0
  9 46  1  0  0  0
 10 47  1  0  0  0
 10 48  1  0  0  0
 10 49  1  0  0  0
 11 50  1  0  0  0
 11 51  1  0  0  0
 12 52  1  0  0  0
 12 53  1  0  0  0
 13 54  1  0  0  0
 13 55  1  0  0  0
 14 56  1  0  0  0
 17 57  1  0  0  0
 17 58  1  0  0  0
 18 59  1  0  0  0
 18 60  1  0  0  0
 18 61  1  0  0  0
 19 62  1  0  0  0
 19 63  1  0  0  0
 21 64  1  0  0  0
 23 65  1  0  0  0
 24 66  1  0  0  0
 26 67  1  0  0  0
 28 68  1  0  0  0
 29 69  1  0  0  0
 29 70  1  0  0  0
 29 71  1  0  0  0
 30 72  1  0  0  0
 30 73  1  0  0  0
 30 74  1  0  0  0
 31 75  1  0  0  0
 33 76  1  0  0  0
 33 77  1  0  0  0
 34 78  1  0  0  0
M  END
$$$$
