3hzm_ligand
  -I-interpret- 

 30 30  0  0  0  0  0  0  0  0999 V2000
   -9.4510    0.5050    0.5850 C   0  0  0  0  0
  -10.4370    0.9080   -0.0920 O   0  0  0  0  0
   -9.4060   -0.5830    1.2020 O   0  0  0  0  0
   -8.2480    1.4380    0.7670 C   0  0  0  0  0
   -7.4100    0.9080    1.8170 O   0  0  0  0  0
   -7.4990    1.6220   -0.5710 C   0  0  0  0  0
   -6.3150    2.5770   -0.3650 C   0  0  0  0  0
   -5.6680    2.7720   -1.6420 O   0  0  0  0  0
   -6.8830    3.9120    0.1370 C   0  0  0  0  0
   -7.7830    4.4090   -0.8400 O   0  0  0  0  0
   -7.6670    3.6420    1.4190 C   0  0  0  0  0
   -8.7250    2.7220    1.2140 O   0  0  0  0  0
   -8.3270    4.9470    1.9160 C   0  0  0  0  0
   -7.3490    5.9720    2.1290 O   0  0  0  0  0
   -9.0660    4.6250    3.2310 C   0  0  0  0  0
   -9.7980    5.7730    3.7140 O   0  0  0  0  0
  -10.2349    1.7673   -0.4693 H   0  0  0  0  0
   -7.0727    0.0489    1.5528 H   0  0  0  0  0
   -8.1784    2.0394   -1.3142 H   0  0  0  0  0
   -7.1317    0.6563   -0.9184 H   0  0  0  0  0
   -5.5958    2.1804    0.3517 H   0  0  0  0  0
   -5.3146    1.9348   -1.9516 H   0  0  0  0  0
   -6.0819    4.6286    0.3184 H   0  0  0  0  0
   -8.1480    5.2451   -0.5413 H   0  0  0  0  0
   -6.9521    3.2388    2.1362 H   0  0  0  0  0
   -9.0237    5.3205    1.1656 H   0  0  0  0  0
   -7.7852    6.7699    2.4367 H   0  0  0  0  0
   -8.3299    4.3404    3.9829 H   0  0  0  0  0
   -9.7720    3.8159    3.0440 H   0  0  0  0  0
  -10.2468    5.5443    4.5312 H   0  0  0  0  0
  1  2  1  0  0  0
  1  3  2  0  0  0
  1  4  1  0  0  0
  4  5  1  0  0  0
  4  6  1  0  0  0
  4 12  1  0  0  0
  6  7  1  0  0  0
  7  8  1  0  0  0
  7  9  1  0  0  0
  9 10  1  0  0  0
  9 11  1  0  0  0
 11 12  1  0  0  0
 11 13  1  0  0  0
 13 14  1  0  0  0
 13 15  1  0  0  0
 15 16  1  0  0  0
  2 17  1  0  0  0
  5 18  1  0  0  0
  6 19  1  0  0  0
  6 20  1  0  0  0
  7 21  1  0  0  0
  8 22  1  0  0  0
  9 23  1  0  0  0
 10 24  1  0  0  0
 11 25  1  0  0  0
 13 26  1  0  0  0
 14 27  1  0  0  0
 15 28  1  0  0  0
 15 29  1  0  0  0
 16 30  1  0  0  0
M  END
$$$$
