4wci_ligand
  -I-interpret- 

159161  0  0  0  0  0  0  0  0999 V2000
    1.8630   20.2320  -15.1140 N   0  3  0  0  0
    0.4360   20.4460  -14.9110 C   0  0  0  0  0
   -0.2260   19.2670  -14.2030 C   0  0  0  0  0
   -0.2990   18.1690  -14.7500 O   0  0  0  0  0
   -0.2550   20.7060  -16.2510 C   0  0  0  0  0
    0.2200   21.9830  -16.9130 C   0  0  0  0  0
   -0.0520   23.0840  -16.4330 O   0  0  0  0  0
    0.9380   21.8430  -18.0220 N   0  0  0  0  0
   -0.7080   19.5050  -12.9870 N   0  0  0  0  0
   -1.3180   18.4520  -12.1840 C   0  0  0  0  0
   -2.8340   18.5550  -12.2130 C   0  0  0  0  0
   -3.4030   19.6580  -12.1830 O   0  0  0  0  0
   -0.8280   18.5170  -10.7380 C   0  0  0  0  0
    0.6810   18.3800  -10.5610 C   0  0  0  0  0
    1.0570   18.6070   -9.1080 C   0  0  0  0  0
    1.1500   17.0080  -11.0450 C   0  0  0  0  0
   -3.5040   17.4040  -12.2530 N   0  0  0  0  0
   -4.9650   17.4080  -12.2650 C   0  0  0  0  0
   -5.5350   17.6640  -10.8820 C   0  0  0  0  0
   -4.9220   17.3170   -9.8700 O   0  0  0  0  0
   -5.3120   15.9950  -12.7360 C   0  0  0  0  0
   -4.1660   15.1680  -12.2190 C   0  0  0  0  0
   -2.9470   16.0410  -12.3130 C   0  0  0  0  0
   -6.7050   18.2830  -10.8460 N   0  0  0  0  0
   -7.4770   18.3860   -9.6160 C   0  0  0  0  0
   -8.6290   17.3800   -9.6860 C   0  0  0  0  0
   -9.3380   17.3220  -10.6870 O   0  0  0  0  0
   -8.0180   19.8180   -9.4140 C   0  0  0  0  0
   -6.9270   20.7130   -9.1560 O   0  0  0  0  0
   -9.0070   19.8780   -8.2560 C   0  0  0  0  0
   -8.7920   16.5680   -8.6490 N   0  0  0  0  0
   -9.8330   15.5500   -8.6720 C   0  0  0  0  0
  -11.2080   16.2070   -8.6660 C   0  0  0  0  0
  -11.4470   17.1870   -7.9490 O   0  0  0  0  0
   -9.6750   14.5980   -7.4980 C   0  0  0  0  0
  -12.1140   15.6980   -9.5030 N   0  0  0  0  0
  -13.4610   16.2790   -9.5090 C   0  0  0  0  0
  -14.1740   16.0490   -8.1760 C   0  0  0  0  0
  -13.8570   15.0890   -7.4770 O   0  0  0  0  0
  -14.1660   15.5290  -10.6420 C   0  0  0  0  0
  -13.0960   14.8850  -11.4340 C   0  0  0  0  0
  -11.9710   14.6120  -10.4870 C   0  0  0  0  0
  -15.1070   16.9370   -7.8020 N   0  0  0  0  0
  -15.8400   16.6920   -6.5570 C   0  0  0  0  0
  -16.5870   15.3610   -6.5790 C   0  0  0  0  0
  -17.0370   14.9430   -7.6480 O   0  0  0  0  0
  -16.8290   17.8620   -6.4930 C   0  0  0  0  0
  -16.1710   18.9560   -7.2690 C   0  0  0  0  0
  -15.3790   18.2720   -8.3640 C   0  0  0  0  0
  -16.7180   14.7220   -5.4180 N   0  0  0  0  0
  -17.5730   13.5440   -5.2760 C   0  0  0  0  0
  -19.0410   13.9740   -5.2520 C   0  0  0  0  0
  -19.3640   15.1210   -4.9170 O   0  0  0  0  0
  -17.2630   12.7690   -3.9880 C   0  0  0  0  0
  -15.8490   12.2290   -3.8410 C   0  0  0  0  0
  -15.5360   11.1780   -4.8740 C   0  0  0  0  0
  -16.4850   10.0640   -4.8870 N   0  0  0  0  0
  -16.3740    8.9650   -4.1390 C   0  0  0  0  0
  -15.3670    8.8280   -3.2890 N   0  0  0  0  0
  -17.2830    8.0040   -4.2330 N   0  0  0  0  0
  -19.9350   13.0480   -5.5710 N   0  0  0  0  0
  -21.3650   13.3490   -5.5440 C   0  0  0  0  0
  -21.8480   13.6910   -4.1360 C   0  0  0  0  0
  -22.6120   14.6460   -3.9520 O   0  0  0  0  0
  -22.1680   12.1750   -6.1060 C   0  0  0  0  0
  -23.6240   12.5030   -6.3360 C   0  0  0  0  0
  -24.2430   11.5590   -7.3440 C   0  0  0  0  0
  -25.2780   12.2470   -8.0980 N   0  0  0  0  0
  -26.5370   12.3690   -7.6980 C   0  0  0  0  0
  -26.9300   11.8250   -6.5510 N   0  0  0  0  0
  -27.4010   13.0290   -8.4510 N   0  0  0  0  0
  -21.4170   12.9000   -3.1550 N   0  0  0  0  0
  -21.6030   13.2210   -1.7330 C   0  0  0  0  0
  -23.0210   13.6510   -1.3610 C   0  0  0  0  0
  -23.2210   14.7290   -0.7950 O   0  0  0  0  0
  -20.6190   14.3190   -1.3130 C   0  0  0  0  0
  -23.9850   12.9260   -1.6220 O   0  0  0  0  0
    2.3112   20.0600  -14.2140 H   0  0  0  0  0
    2.0014   19.4260  -15.7236 H   0  0  0  0  0
    2.2718   21.0607  -15.5459 H   0  0  0  0  0
    0.3265   21.3196  -14.2683 H   0  0  0  0  0
   -1.3244   20.8029  -16.0638 H   0  0  0  0  0
   -0.0197   19.8755  -16.9165 H   0  0  0  0  0
    1.2875   22.6673  -18.5108 H   0  0  0  0  0
    1.1398   20.9113  -18.3847 H   0  0  0  0  0
   -0.6495   20.4493  -12.6058 H   0  0  0  0  0
   -1.0213   17.4963  -12.6161 H   0  0  0  0  0
   -1.2836   17.6770  -10.2136 H   0  0  0  0  0
   -1.1011   19.5012  -10.3575 H   0  0  0  0  0
    1.1811   19.1374  -11.1646 H   0  0  0  0  0
    0.7498   19.6085   -8.8067 H   0  0  0  0  0
    0.5539   17.8682   -8.4842 H   0  0  0  0  0
    2.1363   18.5068   -8.9934 H   0  0  0  0  0
    0.6514   16.2302  -10.4667 H   0  0  0  0  0
    0.9031   16.8925  -12.1004 H   0  0  0  0  0
    2.2288   16.9264  -10.9118 H   0  0  0  0  0
   -5.3769   18.1934  -12.8987 H   0  0  0  0  0
   -5.4235   15.9284  -13.8182 H   0  0  0  0  0
   -6.2779   15.6535  -12.3639 H   0  0  0  0  0
   -4.0434   14.2559  -12.8030 H   0  0  0  0  0
   -4.3430   14.8477  -11.1923 H   0  0  0  0  0
   -2.2272   15.8454  -11.5181 H   0  0  0  0  0
   -2.3703   15.8619  -13.2204 H   0  0  0  0  0
   -7.0746   18.6980  -11.7013 H   0  0  0  0  0
   -6.8350   18.1622   -8.7640 H   0  0  0  0  0
   -8.5381   20.1154  -10.3246 H   0  0  0  0  0
   -7.2667   21.6021   -9.0309 H   0  0  0  0  0
   -9.8472   19.2151   -8.4628 H   0  0  0  0  0
   -8.5102   19.5617   -7.3388 H   0  0  0  0  0
   -9.3684   20.8999   -8.1411 H   0  0  0  0  0
   -8.1862   16.6573   -7.8333 H   0  0  0  0  0
   -9.7365   14.9674   -9.5882 H   0  0  0  0  0
   -8.7018   14.1105   -7.5556 H   0  0  0  0  0
   -9.7478   15.1578   -6.5656 H   0  0  0  0  0
  -10.4625   13.8452   -7.5338 H   0  0  0  0  0
  -13.4520   17.3597   -9.6505 H   0  0  0  0  0
  -14.7570   16.2081  -11.2565 H   0  0  0  0  0
  -14.8656   14.7905  -10.2505 H   0  0  0  0  0
  -12.7713   15.5317  -12.2491 H   0  0  0  0  0
  -13.4520   13.9626  -11.8928 H   0  0  0  0  0
  -12.0206   13.6196  -10.0388 H   0  0  0  0  0
  -10.9956   14.6015  -10.9735 H   0  0  0  0  0
  -15.1754   16.6309   -5.6952 H   0  0  0  0  0
  -17.0399   18.1611   -5.4663 H   0  0  0  0  0
  -17.8013   17.5964   -6.9081 H   0  0  0  0  0
  -15.5244   19.5588   -6.6314 H   0  0  0  0  0
  -16.9075   19.6436   -7.6848 H   0  0  0  0  0
  -15.9210   18.2272   -9.3086 H   0  0  0  0  0
  -14.4682   18.8119   -8.6230 H   0  0  0  0  0
  -16.2072   15.0641   -4.6041 H   0  0  0  0  0
  -17.3788   12.8910   -6.1268 H   0  0  0  0  0
  -17.9182   11.8980   -3.9961 H   0  0  0  0  0
  -17.4011   13.4767   -3.1706 H   0  0  0  0  0
  -15.7585   11.7747   -2.8543 H   0  0  0  0  0
  -15.1525   13.0566   -3.9749 H   0  0  0  0  0
  -14.5552   10.7675   -4.6341 H   0  0  0  0  0
  -15.5836   11.6578   -5.8516 H   0  0  0  0  0
  -17.2880   10.1327   -5.5122 H   0  0  0  0  0
  -14.6686    9.5663   -3.2025 H   0  0  0  0  0
  -17.2034    7.1682   -3.6537 H   0  0  0  0  0
  -18.0618    8.1006   -4.8846 H   0  0  0  0  0
  -19.6211   12.1150   -5.8383 H   0  0  0  0  0
  -21.5254   14.2261   -6.1710 H   0  0  0  0  0
  -22.1237   11.3663   -5.3765 H   0  0  0  0  0
  -21.7337   11.9102   -7.0700 H   0  0  0  0  0
  -23.6956   13.5202   -6.7212 H   0  0  0  0  0
  -24.1575   12.4025   -5.3908 H   0  0  0  0  0
  -24.6846   10.7122   -6.8186 H   0  0  0  0  0
  -23.4712   11.2100   -8.0300 H   0  0  0  0  0
  -25.0195   12.6630   -8.9927 H   0  0  0  0  0
  -27.9001   11.9159   -6.2494 H   0  0  0  0  0
  -26.2615   11.3165   -5.9722 H   0  0  0  0  0
  -27.0979   13.4407   -9.3337 H   0  0  0  0  0
  -20.9372   12.0342   -3.4012 H   0  0  0  0  0
  -21.4125   12.2917   -1.1962 H   0  0  0  0  0
  -19.5985   13.9712   -1.4732 H   0  0  0  0  0
  -20.7976   15.2130   -1.9104 H   0  0  0  0  0
  -20.7638   14.5507   -0.2578 H   0  0  0  0  0
  -23.6755   12.1288   -2.0582 H   0  0  0  0  0
  1  2  1  0  0  0
  2  3  1  0  0  0
  2  5  1  0  0  0
  3  4  2  0  0  0
  3  9  1  0  0  0
  5  6  1  0  0  0
  6  7  2  0  0  0
  6  8  1  0  0  0
  9 10  1  0  0  0
 10 11  1  0  0  0
 10 13  1  0  0  0
 11 12  2  0  0  0
 11 17  1  0  0  0
 13 14  1  0  0  0
 14 15  1  0  0  0
 14 16  1  0  0  0
 17 18  1  0  0  0
 17 23  1  0  0  0
 18 19  1  0  0  0
 18 21  1  0  0  0
 19 20  2  0  0  0
 19 24  1  0  0  0
 21 22  1  0  0  0
 22 23  1  0  0  0
 24 25  1  0  0  0
 25 26  1  0  0  0
 25 28  1  0  0  0
 26 27  2  0  0  0
 26 31  1  0  0  0
 28 29  1  0  0  0
 28 30  1  0  0  0
 31 32  1  0  0  0
 32 33  1  0  0  0
 32 35  1  0  0  0
 33 34  2  0  0  0
 33 36  1  0  0  0
 36 37  1  0  0  0
 36 42  1  0  0  0
 37 38  1  0  0  0
 37 40  1  0  0  0
 38 39  2  0  0  0
 38 43  1  0  0  0
 40 41  1  0  0  0
 41 42  1  0  0  0
 43 44  1  0  0  0
 43 49  1  0  0  0
 44 45  1  0  0  0
 44 47  1  0  0  0
 45 46  2  0  0  0
 45 50  1  0  0  0
 47 48  1  0  0  0
 48 49  1  0  0  0
 50 51  1  0  0  0
 51 52  1  0  0  0
 51 54  1  0  0  0
 52 53  2  0  0  0
 52 61  1  0  0  0
 54 55  1  0  0  0
 55 56  1  0  0  0
 56 57  1  0  0  0
 57 58  1  0  0  0
 58 59  2  0  0  0
 58 60  1  0  0  0
 61 62  1  0  0  0
 62 63  1  0  0  0
 62 65  1  0  0  0
 63 64  2  0  0  0
 63 72  1  0  0  0
 65 66  1  0  0  0
 66 67  1  0  0  0
 67 68  1  0  0  0
 68 69  1  0  0  0
 69 70  1  0  0  0
 69 71  2  0  0  0
 72 73  1  0  0  0
 73 74  1  0  0  0
 73 76  1  0  0  0
 74 75  2  0  0  0
 74 77  1  0  0  0
  1 78  1  0  0  0
  1 79  1  0  0  0
  1 80  1  0  0  0
  2 81  1  0  0  0
  5 82  1  0  0  0
  5 83  1  0  0  0
  8 84  1  0  0  0
  8 85  1  0  0  0
  9 86  1  0  0  0
 10 87  1  0  0  0
 13 88  1  0  0  0
 13 89  1  0  0  0
 14 90  1  0  0  0
 15 91  1  0  0  0
 15 92  1  0  0  0
 15 93  1  0  0  0
 16 94  1  0  0  0
 16 95  1  0  0  0
 16 96  1  0  0  0
 18 97  1  0  0  0
 21 98  1  0  0  0
 21 99  1  0  0  0
 22100  1  0  0  0
 22101  1  0  0  0
 23102  1  0  0  0
 23103  1  0  0  0
 24104  1  0  0  0
 25105  1  0  0  0
 28106  1  0  0  0
 29107  1  0  0  0
 30108  1  0  0  0
 30109  1  0  0  0
 30110  1  0  0  0
 31111  1  0  0  0
 32112  1  0  0  0
 35113  1  0  0  0
 35114  1  0  0  0
 35115  1  0  0  0
 37116  1  0  0  0
 40117  1  0  0  0
 40118  1  0  0  0
 41119  1  0  0  0
 41120  1  0  0  0
 42121  1  0  0  0
 42122  1  0  0  0
 44123  1  0  0  0
 47124  1  0  0  0
 47125  1  0  0  0
 48126  1  0  0  0
 48127  1  0  0  0
 49128  1  0  0  0
 49129  1  0  0  0
 50130  1  0  0  0
 51131  1  0  0  0
 54132  1  0  0  0
 54133  1  0  0  0
 55134  1  0  0  0
 55135  1  0  0  0
 56136  1  0  0  0
 56137  1  0  0  0
 57138  1  0  0  0
 59139  1  0  0  0
 60140  1  0  0  0
 60141  1  0  0  0
 61142  1  0  0  0
 62143  1  0  0  0
 65144  1  0  0  0
 65145  1  0  0  0
 66146  1  0  0  0
 66147  1  0  0  0
 67148  1  0  0  0
 67149  1  0  0  0
 68150  1  0  0  0
 70151  1  0  0  0
 70152  1  0  0  0
 71153  1  0  0  0
 72154  1  0  0  0
 73155  1  0  0  0
 76156  1  0  0  0
 76157  1  0  0  0
 76158  1  0  0  0
 77159  1  0  0  0
M  END
$$$$
