### 
### Created by X-TOOL on Mon Sep 10 21:13:24 2018
### 

@<TRIPOS>MOLECULE
4wci_ligand
  160   162     1     0     0
SMALL
GAST_HUCK


@<TRIPOS>ATOM
      1 N           1.8630   20.2320  -15.1140 N.4       1 ASN         0.2396
      2 CA          0.4360   20.4460  -14.9110 C.3       1 ASN         0.0818
      3 C          -0.2260   19.2670  -14.2030 C.2       1 ASN         0.2291
      4 O          -0.2990   18.1690  -14.7500 O.2       1 ASN        -0.3905
      5 CB         -0.2550   20.7060  -16.2510 C.3       1 ASN         0.0972
      6 CG          0.2200   21.9830  -16.9130 C.2       1 ASN         0.1813
      7 OD1        -0.0520   23.0840  -16.4330 O.2       1 ASN        -0.3969
      8 ND2         0.9380   21.8430  -18.0220 N.am      1 ASN        -0.3006
      9 N          -0.7080   19.5050  -12.9870 N.am      1 LEU        -0.2609
     10 CA         -1.3180   18.4520  -12.1840 C.3       1 LEU         0.1315
     11 C          -2.8340   18.5550  -12.2130 C.2       1 LEU         0.2064
     12 O          -3.4030   19.6580  -12.1830 O.2       1 LEU        -0.3942
     13 CB         -0.8280   18.5170  -10.7380 C.3       1 LEU        -0.0101
     14 CG          0.6810   18.3800  -10.5610 C.3       1 LEU        -0.0425
     15 CD1         1.0570   18.6070   -9.1080 C.3       1 LEU        -0.0625
     16 CD2         1.1500   17.0080  -11.0450 C.3       1 LEU        -0.0625
     17 N          -3.5040   17.4040  -12.2530 N.am      1 PRO        -0.2498
     18 CA         -4.9650   17.4080  -12.2650 C.3       1 PRO         0.1338
     19 C          -5.5350   17.6640  -10.8820 C.2       1 PRO         0.2042
     20 O          -4.9220   17.3170   -9.8700 O.2       1 PRO        -0.3944
     21 CB         -5.3120   15.9950  -12.7360 C.3       1 PRO        -0.0104
     22 CG         -4.1660   15.1680  -12.2190 C.3       1 PRO        -0.0281
     23 CD         -2.9470   16.0410  -12.3130 C.3       1 PRO         0.0369
     24 N          -6.7050   18.2830  -10.8460 N.am      1 THR        -0.2613
     25 CA         -7.4770   18.3860   -9.6160 C.3       1 THR         0.1565
     26 C          -8.6290   17.3800   -9.6860 C.2       1 THR         0.2065
     27 O          -9.3380   17.3220  -10.6870 O.2       1 THR        -0.3943
     28 CB         -8.0180   19.8180   -9.4140 C.3       1 THR         0.0924
     29 OG1        -6.9270   20.7130   -9.1560 O.3       1 THR        -0.3874
     30 CG2        -9.0070   19.8780   -8.2560 C.3       1 THR        -0.0346
     31 N          -8.7920   16.5680   -8.6490 N.am      1 ALA        -0.2639
     32 CA         -9.8330   15.5500   -8.6720 C.3       1 ALA         0.1284
     33 C         -11.2080   16.2070   -8.6660 C.2       1 ALA         0.2061
     34 O         -11.4470   17.1870   -7.9490 O.2       1 ALA        -0.3942
     35 CB         -9.6750   14.5980   -7.4980 C.3       1 ALA        -0.0244
     36 N         -12.1140   15.6980   -9.5030 N.am      1 PRO        -0.2498
     37 CA        -13.4610   16.2790   -9.5090 C.3       1 PRO         0.1340
     38 C         -14.1740   16.0490   -8.1760 C.2       1 PRO         0.2066
     39 O         -13.8570   15.0890   -7.4770 O.2       1 PRO        -0.3942
     40 CB        -14.1660   15.5290  -10.6420 C.3       1 PRO        -0.0104
     41 CG        -13.0960   14.8850  -11.4340 C.3       1 PRO        -0.0281
     42 CD        -11.9710   14.6120  -10.4870 C.3       1 PRO         0.0369
     43 N         -15.1070   16.9370   -7.8020 N.am      1 PRO        -0.2498
     44 CA        -15.8400   16.6920   -6.5570 C.3       1 PRO         0.1338
     45 C         -16.5870   15.3610   -6.5790 C.2       1 PRO         0.2041
     46 O         -17.0370   14.9430   -7.6480 O.2       1 PRO        -0.3944
     47 CB        -16.8290   17.8620   -6.4930 C.3       1 PRO        -0.0104
     48 CG        -16.1710   18.9560   -7.2690 C.3       1 PRO        -0.0281
     49 CD        -15.3790   18.2720   -8.3640 C.3       1 PRO         0.0369
     50 N         -16.7180   14.7220   -5.4180 N.am      1 ARG        -0.2637
     51 CA        -17.5730   13.5440   -5.2760 C.3       1 ARG         0.1311
     52 C         -19.0410   13.9740   -5.2520 C.2       1 ARG         0.2039
     53 O         -19.3640   15.1210   -4.9170 O.2       1 ARG        -0.3944
     54 CB        -17.2630   12.7690   -3.9880 C.3       1 ARG        -0.0092
     55 CG        -15.8490   12.2290   -3.8410 C.3       1 ARG        -0.0156
     56 CD        -15.5360   11.1780   -4.8740 C.3       1 ARG         0.0627
     57 NE        -16.4850   10.0640   -4.8870 N.pl3     1 ARG        -0.2723
     58 CZ        -16.3740    8.9650   -4.1390 C.cat     1 ARG         0.2882
     59 NH1       -15.3670    8.8280   -3.2890 N.pl3     1 ARG        -0.2849
     60 NH2       -17.2830    8.0040   -4.2330 N.pl3     1 ARG        -0.2849
     61 N         -19.9350   13.0480   -5.5710 N.am      1 ARG        -0.2637
     62 CA        -21.3650   13.3490   -5.5440 C.3       1 ARG         0.1310
     63 C         -21.8480   13.6910   -4.1360 C.2       1 ARG         0.2033
     64 O         -22.6120   14.6460   -3.9520 O.2       1 ARG        -0.3944
     65 CB        -22.1680   12.1750   -6.1060 C.3       1 ARG        -0.0092
     66 CG        -23.6240   12.5030   -6.3360 C.3       1 ARG        -0.0156
     67 CD        -24.2430   11.5590   -7.3440 C.3       1 ARG         0.0627
     68 NE        -25.2780   12.2470   -8.0980 N.pl3     1 ARG        -0.2723
     69 CZ        -26.5370   12.3690   -7.6980 C.cat     1 ARG         0.2882
     70 NH1       -26.9300   11.8250   -6.5510 N.pl3     1 ARG        -0.2849
     71 NH2       -27.4010   13.0290   -8.4510 N.pl3     1 ARG        -0.2849
     72 N         -21.4170   12.9000   -3.1550 N.am      1 ARG        -0.2698
     73 CA        -21.6030   13.2210   -1.7330 C.3       1 ARG         0.0916
     74 C         -23.0210   13.6510   -1.3610 C.2       1 ARG         0.0598
     75 O         -23.2210   14.7290   -0.7950 O.co2     1 ARG        -0.5666
     76 CB        -20.6190   14.3190   -1.3130 C.3       1 ARG        -0.0300
     77 OXT       -23.9850   12.9260   -1.6220 O.co2     1 ARG        -0.5666
     78 H1          2.2593   21.0315  -15.5828 H         1 ASN         0.2017
     79 H2          2.0024   19.4085  -15.6783 H         1 ASN         0.2017
     80 H3          2.3145   20.1081  -14.2214 H         1 ASN         0.2017
     81 H4          0.3125   21.3368  -14.2776 H         1 ASN         0.1125
     82 H5         -1.3391   20.7800  -16.0799 H         1 ASN         0.0585
     83 H6         -0.0469   19.8616  -16.9245 H         1 ASN         0.0585
     84 H7          1.2787   22.6512  -18.5024 H         1 ASN         0.1814
     85 H8          1.1378   20.9295  -18.3763 H         1 ASN         0.1814
     86 H9         -0.6506   20.4308  -12.6132 H         1 LEU         0.1885
     87 H10        -1.0254   17.4806  -12.6092 H         1 LEU         0.0800
     88 H11        -1.3124   17.7043  -10.1769 H         1 LEU         0.0315
     89 H12        -1.1341   19.4862  -10.3174 H         1 LEU         0.0315
     90 H13         1.1761   19.1496  -11.1715 H         1 LEU         0.0298
     91 H14         2.1461   18.5061   -8.9911 H         1 LEU         0.0232
     92 H15         0.5500   17.8619   -8.4773 H         1 LEU         0.0232
     93 H16         0.7475   19.6174   -8.8027 H         1 LEU         0.0232
     94 H17         0.8637   16.8733  -12.0985 H         1 LEU         0.0232
     95 H18         0.6799   16.2233  -10.4341 H         1 LEU         0.0232
     96 H19         2.2438   16.9401  -10.9508 H         1 LEU         0.0232
     97 H20        -5.3495   18.1645  -12.9649 H         1 PRO         0.0802
     98 H21        -5.3685   15.9480  -13.8335 H         1 PRO         0.0313
     99 H22        -6.2666   15.6590  -12.3049 H         1 PRO         0.0313
    100 H23        -4.0378   14.2657  -12.8350 H         1 PRO         0.0287
    101 H24        -4.3468   14.8760  -11.1740 H         1 PRO         0.0287
    102 H25        -2.2638   15.8566  -11.4708 H         1 PRO         0.0524
    103 H26        -2.4143   15.8739  -13.2607 H         1 PRO         0.0524
    104 H27        -7.0673   18.6899  -11.6846 H         1 THR         0.1884
    105 H28        -6.8289   18.1333   -8.7639 H         1 THR         0.0826
    106 H29        -8.5319   20.1337  -10.3339 H         1 THR         0.0639
    107 H30        -7.2632   21.5929   -9.0322 H         1 THR         0.2101
    108 H31        -9.3725   20.9089   -8.1391 H         1 THR         0.0257
    109 H32        -8.5068   19.5591   -7.3297 H         1 THR         0.0257
    110 H33        -9.8555   19.2095   -8.4634 H         1 THR         0.0257
    111 H34        -8.1981   16.6555   -7.8493 H         1 ALA         0.1883
    112 H35        -9.7314   14.9698   -9.6010 H         1 ALA         0.0797
    113 H36       -10.4693   13.8378   -7.5330 H         1 ALA         0.0277
    114 H37        -9.7483   15.1617   -6.5563 H         1 ALA         0.0277
    115 H38        -8.6932   14.1053   -7.5550 H         1 ALA         0.0277
    116 H39       -13.4201   17.3581   -9.7185 H         1 PRO         0.0802
    117 H40       -14.7351   16.2313  -11.2688 H         1 PRO         0.0313
    118 H41       -14.8471   14.7692  -10.2313 H         1 PRO         0.0313
    119 H42       -12.7612   15.5573  -12.2377 H         1 PRO         0.0287
    120 H43       -13.4611   13.9440  -11.8714 H         1 PRO         0.0287
    121 H44       -12.0821   13.6266  -10.0109 H         1 PRO         0.0524
    122 H45       -10.9987   14.6644  -10.9988 H         1 PRO         0.0524
    123 H46       -15.1558   16.7081   -5.6959 H         1 PRO         0.0802
    124 H47       -16.9966   18.1720   -5.4510 H         1 PRO         0.0313
    125 H48       -17.7893   17.5841   -6.9519 H         1 PRO         0.0313
    126 H49       -15.5008   19.5367   -6.6182 H         1 PRO         0.0287
    127 H50       -16.9282   19.6241   -7.7052 H         1 PRO         0.0287
    128 H51       -15.9692   18.1973   -9.2893 H         1 PRO         0.0524
    129 H52       -14.4426   18.8116   -8.5689 H         1 PRO         0.0524
    130 H53       -16.2172   15.0574   -4.6201 H         1 ARG         0.1883
    131 H54       -17.4041   12.8813   -6.1375 H         1 ARG         0.0800
    132 H55       -17.9533   11.9140   -3.9388 H         1 ARG         0.0313
    133 H56       -17.4526   13.4428   -3.1394 H         1 ARG         0.0313
    134 H57       -15.7401   11.7864   -2.8399 H         1 ARG         0.0301
    135 H58       -15.1378   13.0605   -3.9537 H         1 ARG         0.0301
    136 H59       -14.5327   10.7769   -4.6682 H         1 ARG         0.0689
    137 H60       -15.5446   11.6529   -5.8661 H         1 ARG         0.0689
    138 H61       -17.2959   10.1334   -5.5183 H         1 ARG         0.2642
    139 H62       -15.2894    7.9759   -2.7155 H         1 ARG         0.2615
    140 H63       -14.6617    9.5736   -3.2017 H         1 ARG         0.2615
    141 H64       -18.0694    8.1016   -4.8910 H         1 ARG         0.2615
    142 H65       -17.2026    7.1600   -3.6480 H         1 ARG         0.2615
    143 H66       -19.6273   12.1333   -5.8330 H         1 ARG         0.1883
    144 H67       -21.5394   14.2253   -6.1856 H         1 ARG         0.0800
    145 H68       -22.1068   11.3379   -5.3950 H         1 ARG         0.0313
    146 H69       -21.7220   11.8744   -7.0656 H         1 ARG         0.0313
    147 H70       -23.7050   13.5335   -6.7122 H         1 ARG         0.0301
    148 H71       -24.1665   12.4168   -5.3830 H         1 ARG         0.0301
    149 H72       -24.6858   10.7015   -6.8162 H         1 ARG         0.0689
    150 H73       -23.4650   11.2024   -8.0350 H         1 ARG         0.0689
    151 H74       -25.0169   12.6671   -9.0015 H         1 ARG         0.2642
    152 H75       -27.9083   11.9218   -6.2436 H         1 ARG         0.2615
    153 H76       -26.2563   11.3066   -5.9694 H         1 ARG         0.2615
    154 H77       -27.0936   13.4496   -9.3395 H         1 ARG         0.2615
    155 H78       -28.3813   13.1224   -8.1489 H         1 ARG         0.2615
    156 H79       -20.9466   12.0512   -3.3964 H         1 ARG         0.1875
    157 H80       -21.3729   12.3111   -1.1593 H         1 ARG         0.0723
    158 H81       -20.7642   14.5537   -0.2482 H         1 ARG         0.0270
    159 H82       -20.7982   15.2219   -1.9152 H         1 ARG         0.0270
    160 H83       -19.5886   13.9693   -1.4742 H         1 ARG         0.0270
@<TRIPOS>BOND
     1    1    2 1  
     2    2    3 1  
     3    2    5 1  
     4    3    4 2  
     5    3    9 am 
     6    5    6 1  
     7    6    7 2  
     8    6    8 am 
     9    9   10 1  
    10   10   11 1  
    11   10   13 1  
    12   11   12 2  
    13   11   17 am 
    14   13   14 1  
    15   14   15 1  
    16   14   16 1  
    17   17   18 1  
    18   17   23 1  
    19   18   19 1  
    20   18   21 1  
    21   19   20 2  
    22   19   24 am 
    23   21   22 1  
    24   22   23 1  
    25   24   25 1  
    26   25   26 1  
    27   25   28 1  
    28   26   27 2  
    29   26   31 am 
    30   28   29 1  
    31   28   30 1  
    32   31   32 1  
    33   32   33 1  
    34   32   35 1  
    35   33   34 2  
    36   33   36 am 
    37   36   37 1  
    38   36   42 1  
    39   37   38 1  
    40   37   40 1  
    41   38   39 2  
    42   38   43 am 
    43   40   41 1  
    44   41   42 1  
    45   43   44 1  
    46   43   49 1  
    47   44   45 1  
    48   44   47 1  
    49   45   46 2  
    50   45   50 am 
    51   47   48 1  
    52   48   49 1  
    53   50   51 1  
    54   51   52 1  
    55   51   54 1  
    56   52   53 2  
    57   52   61 am 
    58   54   55 1  
    59   55   56 1  
    60   56   57 1  
    61   57   58 ar 
    62   58   59 ar 
    63   58   60 ar 
    64   61   62 1  
    65   62   63 1  
    66   62   65 1  
    67   63   64 2  
    68   63   72 am 
    69   65   66 1  
    70   66   67 1  
    71   67   68 1  
    72   68   69 ar 
    73   69   70 ar 
    74   69   71 ar 
    75   72   73 1  
    76   73   74 1  
    77   73   76 1  
    78   74   75 ar 
    79   74   77 ar 
    80    1   78 1  
    81    1   79 1  
    82    1   80 1  
    83    2   81 1  
    84    5   82 1  
    85    5   83 1  
    86    8   84 1  
    87    8   85 1  
    88    9   86 1  
    89   10   87 1  
    90   13   88 1  
    91   13   89 1  
    92   14   90 1  
    93   15   91 1  
    94   15   92 1  
    95   15   93 1  
    96   16   94 1  
    97   16   95 1  
    98   16   96 1  
    99   18   97 1  
   100   21   98 1  
   101   21   99 1  
   102   22  100 1  
   103   22  101 1  
   104   23  102 1  
   105   23  103 1  
   106   24  104 1  
   107   25  105 1  
   108   28  106 1  
   109   29  107 1  
   110   30  108 1  
   111   30  109 1  
   112   30  110 1  
   113   31  111 1  
   114   32  112 1  
   115   35  113 1  
   116   35  114 1  
   117   35  115 1  
   118   37  116 1  
   119   40  117 1  
   120   40  118 1  
   121   41  119 1  
   122   41  120 1  
   123   42  121 1  
   124   42  122 1  
   125   44  123 1  
   126   47  124 1  
   127   47  125 1  
   128   48  126 1  
   129   48  127 1  
   130   49  128 1  
   131   49  129 1  
   132   50  130 1  
   133   51  131 1  
   134   54  132 1  
   135   54  133 1  
   136   55  134 1  
   137   55  135 1  
   138   56  136 1  
   139   56  137 1  
   140   57  138 1  
   141   59  139 1  
   142   59  140 1  
   143   60  141 1  
   144   60  142 1  
   145   61  143 1  
   146   62  144 1  
   147   65  145 1  
   148   65  146 1  
   149   66  147 1  
   150   66  148 1  
   151   67  149 1  
   152   67  150 1  
   153   68  151 1  
   154   70  152 1  
   155   70  153 1  
   156   71  154 1  
   157   71  155 1  
   158   72  156 1  
   159   73  157 1  
   160   76  158 1  
   161   76  159 1  
   162   76  160 1  
@<TRIPOS>SUBSTRUCTURE
     1 ASN         1

