5tks_ligand
  -I-interpret- 

 71 75  0  0  0  0  0  0  0  0999 V2000
   39.0820  -18.6870   29.4150 C   0  0  0  0  0
   38.3140  -17.4580   29.1330 C   0  0  0  0  0
   39.8050  -20.8740   28.6870 C   0  0  0  0  0
   41.3000  -20.7650   28.6940 C   0  0  0  0  0
   39.3770  -21.9620   27.7020 C   0  0  0  0  0
   44.4600  -21.3800   30.2410 C   0  0  0  0  0
   45.5200  -20.4880   30.4630 C   0  0  0  0  0
   46.5580  -20.8230   31.3120 C   0  0  0  0  0
   40.0970  -23.8210   29.4000 C   0  0  0  0  0
   44.4570  -22.6200   30.9010 C   0  0  0  0  0
   40.0190  -23.3610   27.9460 C   0  0  0  0  0
   33.8610  -14.1230   29.6210 Cl  0  0  0  0  0
   44.6910  -20.4520   26.9650 Cl  0  0  0  0  0
   36.7620  -13.5070   26.9600 C   0  0  0  0  0
   35.6530  -13.3240   27.7720 C   0  0  0  0  0
   35.2820  -14.3310   28.6380 C   0  0  0  0  0
   35.9990  -15.5120   28.7260 C   0  0  0  0  0
   37.1050  -15.7190   27.8910 C   0  0  0  0  0
   37.4640  -14.7100   26.9870 C   0  0  0  0  0
   38.5430  -14.9130   26.0780 N   0  0  0  0  0
   38.5950  -15.0110   24.7420 C   0  0  0  0  0
   39.8340  -15.1800   24.3620 N   0  0  0  0  0
   40.5650  -15.2040   25.5030 N   0  0  0  0  0
   39.8040  -15.0420   26.5460 N   0  0  0  0  0
   37.8590  -16.9770   27.9880 C   0  0  0  0  0
   39.7130  -18.8180   30.4450 O   0  0  0  0  0
   39.1380  -19.6000   28.4230 N   0  0  0  0  0
   46.5230  -22.0220   32.0210 C   0  0  0  0  0
   45.4840  -22.9170   31.7900 C   0  0  0  0  0
   42.0430  -20.5080   27.5790 N   0  0  0  0  0
   43.3660  -20.6460   28.0220 C   0  0  0  0  0
   43.3650  -20.9810   29.3270 C   0  0  0  0  0
   42.0490  -21.0360   29.7520 N   0  0  0  0  0
   43.3660  -23.6690   30.7320 C   0  0  0  0  0
   40.8040  -25.1470   29.6330 C   0  0  0  0  0
   42.2140  -25.3090   29.0490 C   0  0  0  0  0
   43.2400  -24.1790   29.2880 C   0  0  0  0  0
   47.5160  -22.4110   32.9590 N   0  0  0  0  0
   48.7770  -21.9150   33.0630 C   0  0  0  0  0
   49.3660  -22.4080   34.1580 O   0  0  0  0  0
   49.3300  -21.1870   32.2680 O   0  0  0  0  0
   50.7440  -21.9890   34.3620 C   0  0  0  0  0
   38.0855  -16.8499   30.0082 H   0  0  0  0  0
   39.4857  -21.1581   29.6897 H   0  0  0  0  0
   39.6996  -21.6359   26.7132 H   0  0  0  0  0
   38.3002  -22.0854   27.8178 H   0  0  0  0  0
   45.5250  -19.5207   29.9607 H   0  0  0  0  0
   47.4058  -20.1477   31.4271 H   0  0  0  0  0
   39.0693  -23.9548   29.7377 H   0  0  0  0  0
   40.6736  -23.0651   29.9331 H   0  0  0  0  0
   41.0478  -23.2901   27.5930 H   0  0  0  0  0
   39.3835  -24.0820   27.4318 H   0  0  0  0  0
   37.0863  -12.7051   26.2968 H   0  0  0  0  0
   35.0821  -12.3966   27.7264 H   0  0  0  0  0
   35.7040  -16.2785   29.4427 H   0  0  0  0  0
   37.7350  -14.9578   24.0744 H   0  0  0  0  0
   38.0520  -17.5393   27.0744 H   0  0  0  0  0
   38.7249  -19.4060   27.5108 H   0  0  0  0  0
   45.4745  -23.8712   32.3168 H   0  0  0  0  0
   42.4170  -23.2072   31.0045 H   0  0  0  0  0
   43.6235  -24.5198   31.3628 H   0  0  0  0  0
   40.1914  -25.8982   29.1345 H   0  0  0  0  0
   40.9220  -25.2312   30.7133 H   0  0  0  0  0
   42.0743  -25.3455   27.9686 H   0  0  0  0  0
   42.6312  -26.1848   29.5460 H   0  0  0  0  0
   44.2139  -24.5925   29.0258 H   0  0  0  0  0
   42.9007  -23.3300   28.6945 H   0  0  0  0  0
   47.2554  -23.1389   33.6243 H   0  0  0  0  0
   51.3489  -22.3080   33.5132 H   0  0  0  0  0
   50.7830  -20.9033   34.4500 H   0  0  0  0  0
   51.1290  -22.4429   35.2752 H   0  0  0  0  0
  1  2  1  0  0  0
  1 26  2  0  0  0
 27  1  1  0  0  0
  2 25  2  0  0  0
  4  3  1  0  0  0
  3  5  1  0  0  0
  3 27  1  0  0  0
 30  4  4  0  0  0
  4 33  4  0  0  0
  5 11  1  0  0  0
  6  7  4  0  0  0
  6 10  4  0  0  0
 32  6  1  0  0  0
  7  8  4  0  0  0
  8 28  4  0  0  0
 11  9  1  0  0  0
  9 35  1  0  0  0
 10 29  4  0  0  0
 10 34  1  0  0  0
 16 12  1  0  0  0
 31 13  1  0  0  0
 14 15  4  0  0  0
 19 14  4  0  0  0
 16 15  4  0  0  0
 17 16  4  0  0  0
 18 17  4  0  0  0
 18 19  4  0  0  0
 25 18  1  0  0  0
 19 20  1  0  0  0
 20 21  4  0  0  0
 20 24  4  0  0  0
 21 22  4  0  0  0
 23 22  4  0  0  0
 24 23  4  0  0  0
 29 28  4  0  0  0
 28 38  1  0  0  0
 31 30  4  0  0  0
 31 32  4  0  0  0
 32 33  4  0  0  0
 34 37  1  0  0  0
 35 36  1  0  0  0
 36 37  1  0  0  0
 38 39  1  0  0  0
 39 40  1  0  0  0
 39 41  2  0  0  0
 40 42  1  0  0  0
  2 43  1  0  0  0
  3 44  1  0  0  0
  5 45  1  0  0  0
  5 46  1  0  0  0
  7 47  1  0  0  0
  8 48  1  0  0  0
  9 49  1  0  0  0
  9 50  1  0  0  0
 11 51  1  0  0  0
 11 52  1  0  0  0
 14 53  1  0  0  0
 15 54  1  0  0  0
 17 55  1  0  0  0
 21 56  1  0  0  0
 25 57  1  0  0  0
 27 58  1  0  0  0
 29 59  1  0  0  0
 34 60  1  0  0  0
 34 61  1  0  0  0
 35 62  1  0  0  0
 35 63  1  0  0  0
 36 64  1  0  0  0
 36 65  1  0  0  0
 37 66  1  0  0  0
 37 67  1  0  0  0
 38 68  1  0  0  0
 42 69  1  0  0  0
 42 70  1  0  0  0
 42 71  1  0  0  0
M  END
$$$$
