4hyu_ligand
  -I-interpret- 

 58 61  0  0  0  0  0  0  0  0999 V2000
   -3.8040   -0.8140    9.1230 N   0  0  0  0  0
   -2.7750   -1.3060    9.9070 C   0  0  0  0  0
   -2.0520   -2.3430    9.4880 N   0  0  0  0  0
   -1.0570   -2.8240   10.2380 C   0  0  0  0  0
   -0.7770   -2.2470   11.4680 C   0  0  0  0  0
   -1.5440   -1.1470   11.8740 C   0  0  0  0  0
   -2.5240   -0.7270   11.0730 N   0  0  0  0  0
   -1.3040   -0.5300   13.1060 N   0  0  0  0  0
   -0.4620   -1.0720   14.0760 N   0  0  0  0  0
   -0.4190   -0.3150   15.1230 C   0  0  0  0  0
   -1.8460    0.6420   13.6060 C   0  0  0  0  0
   -1.3020    0.8140   14.8920 C   0  0  0  0  0
   -1.6380    1.9200   15.6910 C   0  0  0  0  0
   -2.5420    2.8550   15.2110 C   0  0  0  0  0
   -3.0790    2.6920   13.9270 C   0  0  0  0  0
   -2.7410    1.6030   13.1360 C   0  0  0  0  0
   -4.6630    0.2670    9.6270 C   0  0  0  0  0
   -5.7950   -0.3210   10.4870 C   0  0  0  0  0
   -6.6570    0.8140   11.0500 C   0  0  0  0  0
   -7.3030    1.5730    9.8860 C   0  0  0  0  0
   -6.2190    2.1600    8.9640 C   0  0  0  0  0
   -5.2600    1.0640    8.4600 C   0  0  0  0  0
   -8.1050    2.6200   10.4300 O   0  0  0  0  0
   -1.0700    1.9530   16.9270 O   0  0  0  0  0
   -0.7940    3.2480   17.4620 C   0  0  0  0  0
    0.3710    3.0930   18.4540 C   0  0  0  0  0
   -0.0210    2.0970   19.5430 C   0  0  0  0  0
    1.2970    1.8990   20.7850 S   0  0  0  0  0
    0.4460    0.6790   21.8270 C   0  0  0  0  0
    2.4540    1.2920   20.2180 O   0  0  0  0  0
    1.4440    3.1060   21.5260 O   0  0  0  0  0
   -3.9665   -1.2022    8.1939 H   0  0  0  0  0
   -0.4659   -3.6687    9.8841 H   0  0  0  0  0
    0.0185   -2.6389   12.1018 H   0  0  0  0  0
    0.1746   -0.4927   16.0197 H   0  0  0  0  0
   -2.8318    3.7074   15.8255 H   0  0  0  0  0
   -3.7764    3.4358   13.5416 H   0  0  0  0  0
   -3.1771    1.4981   12.1426 H   0  0  0  0  0
   -4.0574    0.9371   10.2371 H   0  0  0  0  0
   -5.3649   -0.8912   11.3104 H   0  0  0  0  0
   -6.4140   -0.9747    9.8725 H   0  0  0  0  0
   -6.0354    1.4938   11.6327 H   0  0  0  0  0
   -7.4323    0.4016   11.6957 H   0  0  0  0  0
   -7.9187    0.8958    9.2940 H   0  0  0  0  0
   -5.6426    2.8929    9.5285 H   0  0  0  0  0
   -6.7061    2.6179    8.1031 H   0  0  0  0  0
   -5.8194    0.3796    7.8222 H   0  0  0  0  0
   -4.4465    1.5395    7.9121 H   0  0  0  0  0
   -8.5194    3.1086    9.7150 H   0  0  0  0  0
   -1.6737    3.6509   17.9638 H   0  0  0  0  0
   -0.5293    3.9434   16.6655 H   0  0  0  0  0
    0.5950    4.0588   18.9069 H   0  0  0  0  0
    1.2525    2.7283   17.9268 H   0  0  0  0  0
   -0.1983    1.1290   19.0743 H   0  0  0  0  0
   -0.9121    2.4725   20.0460 H   0  0  0  0  0
    0.1538   -0.1764   21.2179 H   0  0  0  0  0
    1.1170    0.3495   22.6203 H   0  0  0  0  0
   -0.4418    1.1342   22.2660 H   0  0  0  0  0
  1  2  1  0  0  0
  1 17  1  0  0  0
  2  3  4  0  0  0
  2  7  4  0  0  0
  3  4  4  0  0  0
  4  5  4  0  0  0
  5  6  4  0  0  0
  6  7  4  0  0  0
  6  8  1  0  0  0
  8  9  4  0  0  0
  8 11  4  0  0  0
  9 10  4  0  0  0
 10 12  4  0  0  0
 11 12  4  0  0  0
 11 16  4  0  0  0
 12 13  4  0  0  0
 13 14  4  0  0  0
 13 24  1  0  0  0
 14 15  4  0  0  0
 15 16  4  0  0  0
 17 18  1  0  0  0
 17 22  1  0  0  0
 18 19  1  0  0  0
 19 20  1  0  0  0
 20 21  1  0  0  0
 20 23  1  0  0  0
 21 22  1  0  0  0
 24 25  1  0  0  0
 25 26  1  0  0  0
 26 27  1  0  0  0
 27 28  1  0  0  0
 28 29  1  0  0  0
 28 30  2  0  0  0
 28 31  2  0  0  0
  1 32  1  0  0  0
  4 33  1  0  0  0
  5 34  1  0  0  0
 10 35  1  0  0  0
 14 36  1  0  0  0
 15 37  1  0  0  0
 16 38  1  0  0  0
 17 39  1  0  0  0
 18 40  1  0  0  0
 18 41  1  0  0  0
 19 42  1  0  0  0
 19 43  1  0  0  0
 20 44  1  0  0  0
 21 45  1  0  0  0
 21 46  1  0  0  0
 22 47  1  0  0  0
 22 48  1  0  0  0
 23 49  1  0  0  0
 25 50  1  0  0  0
 25 51  1  0  0  0
 26 52  1  0  0  0
 26 53  1  0  0  0
 27 54  1  0  0  0
 27 55  1  0  0  0
 29 56  1  0  0  0
 29 57  1  0  0  0
 29 58  1  0  0  0
M  END
$$$$
