1r2b_ligand
  -I-interpret- 

293294  0  0  0  0  0  0  0  0999 V2000
   29.5310    5.6240   42.6190 N   0  3  0  0  0
   28.6950    4.4090   42.8120 C   0  0  0  0  0
   28.5860    3.6460   41.5110 C   0  0  0  0  0
   29.1900    4.0580   40.5070 O   0  0  0  0  0
   27.8030    2.5640   41.5130 N   0  0  0  0  0
   27.6560    1.7340   40.3310 C   0  0  0  0  0
   26.3060    1.0290   40.1500 C   0  0  0  0  0
   25.5130    0.8600   41.0960 O   0  0  0  0  0
   28.7770    0.6950   40.3270 C   0  0  0  0  0
   28.6920   -0.1350   41.4640 O   0  0  0  0  0
   26.0470    0.6300   38.9070 N   0  0  0  0  0
   24.8250   -0.0860   38.5700 C   0  0  0  0  0
   25.1140   -1.5440   38.8730 C   0  0  0  0  0
   25.9760   -2.1710   38.2470 O   0  0  0  0  0
   24.4780    0.1040   37.1020 C   0  0  0  0  0
   24.2090    1.5730   36.7370 C   0  0  0  0  0
   23.9950    1.6830   35.2260 C   0  0  0  0  0
   22.9820    2.1130   37.5140 C   0  0  0  0  0
   24.3750   -2.0780   39.8340 N   0  0  0  0  0
   24.5680   -3.4340   40.2840 C   0  0  0  0  0
   24.3230   -4.5350   39.2650 C   0  0  0  0  0
   23.2600   -4.6110   38.6210 O   0  0  0  0  0
   23.7210   -3.7230   41.5470 C   0  0  0  0  0
   24.1420   -5.0640   42.1530 C   0  0  0  0  0
   23.8980   -2.5850   42.5640 C   0  0  0  0  0
   25.3390   -5.3780   39.1040 N   0  0  0  0  0
   25.2100   -6.5130   38.1970 C   0  0  0  0  0
   24.4450   -7.5890   38.9820 C   0  0  0  0  0
   24.7360   -7.8350   40.1550 O   0  0  0  0  0
   26.6100   -7.0410   37.7890 C   0  0  0  0  0
   23.4540   -8.2120   38.3680 N   0  0  0  0  0
   22.7400   -9.2640   39.0740 C   0  0  0  0  0
   22.8910  -10.5600   38.2910 C   0  0  0  0  0
   23.0550  -10.5630   37.0740 O   0  0  0  0  0
   21.2180   -8.9700   39.2220 C   0  0  0  0  0
   20.6150   -8.9520   37.9250 O   0  0  0  0  0
   20.9680   -7.6090   39.8980 C   0  0  0  0  0
   22.8490  -11.6680   39.0130 N   0  0  0  0  0
   22.9250  -12.9720   38.4040 C   0  0  0  0  0
   22.0810  -13.8370   39.3200 C   0  0  0  0  0
   21.9450  -13.5260   40.5030 O   0  0  0  0  0
   24.3900  -13.4700   38.3090 C   0  0  0  0  0
   25.0320  -13.5620   39.7140 C   0  0  0  0  0
   24.4370  -14.8050   37.5720 C   0  0  0  0  0
   21.4970  -14.9100   38.7900 N   0  0  0  0  0
   20.6670  -15.7530   39.6350 C   0  0  0  0  0
   21.3030  -17.0560   40.0540 C   0  0  0  0  0
   22.1280  -17.6200   39.3330 O   0  0  0  0  0
   19.3330  -16.0570   38.9420 C   0  0  0  0  0
   18.4230  -14.8560   38.7800 C   0  0  0  0  0
   17.1950  -15.2020   37.9540 C   0  0  0  0  0
   16.3080  -13.9730   37.7580 C   0  0  0  0  0
   15.0100  -14.2930   37.0820 N   0  3  0  0  0
   20.9220  -17.5140   41.2430 N   0  0  0  0  0
   21.3680  -18.7980   41.7570 C   0  0  0  0  0
   20.0870  -19.6110   41.9230 C   0  0  0  0  0
   19.1920  -19.2270   42.6910 O   0  0  0  0  0
   22.0890  -18.6700   43.1040 C   0  0  0  0  0
   22.4010  -20.0550   43.7500 C   0  0  0  0  0
   23.1560  -21.0370   42.8190 C   0  0  0  0  0
   24.3290  -20.8060   42.4770 O   0  0  0  0  0
   22.5800  -22.0580   42.4200 O   0  0  0  0  0
   20.0050  -20.7330   41.2150 N   0  0  0  0  0
   18.8150  -21.5630   41.2620 C   0  0  0  0  0
   18.8590  -22.6990   42.2610 C   0  0  0  0  0
   17.8360  -23.2930   42.5550 O   0  0  0  0  0
   18.5000  -22.1300   39.8540 C   0  0  0  0  0
   20.0360  -23.0190   42.7740 N   0  0  0  0  0
   20.1190  -24.1140   43.7220 C   0  0  0  0  0
   19.6250  -23.7980   45.1260 C   0  0  0  0  0
   19.2580  -22.6640   45.4210 O   0  0  0  0  0
   19.6150  -24.8250   45.9780 N   0  0  0  0  0
   19.2220  -24.7040   47.3730 C   0  0  0  0  0
   20.1350  -23.6450   47.9940 C   0  0  0  0  0
   21.3630  -23.6600   47.7990 O   0  0  0  0  0
   19.3870  -26.0570   48.0810 C   0  0  0  0  0
   19.4030  -26.0010   49.6130 C   0  0  0  0  0
   19.1410  -27.3950   50.2330 C   0  0  0  0  0
   17.7180  -27.7630   50.1980 N   0  0  0  0  0
   16.7910  -27.2370   50.9980 C   0  0  0  0  0
   17.1300  -26.3210   51.9160 N   0  0  0  0  0
   15.5150  -27.6030   50.8700 N   0  0  0  0  0
   19.5280  -22.7290   48.7410 N   0  0  0  0  0
   20.2650  -21.6240   49.3450 C   0  0  0  0  0
   20.7460  -21.8410   50.7710 C   0  0  0  0  0
   21.6350  -21.1370   51.2470 O   0  0  0  0  0
   19.3910  -20.3710   49.3260 C   0  0  0  0  0
   18.3120  -20.5160   50.2330 O   0  0  0  0  0
   20.1730  -22.8120   51.4550 N   0  0  0  0  0
   20.5250  -23.0220   52.8510 C   0  0  0  0  0
   20.4010  -24.4880   53.1710 C   0  0  0  0  0
   19.9240  -25.2610   52.3530 O   0  0  0  0  0
   19.5420  -22.2510   53.7870 C   0  0  0  0  0
   18.0920  -22.6800   53.4440 C   0  0  0  0  0
   19.7820  -20.7330   53.6690 C   0  0  0  0  0
   16.9390  -21.8800   54.1180 C   0  0  0  0  0
   20.8130  -24.8690   54.3700 N   0  0  0  0  0
   20.7040  -26.2620   54.7450 C   0  0  0  0  0
   19.2360  -26.6800   54.8030 C   0  0  0  0  0
   18.3270  -25.8470   54.9400 O   0  0  0  0  0
   21.3620  -26.4990   56.1080 C   0  0  0  0  0
   20.6720  -25.8170   57.2470 C   0  0  0  0  0
   20.6620  -26.3360   58.5240 N   0  0  0  0  0
   19.9750  -24.6550   57.3090 C   0  0  0  0  0
   19.9870  -25.5250   59.3230 C   0  0  0  0  0
   19.5600  -24.4980   58.6100 N   0  0  0  0  0
   19.0020  -27.9770   54.6700 N   0  0  0  0  0
   17.6530  -28.4980   54.7810 C   0  0  0  0  0
   17.5190  -29.1080   56.1800 C   0  0  0  0  0
   18.2340  -30.0530   56.5240 O   0  0  0  0  0
   17.3820  -29.5830   53.7480 C   0  0  0  0  0
   15.9170  -29.9900   53.7610 C   0  0  0  0  0
   15.6050  -31.2040   52.9130 C   0  0  0  0  0
   16.2350  -31.3840   51.8500 O   0  0  0  0  0
   14.6970  -31.9700   53.3070 O   0  0  0  0  0
   16.6210  -28.5450   56.9820 N   0  0  0  0  0
   16.3510  -29.0270   58.3300 C   0  0  0  0  0
   15.5620  -30.3210   58.1870 C   0  0  0  0  0
   14.5070  -30.3470   57.5680 O   0  0  0  0  0
   15.5160  -28.0120   59.1360 C   0  0  0  0  0
   16.3870  -26.8030   59.4960 C   0  0  0  0  0
   14.9160  -28.6830   60.3760 C   0  0  0  0  0
   15.6530  -25.6800   60.2120 C   0  0  0  0  0
   16.0560  -31.4130   58.7840 N   0  0  0  0  0
   15.3870  -32.7140   58.6980 C   0  0  0  0  0
   14.0560  -32.8590   59.4290 C   0  0  0  0  0
   13.7710  -32.1240   60.3820 O   0  0  0  0  0
   16.4530  -33.6660   59.2220 C   0  0  0  0  0
   17.1320  -32.8540   60.2520 C   0  0  0  0  0
   17.2900  -31.5130   59.5790 C   0  0  0  0  0
   13.2380  -33.8040   58.9620 N   0  0  0  0  0
   11.9430  -34.0630   59.5990 C   0  0  0  0  0
   12.1830  -34.6420   60.9980 C   0  0  0  0  0
   13.2910  -35.1780   61.2320 O   0  0  0  0  0
   11.1130  -35.0610   58.7850 C   0  0  0  0  0
   10.8120  -34.6120   57.3880 C   0  0  0  0  0
    9.9330  -35.6030   56.6640 C   0  0  0  0  0
    9.8500  -35.3180   55.2350 N   0  0  0  0  0
   10.8990  -35.3020   54.4150 C   0  0  0  0  0
   12.1150  -35.5500   54.8840 N   0  0  0  0  0
   10.7360  -35.0540   53.1190 N   0  0  0  0  0
   11.2550  -34.5610   61.8380 O   0  0  0  0  0
   29.5990    6.1320   43.5009 H   0  0  0  0  0
   30.4636    5.3482   42.3113 H   0  0  0  0  0
   29.1017    6.2220   41.9130 H   0  0  0  0  0
   27.6985    4.7068   43.1382 H   0  0  0  0  0
   29.1574    3.7708   43.5650 H   0  0  0  0  0
   27.2974    2.3155   42.3633 H   0  0  0  0  0
   27.7113    2.4235   39.4886 H   0  0  0  0  0
   29.7365    1.2120   40.3393 H   0  0  0  0  0
   28.6826    0.0785   39.4331 H   0  0  0  0  0
   29.4034   -0.7792   41.4424 H   0  0  0  0  0
   26.7232    0.8314   38.1703 H   0  0  0  0  0
   23.9709    0.2809   39.1393 H   0  0  0  0  0
   23.5688   -0.4618   36.8986 H   0  0  0  0  0
   25.3291   -0.2355   36.5118 H   0  0  0  0  0
   25.0686    2.1808   37.0195 H   0  0  0  0  0
   24.8878    1.3335   34.7075 H   0  0  0  0  0
   23.1415    1.0704   34.9357 H   0  0  0  0  0
   23.8038    2.7232   34.9622 H   0  0  0  0  0
   22.1035    1.5194   37.2612 H   0  0  0  0  0
   23.1727    2.0441   38.5850 H   0  0  0  0  0
   22.8097    3.1540   37.2405 H   0  0  0  0  0
   23.6466   -1.5120   40.2693 H   0  0  0  0  0
   25.6367   -3.4715   40.4954 H   0  0  0  0  0
   22.6671   -3.7806   41.2750 H   0  0  0  0  0
   23.9848   -5.8570   41.4219 H   0  0  0  0  0
   25.1966   -5.0231   42.4254 H   0  0  0  0  0
   23.5434   -5.2636   43.0418 H   0  0  0  0  0
   24.9488   -2.5094   42.8435 H   0  0  0  0  0
   23.5711   -1.6460   42.1172 H   0  0  0  0  0
   23.2991   -2.7950   43.4502 H   0  0  0  0  0
   26.2092   -5.2307   39.6153 H   0  0  0  0  0
   24.6901   -6.2359   37.2799 H   0  0  0  0  0
   27.1646   -6.2472   37.2886 H   0  0  0  0  0
   27.1513   -7.3579   38.6804 H   0  0  0  0  0
   26.4946   -7.8876   37.1123 H   0  0  0  0  0
   23.1943   -7.9590   37.4146 H   0  0  0  0  0
   23.1680   -9.3309   40.0742 H   0  0  0  0  0
   20.7830   -9.7521   39.8442 H   0  0  0  0  0
   19.6763   -8.7710   38.0123 H   0  0  0  0  0
   21.4175   -7.6099   40.8910 H   0  0  0  0  0
   21.4154   -6.8181   39.2960 H   0  0  0  0  0
   19.8948   -7.4391   39.9838 H   0  0  0  0  0
   22.7606  -11.5974   40.0267 H   0  0  0  0  0
   22.5670  -12.9860   37.3746 H   0  0  0  0  0
   24.9763  -12.7499   37.7382 H   0  0  0  0  0
   25.0249  -12.5769   40.1805 H   0  0  0  0  0
   24.4623  -14.2600   40.3274 H   0  0  0  0  0
   26.0595  -13.9136   39.6203 H   0  0  0  0  0
   23.8412  -15.5391   38.1144 H   0  0  0  0  0
   24.0335  -14.6784   36.5674 H   0  0  0  0  0
   25.4698  -15.1479   37.5096 H   0  0  0  0  0
   21.6302  -15.1373   37.8046 H   0  0  0  0  0
   20.5193  -15.1724   40.5456 H   0  0  0  0  0
   18.8045  -16.7764   39.5675 H   0  0  0  0  0
   19.5679  -16.4174   37.9405 H   0  0  0  0  0
   18.9755  -14.0683   38.2677 H   0  0  0  0  0
   18.0967  -14.5317   39.7682 H   0  0  0  0  0
   16.6233  -15.9677   38.4784 H   0  0  0  0  0
   17.5186  -15.5610   36.9770 H   0  0  0  0  0
   16.8487  -13.2696   37.1248 H   0  0  0  0  0
   16.0791  -13.5670   38.7433 H   0  0  0  0  0
   14.4623  -13.4388   36.9785 H   0  0  0  0  0
   15.1965  -14.6923   36.1621 H   0  0  0  0  0
   14.4905  -14.9650   37.6467 H   0  0  0  0  0
   20.2960  -16.9452   41.8130 H   0  0  0  0  0
   22.0880  -19.2607   41.0821 H   0  0  0  0  0
   21.4363  -18.1219   43.7835 H   0  0  0  0  0
   23.0362  -18.1592   42.9307 H   0  0  0  0  0
   21.4449  -20.5170   43.9959 H   0  0  0  0  0
   23.0441  -19.8701   44.6104 H   0  0  0  0  0
   24.6197  -19.9807   42.8720 H   0  0  0  0  0
   20.7909  -21.0153   40.6293 H   0  0  0  0  0
   18.0243  -20.8960   41.6056 H   0  0  0  0  0
   18.3330  -21.3056   39.1608 H   0  0  0  0  0
   19.3412  -22.7314   39.5094 H   0  0  0  0  0
   17.6051  -22.7502   39.9053 H   0  0  0  0  0
   20.8739  -22.5026   42.5064 H   0  0  0  0  0
   21.1749  -24.3686   43.8128 H   0  0  0  0  0
   19.4793  -24.9085   43.3377 H   0  0  0  0  0
   19.8976  -25.7423   45.6330 H   0  0  0  0  0
   18.1765  -24.4122   47.4721 H   0  0  0  0  0
   20.3553  -26.4524   47.7742 H   0  0  0  0  0
   18.5244  -26.6616   47.8010 H   0  0  0  0  0
   18.6160  -25.3226   49.9424 H   0  0  0  0  0
   20.3858  -25.6580   49.9362 H   0  0  0  0  0
   19.4572  -27.3661   51.2757 H   0  0  0  0  0
   19.6953  -28.1327   49.6528 H   0  0  0  0  0
   17.4219  -28.4645   49.5193 H   0  0  0  0  0
   16.4135  -25.9074   52.5126 H   0  0  0  0  0
   18.1045  -26.0376   52.0180 H   0  0  0  0  0
   15.2489  -28.2853   50.1600 H   0  0  0  0  0
   18.5223  -22.8000   48.8960 H   0  0  0  0  0
   21.1662  -21.5294   48.7392 H   0  0  0  0  0
   18.9960  -20.2256   48.3205 H   0  0  0  0  0
   19.9925  -19.5109   49.6202 H   0  0  0  0  0
   17.7700  -19.7239   50.2130 H   0  0  0  0  0
   19.4838  -23.4151   51.0059 H   0  0  0  0  0
   21.5425  -22.6642   53.0082 H   0  0  0  0  0
   19.7166  -22.5009   54.8335 H   0  0  0  0  0
   17.9924  -23.7044   53.8029 H   0  0  0  0  0
   17.9796  -22.5173   52.3721 H   0  0  0  0  0
   20.8075  -20.5049   53.9595 H   0  0  0  0  0
   19.6166  -20.4193   52.6383 H   0  0  0  0  0
   19.0909  -20.2050   54.3261 H   0  0  0  0  0
   17.0224  -21.9679   55.2012 H   0  0  0  0  0
   17.0101  -20.8309   53.8308 H   0  0  0  0  0
   15.9801  -22.2830   53.7922 H   0  0  0  0  0
   21.2028  -24.1882   55.0219 H   0  0  0  0  0
   21.2167  -26.8627   53.9937 H   0  0  0  0  0
   22.3720  -26.0927   56.0533 H   0  0  0  0  0
   21.3229  -27.5708   56.3027 H   0  0  0  0  0
   19.7803  -23.9729   56.4814 H   0  0  0  0  0
   19.8130  -25.6783   60.3880 H   0  0  0  0  0
   19.7770  -28.6147   54.4880 H   0  0  0  0  0
   16.9397  -27.6914   54.6114 H   0  0  0  0  0
   17.9904  -30.4551   53.9875 H   0  0  0  0  0
   17.6297  -29.1960   52.7596 H   0  0  0  0  0
   15.3471  -29.1558   53.3518 H   0  0  0  0  0
   15.6615  -30.2415   54.7903 H   0  0  0  0  0
   14.3483  -31.6484   54.1416 H   0  0  0  0  0
   16.0977  -27.7397   56.6384 H   0  0  0  0  0
   17.2900  -29.1764   58.8630 H   0  0  0  0  0
   14.6825  -27.6551   58.5310 H   0  0  0  0  0
   16.7596  -26.3906   58.5584 H   0  0  0  0  0
   17.1598  -27.1607   60.1764 H   0  0  0  0  0
   14.2736  -29.5073   60.0665 H   0  0  0  0  0
   15.7197  -29.0639   61.0062 H   0  0  0  0  0
   14.3294  -27.9534   60.9344 H   0  0  0  0  0
   14.8481  -25.3106   59.5765 H   0  0  0  0  0
   15.2362  -26.0575   61.1458 H   0  0  0  0  0
   16.3503  -24.8698   60.4251 H   0  0  0  0  0
   15.0580  -32.9077   57.6770 H   0  0  0  0  0
   17.1292  -34.0187   58.4433 H   0  0  0  0  0
   16.0389  -34.5942   59.6158 H   0  0  0  0  0
   18.0833  -33.2824   60.5677 H   0  0  0  0  0
   16.5677  -32.7952   61.1827 H   0  0  0  0  0
   17.4131  -30.6913   60.2845 H   0  0  0  0  0
   18.1952  -31.4400   58.9763 H   0  0  0  0  0
   13.5176  -34.3543   58.1500 H   0  0  0  0  0
   11.3939  -33.1232   59.6576 H   0  0  0  0  0
   10.1585  -35.1798   59.2978 H   0  0  0  0  0
   11.6960  -35.9789   58.7097 H   0  0  0  0  0
   11.7525  -34.5237   56.8441 H   0  0  0  0  0
   10.2872  -33.6580   57.4381 H   0  0  0  0  0
    8.9290  -35.5382   57.0834 H   0  0  0  0  0
   10.3643  -36.5962   56.7890 H   0  0  0  0  0
    8.9311  -35.1186   54.8398 H   0  0  0  0  0
   12.2479  -35.7535   55.8746 H   0  0  0  0  0
   11.5422  -35.0554   52.4941 H   0  0  0  0  0
    9.8048  -34.8623   52.7496 H   0  0  0  0  0
   10.5041  -34.1132   61.4414 H   0  0  0  0  0
  1  2  1  0  0  0
  2  3  1  0  0  0
  3  4  2  0  0  0
  3  5  1  0  0  0
  5  6  1  0  0  0
  6  7  1  0  0  0
  6  9  1  0  0  0
  7  8  2  0  0  0
  7 11  1  0  0  0
  9 10  1  0  0  0
 11 12  1  0  0  0
 12 13  1  0  0  0
 12 15  1  0  0  0
 13 14  2  0  0  0
 13 19  1  0  0  0
 15 16  1  0  0  0
 16 17  1  0  0  0
 16 18  1  0  0  0
 19 20  1  0  0  0
 20 21  1  0  0  0
 20 23  1  0  0  0
 21 22  2  0  0  0
 21 26  1  0  0  0
 23 24  1  0  0  0
 23 25  1  0  0  0
 26 27  1  0  0  0
 27 28  1  0  0  0
 27 30  1  0  0  0
 28 29  2  0  0  0
 28 31  1  0  0  0
 31 32  1  0  0  0
 32 33  1  0  0  0
 32 35  1  0  0  0
 33 34  2  0  0  0
 33 38  1  0  0  0
 35 36  1  0  0  0
 35 37  1  0  0  0
 38 39  1  0  0  0
 39 40  1  0  0  0
 39 42  1  0  0  0
 40 41  2  0  0  0
 40 45  1  0  0  0
 42 43  1  0  0  0
 42 44  1  0  0  0
 45 46  1  0  0  0
 46 47  1  0  0  0
 46 49  1  0  0  0
 47 48  2  0  0  0
 47 54  1  0  0  0
 49 50  1  0  0  0
 50 51  1  0  0  0
 51 52  1  0  0  0
 52 53  1  0  0  0
 54 55  1  0  0  0
 55 56  1  0  0  0
 55 58  1  0  0  0
 56 57  2  0  0  0
 56 63  1  0  0  0
 58 59  1  0  0  0
 59 60  1  0  0  0
 60 61  1  0  0  0
 60 62  2  0  0  0
 63 64  1  0  0  0
 64 65  1  0  0  0
 64 67  1  0  0  0
 65 66  2  0  0  0
 65 68  1  0  0  0
 68 69  1  0  0  0
 69 70  1  0  0  0
 70 71  2  0  0  0
 70 72  1  0  0  0
 72 73  1  0  0  0
 73 74  1  0  0  0
 73 76  1  0  0  0
 74 75  2  0  0  0
 74 83  1  0  0  0
 76 77  1  0  0  0
 77 78  1  0  0  0
 78 79  1  0  0  0
 79 80  1  0  0  0
 80 81  1  0  0  0
 80 82  2  0  0  0
 83 84  1  0  0  0
 84 85  1  0  0  0
 84 87  1  0  0  0
 85 86  2  0  0  0
 85 89  1  0  0  0
 87 88  1  0  0  0
 89 90  1  0  0  0
 90 91  1  0  0  0
 90 93  1  0  0  0
 91 92  2  0  0  0
 91 97  1  0  0  0
 93 94  1  0  0  0
 93 95  1  0  0  0
 94 96  1  0  0  0
 97 98  1  0  0  0
 98 99  1  0  0  0
 98101  1  0  0  0
 99100  2  0  0  0
 99107  1  0  0  0
101102  1  0  0  0
102103  4  0  0  0
102104  4  0  0  0
103105  4  0  0  0
104106  4  0  0  0
105106  4  0  0  0
107108  1  0  0  0
108109  1  0  0  0
108111  1  0  0  0
109110  2  0  0  0
109116  1  0  0  0
111112  1  0  0  0
112113  1  0  0  0
113114  2  0  0  0
113115  1  0  0  0
116117  1  0  0  0
117118  1  0  0  0
117120  1  0  0  0
118119  2  0  0  0
118124  1  0  0  0
120121  1  0  0  0
120122  1  0  0  0
121123  1  0  0  0
124125  1  0  0  0
124130  1  0  0  0
125126  1  0  0  0
125128  1  0  0  0
126127  2  0  0  0
126131  1  0  0  0
128129  1  0  0  0
129130  1  0  0  0
131132  1  0  0  0
132133  1  0  0  0
132135  1  0  0  0
133134  2  0  0  0
133142  1  0  0  0
135136  1  0  0  0
136137  1  0  0  0
137138  1  0  0  0
138139  1  0  0  0
139140  2  0  0  0
139141  1  0  0  0
  1143  1  0  0  0
  1144  1  0  0  0
  1145  1  0  0  0
  2146  1  0  0  0
  2147  1  0  0  0
  5148  1  0  0  0
  6149  1  0  0  0
  9150  1  0  0  0
  9151  1  0  0  0
 10152  1  0  0  0
 11153  1  0  0  0
 12154  1  0  0  0
 15155  1  0  0  0
 15156  1  0  0  0
 16157  1  0  0  0
 17158  1  0  0  0
 17159  1  0  0  0
 17160  1  0  0  0
 18161  1  0  0  0
 18162  1  0  0  0
 18163  1  0  0  0
 19164  1  0  0  0
 20165  1  0  0  0
 23166  1  0  0  0
 24167  1  0  0  0
 24168  1  0  0  0
 24169  1  0  0  0
 25170  1  0  0  0
 25171  1  0  0  0
 25172  1  0  0  0
 26173  1  0  0  0
 27174  1  0  0  0
 30175  1  0  0  0
 30176  1  0  0  0
 30177  1  0  0  0
 31178  1  0  0  0
 32179  1  0  0  0
 35180  1  0  0  0
 36181  1  0  0  0
 37182  1  0  0  0
 37183  1  0  0  0
 37184  1  0  0  0
 38185  1  0  0  0
 39186  1  0  0  0
 42187  1  0  0  0
 43188  1  0  0  0
 43189  1  0  0  0
 43190  1  0  0  0
 44191  1  0  0  0
 44192  1  0  0  0
 44193  1  0  0  0
 45194  1  0  0  0
 46195  1  0  0  0
 49196  1  0  0  0
 49197  1  0  0  0
 50198  1  0  0  0
 50199  1  0  0  0
 51200  1  0  0  0
 51201  1  0  0  0
 52202  1  0  0  0
 52203  1  0  0  0
 53204  1  0  0  0
 53205  1  0  0  0
 53206  1  0  0  0
 54207  1  0  0  0
 55208  1  0  0  0
 58209  1  0  0  0
 58210  1  0  0  0
 59211  1  0  0  0
 59212  1  0  0  0
 61213  1  0  0  0
 63214  1  0  0  0
 64215  1  0  0  0
 67216  1  0  0  0
 67217  1  0  0  0
 67218  1  0  0  0
 68219  1  0  0  0
 69220  1  0  0  0
 69221  1  0  0  0
 72222  1  0  0  0
 73223  1  0  0  0
 76224  1  0  0  0
 76225  1  0  0  0
 77226  1  0  0  0
 77227  1  0  0  0
 78228  1  0  0  0
 78229  1  0  0  0
 79230  1  0  0  0
 81231  1  0  0  0
 81232  1  0  0  0
 82233  1  0  0  0
 83234  1  0  0  0
 84235  1  0  0  0
 87236  1  0  0  0
 87237  1  0  0  0
 88238  1  0  0  0
 89239  1  0  0  0
 90240  1  0  0  0
 93241  1  0  0  0
 94242  1  0  0  0
 94243  1  0  0  0
 95244  1  0  0  0
 95245  1  0  0  0
 95246  1  0  0  0
 96247  1  0  0  0
 96248  1  0  0  0
 96249  1  0  0  0
 97250  1  0  0  0
 98251  1  0  0  0
101252  1  0  0  0
101253  1  0  0  0
104254  1  0  0  0
105255  1  0  0  0
107256  1  0  0  0
108257  1  0  0  0
111258  1  0  0  0
111259  1  0  0  0
112260  1  0  0  0
112261  1  0  0  0
115262  1  0  0  0
116263  1  0  0  0
117264  1  0  0  0
120265  1  0  0  0
121266  1  0  0  0
121267  1  0  0  0
122268  1  0  0  0
122269  1  0  0  0
122270  1  0  0  0
123271  1  0  0  0
123272  1  0  0  0
123273  1  0  0  0
125274  1  0  0  0
128275  1  0  0  0
128276  1  0  0  0
129277  1  0  0  0
129278  1  0  0  0
130279  1  0  0  0
130280  1  0  0  0
131281  1  0  0  0
132282  1  0  0  0
135283  1  0  0  0
135284  1  0  0  0
136285  1  0  0  0
136286  1  0  0  0
137287  1  0  0  0
137288  1  0  0  0
138289  1  0  0  0
140290  1  0  0  0
141291  1  0  0  0
141292  1  0  0  0
142293  1  0  0  0
M  END
$$$$
