### 
### Created by X-TOOL on Mon Sep 10 21:12:50 2018
### 

@<TRIPOS>MOLECULE
1r2b_ligand
  293   294     1     0     0
SMALL
GAST_HUCK


@<TRIPOS>ATOM
      1 N          29.5310    5.6240   42.6190 N.4       1 GLY         0.2357
      2 CA         28.6950    4.4090   42.8120 C.3       1 GLY         0.0545
      3 C          28.5860    3.6460   41.5110 C.2       1 GLY         0.2237
      4 O          29.1900    4.0580   40.5070 O.2       1 GLY        -0.3910
      5 N          27.8030    2.5640   41.5130 N.am      1 SER        -0.2591
      6 CA         27.6560    1.7340   40.3310 C.3       1 SER         0.1540
      7 C          26.3060    1.0290   40.1500 C.2       1 SER         0.2062
      8 O          25.5130    0.8600   41.0960 O.2       1 SER        -0.3943
      9 CB         28.7770    0.6950   40.3270 C.3       1 SER         0.0843
     10 OG         28.6920   -0.1350   41.4640 O.3       1 SER        -0.3903
     11 N          26.0470    0.6300   38.9070 N.am      1 LEU        -0.2636
     12 CA         24.8250   -0.0860   38.5700 C.3       1 LEU         0.1312
     13 C          25.1140   -1.5440   38.8730 C.2       1 LEU         0.2039
     14 O          25.9760   -2.1710   38.2470 O.2       1 LEU        -0.3944
     15 CB         24.4780    0.1040   37.1020 C.3       1 LEU        -0.0101
     16 CG         24.2090    1.5730   36.7370 C.3       1 LEU        -0.0425
     17 CD1        23.9950    1.6830   35.2260 C.3       1 LEU        -0.0625
     18 CD2        22.9820    2.1130   37.5140 C.3       1 LEU        -0.0625
     19 N          24.3750   -2.0780   39.8340 N.am      1 VAL        -0.2635
     20 CA         24.5680   -3.4340   40.2840 C.3       1 VAL         0.1332
     21 C          24.3230   -4.5350   39.2650 C.2       1 VAL         0.2041
     22 O          23.2600   -4.6110   38.6210 O.2       1 VAL        -0.3944
     23 CB         23.7210   -3.7230   41.5470 C.3       1 VAL        -0.0063
     24 CG1        24.1420   -5.0640   42.1530 C.3       1 VAL        -0.0584
     25 CG2        23.8980   -2.5850   42.5640 C.3       1 VAL        -0.0584
     26 N          25.3390   -5.3780   39.1040 N.am      1 ALA        -0.2640
     27 CA         25.2100   -6.5130   38.1970 C.3       1 ALA         0.1282
     28 C          24.4450   -7.5890   38.9820 C.2       1 ALA         0.2037
     29 O          24.7360   -7.8350   40.1550 O.2       1 ALA        -0.3944
     30 CB         26.6100   -7.0410   37.7890 C.3       1 ALA        -0.0244
     31 N          23.4540   -8.2120   38.3680 N.am      1 THR        -0.2613
     32 CA         22.7400   -9.2640   39.0740 C.3       1 THR         0.1565
     33 C          22.8910  -10.5600   38.2910 C.2       1 THR         0.2065
     34 O          23.0550  -10.5630   37.0740 O.2       1 THR        -0.3943
     35 CB         21.2180   -8.9700   39.2220 C.3       1 THR         0.0924
     36 OG1        20.6150   -8.9520   37.9250 O.3       1 THR        -0.3874
     37 CG2        20.9680   -7.6090   39.8980 C.3       1 THR        -0.0346
     38 N          22.8490  -11.6680   39.0130 N.am      1 VAL        -0.2634
     39 CA         22.9250  -12.9720   38.4040 C.3       1 VAL         0.1333
     40 C          22.0810  -13.8370   39.3200 C.2       1 VAL         0.2041
     41 O          21.9450  -13.5260   40.5030 O.2       1 VAL        -0.3944
     42 CB         24.3900  -13.4700   38.3090 C.3       1 VAL        -0.0063
     43 CG1        25.0320  -13.5620   39.7140 C.3       1 VAL        -0.0584
     44 CG2        24.4370  -14.8050   37.5720 C.3       1 VAL        -0.0584
     45 N          21.4970  -14.9100   38.7900 N.am      1 LYS        -0.2637
     46 CA         20.6670  -15.7530   39.6350 C.3       1 LYS         0.1310
     47 C          21.3030  -17.0560   40.0540 C.2       1 LYS         0.2039
     48 O          22.1280  -17.6200   39.3330 O.2       1 LYS        -0.3944
     49 CB         19.3330  -16.0570   38.9420 C.3       1 LYS        -0.0122
     50 CG         18.4230  -14.8560   38.7800 C.3       1 LYS        -0.0440
     51 CD         17.1950  -15.2020   37.9540 C.3       1 LYS        -0.0124
     52 CE         16.3080  -13.9730   37.7580 C.3       1 LYS        -0.0354
     53 NZ         15.0100  -14.2930   37.0820 N.4       1 LYS         0.2185
     54 N          20.9220  -17.5140   41.2430 N.am      1 GLU        -0.2636
     55 CA         21.3680  -18.7980   41.7570 C.3       1 GLU         0.1325
     56 C          20.0870  -19.6110   41.9230 C.2       1 GLU         0.2040
     57 O          19.1920  -19.2270   42.6910 O.2       1 GLU        -0.3944
     58 CB         22.0890  -18.6700   43.1040 C.3       1 GLU        -0.0008
     59 CG         22.4010  -20.0550   43.7500 C.3       1 GLU         0.0044
     60 CD         23.1560  -21.0370   42.8190 C.2       1 GLU         0.0350
     61 OE1        24.3290  -20.8060   42.4770 O.co2     1 GLU        -0.5690
     62 OE2        22.5800  -22.0580   42.4200 O.co2     1 GLU        -0.5690
     63 N          20.0050  -20.7330   41.2150 N.am      1 ALA        -0.2640
     64 CA         18.8150  -21.5630   41.2620 C.3       1 ALA         0.1282
     65 C          18.8590  -22.6990   42.2610 C.2       1 ALA         0.2034
     66 O          17.8360  -23.2930   42.5550 O.2       1 ALA        -0.3944
     67 CB         18.5000  -22.1300   39.8540 C.3       1 ALA        -0.0244
     68 N          20.0360  -23.0190   42.7740 N.am      1 GLY        -0.2664
     69 CA         20.1190  -24.1140   43.7220 C.3       1 GLY         0.1201
     70 C          19.6250  -23.7980   45.1260 C.2       1 GLY         0.2007
     71 O          19.2580  -22.6640   45.4210 O.2       1 GLY        -0.3947
     72 N          19.6150  -24.8250   45.9780 N.am      1 ARG        -0.2640
     73 CA         19.2220  -24.7040   47.3730 C.3       1 ARG         0.1311
     74 C          20.1350  -23.6450   47.9940 C.2       1 ARG         0.2040
     75 O          21.3630  -23.6600   47.7990 O.2       1 ARG        -0.3944
     76 CB         19.3870  -26.0570   48.0810 C.3       1 ARG        -0.0092
     77 CG         19.4030  -26.0010   49.6130 C.3       1 ARG        -0.0156
     78 CD         19.1410  -27.3950   50.2330 C.3       1 ARG         0.0627
     79 NE         17.7180  -27.7630   50.1980 N.pl3     1 ARG        -0.2723
     80 CZ         16.7910  -27.2370   50.9980 C.cat     1 ARG         0.2882
     81 NH1        17.1300  -26.3210   51.9160 N.pl3     1 ARG        -0.2849
     82 NH2        15.5150  -27.6030   50.8700 N.pl3     1 ARG        -0.2849
     83 N          19.5280  -22.7290   48.7410 N.am      1 SER        -0.2616
     84 CA         20.2650  -21.6240   49.3450 C.3       1 SER         0.1539
     85 C          20.7460  -21.8410   50.7710 C.2       1 SER         0.2062
     86 O          21.6350  -21.1370   51.2470 O.2       1 SER        -0.3943
     87 CB         19.3910  -20.3710   49.3260 C.3       1 SER         0.0843
     88 OG         18.3120  -20.5160   50.2330 O.3       1 SER        -0.3903
     89 N          20.1730  -22.8120   51.4550 N.am      1 ILE        -0.2634
     90 CA         20.5250  -23.0220   52.8510 C.3       1 ILE         0.1335
     91 C          20.4010  -24.4880   53.1710 C.2       1 ILE         0.2043
     92 O          19.9240  -25.2610   52.3530 O.2       1 ILE        -0.3944
     93 CB         19.5420  -22.2510   53.7870 C.3       1 ILE        -0.0037
     94 CG1        18.0920  -22.6800   53.4440 C.3       1 ILE        -0.0491
     95 CG2        19.7820  -20.7330   53.6690 C.3       1 ILE        -0.0582
     96 CD1        16.9390  -21.8800   54.1180 C.3       1 ILE        -0.0648
     97 N          20.8130  -24.8690   54.3700 N.am      1 HIS        -0.2625
     98 CA         20.7040  -26.2620   54.7450 C.3       1 HIS         0.1369
     99 C          19.2360  -26.6800   54.8030 C.2       1 HIS         0.2054
    100 O          18.3270  -25.8470   54.9400 O.2       1 HIS        -0.3942
    101 CB         21.3620  -26.4990   56.1080 C.3       1 HIS         0.0145
    102 CG         20.6720  -25.8170   57.2470 C.2       1 HIS        -0.0027
    103 ND1        20.6620  -26.3360   58.5240 N.2       1 HIS        -0.3252
    104 CD2        19.9750  -24.6550   57.3090 C.2       1 HIS         0.0291
    105 CE1        19.9870  -25.5250   59.3230 C.2       1 HIS         0.0907
    106 NE2        19.5600  -24.4980   58.6100 N.pl3     1 HIS        -0.2752
    107 N          19.0020  -27.9770   54.6700 N.am      1 GLU        -0.2635
    108 CA         17.6530  -28.4980   54.7810 C.3       1 GLU         0.1325
    109 C          17.5190  -29.1080   56.1800 C.2       1 GLU         0.2040
    110 O          18.2340  -30.0530   56.5240 O.2       1 GLU        -0.3944
    111 CB         17.3820  -29.5830   53.7480 C.3       1 GLU        -0.0008
    112 CG         15.9170  -29.9900   53.7610 C.3       1 GLU         0.0044
    113 CD         15.6050  -31.2040   52.9130 C.2       1 GLU         0.0350
    114 OE1        16.2350  -31.3840   51.8500 O.co2     1 GLU        -0.5690
    115 OE2        14.6970  -31.9700   53.3070 O.co2     1 GLU        -0.5690
    116 N          16.6210  -28.5450   56.9820 N.am      1 ILE        -0.2635
    117 CA         16.3510  -29.0270   58.3300 C.3       1 ILE         0.1337
    118 C          15.5620  -30.3210   58.1870 C.2       1 ILE         0.2067
    119 O          14.5070  -30.3470   57.5680 O.2       1 ILE        -0.3942
    120 CB         15.5160  -28.0120   59.1360 C.3       1 ILE        -0.0037
    121 CG1        16.3870  -26.8030   59.4960 C.3       1 ILE        -0.0491
    122 CG2        14.9160  -28.6830   60.3760 C.3       1 ILE        -0.0582
    123 CD1        15.6530  -25.6800   60.2120 C.3       1 ILE        -0.0648
    124 N          16.0560  -31.4130   58.7840 N.am      1 PRO        -0.2498
    125 CA         15.3870  -32.7140   58.6980 C.3       1 PRO         0.1337
    126 C          14.0560  -32.8590   59.4290 C.2       1 PRO         0.2035
    127 O          13.7710  -32.1240   60.3820 O.2       1 PRO        -0.3944
    128 CB         16.4530  -33.6660   59.2220 C.3       1 PRO        -0.0104
    129 CG         17.1320  -32.8540   60.2520 C.3       1 PRO        -0.0281
    130 CD         17.2900  -31.5130   59.5790 C.3       1 PRO         0.0369
    131 N          13.2380  -33.8040   58.9620 N.am      1 ARG        -0.2695
    132 CA         11.9430  -34.0630   59.5990 C.3       1 ARG         0.0945
    133 C          12.1830  -34.6420   60.9980 C.2       1 ARG         0.0601
    134 O          13.2910  -35.1780   61.2320 O.co2     1 ARG        -0.5666
    135 CB         11.1130  -35.0610   58.7850 C.3       1 ARG        -0.0148
    136 CG         10.8120  -34.6120   57.3880 C.3       1 ARG        -0.0162
    137 CD          9.9330  -35.6030   56.6640 C.3       1 ARG         0.0627
    138 NE          9.8500  -35.3180   55.2350 N.pl3     1 ARG        -0.2723
    139 CZ         10.8990  -35.3020   54.4150 C.cat     1 ARG         0.2882
    140 NH1        12.1150  -35.5500   54.8840 N.pl3     1 ARG        -0.2849
    141 NH2        10.7360  -35.0540   53.1190 N.pl3     1 ARG        -0.2849
    142 OXT        11.2550  -34.5610   61.8380 O.co2     1 ARG        -0.5666
    143 H1         29.5989    6.1269   43.4899 H         1 GLY         0.2012
    144 H2         29.1077    6.2158   41.9214 H         1 GLY         0.2012
    145 H3         30.4529    5.3527   42.3149 H         1 GLY         0.2012
    146 H4         27.6899    4.7072   43.1450 H         1 GLY         0.1061
    147 H5         29.1580    3.7653   43.5744 H         1 GLY         0.1061
    148 H6         27.3073    2.3203   42.3466 H         1 SER         0.1885
    149 H7         27.7895    2.3914   39.4593 H         1 SER         0.0823
    150 H8         29.7481    1.2116   40.3290 H         1 SER         0.0606
    151 H9         28.6926    0.0764   39.4214 H         1 SER         0.0606
    152 H10        29.3960   -0.7725   41.4427 H         1 SER         0.2097
    153 H11        26.7099    0.8274   38.1848 H         1 LEU         0.1883
    154 H12        23.9895    0.2731   39.1888 H         1 LEU         0.0800
    155 H13        23.5770   -0.4848   36.8751 H         1 LEU         0.0315
    156 H14        25.3178   -0.2611   36.4925 H         1 LEU         0.0315
    157 H15        25.0878    2.1739   37.0139 H         1 LEU         0.0298
    158 H16        23.8020    2.7324   34.9585 H         1 LEU         0.0232
    159 H17        23.1338    1.0652   34.9317 H         1 LEU         0.0232
    160 H18        24.8954    1.3306   34.7015 H         1 LEU         0.0232
    161 H19        23.1634    2.0217   38.5951 H         1 LEU         0.0232
    162 H20        22.0898    1.5302   37.2414 H         1 LEU         0.0232
    163 H21        22.8217    3.1705   37.2572 H         1 LEU         0.0232
    164 H22        23.6608   -1.5231   40.2607 H         1 VAL         0.1883
    165 H23        25.6270   -3.5090   40.5717 H         1 VAL         0.0802
    166 H24        22.6603   -3.7805   41.2614 H         1 VAL         0.0343
    167 H25        23.5385   -5.2665   43.0501 H         1 VAL         0.0234
    168 H26        25.2062   -5.0240   42.4284 H         1 VAL         0.0234
    169 H27        23.9838   -5.8652   41.4161 H         1 VAL         0.0234
    170 H28        23.5897   -1.6333   42.1066 H         1 VAL         0.0234
    171 H29        24.9544   -2.5223   42.8640 H         1 VAL         0.0234
    172 H30        23.2766   -2.7845   43.4494 H         1 VAL         0.0234
    173 H31        26.1922   -5.2336   39.6052 H         1 ALA         0.1883
    174 H32        24.6495   -6.2227   37.2961 H         1 ALA         0.0797
    175 H33        26.4948   -7.8955   37.1060 H         1 ALA         0.0277
    176 H34        27.1574   -7.3612   38.6878 H         1 ALA         0.0277
    177 H35        27.1708   -6.2408   37.2838 H         1 ALA         0.0277
    178 H36        23.1994   -7.9640   37.4333 H         1 THR         0.1884
    179 H37        23.1798   -9.3802   40.0755 H         1 THR         0.0826
    180 H38        20.7586   -9.7630   39.8304 H         1 THR         0.0639
    181 H39        21.0216   -8.2746   37.3974 H         1 THR         0.2101
    182 H40        19.8851   -7.4363   39.9852 H         1 THR         0.0257
    183 H41        21.4190   -6.8099   39.2914 H         1 THR         0.0257
    184 H42        21.4212   -7.6087   40.9003 H         1 THR         0.0257
    185 H43        22.7623  -11.5988   40.0068 H         1 VAL         0.1883
    186 H44        22.4926  -12.9508   37.3928 H         1 VAL         0.0802
    187 H45        24.9652  -12.7378   37.7233 H         1 VAL         0.0343
    188 H46        26.0690  -13.9168   39.6207 H         1 VAL         0.0234
    189 H47        24.4580  -14.2662   40.3341 H         1 VAL         0.0234
    190 H48        25.0255  -12.5684   40.1859 H         1 VAL         0.0234
    191 H49        23.9715  -14.6936   36.5816 H         1 VAL         0.0234
    192 H50        23.8895  -15.5631   38.1512 H         1 VAL         0.0234
    193 H51        25.4838  -15.1208   37.4517 H         1 VAL         0.0234
    194 H52        21.6276  -15.1329   37.8239 H         1 LYS         0.1883
    195 H53        20.4564  -15.1818   40.5512 H         1 LYS         0.0800
    196 H54        18.8009  -16.8138   39.5371 H         1 LYS         0.0312
    197 H55        19.5492  -16.4620   37.9424 H         1 LYS         0.0312
    198 H56        18.9783  -14.0508   38.2767 H         1 LYS         0.0269
    199 H57        18.1011  -14.5134   39.7745 H         1 LYS         0.0269
    200 H58        16.6196  -15.9827   38.4731 H         1 LYS         0.0317
    201 H59        17.5157  -15.5756   36.9704 H         1 LYS         0.0317
    202 H60        16.8528  -13.2413   37.1434 H         1 LYS         0.0813
    203 H61        16.0918  -13.5353   38.7437 H         1 LYS         0.0813
    204 H62        14.4678  -13.4495   36.9792 H         1 LYS         0.1994
    205 H63        14.4957  -14.9571   37.6392 H         1 LYS         0.1994
    206 H64        15.1930  -14.6877   36.1727 H         1 LYS         0.1994
    207 H65        20.3083  -16.9563   41.8019 H         1 GLU         0.1883
    208 H66        22.0418  -19.2812   41.0342 H         1 GLU         0.0801
    209 H67        21.4512  -18.0958   43.7921 H         1 GLU         0.0330
    210 H68        23.0360  -18.1328   42.9473 H         1 GLU         0.0330
    211 H69        21.4486  -20.5211   44.0426 H         1 GLU         0.0433
    212 H70        23.0172  -19.8866   44.6455 H         1 GLU         0.0433
    213 H71        20.7755  -21.0098   40.6407 H         1 ALA         0.1883
    214 H72        17.9824  -20.9078   41.5577 H         1 ALA         0.0797
    215 H73        17.5970  -22.7562   39.9045 H         1 ALA         0.0277
    216 H74        19.3482  -22.7372   39.5050 H         1 ALA         0.0277
    217 H75        18.3312  -21.2990   39.1534 H         1 ALA         0.0277
    218 H76        20.8575  -22.5127   42.5117 H         1 GLY         0.1881
    219 H77        21.1725  -24.4221   43.7939 H         1 GLY         0.0763
    220 H78        19.5188  -24.9486   43.3305 H         1 GLY         0.0763
    221 H79        19.8921  -25.7244   45.6398 H         1 ARG         0.1883
    222 H80        18.1725  -24.3825   47.4445 H         1 ARG         0.0800
    223 H81        20.3369  -26.5005   47.7479 H         1 ARG         0.0313
    224 H82        18.5524  -26.7045   47.7740 H         1 ARG         0.0313
    225 H83        18.6219  -25.3055   49.9537 H         1 ARG         0.0301
    226 H84        20.3867  -25.6400   49.9475 H         1 ARG         0.0301
    227 H85        19.4782  -27.3855   51.2800 H         1 ARG         0.0689
    228 H86        19.7144  -28.1460   49.6699 H         1 ARG         0.0689
    229 H87        17.4190  -28.4713   49.5126 H         1 ARG         0.2642
    230 H88        16.4094  -25.9178   52.5317 H         1 ARG         0.2615
    231 H89        18.1111  -26.0204   52.0057 H         1 ARG         0.2615
    232 H90        15.2491  -28.3064   50.1662 H         1 ARG         0.2615
    233 H91        14.7954  -27.1822   51.4750 H         1 ARG         0.2615
    234 H92        18.5421  -22.7986   48.8929 H         1 SER         0.1884
    235 H93        21.1536  -21.4462   48.7215 H         1 SER         0.0823
    236 H94        18.9951  -20.2189   48.3111 H         1 SER         0.0606
    237 H95        19.9968  -19.5004   49.6176 H         1 SER         0.0606
    238 H96        17.7756  -19.7322   50.2132 H         1 SER         0.2097
    239 H97        19.4973  -23.4033   51.0147 H         1 ILE         0.1883
    240 H98        21.5555  -22.6801   53.0275 H         1 ILE         0.0803
    241 H99        19.7449  -22.5419   54.8282 H         1 ILE         0.0345
    242 H100       17.9798  -23.7342   53.7374 H         1 ILE         0.0267
    243 H101       17.9675  -22.5872   52.3550 H         1 ILE         0.0267
    244 H102       20.8271  -20.5060   53.9262 H         1 ILE         0.0235
    245 H103       19.1107  -20.2009   54.3591 H         1 ILE         0.0235
    246 H104       19.5795  -20.4088   52.6376 H         1 ILE         0.0235
    247 H105       15.9706  -22.2858   53.7900 H         1 ILE         0.0230
    248 H106       17.0096  -20.8210   53.8289 H         1 ILE         0.0230
    249 H107       17.0220  -21.9680   55.2113 H         1 ILE         0.0230
    250 H108       21.1952  -24.2016   55.0092 H         1 HIS         0.1885
    251 H109       21.2192  -26.8735   53.9897 H         1 HIS         0.0817
    252 H110       22.3972  -26.1300   56.0606 H         1 HIS         0.0420
    253 H111       21.3671  -27.5811   56.3055 H         1 HIS         0.0420
    254 H112       19.7805  -23.9735   56.4822 H         1 HIS         0.0729
    255 H113       19.8132  -25.6782   60.3871 H         1 HIS         0.1199
    256 H114       19.0061  -23.7080   58.9705 H         1 HIS         0.2361
    257 H115       19.7618  -28.6022   54.4916 H         1 GLU         0.1883
    258 H116       16.9284  -27.6808   54.6502 H         1 GLU         0.0801
    259 H117       18.0021  -30.4620   53.9776 H         1 GLU         0.0330
    260 H118       17.6412  -29.2022   52.7491 H         1 GLU         0.0330
    261 H119       15.3204  -29.1449   53.3869 H         1 GLU         0.0433
    262 H120       15.6291  -30.2109   54.7994 H         1 GLU         0.0433
    263 H121       16.1079  -27.7555   56.6451 H         1 ILE         0.1883
    264 H122       17.2994  -29.2156   58.8544 H         1 ILE         0.0803
    265 H123       14.6866  -27.6612   58.5043 H         1 ILE         0.0345
    266 H124       16.8102  -26.3967   58.5655 H         1 ILE         0.0267
    267 H125       17.2017  -27.1501   60.1485 H         1 ILE         0.0267
    268 H126       14.3017  -29.5416   60.0672 H         1 ILE         0.0235
    269 H127       14.2889  -27.9593   60.9173 H         1 ILE         0.0235
    270 H128       15.7266  -29.0298   61.0337 H         1 ILE         0.0235
    271 H129       16.3558  -24.8617   60.4277 H         1 ILE         0.0230
    272 H130       15.2319  -26.0596   61.1546 H         1 ILE         0.0230
    273 H131       14.8405  -25.3063   59.5716 H         1 ILE         0.0230
    274 H132       15.1885  -32.9351   57.6389 H         1 PRO         0.0802
    275 H133       17.1508  -33.9590   58.4237 H         1 PRO         0.0313
    276 H134       15.9996  -34.5666   59.6616 H         1 PRO         0.0313
    277 H135       18.1108  -33.2834   60.5119 H         1 PRO         0.0287
    278 H136       16.5156  -32.7706   61.1592 H         1 PRO         0.0287
    279 H137       17.3541  -30.7014   60.3187 H         1 PRO         0.0524
    280 H138       18.1814  -31.4933   58.9348 H         1 PRO         0.0524
    281 H139       13.5121  -34.3435   58.1659 H         1 ARG         0.1875
    282 H140       11.3878  -33.1171   59.6823 H         1 ARG         0.0726
    283 H141       10.1592  -35.2244   59.3081 H         1 ARG         0.0307
    284 H142       11.6686  -36.0088   58.7308 H         1 ARG         0.0307
    285 H143       11.7574  -34.5035   56.8362 H         1 ARG         0.0301
    286 H144       10.2972  -33.6407   57.4281 H         1 ARG         0.0301
    287 H145        8.9214  -35.5608   57.0939 H         1 ARG         0.0689
    288 H146       10.3480  -36.6124   56.8013 H         1 ARG         0.0689
    289 H147        8.9220  -35.1167   54.8359 H         1 ARG         0.2642
    290 H148       12.9249  -35.5371   54.2478 H         1 ARG         0.2615
    291 H149       12.2492  -35.7555   55.8843 H         1 ARG         0.2615
    292 H150        9.7956  -34.8604   52.7460 H         1 ARG         0.2615
    293 H151       11.5501  -35.0555   52.4880 H         1 ARG         0.2615
@<TRIPOS>BOND
     1    1    2 1  
     2    2    3 1  
     3    3    4 2  
     4    3    5 am 
     5    5    6 1  
     6    6    7 1  
     7    6    9 1  
     8    7    8 2  
     9    7   11 am 
    10    9   10 1  
    11   11   12 1  
    12   12   13 1  
    13   12   15 1  
    14   13   14 2  
    15   13   19 am 
    16   15   16 1  
    17   16   17 1  
    18   16   18 1  
    19   19   20 1  
    20   20   21 1  
    21   20   23 1  
    22   21   22 2  
    23   21   26 am 
    24   23   24 1  
    25   23   25 1  
    26   26   27 1  
    27   27   28 1  
    28   27   30 1  
    29   28   29 2  
    30   28   31 am 
    31   31   32 1  
    32   32   33 1  
    33   32   35 1  
    34   33   34 2  
    35   33   38 am 
    36   35   36 1  
    37   35   37 1  
    38   38   39 1  
    39   39   40 1  
    40   39   42 1  
    41   40   41 2  
    42   40   45 am 
    43   42   43 1  
    44   42   44 1  
    45   45   46 1  
    46   46   47 1  
    47   46   49 1  
    48   47   48 2  
    49   47   54 am 
    50   49   50 1  
    51   50   51 1  
    52   51   52 1  
    53   52   53 1  
    54   54   55 1  
    55   55   56 1  
    56   55   58 1  
    57   56   57 2  
    58   56   63 am 
    59   58   59 1  
    60   59   60 1  
    61   60   61 ar 
    62   60   62 ar 
    63   63   64 1  
    64   64   65 1  
    65   64   67 1  
    66   65   66 2  
    67   65   68 am 
    68   68   69 1  
    69   69   70 1  
    70   70   71 2  
    71   70   72 am 
    72   72   73 1  
    73   73   74 1  
    74   73   76 1  
    75   74   75 2  
    76   74   83 am 
    77   76   77 1  
    78   77   78 1  
    79   78   79 1  
    80   79   80 ar 
    81   80   81 ar 
    82   80   82 ar 
    83   83   84 1  
    84   84   85 1  
    85   84   87 1  
    86   85   86 2  
    87   85   89 am 
    88   87   88 1  
    89   89   90 1  
    90   90   91 1  
    91   90   93 1  
    92   91   92 2  
    93   91   97 am 
    94   93   94 1  
    95   93   95 1  
    96   94   96 1  
    97   97   98 1  
    98   98   99 1  
    99   98  101 1  
   100   99  100 2  
   101   99  107 am 
   102  101  102 1  
   103  102  103 1  
   104  102  104 2  
   105  103  105 2  
   106  104  106 1  
   107  105  106 1  
   108  107  108 1  
   109  108  109 1  
   110  108  111 1  
   111  109  110 2  
   112  109  116 am 
   113  111  112 1  
   114  112  113 1  
   115  113  114 ar 
   116  113  115 ar 
   117  116  117 1  
   118  117  118 1  
   119  117  120 1  
   120  118  119 2  
   121  118  124 am 
   122  120  121 1  
   123  120  122 1  
   124  121  123 1  
   125  124  125 1  
   126  124  130 1  
   127  125  126 1  
   128  125  128 1  
   129  126  127 2  
   130  126  131 am 
   131  128  129 1  
   132  129  130 1  
   133  131  132 1  
   134  132  133 1  
   135  132  135 1  
   136  133  134 ar 
   137  133  142 ar 
   138  135  136 1  
   139  136  137 1  
   140  137  138 1  
   141  138  139 ar 
   142  139  140 ar 
   143  139  141 ar 
   144    1  143 1  
   145    1  144 1  
   146    1  145 1  
   147    2  146 1  
   148    2  147 1  
   149    5  148 1  
   150    6  149 1  
   151    9  150 1  
   152    9  151 1  
   153   10  152 1  
   154   11  153 1  
   155   12  154 1  
   156   15  155 1  
   157   15  156 1  
   158   16  157 1  
   159   17  158 1  
   160   17  159 1  
   161   17  160 1  
   162   18  161 1  
   163   18  162 1  
   164   18  163 1  
   165   19  164 1  
   166   20  165 1  
   167   23  166 1  
   168   24  167 1  
   169   24  168 1  
   170   24  169 1  
   171   25  170 1  
   172   25  171 1  
   173   25  172 1  
   174   26  173 1  
   175   27  174 1  
   176   30  175 1  
   177   30  176 1  
   178   30  177 1  
   179   31  178 1  
   180   32  179 1  
   181   35  180 1  
   182   36  181 1  
   183   37  182 1  
   184   37  183 1  
   185   37  184 1  
   186   38  185 1  
   187   39  186 1  
   188   42  187 1  
   189   43  188 1  
   190   43  189 1  
   191   43  190 1  
   192   44  191 1  
   193   44  192 1  
   194   44  193 1  
   195   45  194 1  
   196   46  195 1  
   197   49  196 1  
   198   49  197 1  
   199   50  198 1  
   200   50  199 1  
   201   51  200 1  
   202   51  201 1  
   203   52  202 1  
   204   52  203 1  
   205   53  204 1  
   206   53  205 1  
   207   53  206 1  
   208   54  207 1  
   209   55  208 1  
   210   58  209 1  
   211   58  210 1  
   212   59  211 1  
   213   59  212 1  
   214   63  213 1  
   215   64  214 1  
   216   67  215 1  
   217   67  216 1  
   218   67  217 1  
   219   68  218 1  
   220   69  219 1  
   221   69  220 1  
   222   72  221 1  
   223   73  222 1  
   224   76  223 1  
   225   76  224 1  
   226   77  225 1  
   227   77  226 1  
   228   78  227 1  
   229   78  228 1  
   230   79  229 1  
   231   81  230 1  
   232   81  231 1  
   233   82  232 1  
   234   82  233 1  
   235   83  234 1  
   236   84  235 1  
   237   87  236 1  
   238   87  237 1  
   239   88  238 1  
   240   89  239 1  
   241   90  240 1  
   242   93  241 1  
   243   94  242 1  
   244   94  243 1  
   245   95  244 1  
   246   95  245 1  
   247   95  246 1  
   248   96  247 1  
   249   96  248 1  
   250   96  249 1  
   251   97  250 1  
   252   98  251 1  
   253  101  252 1  
   254  101  253 1  
   255  104  254 1  
   256  105  255 1  
   257  106  256 1  
   258  107  257 1  
   259  108  258 1  
   260  111  259 1  
   261  111  260 1  
   262  112  261 1  
   263  112  262 1  
   264  116  263 1  
   265  117  264 1  
   266  120  265 1  
   267  121  266 1  
   268  121  267 1  
   269  122  268 1  
   270  122  269 1  
   271  122  270 1  
   272  123  271 1  
   273  123  272 1  
   274  123  273 1  
   275  125  274 1  
   276  128  275 1  
   277  128  276 1  
   278  129  277 1  
   279  129  278 1  
   280  130  279 1  
   281  130  280 1  
   282  131  281 1  
   283  132  282 1  
   284  135  283 1  
   285  135  284 1  
   286  136  285 1  
   287  136  286 1  
   288  137  287 1  
   289  137  288 1  
   290  138  289 1  
   291  140  290 1  
   292  140  291 1  
   293  141  292 1  
   294  141  293 1  
@<TRIPOS>SUBSTRUCTURE
     1 GLY         1

