4puj_ligand
  -I-interpret- 

 42 45  0  0  0  0  0  0  0  0999 V2000
  -18.9810   18.6740  -18.4690 N   0  0  0  0  0
  -18.2790   18.2980  -19.5960 C   0  0  0  0  0
  -18.5670   18.3190  -20.9460 C   0  0  0  0  0
  -17.6040   17.9340  -21.8730 C   0  0  0  0  0
  -17.8170   18.1070  -23.3170 C   0  0  0  0  0
  -18.8810   18.4800  -23.8040 O   0  0  0  0  0
  -16.7310   17.8200  -24.1130 N   0  0  0  0  0
  -15.5360   17.3760  -23.6730 C   0  0  0  0  0
  -14.5650   17.1240  -24.5300 N   0  0  0  0  0
  -15.3420   17.2100  -22.3540 N   0  0  0  0  0
  -16.3450   17.5050  -21.4180 C   0  0  0  0  0
  -16.0560   17.4700  -20.0560 C   0  0  0  0  0
  -17.0270   17.8860  -19.1390 C   0  0  0  0  0
  -16.9630   18.0240  -17.7530 N   0  0  0  0  0
  -18.1490   18.4990  -17.4170 C   0  0  0  0  0
  -18.5430   18.8170  -16.1790 N   0  0  0  0  0
  -17.6410   18.8390  -15.0370 C   0  0  0  0  0
  -16.6700   20.0010  -15.0940 C   0  0  0  0  0
  -15.6300   19.9570  -14.0150 N   0  3  0  0  0
  -16.1950   20.3130  -12.6800 C   0  0  0  0  0
  -15.1080   20.2700  -11.6350 C   0  0  0  0  0
  -14.0340   21.1490  -11.9650 O   0  0  0  0  0
  -13.4540   20.7640  -13.2040 C   0  0  0  0  0
  -14.4600   20.8330  -14.3270 C   0  0  0  0  0
  -19.5520   18.6382  -21.2865 H   0  0  0  0  0
  -14.7169   17.2649  -25.5287 H   0  0  0  0  0
  -14.4422   16.8604  -22.0244 H   0  0  0  0  0
  -15.0833   17.1221  -19.7082 H   0  0  0  0  0
  -19.5231   19.0557  -16.0279 H   0  0  0  0  0
  -17.0633   17.9147  -15.0443 H   0  0  0  0  0
  -18.2416   18.9440  -14.1335 H   0  0  0  0  0
  -17.2445   20.9177  -14.9611 H   0  0  0  0  0
  -16.1531   19.9521  -16.0524 H   0  0  0  0  0
  -15.3029   18.9916  -13.9764 H   0  0  0  0  0
  -16.9750   19.5983  -12.4173 H   0  0  0  0  0
  -16.6131   21.3187  -12.7229 H   0  0  0  0  0
  -14.7192   19.2531  -11.5815 H   0  0  0  0  0
  -15.5320   20.5842  -10.6813 H   0  0  0  0  0
  -13.1017   19.7362  -13.1171 H   0  0  0  0  0
  -12.6349   21.4467  -13.4301 H   0  0  0  0  0
  -14.8012   21.8618  -14.4418 H   0  0  0  0  0
  -13.9920   20.4929  -15.2508 H   0  0  0  0  0
  1  2  4  0  0  0
  1 15  4  0  0  0
  2  3  4  0  0  0
  2 13  4  0  0  0
  3  4  4  0  0  0
  4  5  1  0  0  0
  4 11  4  0  0  0
  5  6  2  0  0  0
  5  7  1  0  0  0
  7  8  4  0  0  0
  8  9  2  0  0  0
  8 10  1  0  0  0
 10 11  1  0  0  0
 11 12  4  0  0  0
 12 13  4  0  0  0
 13 14  4  0  0  0
 14 15  4  0  0  0
 15 16  1  0  0  0
 16 17  1  0  0  0
 17 18  1  0  0  0
 18 19  1  0  0  0
 19 20  1  0  0  0
 19 24  1  0  0  0
 20 21  1  0  0  0
 21 22  1  0  0  0
 22 23  1  0  0  0
 23 24  1  0  0  0
  3 25  1  0  0  0
  9 26  1  0  0  0
 10 27  1  0  0  0
 12 28  1  0  0  0
 16 29  1  0  0  0
 17 30  1  0  0  0
 17 31  1  0  0  0
 18 32  1  0  0  0
 18 33  1  0  0  0
 19 34  1  0  0  0
 20 35  1  0  0  0
 20 36  1  0  0  0
 21 37  1  0  0  0
 21 38  1  0  0  0
 23 39  1  0  0  0
 23 40  1  0  0  0
 24 41  1  0  0  0
 24 42  1  0  0  0
M  END
$$$$
