4rz1_ligand
  -I-interpret- 

 77 79  0  0  0  0  0  0  0  0999 V2000
   42.9400  108.5540    9.1460 C   0  0  0  0  0
   42.2750  107.9450   10.3970 C   0  0  0  0  0
   44.9940  108.9680   14.0870 C   0  0  0  0  0
   44.1000  106.2620   12.3530 C   0  0  0  0  0
   45.3250  105.4560   12.7490 C   0  0  0  0  0
   45.3940  104.7310   13.9540 C   0  0  0  0  0
   47.6670  103.9830   13.3890 C   0  0  0  0  0
   47.5870  104.6860   12.1680 C   0  0  0  0  0
   46.5580  104.0020   14.2790 C   0  0  0  0  0
   46.4070  105.4130   11.8520 C   0  0  0  0  0
   49.0270  102.3700   14.7410 C   0  0  0  0  0
   48.8540  105.3620   10.0970 C   0  0  0  0  0
   49.4370  106.7850   10.3200 C   0  0  0  0  0
   49.5720  107.5660    8.9830 C   0  0  0  0  0
   49.9260  106.7320    6.7390 C   0  0  0  0  0
   38.8970  106.8380    9.7290 C   0  0  0  0  0
   42.0310  109.6390    8.7560 N   0  3  0  0  0
   40.7610  108.2100   10.2520 C   0  0  0  0  0
   40.6490  109.2540    9.1180 C   0  0  0  0  0
   42.7990  108.3040   11.8090 C   0  0  0  0  0
   40.1920  106.9100   10.0050 O   0  0  0  0  0
   44.0700  107.6460   12.2010 N   0  0  0  0  0
   45.2260  108.4750   12.6390 C   0  0  0  0  0
   45.6150  109.6360   11.6890 C   0  0  0  0  0
   43.1650  105.5290   12.0670 O   0  0  0  0  0
   48.8630  103.2690   13.6240 O   0  0  0  0  0
   48.7110  104.6150   11.3270 O   0  0  0  0  0
   50.4590  106.8840    8.0630 O   0  0  0  0  0
   38.6780  106.6310    8.4090 N   0  0  0  0  0
   38.0520  106.8890   10.6030 O   0  0  0  0  0
   37.3150  106.5330    7.9040 C   0  0  0  0  0
   36.6880  107.9280    7.7180 C   0  0  0  0  0
   35.3470  108.1720    8.0960 C   0  0  0  0  0
   35.5180  110.4650    7.3380 C   0  0  0  0  0
   36.8730  110.2440    6.9850 C   0  0  0  0  0
   34.7470  109.4320    7.8950 C   0  0  0  0  0
   37.4570  108.9790    7.1730 C   0  0  0  0  0
   43.0751  107.8210    8.3506 H   0  0  0  0  0
   43.9498  108.9119    9.3467 H   0  0  0  0  0
   42.5535  106.8912   10.3880 H   0  0  0  0  0
   44.0840  109.5669   14.1241 H   0  0  0  0  0
   44.8924  108.1089   14.7501 H   0  0  0  0  0
   45.8427  109.5744   14.4034 H   0  0  0  0  0
   44.5455  104.7327   14.6382 H   0  0  0  0  0
   46.6072  103.4503   15.2178 H   0  0  0  0  0
   46.3401  105.9438   10.9023 H   0  0  0  0  0
   48.8927  102.9209   15.6719 H   0  0  0  0  0
   48.2844  101.5746   14.6777 H   0  0  0  0  0
   50.0273  101.9378   14.7141 H   0  0  0  0  0
   49.5439  104.8160    9.4535 H   0  0  0  0  0
   47.8629  105.4728    9.6570 H   0  0  0  0  0
   50.4287  106.6849   10.7613 H   0  0  0  0  0
   48.7596  107.3356   10.9728 H   0  0  0  0  0
   49.9849  108.5518    9.1969 H   0  0  0  0  0
   48.5863  107.6411    8.5237 H   0  0  0  0  0
   49.0033  106.1535    6.7844 H   0  0  0  0  0
   49.7193  107.7154    6.3168 H   0  0  0  0  0
   50.6520  106.2121    6.1139 H   0  0  0  0  0
   42.0938  109.7988    7.7506 H   0  0  0  0  0
   42.2894  110.4984    9.2409 H   0  0  0  0  0
   40.2229  108.6280   11.1028 H   0  0  0  0  0
   40.1239  108.8383    8.2580 H   0  0  0  0  0
   40.0770  110.1224    9.4448 H   0  0  0  0  0
   42.0421  107.9671   12.5174 H   0  0  0  0  0
   42.9912  109.3769   11.8067 H   0  0  0  0  0
   46.0949  107.8180   12.6021 H   0  0  0  0  0
   45.8797  109.2313   10.7121 H   0  0  0  0  0
   44.7704  110.3171   11.5848 H   0  0  0  0  0
   46.4676  110.1734   12.1042 H   0  0  0  0  0
   39.4670  106.5437    7.7684 H   0  0  0  0  0
   36.7163  105.9757    8.6245 H   0  0  0  0  0
   37.3375  106.0300    6.9373 H   0  0  0  0  0
   34.7660  107.3702    8.5517 H   0  0  0  0  0
   35.0706  111.4456    7.1756 H   0  0  0  0  0
   37.4645  111.0581    6.5661 H   0  0  0  0  0
   33.7050  109.6009    8.1667 H   0  0  0  0  0
   38.4985  108.8105    6.8993 H   0  0  0  0  0
  2  1  1  0  0  0
 17  1  1  0  0  0
 18  2  1  0  0  0
  2 20  1  0  0  0
 23  3  1  0  0  0
  4  5  1  0  0  0
 22  4  1  0  0  0
  4 25  2  0  0  0
  5  6  4  0  0  0
  5 10  4  0  0  0
  6  9  4  0  0  0
  8  7  4  0  0  0
  9  7  4  0  0  0
  7 26  1  0  0  0
 10  8  4  0  0  0
  8 27  1  0  0  0
 26 11  1  0  0  0
 12 13  1  0  0  0
 27 12  1  0  0  0
 13 14  1  0  0  0
 14 28  1  0  0  0
 28 15  1  0  0  0
 16 21  1  0  0  0
 29 16  1  0  0  0
 16 30  2  0  0  0
 19 17  1  0  0  0
 18 19  1  0  0  0
 21 18  1  0  0  0
 20 22  1  0  0  0
 22 23  1  0  0  0
 23 24  1  0  0  0
 31 29  1  0  0  0
 32 31  1  0  0  0
 33 32  4  0  0  0
 32 37  4  0  0  0
 36 33  4  0  0  0
 34 35  4  0  0  0
 34 36  4  0  0  0
 35 37  4  0  0  0
  1 38  1  0  0  0
  1 39  1  0  0  0
  2 40  1  0  0  0
  3 41  1  0  0  0
  3 42  1  0  0  0
  3 43  1  0  0  0
  6 44  1  0  0  0
  9 45  1  0  0  0
 10 46  1  0  0  0
 11 47  1  0  0  0
 11 48  1  0  0  0
 11 49  1  0  0  0
 12 50  1  0  0  0
 12 51  1  0  0  0
 13 52  1  0  0  0
 13 53  1  0  0  0
 14 54  1  0  0  0
 14 55  1  0  0  0
 15 56  1  0  0  0
 15 57  1  0  0  0
 15 58  1  0  0  0
 17 59  1  0  0  0
 17 60  1  0  0  0
 18 61  1  0  0  0
 19 62  1  0  0  0
 19 63  1  0  0  0
 20 64  1  0  0  0
 20 65  1  0  0  0
 23 66  1  0  0  0
 24 67  1  0  0  0
 24 68  1  0  0  0
 24 69  1  0  0  0
 29 70  1  0  0  0
 31 71  1  0  0  0
 31 72  1  0  0  0
 33 73  1  0  0  0
 34 74  1  0  0  0
 35 75  1  0  0  0
 36 76  1  0  0  0
 37 77  1  0  0  0
M  END
$$$$
