2vj9_ligand
  -I-interpret- 

 77 80  0  0  0  0  0  0  0  0999 V2000
   30.4160   -2.0680   35.6070 C   0  0  0  0  0
   30.3500   -0.9060   34.7600 C   0  0  0  0  0
   30.9270    0.3560   35.1590 C   0  0  0  0  0
   31.5850    0.4630   36.4240 C   0  0  0  0  0
   31.6690   -0.6870   37.2960 C   0  0  0  0  0
   31.0750   -1.9470   36.8630 C   0  0  0  0  0
   30.8390    1.4850   34.2560 C   0  0  0  0  0
   29.6270    1.6330   33.6520 N   0  0  0  0  0
   31.7920    2.2360   34.0140 O   0  0  0  0  0
   29.3300    2.6770   32.6430 C   0  0  0  0  0
   28.5830    1.9580   31.4630 C   0  0  0  0  0
   28.5240    3.8590   33.2420 C   0  0  0  0  0
   28.2410    4.8090   32.2340 O   0  0  0  0  0
   29.2160    0.6140   31.0950 C   0  0  0  0  0
   29.3280    4.6090   34.2810 C   0  0  0  0  0
   28.4020   -0.5810   31.0510 C   0  0  0  0  0
   28.9820   -1.8580   30.7130 C   0  0  0  0  0
   30.3840   -1.9580   30.4180 C   0  0  0  0  0
   31.2030   -0.7790   30.4580 C   0  0  0  0  0
   30.6270    0.4960   30.7930 C   0  0  0  0  0
   29.8780   -3.3040   35.2640 N   0  0  0  0  0
   29.3400   -3.6850   33.9500 C   0  0  0  0  0
   27.8110   -3.5610   33.9370 C   0  0  0  0  0
   32.3160   -0.5860   38.5220 N   0  0  0  0  0
   31.8190   -1.0230   39.7150 C   0  0  0  0  0
   32.8260   -0.7430   40.8260 C   0  0  0  0  0
   34.0990   -0.3550   40.0630 C   0  0  0  0  0
   33.6510    0.0210   38.6630 C   0  0  0  0  0
   30.7390   -1.5660   39.9160 O   0  0  0  0  0
   28.6010    5.7460   34.8660 N   0  3  0  0  0
   29.5290    6.7230   35.4960 C   0  0  0  0  0
   30.0620    6.1540   36.8580 C   0  0  0  0  0
   31.0550    7.1740   37.5690 C   0  0  0  0  0
   31.2610    8.5010   36.7230 C   0  0  0  0  0
   29.8260    9.1080   36.4330 C   0  0  0  0  0
   28.8330    8.0940   35.7380 C   0  0  0  0  0
   29.8520   -0.9807   33.7933 H   0  0  0  0  0
   32.0236    1.4124   36.7311 H   0  0  0  0  0
   31.1372   -2.8168   37.5169 H   0  0  0  0  0
   28.8803    0.9875   33.9092 H   0  0  0  0  0
   30.2475    3.1389   32.2784 H   0  0  0  0  0
   28.6390    2.6052   30.5877 H   0  0  0  0  0
   27.5579    1.7691   31.7816 H   0  0  0  0  0
   27.6226    3.4293   33.6788 H   0  0  0  0  0
   27.7424    5.5367   32.6126 H   0  0  0  0  0
   30.2174    5.0032   33.7893 H   0  0  0  0  0
   29.5567    3.9127   35.0878 H   0  0  0  0  0
   27.3375   -0.5158   31.2760 H   0  0  0  0  0
   28.3548   -2.7489   30.6815 H   0  0  0  0  0
   30.8237   -2.9228   30.1653 H   0  0  0  0  0
   32.2672   -0.8506   30.2332 H   0  0  0  0  0
   31.2599    1.3830   30.8197 H   0  0  0  0  0
   29.8545   -4.0149   35.9950 H   0  0  0  0  0
   29.6125   -4.7199   33.7430 H   0  0  0  0  0
   29.7550   -3.0207   33.1920 H   0  0  0  0  0
   27.3880   -4.2181   34.6968 H   0  0  0  0  0
   27.5296   -2.5296   34.1493 H   0  0  0  0  0
   27.4328   -3.8475   32.9557 H   0  0  0  0  0
   32.9758   -1.6012   41.4811 H   0  0  0  0  0
   32.4912    0.0396   41.5069 H   0  0  0  0  0
   34.8120   -1.1792   40.0408 H   0  0  0  0  0
   34.6124    0.4748   40.5488 H   0  0  0  0  0
   33.6236    1.1014   38.5212 H   0  0  0  0  0
   34.3443   -0.3402   37.9034 H   0  0  0  0  0
   27.9707    5.3903   35.5848 H   0  0  0  0  0
   28.0908    6.2202   34.1209 H   0  0  0  0  0
   30.3629    6.8810   34.8121 H   0  0  0  0  0
   30.6030    5.2293   36.6573 H   0  0  0  0  0
   29.2109    5.9848   37.5177 H   0  0  0  0  0
   32.0238    6.6857   37.6742 H   0  0  0  0  0
   30.6249    7.4497   38.5319 H   0  0  0  0  0
   31.7781    8.2814   35.7889 H   0  0  0  0  0
   31.8723    9.2145   37.2755 H   0  0  0  0  0
   29.9603    9.9491   35.7529 H   0  0  0  0  0
   29.3897    9.3837   37.3930 H   0  0  0  0  0
   27.9713    7.9424   36.3881 H   0  0  0  0  0
   28.5223    8.5063   34.7780 H   0  0  0  0  0
  1  2  4  0  0  0
  1  6  4  0  0  0
  1 21  1  0  0  0
  2  3  4  0  0  0
  3  4  4  0  0  0
  3  7  1  0  0  0
  4  5  4  0  0  0
  5  6  4  0  0  0
  5 24  1  0  0  0
  7  8  1  0  0  0
  7  9  2  0  0  0
  8 10  1  0  0  0
 10 11  1  0  0  0
 10 12  1  0  0  0
 11 14  1  0  0  0
 12 13  1  0  0  0
 12 15  1  0  0  0
 14 16  4  0  0  0
 14 20  4  0  0  0
 15 30  1  0  0  0
 16 17  4  0  0  0
 17 18  4  0  0  0
 18 19  4  0  0  0
 19 20  4  0  0  0
 21 22  1  0  0  0
 22 23  1  0  0  0
 24 25  1  0  0  0
 24 28  1  0  0  0
 25 26  1  0  0  0
 25 29  2  0  0  0
 26 27  1  0  0  0
 27 28  1  0  0  0
 30 31  1  0  0  0
 31 32  1  0  0  0
 31 36  1  0  0  0
 32 33  1  0  0  0
 33 34  1  0  0  0
 34 35  1  0  0  0
 35 36  1  0  0  0
  2 37  1  0  0  0
  4 38  1  0  0  0
  6 39  1  0  0  0
  8 40  1  0  0  0
 10 41  1  0  0  0
 11 42  1  0  0  0
 11 43  1  0  0  0
 12 44  1  0  0  0
 13 45  1  0  0  0
 15 46  1  0  0  0
 15 47  1  0  0  0
 16 48  1  0  0  0
 17 49  1  0  0  0
 18 50  1  0  0  0
 19 51  1  0  0  0
 20 52  1  0  0  0
 21 53  1  0  0  0
 22 54  1  0  0  0
 22 55  1  0  0  0
 23 56  1  0  0  0
 23 57  1  0  0  0
 23 58  1  0  0  0
 26 59  1  0  0  0
 26 60  1  0  0  0
 27 61  1  0  0  0
 27 62  1  0  0  0
 28 63  1  0  0  0
 28 64  1  0  0  0
 30 65  1  0  0  0
 30 66  1  0  0  0
 31 67  1  0  0  0
 32 68  1  0  0  0
 32 69  1  0  0  0
 33 70  1  0  0  0
 33 71  1  0  0  0
 34 72  1  0  0  0
 34 73  1  0  0  0
 35 74  1  0  0  0
 35 75  1  0  0  0
 36 76  1  0  0  0
 36 77  1  0  0  0
M  END
$$$$
