3qkm_ligand
  -I-interpret- 

 85 89  0  0  0  0  0  0  0  0999 V2000
   28.1440    2.6070   13.9550 C   0  0  0  0  0
   28.7290    1.4580   13.1180 C   0  0  0  0  0
   29.2960    0.4010   14.0890 C   0  0  0  0  0
   27.7160    0.8850   12.3060 O   0  0  0  0  0
   30.3940   -0.4390   13.5300 N   0  0  0  0  0
   29.9610   -1.7740   13.0410 C   0  0  0  0  0
   29.8030   -2.7930   14.1840 C   0  0  0  0  0
   31.8910    1.5200   12.2860 C   0  0  0  0  0
   31.9800    2.8620   12.7530 C   0  0  0  0  0
   31.8310    3.9340   11.8430 C   0  0  0  0  0
   31.5720    3.6740   10.4790 C   0  0  0  0  0
   31.4810    2.3470   10.0100 C   0  0  0  0  0
   31.6350    1.2690   10.9090 C   0  0  0  0  0
   31.5140   -0.1360   10.3330 C   0  0  0  0  0
   32.2380    3.2180   14.2130 C   0  0  0  0  0
   27.5100    5.5110   11.4420 C   0  0  0  0  0
   26.7490    6.4200   12.4430 C   0  0  0  0  0
   25.8360    5.6190   13.3960 C   0  0  0  0  0
   26.6680    4.5480   14.1260 C   0  0  0  0  0
   27.3920    3.6380   13.1940 N   0  3  0  0  0
   28.2150    4.3440   12.1660 C   0  0  0  0  0
   28.5280    6.3550   10.6620 C   0  0  0  0  0
   27.7820    6.8470    9.4080 C   0  0  0  0  0
   26.5950    5.9900    9.2660 N   0  0  0  0  0
   26.5820    4.9830   10.3430 C   0  0  0  0  0
   25.5190    6.3000    8.4820 C   0  0  0  0  0
   24.4000    5.4620    8.2230 C   0  0  0  0  0
   23.3660    5.9490    7.3850 C   0  0  0  0  0
   23.4640    7.1790    6.8560 N   0  0  0  0  0
   24.5460    7.9220    7.1380 C   0  0  0  0  0
   25.5620    7.5260    7.9230 N   0  0  0  0  0
   24.2810    4.1620    8.7710 C   0  0  0  0  0
   23.1460    3.3610    8.4880 C   0  0  0  0  0
   22.1210    3.8530    7.6460 C   0  0  0  0  0
   22.2340    5.1500    7.0960 C   0  0  0  0  0
   29.9950   -4.0900   13.6540 O   0  0  0  0  0
   29.7780   -6.4560   13.9040 C   0  0  0  0  0
   29.7720   -5.0980   14.6270 C   0  0  0  0  0
   32.0670    0.1130   13.4460 S   0  0  0  0  0
   32.4400    0.5790   14.7880 O   0  0  0  0  0
   32.8890   -0.9520   12.8530 O   0  0  0  0  0
   28.9906    3.1175   14.4140 H   0  0  0  0  0
   27.4342    2.1549   14.6478 H   0  0  0  0  0
   29.5188    1.8287   12.4646 H   0  0  0  0  0
   28.4761   -0.2738   14.3351 H   0  0  0  0  0
   29.7137    0.9432   14.9373 H   0  0  0  0  0
   27.3720    1.5519   11.7073 H   0  0  0  0  0
   30.7243   -2.1476   12.3585 H   0  0  0  0  0
   28.9920   -1.6579   12.5556 H   0  0  0  0  0
   28.8080   -2.7120   14.6216 H   0  0  0  0  0
   30.5382   -2.5959   14.9642 H   0  0  0  0  0
   31.9161    4.9622   12.1945 H   0  0  0  0  0
   31.4417    4.5040    9.7846 H   0  0  0  0  0
   31.2919    2.1536    8.9541 H   0  0  0  0  0
   32.4446   -0.6779   10.5017 H   0  0  0  0  0
   30.6933   -0.6591   10.8239 H   0  0  0  0  0
   31.3178   -0.0728    9.2627 H   0  0  0  0  0
   31.4405    2.8073   14.8322 H   0  0  0  0  0
   33.1944    2.7981   14.5245 H   0  0  0  0  0
   32.2629    4.3022   14.3223 H   0  0  0  0  0
   26.1200    7.0994   11.8679 H   0  0  0  0  0
   27.4881    6.9447   13.0485 H   0  0  0  0  0
   25.0461    5.1356   12.8211 H   0  0  0  0  0
   25.3924    6.2948   14.1272 H   0  0  0  0  0
   25.9825    3.9409   14.7173 H   0  0  0  0  0
   27.4128    5.0627   14.7330 H   0  0  0  0  0
   26.6855    3.1565   12.6378 H   0  0  0  0  0
   29.0684    4.7731   12.6911 H   0  0  0  0  0
   28.4598    3.6059   11.4022 H   0  0  0  0  0
   29.4105    5.7722   10.3981 H   0  0  0  0  0
   28.8963    7.1887   11.2598 H   0  0  0  0  0
   28.4179    6.7829    8.5250 H   0  0  0  0  0
   27.4977    7.8944    9.5085 H   0  0  0  0  0
   25.5720    4.8315   10.7240 H   0  0  0  0  0
   26.9222    4.0145    9.9764 H   0  0  0  0  0
   24.6045    8.9178    6.6987 H   0  0  0  0  0
   25.0690    3.7736    9.4162 H   0  0  0  0  0
   23.0629    2.3638    8.9201 H   0  0  0  0  0
   21.2504    3.2362    7.4231 H   0  0  0  0  0
   21.4474    5.5360    6.4476 H   0  0  0  0  0
   28.9869   -6.4705   13.1543 H   0  0  0  0  0
   30.7429   -6.6036   13.4189 H   0  0  0  0  0
   29.6085   -7.2526   14.6284 H   0  0  0  0  0
   28.8162   -4.9384   15.1261 H   0  0  0  0  0
   30.5522   -5.0700   15.3877 H   0  0  0  0  0
  1  2  1  0  0  0
 20  1  1  0  0  0
  2  3  1  0  0  0
  2  4  1  0  0  0
  3  5  1  0  0  0
  5  6  1  0  0  0
  5 39  1  0  0  0
  6  7  1  0  0  0
  7 36  1  0  0  0
  8  9  4  0  0  0
  8 13  4  0  0  0
 39  8  1  0  0  0
  9 10  4  0  0  0
  9 15  1  0  0  0
 10 11  4  0  0  0
 12 11  4  0  0  0
 13 12  4  0  0  0
 13 14  1  0  0  0
 17 16  1  0  0  0
 16 21  1  0  0  0
 16 22  1  0  0  0
 16 25  1  0  0  0
 18 17  1  0  0  0
 19 18  1  0  0  0
 19 20  1  0  0  0
 20 21  1  0  0  0
 22 23  1  0  0  0
 23 24  1  0  0  0
 24 25  1  0  0  0
 24 26  1  0  0  0
 26 27  4  0  0  0
 26 31  4  0  0  0
 27 28  4  0  0  0
 27 32  4  0  0  0
 28 29  4  0  0  0
 28 35  4  0  0  0
 29 30  4  0  0  0
 30 31  4  0  0  0
 32 33  4  0  0  0
 33 34  4  0  0  0
 34 35  4  0  0  0
 36 38  1  0  0  0
 38 37  1  0  0  0
 39 40  2  0  0  0
 39 41  2  0  0  0
  1 42  1  0  0  0
  1 43  1  0  0  0
  2 44  1  0  0  0
  3 45  1  0  0  0
  3 46  1  0  0  0
  4 47  1  0  0  0
  6 48  1  0  0  0
  6 49  1  0  0  0
  7 50  1  0  0  0
  7 51  1  0  0  0
 10 52  1  0  0  0
 11 53  1  0  0  0
 12 54  1  0  0  0
 14 55  1  0  0  0
 14 56  1  0  0  0
 14 57  1  0  0  0
 15 58  1  0  0  0
 15 59  1  0  0  0
 15 60  1  0  0  0
 17 61  1  0  0  0
 17 62  1  0  0  0
 18 63  1  0  0  0
 18 64  1  0  0  0
 19 65  1  0  0  0
 19 66  1  0  0  0
 20 67  1  0  0  0
 21 68  1  0  0  0
 21 69  1  0  0  0
 22 70  1  0  0  0
 22 71  1  0  0  0
 23 72  1  0  0  0
 23 73  1  0  0  0
 25 74  1  0  0  0
 25 75  1  0  0  0
 30 76  1  0  0  0
 32 77  1  0  0  0
 33 78  1  0  0  0
 34 79  1  0  0  0
 35 80  1  0  0  0
 37 81  1  0  0  0
 37 82  1  0  0  0
 37 83  1  0  0  0
 38 84  1  0  0  0
 38 85  1  0  0  0
M  END
$$$$
