3v2n_ligand
  -I-interpret- 

 44 43  0  0  0  0  0  0  0  0999 V2000
    0.1770   -0.2640   11.6550 C   0  0  0  0  0
   -0.9240   -0.8240   11.6440 O   0  0  0  0  0
    0.3730    0.7560   12.3390 O   0  0  0  0  0
    1.2890   -0.8500   10.8080 C   0  0  0  0  0
    1.4990   -0.1630    9.4720 C   0  0  0  0  0
    2.6260   -0.7900    8.6700 C   0  0  0  0  0
    3.3320    0.2050    7.7670 C   0  0  0  0  0
    3.9360   -0.4270    6.5220 C   0  0  0  0  0
    5.2280    0.2820    6.1100 C   0  0  0  0  0
    5.8320   -0.3590    4.8520 C   0  0  0  0  0
    6.7500    0.5980    4.1240 C   0  0  0  0  0
    7.3770    0.0290    2.8760 C   0  0  0  0  0
    8.8330    0.4270    2.7010 C   0  0  0  0  0
    8.9980    1.2250    1.4060 C   0  0  0  0  0
    9.5200    0.3230    0.2940 C   0  0  0  0  0
   10.8760    0.7890   -0.2270 C   0  0  0  0  0
    1.2800    1.0484   12.2229 H   0  0  0  0  0
    1.0133   -1.8825   10.5935 H   0  0  0  0  0
    2.2134   -0.7326   11.3734 H   0  0  0  0  0
    1.7605    0.8774    9.6650 H   0  0  0  0  0
    0.5796   -0.2598    8.8946 H   0  0  0  0  0
    2.1936   -1.5653    8.0376 H   0  0  0  0  0
    3.3603   -1.1792    9.3753 H   0  0  0  0  0
    4.1483    0.6450    8.3398 H   0  0  0  0  0
    2.5899    0.9323    7.4378 H   0  0  0  0  0
    3.2180   -0.3418    5.7063 H   0  0  0  0  0
    4.1665   -1.4700    6.7391 H   0  0  0  0  0
    5.9474    0.1980    6.9245 H   0  0  0  0  0
    5.0001    1.3260    5.8949 H   0  0  0  0  0
    5.0180   -0.6326    4.1807 H   0  0  0  0  0
    6.4133   -1.2299    5.1549 H   0  0  0  0  0
    7.5627    0.8448    4.8071 H   0  0  0  0  0
    6.1456    1.4520    3.8183 H   0  0  0  0  0
    6.8236    0.4188    2.0217 H   0  0  0  0  0
    7.3392   -1.0576    2.9538 H   0  0  0  0  0
    9.4495   -0.4706    2.6531 H   0  0  0  0  0
    9.1434    1.0416    3.5460 H   0  0  0  0  0
    9.7101    2.0331    1.5734 H   0  0  0  0  0
    8.0301    1.6305    1.1113 H   0  0  0  0  0
    8.8086    0.3513   -0.5314 H   0  0  0  0  0
    9.6359   -0.6834    0.6963 H   0  0  0  0  0
   10.7838    1.8007   -0.6222 H   0  0  0  0  0
   11.5995    0.7805    0.5882 H   0  0  0  0  0
   11.2101    0.1176   -1.0180 H   0  0  0  0  0
  1  2  2  0  0  0
  1  3  1  0  0  0
  1  4  1  0  0  0
  4  5  1  0  0  0
  5  6  1  0  0  0
  6  7  1  0  0  0
  7  8  1  0  0  0
  8  9  1  0  0  0
  9 10  1  0  0  0
 10 11  1  0  0  0
 11 12  1  0  0  0
 12 13  1  0  0  0
 13 14  1  0  0  0
 14 15  1  0  0  0
 15 16  1  0  0  0
  3 17  1  0  0  0
  4 18  1  0  0  0
  4 19  1  0  0  0
  5 20  1  0  0  0
  5 21  1  0  0  0
  6 22  1  0  0  0
  6 23  1  0  0  0
  7 24  1  0  0  0
  7 25  1  0  0  0
  8 26  1  0  0  0
  8 27  1  0  0  0
  9 28  1  0  0  0
  9 29  1  0  0  0
 10 30  1  0  0  0
 10 31  1  0  0  0
 11 32  1  0  0  0
 11 33  1  0  0  0
 12 34  1  0  0  0
 12 35  1  0  0  0
 13 36  1  0  0  0
 13 37  1  0  0  0
 14 38  1  0  0  0
 14 39  1  0  0  0
 15 40  1  0  0  0
 15 41  1  0  0  0
 16 42  1  0  0  0
 16 43  1  0  0  0
 16 44  1  0  0  0
M  END
$$$$
