1m6p_ligand
  -I-interpret- 

 29 29  0  0  0  0  0  0  0  0999 V2000
   43.8370   40.2820   18.2260 C   0  0  0  0  0
   43.2570   38.8530   18.0900 C   0  0  0  0  0
   41.8730   38.8680   17.3910 C   0  0  0  0  0
   40.9070   39.7590   18.1350 C   0  0  0  0  0
   41.5450   41.1750   18.1250 C   0  0  0  0  0
   40.9650   42.0600   19.5210 C   0  0  0  0  0
   44.3220   40.7840   16.9750 O   0  0  0  0  0
   43.1120   38.2700   19.3780 O   0  0  0  0  0
   41.3590   37.5470   17.3230 O   0  0  0  0  0
   39.6420   39.7260   17.5060 O   0  0  0  0  0
   42.8430   41.1460   18.7970 O   0  0  0  0  0
   39.9010   42.6990   20.1610 O   0  0  0  0  0
   40.1700   43.9170   20.9980 P   0  0  0  0  0
   40.8790   44.8470   20.1760 O   0  0  0  0  0
   38.8830   44.2850   21.5100 O   0  0  0  0  0
   41.1130   43.4740   22.2080 O   0  0  0  0  0
   44.6989   40.2473   18.8924 H   0  0  0  0  0
   43.9494   38.2695   17.4832 H   0  0  0  0  0
   41.9961   39.2628   16.3825 H   0  0  0  0  0
   40.7381   39.4346   19.1618 H   0  0  0  0  0
   41.4263   41.5215   17.0984 H   0  0  0  0  0
   41.4636   42.9885   19.2430 H   0  0  0  0  0
   40.9360   41.1834   20.1681 H   0  0  0  0  0
   44.9827   40.1822   16.6245 H   0  0  0  0  0
   43.9643   38.2560   19.8195 H   0  0  0  0  0
   41.9787   36.9877   16.8489 H   0  0  0  0  0
   39.2926   38.8324   17.5391 H   0  0  0  0  0
   38.5330   43.5652   22.0401 H   0  0  0  0  0
   40.6440   42.8488   22.7654 H   0  0  0  0  0
  1 11  1  0  0  0
  1  7  1  0  0  0
  1  2  1  0  0  0
  2  8  1  0  0  0
  2  3  1  0  0  0
  3  9  1  0  0  0
  3  4  1  0  0  0
  4 10  1  0  0  0
  4  5  1  0  0  0
  5 11  1  0  0  0
  5  6  1  0  0  0
  6 12  1  0  0  0
 12 13  1  0  0  0
 13 16  1  0  0  0
 13 15  1  0  0  0
 13 14  2  0  0  0
  1 17  1  0  0  0
  2 18  1  0  0  0
  3 19  1  0  0  0
  4 20  1  0  0  0
  5 21  1  0  0  0
  6 22  1  0  0  0
  6 23  1  0  0  0
  7 24  1  0  0  0
  8 25  1  0  0  0
  9 26  1  0  0  0
 10 27  1  0  0  0
 15 28  1  0  0  0
 16 29  1  0  0  0
M  END
$$$$
