### 
### Created by X-TOOL on Mon Sep 10 21:12:47 2018
### 

@<TRIPOS>MOLECULE
1m6p_ligand
   27    27     1     0     0
SMALL
GAST_HUCK


@<TRIPOS>ATOM
      1 H1         44.6900   40.2386   18.9191 H         1 M6P         0.0935
      2 C1         43.8370   40.2820   18.2260 C.3       1 M6P         0.1854
      3 C2         43.2570   38.8530   18.0900 C.3       1 M6P         0.1339
      4 C3         41.8730   38.8680   17.3910 C.3       1 M6P         0.1141
      5 C4         40.9070   39.7590   18.1350 C.3       1 M6P         0.1122
      6 C5         41.5450   41.1750   18.1250 C.3       1 M6P         0.1176
      7 C6         40.9650   42.0600   19.5210 C.3       1 M6P         0.1071
      8 O1         44.3220   40.7840   16.9750 O.3       1 M6P        -0.3649
      9 O2         43.1120   38.2700   19.3780 O.3       1 M6P        -0.3841
     10 O3         41.3590   37.5470   17.3230 O.3       1 M6P        -0.3864
     11 O4         39.6420   39.7260   17.5060 O.3       1 M6P        -0.3865
     12 O5         42.8430   41.1460   18.7970 O.3       1 M6P        -0.3404
     13 O6         39.9010   42.6990   20.1610 O.3       1 M6P        -0.2734
     14 P          40.1700   43.9170   20.9980 P.3       1 M6P         0.2008
     15 O1P        40.8790   44.8470   20.1760 O.co2     1 M6P        -0.5537
     16 O2P        38.8830   44.2850   21.5100 O.co2     1 M6P        -0.5537
     17 O3P        41.1130   43.4740   22.2080 O.co2     1 M6P        -0.5537
     18 H2         43.9520   38.2449   17.4924 H         1 M6P         0.0671
     19 H3         41.9963   39.2564   16.3693 H         1 M6P         0.0648
     20 H4         40.7951   39.4130   19.1731 H         1 M6P         0.0647
     21 H5         41.4908   41.6682   17.1432 H         1 M6P         0.0650
     22 H6         41.6885   42.8886   19.5155 H         1 M6P         0.0639
     23 H7         41.2363   41.3415   20.3085 H         1 M6P         0.0639
     24 H8         44.9758   40.1885   16.6282 H         1 M6P         0.2126
     25 H9         42.7560   37.3937   19.2895 H         1 M6P         0.2101
     26 H10        41.2653   37.1992   18.2021 H         1 M6P         0.2100
     27 H11        39.3123   38.8351   17.5069 H         1 M6P         0.2100
@<TRIPOS>BOND
     1    2   12 1  
     2    2    8 1  
     3    2    3 1  
     4    3    9 1  
     5    3    4 1  
     6    4   10 1  
     7    4    5 1  
     8    5   11 1  
     9    5    6 1  
    10    6   12 1  
    11    6    7 1  
    12    7   13 1  
    13   13   14 1  
    14   14   17 ar 
    15   14   16 ar 
    16   14   15 ar 
    17    2    1 1  
    18    3   18 1  
    19    4   19 1  
    20    5   20 1  
    21    6   21 1  
    22    7   22 1  
    23    7   23 1  
    24    8   24 1  
    25    9   25 1  
    26   10   26 1  
    27   11   27 1  
@<TRIPOS>SUBSTRUCTURE
     1 M6P         1

