5lgq_ligand
  -I-interpret- 

120123  0  0  0  0  0  0  0  0999 V2000
   36.0980   25.3050  129.4050 N   0  3  0  0  0
   35.0520   26.2210  128.8650 C   0  0  0  0  0
   34.2160   25.5120  127.8020 C   0  0  0  0  0
   33.7570   26.1310  126.8420 O   0  0  0  0  0
   35.6940   27.4750  128.2900 C   0  0  0  0  0
   34.0210   24.1920  127.9870 N   0  0  0  0  0
   33.3300   23.3740  126.9990 C   0  0  0  0  0
   31.8190   23.4060  127.2360 C   0  0  0  0  0
   31.3710   23.3150  128.3830 O   0  0  0  0  0
   33.8180   21.9320  127.0590 C   0  0  0  0  0
   31.0010   23.5370  126.1770 N   0  0  0  0  0
   29.5410   23.4820  126.3270 C   0  0  0  0  0
   29.0390   22.1460  126.8720 C   0  0  0  0  0
   28.2020   22.1350  127.7730 O   0  0  0  0  0
   29.0270   23.7000  124.8980 C   0  0  0  0  0
   30.1360   24.3620  124.1780 C   0  0  0  0  0
   31.3990   23.8650  124.7980 C   0  0  0  0  0
   29.5350   21.0390  126.3240 N   0  0  0  0  0
   29.0880   19.7050  126.7620 C   0  0  0  0  0
   30.1400   18.9570  127.6460 C   0  0  0  0  0
   31.2620   18.8250  127.2450 O   0  0  0  0  0
   28.7890   18.8360  125.5400 C   0  0  0  0  0
   27.6690   19.3590  124.6490 C   0  0  0  0  0
   26.3610   19.5360  125.4000 C   0  0  0  0  0
   25.2760   19.8840  124.4940 N   0  0  0  0  0
   24.5480   19.0110  123.8110 C   0  0  0  0  0
   24.7230   17.7150  123.9830 N   0  0  0  0  0
   23.6730   19.4520  122.9160 N   0  0  0  0  0
   29.7310   18.4790  128.8360 N   0  0  0  0  0
   30.6630   17.7590  129.7140 C   0  0  0  0  0
   31.2050   16.4580  129.1070 C   0  0  0  0  0
   30.4210   15.6810  128.5590 O   0  0  0  0  0
   29.8090   17.4470  130.9500 C   0  0  0  0  0
   28.6980   18.4110  130.9130 C   0  0  0  0  0
   28.4170   18.6620  129.4780 C   0  0  0  0  0
   32.5150   16.2250  129.1950 N   0  0  0  0  0
   33.0510   14.9110  128.8140 C   0  0  0  0  0
   32.3420   13.7910  129.5620 C   0  0  0  0  0
   32.1650   13.8500  130.7810 O   0  0  0  0  0
   34.5290   15.0070  129.2040 C   0  0  0  0  0
   34.8460   16.4550  129.1270 C   0  0  0  0  0
   33.5890   17.1960  129.4810 C   0  0  0  0  0
   31.9380   12.7590  128.8260 N   0  0  0  0  0
   31.1810   11.6520  129.3890 C   0  0  0  0  0
   32.0090   10.3740  129.3750 C   0  0  0  0  0
   32.8120   10.1400  128.4670 O   0  0  0  0  0
   29.8730   11.4370  128.6190 C   0  0  0  0  0
   28.9100   10.5020  129.3020 C   0  0  0  0  0
   28.2840    9.4900  128.5930 C   0  0  0  0  0
   28.6350   10.6320  130.6540 C   0  0  0  0  0
   27.4000    8.6300  129.2190 C   0  0  0  0  0
   27.7550    9.7750  131.2840 C   0  0  0  0  0
   27.1360    8.7730  130.5660 C   0  0  0  0  0
   31.7950    9.5460  130.3950 N   0  0  0  0  0
   32.5510    8.3080  130.5720 C   0  0  0  0  0
   34.0510    8.5840  130.6030 C   0  0  0  0  0
   34.6560    8.6510  131.6730 O   0  0  0  0  0
   32.2220    7.3060  129.4620 C   0  0  0  0  0
   30.9820    6.6660  129.7070 O   0  0  0  0  0
   34.6820    8.7450  129.5590 O   0  0  0  0  0
   35.6531   24.4701  129.7864 H   0  0  0  0  0
   36.7357   25.0392  128.6546 H   0  0  0  0  0
   36.6179   25.7815  130.1419 H   0  0  0  0  0
   34.3917   26.5127  129.6817 H   0  0  0  0  0
   36.3397   27.2012  127.4556 H   0  0  0  0  0
   34.9152   28.1531  127.9411 H   0  0  0  0  0
   36.2854   27.9659  129.0629 H   0  0  0  0  0
   34.3661   23.7538  128.8410 H   0  0  0  0  0
   33.5482   23.7853  126.0135 H   0  0  0  0  0
   33.5928   21.5141  128.0402 H   0  0  0  0  0
   33.3146   21.3471  126.2892 H   0  0  0  0  0
   34.8946   21.9068  126.8904 H   0  0  0  0  0
   29.1895   24.2212  127.0469 H   0  0  0  0  0
   28.1228   24.3086  124.8865 H   0  0  0  0  0
   28.7485   22.7583  124.4250 H   0  0  0  0  0
   30.0617   25.4465  124.2586 H   0  0  0  0  0
   30.1052   24.1286  123.1137 H   0  0  0  0  0
   31.8143   23.0075  124.2685 H   0  0  0  0  0
   32.2009   24.6023  124.7594 H   0  0  0  0  0
   30.2369   21.1155  125.5879 H   0  0  0  0  0
   28.1970   19.8662  127.3689 H   0  0  0  0  0
   28.4712   17.8620  125.9121 H   0  0  0  0  0
   29.6949   18.8163  124.9341 H   0  0  0  0  0
   27.5042   18.6310  123.8546 H   0  0  0  0  0
   27.9714   20.3340  124.2670 H   0  0  0  0  0
   26.4819   20.3422  126.1236 H   0  0  0  0  0
   26.1137   18.5963  125.8938 H   0  0  0  0  0
   25.0594   20.8737  124.3756 H   0  0  0  0  0
   25.4221   17.3782  124.6450 H   0  0  0  0  0
   23.1342   18.7883  122.3595 H   0  0  0  0  0
   23.5392   20.4546  122.7846 H   0  0  0  0  0
   31.5534   18.3552  129.9135 H   0  0  0  0  0
   30.3876   17.5392  131.8691 H   0  0  0  0  0
   29.4467   16.4190  130.9363 H   0  0  0  0  0
   28.9607   19.3341  131.4297 H   0  0  0  0  0
   27.8187   18.0177  131.4231 H   0  0  0  0  0
   27.6575   17.9912  129.0763 H   0  0  0  0  0
   27.9983   19.6525  129.3002 H   0  0  0  0  0
   32.9099   14.6789  127.7584 H   0  0  0  0  0
   35.1631   14.4163  128.5429 H   0  0  0  0  0
   34.7140   14.6027  130.1992 H   0  0  0  0  0
   35.1848   16.7240  128.1265 H   0  0  0  0  0
   35.6525   16.7114  129.8139 H   0  0  0  0  0
   33.5819   17.5286  130.5190 H   0  0  0  0  0
   33.4768   18.1184  128.9112 H   0  0  0  0  0
   32.1671   12.7436  127.8322 H   0  0  0  0  0
   30.9386   11.9029  130.4216 H   0  0  0  0  0
   30.1316   10.9914  127.6584 H   0  0  0  0  0
   29.3814   12.4064  128.5377 H   0  0  0  0  0
   28.4905    9.3700  127.5295 H   0  0  0  0  0
   29.1201   11.4216  131.2278 H   0  0  0  0  0
   26.9120    7.8396  128.6487 H   0  0  0  0  0
   27.5494    9.8901  132.3482 H   0  0  0  0  0
   26.4401    8.0959  131.0613 H   0  0  0  0  0
   31.0765    9.7845  131.0786 H   0  0  0  0  0
   32.2600    7.8749  131.5290 H   0  0  0  0  0
   34.0416    8.5066  132.3963 H   0  0  0  0  0
   33.0059    6.5493  129.4304 H   0  0  0  0  0
   32.1579    7.8418  128.5149 H   0  0  0  0  0
   30.7987    6.0442  128.9989 H   0  0  0  0  0
  1  2  1  0  0  0
  2  3  1  0  0  0
  2  5  1  0  0  0
  3  4  2  0  0  0
  3  6  1  0  0  0
  6  7  1  0  0  0
  7  8  1  0  0  0
  7 10  1  0  0  0
  8  9  2  0  0  0
  8 11  1  0  0  0
 11 12  1  0  0  0
 11 17  1  0  0  0
 12 13  1  0  0  0
 12 15  1  0  0  0
 13 14  2  0  0  0
 13 18  1  0  0  0
 15 16  1  0  0  0
 16 17  1  0  0  0
 18 19  1  0  0  0
 19 20  1  0  0  0
 19 22  1  0  0  0
 20 21  2  0  0  0
 20 29  1  0  0  0
 22 23  1  0  0  0
 23 24  1  0  0  0
 24 25  1  0  0  0
 25 26  1  0  0  0
 26 27  2  0  0  0
 26 28  1  0  0  0
 29 30  1  0  0  0
 29 35  1  0  0  0
 30 31  1  0  0  0
 30 33  1  0  0  0
 31 32  2  0  0  0
 31 36  1  0  0  0
 33 34  1  0  0  0
 34 35  1  0  0  0
 36 37  1  0  0  0
 36 42  1  0  0  0
 37 38  1  0  0  0
 37 40  1  0  0  0
 38 39  2  0  0  0
 38 43  1  0  0  0
 40 41  1  0  0  0
 41 42  1  0  0  0
 43 44  1  0  0  0
 44 45  1  0  0  0
 44 47  1  0  0  0
 45 46  2  0  0  0
 45 54  1  0  0  0
 47 48  1  0  0  0
 48 49  4  0  0  0
 48 50  4  0  0  0
 49 51  4  0  0  0
 50 52  4  0  0  0
 51 53  4  0  0  0
 52 53  4  0  0  0
 54 55  1  0  0  0
 55 56  1  0  0  0
 55 58  1  0  0  0
 56 57  1  0  0  0
 56 60  2  0  0  0
 58 59  1  0  0  0
  1 61  1  0  0  0
  1 62  1  0  0  0
  1 63  1  0  0  0
  2 64  1  0  0  0
  5 65  1  0  0  0
  5 66  1  0  0  0
  5 67  1  0  0  0
  6 68  1  0  0  0
  7 69  1  0  0  0
 10 70  1  0  0  0
 10 71  1  0  0  0
 10 72  1  0  0  0
 12 73  1  0  0  0
 15 74  1  0  0  0
 15 75  1  0  0  0
 16 76  1  0  0  0
 16 77  1  0  0  0
 17 78  1  0  0  0
 17 79  1  0  0  0
 18 80  1  0  0  0
 19 81  1  0  0  0
 22 82  1  0  0  0
 22 83  1  0  0  0
 23 84  1  0  0  0
 23 85  1  0  0  0
 24 86  1  0  0  0
 24 87  1  0  0  0
 25 88  1  0  0  0
 27 89  1  0  0  0
 28 90  1  0  0  0
 28 91  1  0  0  0
 30 92  1  0  0  0
 33 93  1  0  0  0
 33 94  1  0  0  0
 34 95  1  0  0  0
 34 96  1  0  0  0
 35 97  1  0  0  0
 35 98  1  0  0  0
 37 99  1  0  0  0
 40100  1  0  0  0
 40101  1  0  0  0
 41102  1  0  0  0
 41103  1  0  0  0
 42104  1  0  0  0
 42105  1  0  0  0
 43106  1  0  0  0
 44107  1  0  0  0
 47108  1  0  0  0
 47109  1  0  0  0
 49110  1  0  0  0
 50111  1  0  0  0
 51112  1  0  0  0
 52113  1  0  0  0
 53114  1  0  0  0
 54115  1  0  0  0
 55116  1  0  0  0
 57117  1  0  0  0
 58118  1  0  0  0
 58119  1  0  0  0
 59120  1  0  0  0
M  END
$$$$
