5dxe_ligand
  -I-interpret- 

205207  0  0  0  0  0  0  0  0999 V2000
   30.4480   24.2410    8.3350 C   0  0  0  0  0
   31.3760   25.0340    8.3610 O   0  0  0  0  0
   30.2800   23.2240    9.4710 C   0  0  0  0  0
   29.6560   24.1310    7.2920 N   0  0  0  0  0
   28.4940   23.2400    7.2450 C   0  0  0  0  0
   28.8420   21.7620    6.9240 C   0  0  0  0  0
   29.8820   21.4160    6.3990 O   0  0  0  0  0
   27.4650   23.8380    6.2880 C   0  0  0  0  0
   26.8770   25.1180    6.8680 C   0  0  0  0  0
   25.9570   25.1500    7.7960 N   0  0  0  0  0
   27.2120   26.3550    6.5120 C   0  0  0  0  0
   25.7390   26.4270    8.0350 C   0  0  0  0  0
   26.5120   27.1550    7.2500 N   0  0  0  0  0
   27.9480   20.9150    7.3670 N   0  0  0  0  0
   28.0650   19.4890    7.1530 C   0  0  0  0  0
   28.0660   19.2340    5.6510 C   0  0  0  0  0
   27.4370   19.9150    4.8890 O   0  0  0  0  0
   26.8200   18.8960    7.7530 C   0  0  0  0  0
   26.8520   18.8970    9.2580 C   0  0  0  0  0
   25.4850   18.5710    9.8130 C   0  0  0  0  0
   25.4730   18.4570   11.3310 C   0  0  0  0  0
   24.1260   18.3520   11.8730 N   0  3  0  0  0
   27.4960   17.5530    3.3780 C   0  0  0  0  0
   28.7160   18.1510    5.3000 N   0  0  0  0  0
   27.2060   17.9190    2.2780 O   0  0  0  0  0
   28.7880   17.7160    3.9300 C   0  0  0  0  0
   29.5760   16.3960    3.9940 C   0  0  0  0  0
   28.6910   14.5580    2.4170 C   0  0  0  0  0
   28.8170   13.8740    1.2240 C   0  0  0  0  0
   29.7230   15.6560    2.6410 C   0  0  0  0  0
   29.6060   18.7510    3.1740 C   0  0  0  0  0
   26.5310   16.9940    4.1580 N   0  0  0  0  0
   25.1680   16.7600    3.6880 C   0  0  0  0  0
   24.4720   17.9400    3.3300 C   0  0  0  0  0
   23.6780   17.9690    2.4540 O   0  0  0  0  0
   24.4290   15.9430    4.7650 C   0  0  0  0  0
   23.0150   15.5600    4.4560 C   0  0  0  0  0
   22.9640   14.7280    3.1930 C   0  0  0  0  0
   22.4810   14.6880    5.5900 C   0  0  0  0  0
   24.7100   19.0620    4.0660 N   0  0  0  0  0
   24.0820   20.3520    3.7360 C   0  0  0  0  0
   24.3940   20.7900    2.4250 C   0  0  0  0  0
   23.5780   21.3280    1.7590 O   0  0  0  0  0
   24.5010   21.3300    4.8600 C   0  0  0  0  0
   23.9930   22.7360    4.6890 C   0  0  0  0  0
   22.9420   23.2570    5.2140 N   0  0  0  0  0
   24.6200   23.6480    4.0260 C   0  0  0  0  0
   22.8480   24.5070    4.8310 C   0  0  0  0  0
   23.9020   24.7200    4.1020 N   0  0  0  0  0
   25.6330   20.5150    1.8980 N   0  0  0  0  0
   25.9370   20.8840    0.5150 C   0  0  0  0  0
   25.4510   19.9920   -0.4060 C   0  0  0  0  0
   24.8890   20.3620   -1.3870 O   0  0  0  0  0
   27.4640   20.8900    0.3950 C   0  0  0  0  0
   27.9820   21.1580   -1.0110 C   0  0  0  0  0
   27.8190   22.6180   -1.4050 C   0  0  0  0  0
   28.0730   22.7340   -2.8280 N   0  0  0  0  0
   29.2590   23.0670   -3.3140 C   0  0  0  0  0
   30.2970   23.2430   -2.5420 N   0  0  0  0  0
   29.4170   23.1410   -4.6180 N   0  0  0  0  0
   23.6560   17.8620   -1.3160 C   0  0  0  0  0
   25.5140   18.6710   -0.1340 N   0  0  0  0  0
   23.1150   17.5730   -2.3480 O   0  0  0  0  0
   25.1490   17.6750   -1.0280 C   0  0  0  0  0
   25.1090   16.2960   -0.5350 C   0  0  0  0  0
   26.5820   14.3320    0.2170 C   0  0  0  0  0
   27.8790   13.7580    0.2460 C   0  0  0  0  0
   26.5590   15.7210   -0.4180 C   0  0  0  0  0
   25.7760   17.8740   -2.3420 C   0  0  0  0  0
   22.8630   18.3090   -0.3480 N   0  0  0  0  0
   21.3900   18.4910   -0.4890 C   0  0  0  0  0
   21.0010   19.5680   -1.5080 C   0  0  0  0  0
   19.9060   19.6070   -1.9410 O   0  0  0  0  0
   20.7130   18.8130    0.8420 C   0  0  0  0  0
   20.3610   17.5380    1.6050 C   0  0  0  0  0
   20.0660   17.9080    3.0510 C   0  0  0  0  0
   19.0670   17.0170    1.0980 C   0  0  0  0  0
   21.9480   20.4180   -1.8320 N   0  0  0  0  0
   21.6920   21.5360   -2.7500 C   0  0  0  0  0
   22.0290   21.2400   -4.2170 C   0  0  0  0  0
   21.6960   22.0220   -5.0530 O   0  0  0  0  0
   22.5170   22.7360   -2.2760 C   0  0  0  0  0
   21.9810   23.2840   -0.9560 C   0  0  0  0  0
   22.9220   24.3840   -0.4490 C   0  0  0  0  0
   22.8850   25.4610   -0.9380 O   0  0  0  0  0
   23.7490   24.0810    0.5090 N   0  0  0  0  0
   22.6330   20.1250   -4.4930 N   0  0  0  0  0
   23.0030   19.7260   -5.8660 C   0  0  0  0  0
   21.7380   19.2450   -6.5030 C   0  0  0  0  0
   21.1050   18.3390   -6.0530 O   0  0  0  0  0
   23.9350   18.5390   -5.8260 C   0  0  0  0  0
   25.4060   18.8650   -5.9780 C   0  0  0  0  0
   25.8090   19.9380   -5.5630 O   0  0  0  0  0
   26.1350   17.9770   -6.4500 O   0  0  0  0  0
   21.3640   19.9470   -7.5020 N   0  0  0  0  0
   20.1390   19.7160   -8.2200 C   0  0  0  0  0
   20.4710   19.0540   -9.5590 C   0  0  0  0  0
   21.1910   18.0600   -9.6510 O   0  0  0  0  0
   19.4310   21.1120   -8.3230 C   0  0  0  0  0
   20.0870   22.1390   -9.0960 O   0  0  0  0  0
   19.9960   19.6960  -10.5860 N   0  0  0  0  0
   31.1670   22.5929    9.5260 H   0  0  0  0  0
   30.1502   23.7536   10.4148 H   0  0  0  0  0
   29.4039   22.6054    9.2765 H   0  0  0  0  0
   29.8618   24.6976    6.4692 H   0  0  0  0  0
   28.0651   23.1808    8.2453 H   0  0  0  0  0
   26.6620   23.1168    6.1359 H   0  0  0  0  0
   27.9543   24.0701    5.3421 H   0  0  0  0  0
   27.9352   26.6394    5.7476 H   0  0  0  0  0
   25.0321   26.8206    8.7654 H   0  0  0  0  0
   27.1421   21.2721    7.8801 H   0  0  0  0  0
   28.9697   19.0666    7.5904 H   0  0  0  0  0
   26.7437   17.8616    7.4179 H   0  0  0  0  0
   25.9708   19.4999    7.4332 H   0  0  0  0  0
   27.1506   19.8857    9.6065 H   0  0  0  0  0
   27.5628   18.1442    9.5989 H   0  0  0  0  0
   25.1813   17.6071    9.4046 H   0  0  0  0  0
   24.8111   19.3813    9.5349 H   0  0  0  0  0
   25.9297   19.3587   11.7390 H   0  0  0  0  0
   26.0162   17.5523   11.6041 H   0  0  0  0  0
   24.1745   18.2784   12.8892 H   0  0  0  0  0
   23.5918   19.1821   11.6161 H   0  0  0  0  0
   23.6713   17.5222   11.4921 H   0  0  0  0  0
   29.1847   17.6002    6.0193 H   0  0  0  0  0
   29.0236   15.7313    4.6582 H   0  0  0  0  0
   30.5832   16.6463    4.3272 H   0  0  0  0  0
   28.8296   13.8281    3.2146 H   0  0  0  0  0
   27.7146   15.0422    2.4008 H   0  0  0  0  0
   29.7693   13.3740    1.0474 H   0  0  0  0  0
   30.7043   15.1816    2.6379 H   0  0  0  0  0
   29.5835   16.3953    1.8523 H   0  0  0  0  0
   29.7165   18.4373    2.1360 H   0  0  0  0  0
   29.0959   19.7135    3.2117 H   0  0  0  0  0
   30.5899   18.8415    3.6343 H   0  0  0  0  0
   26.7701   16.7267    5.1129 H   0  0  0  0  0
   25.2142   16.1975    2.7555 H   0  0  0  0  0
   24.3842   16.5785    5.6495 H   0  0  0  0  0
   24.9804   15.0083    4.8675 H   0  0  0  0  0
   22.4255   16.4689    4.3358 H   0  0  0  0  0
   23.3678   15.3063    2.3619 H   0  0  0  0  0
   23.5575   13.8242    3.3306 H   0  0  0  0  0
   21.9301   14.4563    2.9799 H   0  0  0  0  0
   23.0956   13.7921    5.6781 H   0  0  0  0  0
   22.5164   15.2478    6.5246 H   0  0  0  0  0
   21.4511   14.4038    5.3740 H   0  0  0  0  0
   25.3397   19.0066    4.8665 H   0  0  0  0  0
   22.9951   20.2753    3.7062 H   0  0  0  0  0
   25.5897   21.3815    4.8472 H   0  0  0  0  0
   24.0754   20.9488    5.7882 H   0  0  0  0  0
   25.5701   23.5362    3.5036 H   0  0  0  0  0
   22.0557   25.2156    5.0723 H   0  0  0  0  0
   26.3402   20.0540    2.4705 H   0  0  0  0  0
   25.4712   21.8470    0.3060 H   0  0  0  0  0
   27.8116   19.8972    0.6806 H   0  0  0  0  0
   27.8321   21.6952    1.0308 H   0  0  0  0  0
   27.4080   20.5488   -1.7092 H   0  0  0  0  0
   29.0437   20.9128   -1.0372 H   0  0  0  0  0
   28.5213   23.2375   -0.8472 H   0  0  0  0  0
   26.8090   22.9577   -1.1756 H   0  0  0  0  0
   27.3093   22.5522   -3.4792 H   0  0  0  0  0
   30.2080   23.1242   -1.5329 H   0  0  0  0  0
   30.3389   23.3331   -5.0099 H   0  0  0  0  0
   28.6176   23.0063   -5.2370 H   0  0  0  0  0
   25.8510   18.3877    0.7861 H   0  0  0  0  0
   24.5381   15.6841   -1.2334 H   0  0  0  0  0
   24.6397   16.2826    0.4487 H   0  0  0  0  0
   26.2396   14.4318    1.2470 H   0  0  0  0  0
   25.9443   13.6821   -0.3821 H   0  0  0  0  0
   28.1564   13.1528   -0.6171 H   0  0  0  0  0
   27.1390   16.3922    0.2155 H   0  0  0  0  0
   26.9730   15.6404   -1.4231 H   0  0  0  0  0
   25.3911   17.1331   -3.0428 H   0  0  0  0  0
   25.5443   18.8750   -2.7059 H   0  0  0  0  0
   26.8561   17.7610   -2.2486 H   0  0  0  0  0
   23.2893   18.5425    0.5488 H   0  0  0  0  0
   21.0357   17.5276   -0.8556 H   0  0  0  0  0
   19.7938   19.3631    0.6407 H   0  0  0  0  0
   21.4004   19.4028    1.4483 H   0  0  0  0  0
   21.1791   16.8257    1.4981 H   0  0  0  0  0
   20.9464   18.3756    3.4919 H   0  0  0  0  0
   19.2285   18.6050    3.0828 H   0  0  0  0  0
   19.8125   17.0076    3.6106 H   0  0  0  0  0
   18.2900   17.7658    1.2517 H   0  0  0  0  0
   19.1568   16.7978    0.0340 H   0  0  0  0  0
   18.8072   16.1060    1.6372 H   0  0  0  0  0
   22.8813   20.2995   -1.4379 H   0  0  0  0  0
   20.6200   21.7319   -2.7248 H   0  0  0  0  0
   22.4563   23.5208   -3.0300 H   0  0  0  0  0
   23.5477   22.4139   -2.1273 H   0  0  0  0  0
   21.9268   22.4809   -0.2210 H   0  0  0  0  0
   20.9838   23.6967   -1.1087 H   0  0  0  0  0
   24.3968   24.7839    0.8649 H   0  0  0  0  0
   23.7494   23.1406    0.9040 H   0  0  0  0  0
   22.8631   19.4942   -3.7252 H   0  0  0  0  0
   23.4771   20.5553   -6.3910 H   0  0  0  0  0
   23.6675   17.9038   -6.6704 H   0  0  0  0  0
   23.8166   18.0825   -4.8433 H   0  0  0  0  0
   25.5959   17.2262   -6.7093 H   0  0  0  0  0
   21.9657   20.7120   -7.8070 H   0  0  0  0  0
   19.4516   19.0278   -7.7281 H   0  0  0  0  0
   19.3896   21.4949   -7.3033 H   0  0  0  0  0
   18.4849   20.9234   -8.8304 H   0  0  0  0  0
   19.5556   22.9383   -9.0803 H   0  0  0  0  0
   20.2159   19.3808  -11.5308 H   0  0  0  0  0
   19.4037   20.5146  -10.4464 H   0  0  0  0  0
  1  2  2  0  0  0
  1  3  1  0  0  0
  4  1  1  0  0  0
  5  4  1  0  0  0
  6  5  1  0  0  0
  5  8  1  0  0  0
  6  7  2  0  0  0
 14  6  1  0  0  0
  8  9  1  0  0  0
  9 10  4  0  0  0
  9 11  4  0  0  0
 10 12  4  0  0  0
 11 13  4  0  0  0
 13 12  4  0  0  0
 15 14  1  0  0  0
 16 15  1  0  0  0
 15 18  1  0  0  0
 16 17  2  0  0  0
 24 16  1  0  0  0
 18 19  1  0  0  0
 19 20  1  0  0  0
 20 21  1  0  0  0
 21 22  1  0  0  0
 23 25  2  0  0  0
 23 26  1  0  0  0
 32 23  1  0  0  0
 26 24  1  0  0  0
 26 27  1  0  0  0
 26 31  1  0  0  0
 27 30  1  0  0  0
 28 29  1  0  0  0
 30 28  1  0  0  0
 29 67  2  0  0  0
 33 32  1  0  0  0
 34 33  1  0  0  0
 33 36  1  0  0  0
 34 35  2  0  0  0
 40 34  1  0  0  0
 36 37  1  0  0  0
 37 38  1  0  0  0
 37 39  1  0  0  0
 41 40  1  0  0  0
 42 41  1  0  0  0
 41 44  1  0  0  0
 42 43  2  0  0  0
 50 42  1  0  0  0
 44 45  1  0  0  0
 45 46  4  0  0  0
 45 47  4  0  0  0
 46 48  4  0  0  0
 47 49  4  0  0  0
 49 48  4  0  0  0
 51 50  1  0  0  0
 52 51  1  0  0  0
 51 54  1  0  0  0
 52 53  2  0  0  0
 62 52  1  0  0  0
 54 55  1  0  0  0
 55 56  1  0  0  0
 56 57  1  0  0  0
 57 58  1  0  0  0
 58 59  2  0  0  0
 58 60  1  0  0  0
 61 63  2  0  0  0
 64 61  1  0  0  0
 61 70  1  0  0  0
 62 64  1  0  0  0
 64 65  1  0  0  0
 64 69  1  0  0  0
 65 68  1  0  0  0
 67 66  1  0  0  0
 66 68  1  0  0  0
 70 71  1  0  0  0
 71 72  1  0  0  0
 71 74  1  0  0  0
 72 73  2  0  0  0
 72 78  1  0  0  0
 74 75  1  0  0  0
 75 76  1  0  0  0
 75 77  1  0  0  0
 78 79  1  0  0  0
 79 80  1  0  0  0
 79 82  1  0  0  0
 80 81  2  0  0  0
 80 87  1  0  0  0
 82 83  1  0  0  0
 83 84  1  0  0  0
 84 85  2  0  0  0
 84 86  1  0  0  0
 87 88  1  0  0  0
 88 89  1  0  0  0
 88 91  1  0  0  0
 89 90  2  0  0  0
 89 95  1  0  0  0
 91 92  1  0  0  0
 92 93  2  0  0  0
 92 94  1  0  0  0
 95 96  1  0  0  0
 96 97  1  0  0  0
 96 99  1  0  0  0
 97 98  2  0  0  0
 97101  1  0  0  0
 99100  1  0  0  0
  3102  1  0  0  0
  3103  1  0  0  0
  3104  1  0  0  0
  4105  1  0  0  0
  5106  1  0  0  0
  8107  1  0  0  0
  8108  1  0  0  0
 11109  1  0  0  0
 12110  1  0  0  0
 14111  1  0  0  0
 15112  1  0  0  0
 18113  1  0  0  0
 18114  1  0  0  0
 19115  1  0  0  0
 19116  1  0  0  0
 20117  1  0  0  0
 20118  1  0  0  0
 21119  1  0  0  0
 21120  1  0  0  0
 22121  1  0  0  0
 22122  1  0  0  0
 22123  1  0  0  0
 24124  1  0  0  0
 27125  1  0  0  0
 27126  1  0  0  0
 28127  1  0  0  0
 28128  1  0  0  0
 29129  1  0  0  0
 30130  1  0  0  0
 30131  1  0  0  0
 31132  1  0  0  0
 31133  1  0  0  0
 31134  1  0  0  0
 32135  1  0  0  0
 33136  1  0  0  0
 36137  1  0  0  0
 36138  1  0  0  0
 37139  1  0  0  0
 38140  1  0  0  0
 38141  1  0  0  0
 38142  1  0  0  0
 39143  1  0  0  0
 39144  1  0  0  0
 39145  1  0  0  0
 40146  1  0  0  0
 41147  1  0  0  0
 44148  1  0  0  0
 44149  1  0  0  0
 47150  1  0  0  0
 48151  1  0  0  0
 50152  1  0  0  0
 51153  1  0  0  0
 54154  1  0  0  0
 54155  1  0  0  0
 55156  1  0  0  0
 55157  1  0  0  0
 56158  1  0  0  0
 56159  1  0  0  0
 57160  1  0  0  0
 59161  1  0  0  0
 60162  1  0  0  0
 60163  1  0  0  0
 62164  1  0  0  0
 65165  1  0  0  0
 65166  1  0  0  0
 66167  1  0  0  0
 66168  1  0  0  0
 67169  1  0  0  0
 68170  1  0  0  0
 68171  1  0  0  0
 69172  1  0  0  0
 69173  1  0  0  0
 69174  1  0  0  0
 70175  1  0  0  0
 71176  1  0  0  0
 74177  1  0  0  0
 74178  1  0  0  0
 75179  1  0  0  0
 76180  1  0  0  0
 76181  1  0  0  0
 76182  1  0  0  0
 77183  1  0  0  0
 77184  1  0  0  0
 77185  1  0  0  0
 78186  1  0  0  0
 79187  1  0  0  0
 82188  1  0  0  0
 82189  1  0  0  0
 83190  1  0  0  0
 83191  1  0  0  0
 86192  1  0  0  0
 86193  1  0  0  0
 87194  1  0  0  0
 88195  1  0  0  0
 91196  1  0  0  0
 91197  1  0  0  0
 94198  1  0  0  0
 95199  1  0  0  0
 96200  1  0  0  0
 99201  1  0  0  0
 99202  1  0  0  0
100203  1  0  0  0
101204  1  0  0  0
101205  1  0  0  0
M  END
$$$$
