### 
### Created by X-TOOL on Mon Sep 10 21:13:27 2018
### 

@<TRIPOS>MOLECULE
5dxe_ligand
  207   209     1     0     0
SMALL
GAST_HUCK


@<TRIPOS>ATOM
      1 C          30.4480   24.2410    8.3350 C.2       1 ACE         0.1752
      2 O          31.3760   25.0340    8.3610 O.2       1 ACE        -0.3972
      3 CH3        30.2800   23.2240    9.4710 C.3       1 ACE         0.0258
      4 N          29.6560   24.1310    7.2920 N.am      1 HIS        -0.2640
      5 CA         28.4940   23.2400    7.2450 C.3       1 HIS         0.1420
      6 C          28.8420   21.7620    6.9240 C.2       1 HIS         0.2060
      7 O          29.8820   21.4160    6.3990 O.2       1 HIS        -0.3942
      8 CB         27.4650   23.8380    6.2880 C.3       1 HIS         0.0427
      9 CG         26.8770   25.1180    6.8680 C.2       1 HIS         0.0561
     10 ND1        25.9570   25.1500    7.7960 N.pl3     1 HIS        -0.2623
     11 CD2        27.2120   26.3550    6.5120 C.2       1 HIS        -0.0276
     12 CE1        25.7390   26.4270    8.0350 C.2       1 HIS         0.0875
     13 NE2        26.5120   27.1550    7.2500 N.2       1 HIS        -0.3437
     14 N          27.9480   20.9150    7.3670 N.am      1 LYS        -0.2636
     15 CA         28.0650   19.4890    7.1530 C.3       1 LYS         0.1307
     16 C          28.0660   19.2340    5.6510 C.2       1 LYS         0.2010
     17 O          27.4370   19.9150    4.8890 O.2       1 LYS        -0.3947
     18 CB         26.8200   18.8960    7.7530 C.3       1 LYS        -0.0122
     19 CG         26.8520   18.8970    9.2580 C.3       1 LYS        -0.0440
     20 CD         25.4850   18.5710    9.8130 C.3       1 LYS        -0.0124
     21 CE         25.4730   18.4570   11.3310 C.3       1 LYS        -0.0354
     22 NZ         24.1260   18.3520   11.8730 N.4       1 LYS         0.2185
     23 C          27.4960   17.5530    3.3780 C.2       1 MK8         0.2263
     24 N          28.7160   18.1510    5.3000 N.am      1 MK8        -0.2743
     25 O          27.2060   17.9190    2.2780 O.2       1 MK8        -0.3419
     26 CA         28.7880   17.7160    3.9300 C.3       1 MK8         0.1304
     27 CB         29.5760   16.3960    3.9940 C.3       1 MK8        -0.0186
     28 CD         28.6910   14.5580    2.4170 C.3       1 MK8        -0.0365
     29 CE         28.8170   13.8740    1.2240 C.2       1 MK8        -0.0987
     30 CG         29.7230   15.6560    2.6410 C.3       1 MK8        -0.0449
     31 CB1        29.6060   18.7510    3.1740 C.3       1 MK8        -0.0320
     32 N          26.5310   16.9940    4.1580 N.am      1 LEU        -0.2629
     33 CA         25.1680   16.7600    3.6880 C.3       1 LEU         0.1314
     34 C          24.4720   17.9400    3.3300 C.2       1 LEU         0.2042
     35 O          23.6780   17.9690    2.4540 O.2       1 LEU        -0.3944
     36 CB         24.4290   15.9430    4.7650 C.3       1 LEU        -0.0099
     37 CG         23.0150   15.5600    4.4560 C.3       1 LEU        -0.0425
     38 CD1        22.9640   14.7280    3.1930 C.3       1 LEU        -0.0625
     39 CD2        22.4810   14.6880    5.5900 C.3       1 LEU        -0.0625
     40 N          24.7100   19.0620    4.0660 N.am      1 HIS        -0.2619
     41 CA         24.0820   20.3520    3.7360 C.3       1 HIS         0.1421
     42 C          24.3940   20.7900    2.4250 C.2       1 HIS         0.2060
     43 O          23.5780   21.3280    1.7590 O.2       1 HIS        -0.3942
     44 CB         24.5010   21.3300    4.8600 C.3       1 HIS         0.0427
     45 CG         23.9930   22.7360    4.6890 C.2       1 HIS         0.0561
     46 ND1        22.9420   23.2570    5.2140 N.pl3     1 HIS        -0.2623
     47 CD2        24.6200   23.6480    4.0260 C.2       1 HIS        -0.0276
     48 CE1        22.8480   24.5070    4.8310 C.2       1 HIS         0.0875
     49 NE2        23.9020   24.7200    4.1020 N.2       1 HIS        -0.3437
     50 N          25.6330   20.5150    1.8980 N.am      1 ARG        -0.2636
     51 CA         25.9370   20.8840    0.5150 C.3       1 ARG         0.1308
     52 C          25.4510   19.9920   -0.4060 C.2       1 ARG         0.2010
     53 O          24.8890   20.3620   -1.3870 O.2       1 ARG        -0.3947
     54 CB         27.4640   20.8900    0.3950 C.3       1 ARG        -0.0092
     55 CG         27.9820   21.1580   -1.0110 C.3       1 ARG        -0.0156
     56 CD         27.8190   22.6180   -1.4050 C.3       1 ARG         0.0627
     57 NE         28.0730   22.7340   -2.8280 N.pl3     1 ARG        -0.2723
     58 CZ         29.2590   23.0670   -3.3140 C.cat     1 ARG         0.2882
     59 NH1        30.2970   23.2430   -2.5420 N.pl3     1 ARG        -0.2849
     60 NH2        29.4170   23.1410   -4.6180 N.pl3     1 ARG        -0.2849
     61 C          23.6560   17.8620   -1.3160 C.2       1 MK8         0.2263
     62 N          25.5140   18.6710   -0.1340 N.am      1 MK8        -0.2743
     63 O          23.1150   17.5730   -2.3480 O.2       1 MK8        -0.3419
     64 CA         25.1490   17.6750   -1.0280 C.3       1 MK8         0.1304
     65 CB         25.1090   16.2960   -0.5350 C.3       1 MK8        -0.0186
     66 CD         26.5820   14.3320    0.2170 C.3       1 MK8        -0.0365
     67 CE         27.8790   13.7580    0.2460 C.2       1 MK8        -0.0987
     68 CG         26.5590   15.7210   -0.4180 C.3       1 MK8        -0.0449
     69 CB1        25.7760   17.8740   -2.3420 C.3       1 MK8        -0.0320
     70 N          22.8630   18.3090   -0.3480 N.am      1 LEU        -0.2629
     71 CA         21.3900   18.4910   -0.4890 C.3       1 LEU         0.1314
     72 C          21.0010   19.5680   -1.5080 C.2       1 LEU         0.2041
     73 O          19.9060   19.6070   -1.9410 O.2       1 LEU        -0.3944
     74 CB         20.7130   18.8130    0.8420 C.3       1 LEU        -0.0099
     75 CG         20.3610   17.5380    1.6050 C.3       1 LEU        -0.0425
     76 CD1        20.0660   17.9080    3.0510 C.3       1 LEU        -0.0625
     77 CD2        19.0670   17.0170    1.0980 C.3       1 LEU        -0.0625
     78 N          21.9480   20.4180   -1.8320 N.am      1 GLN        -0.2636
     79 CA         21.6920   21.5360   -2.7500 C.3       1 GLN         0.1330
     80 C          22.0290   21.2400   -4.2170 C.2       1 GLN         0.2041
     81 O          21.6960   22.0220   -5.0530 O.2       1 GLN        -0.3944
     82 CB         22.5170   22.7360   -2.2760 C.3       1 GLN         0.0045
     83 CG         21.9810   23.2840   -0.9560 C.3       1 GLN         0.0412
     84 CD         22.9220   24.3840   -0.4490 C.2       1 GLN         0.1737
     85 OE1        22.8850   25.4610   -0.9380 O.2       1 GLN        -0.3973
     86 NE2        23.7490   24.0810    0.5090 N.am      1 GLN        -0.3009
     87 N          22.6330   20.1250   -4.4930 N.am      1 ASP        -0.2622
     88 CA         23.0030   19.7260   -5.8660 C.3       1 ASP         0.1423
     89 C          21.7380   19.2450   -6.5030 C.2       1 ASP         0.2057
     90 O          21.1050   18.3390   -6.0530 O.2       1 ASP        -0.3943
     91 CB         23.9350   18.5390   -5.8260 C.3       1 ASP         0.0406
     92 CG         25.4060   18.8650   -5.9780 C.2       1 ASP         0.0393
     93 OD1        25.8090   19.9380   -5.5630 O.co2     1 ASP        -0.5688
     94 OD2        26.1350   17.9770   -6.4500 O.co2     1 ASP        -0.5688
     95 N          21.3640   19.9470   -7.5020 N.am      1 SER        -0.2615
     96 CA         20.1390   19.7160   -8.2200 C.3       1 SER         0.1536
     97 C          20.4710   19.0540   -9.5590 C.2       1 SER         0.2015
     98 O          21.1910   18.0600   -9.6510 O.2       1 SER        -0.3947
     99 CB         19.4310   21.1120   -8.3230 C.3       1 SER         0.0843
    100 OG         20.0870   22.1390   -9.0960 O.3       1 SER        -0.3903
    101 N          19.9960   19.6960  -10.5860 N.am      1 NH2        -0.2989
    102 H1         29.3960   22.5991    9.2759 H         1 ACE         0.0467
    103 H2         30.1489   23.7572   10.4241 H         1 ACE         0.0467
    104 H3         31.1745   22.5864    9.5276 H         1 ACE         0.0467
    105 H4         29.8578   24.6865    6.4854 H         1 HIS         0.1884
    106 H5         28.0453   23.2389    8.2493 H         1 HIS         0.0824
    107 H6         26.6567   23.1100    6.1247 H         1 HIS         0.0491
    108 H7         27.9525   24.0660    5.3287 H         1 HIS         0.0491
    109 H8         25.4984   24.3451    8.2462 H         1 HIS         0.2386
    110 H9         27.9345   26.6392    5.7483 H         1 HIS         0.0324
    111 H10        25.0328   26.8202    8.7648 H         1 HIS         0.1149
    112 H11        27.1579   21.2651    7.8701 H         1 LYS         0.1883
    113 H12        28.9724   19.0802    7.6215 H         1 LYS         0.0800
    114 H13        26.7185   17.8583    7.4025 H         1 LYS         0.0312
    115 H14        25.9521   19.4828    7.4177 H         1 LYS         0.0312
    116 H15        27.1600   19.8913    9.6135 H         1 LYS         0.0269
    117 H16        27.5738   18.1433    9.6059 H         1 LYS         0.0269
    118 H17        25.1525   17.6131    9.3866 H         1 LYS         0.0317
    119 H18        24.7865   19.3670    9.5154 H         1 LYS         0.0317
    120 H19        25.9550   19.3501   11.7554 H         1 LYS         0.0813
    121 H20        26.0407   17.5608   11.6217 H         1 LYS         0.0813
    122 H21        24.1727   18.2792   12.8773 H         1 LYS         0.1994
    123 H22        23.6756   17.5322   11.4973 H         1 LYS         0.1994
    124 H23        23.5971   19.1719   11.6198 H         1 LYS         0.1994
    125 H24        29.1755   17.6110    6.0052 H         1 MK8         0.1839
    126 H25        29.0605   15.7243    4.6962 H         1 MK8         0.0279
    127 H26        30.5845   16.6184    4.3727 H         1 MK8         0.0279
    128 H27        28.7817   13.8317    3.2381 H         1 MK8         0.0388
    129 H28        27.6921   15.0180    2.4429 H         1 MK8         0.0388
    130 H29        29.7684   13.3744    1.0475 H         1 MK8         0.0450
    131 H30        30.7242   15.2020    2.6026 H         1 MK8         0.0284
    132 H31        29.6236   16.3938    1.8312 H         1 MK8         0.0284
    133 H32        29.6856   18.4550    2.1176 H         1 MK8         0.0242
    134 H33        30.6123   18.8154    3.6135 H         1 MK8         0.0242
    135 H34        29.1119   19.7313    3.2439 H         1 MK8         0.0242
    136 H35        26.7654   16.7319    5.0941 H         1 LEU         0.1889
    137 H36        25.2311   16.1425    2.7798 H         1 LEU         0.0802
    138 H37        24.4199   16.5388    5.6896 H         1 LEU         0.0315
    139 H38        24.9980   15.0164    4.9314 H         1 LEU         0.0315
    140 H39        22.3986   16.4639    4.3417 H         1 LEU         0.0298
    141 H40        21.9210   14.4532    2.9769 H         1 LEU         0.0232
    142 H41        23.5626   13.8155    3.3306 H         1 LEU         0.0232
    143 H42        23.3712   15.3105    2.3535 H         1 LEU         0.0232
    144 H43        22.5009   15.2574    6.5309 H         1 LEU         0.0232
    145 H44        23.1103   13.7914    5.6906 H         1 LEU         0.0232
    146 H45        21.4471   14.3870    5.3655 H         1 LEU         0.0232
    147 H46        25.3274   19.0076    4.8508 H         1 HIS         0.1885
    148 H47        22.9897   20.2298    3.7792 H         1 HIS         0.0824
    149 H48        25.6000   21.3640    4.8931 H         1 HIS         0.0491
    150 H49        24.1173   20.9404    5.8144 H         1 HIS         0.0491
    151 H50        22.2802   22.7706    5.8356 H         1 HIS         0.2386
    152 H51        25.5692   23.5363    3.5040 H         1 HIS         0.0324
    153 H52        22.0564   25.2149    5.0721 H         1 HIS         0.1149
    154 H53        26.3264   20.0630    2.4592 H         1 ARG         0.1883
    155 H54        25.5273   21.8827    0.3033 H         1 ARG         0.0800
    156 H55        27.8386   19.9076    0.7184 H         1 ARG         0.0313
    157 H56        27.8587   21.6707    1.0619 H         1 ARG         0.0313
    158 H57        27.4218   20.5329   -1.7219 H         1 ARG         0.0301
    159 H58        29.0492   20.8950   -1.0533 H         1 ARG         0.0301
    160 H59        28.5371   23.2368   -0.8469 H         1 ARG         0.0689
    161 H60        26.7952   22.9522   -1.1810 H         1 ARG         0.0689
    162 H61        27.3018   22.5504   -3.4856 H         1 ARG         0.2642
    163 H62        31.2058   23.5018   -2.9520 H         1 ARG         0.2615
    164 H63        30.2072   23.1231   -1.5230 H         1 ARG         0.2615
    165 H64        28.6098   23.0050   -5.2431 H         1 ARG         0.2615
    166 H65        30.3479   23.3350   -5.0138 H         1 ARG         0.2615
    167 H66        25.8443   18.3933    0.7681 H         1 MK8         0.1839
    168 H67        24.5282   15.6769   -1.2345 H         1 MK8         0.0279
    169 H68        24.6302   16.2780    0.4552 H         1 MK8         0.0279
    170 H69        26.2108   14.4122    1.2494 H         1 MK8         0.0388
    171 H70        25.9189   13.6713   -0.3608 H         1 MK8         0.0388
    172 H71        28.1562   13.1534   -0.6163 H         1 MK8         0.0450
    173 H72        27.1611   16.4028    0.2006 H         1 MK8         0.0284
    174 H73        26.9965   15.6568   -1.4252 H         1 MK8         0.0284
    175 H74        25.4647   17.0679   -3.0226 H         1 MK8         0.0242
    176 H75        26.8704   17.8589   -2.2322 H         1 MK8         0.0242
    177 H76        25.4623   18.8441   -2.7549 H         1 MK8         0.0242
    178 H77        23.2809   18.5379    0.5312 H         1 LEU         0.1889
    179 H78        20.9848   17.5335   -0.8482 H         1 LEU         0.0802
    180 H79        19.7912   19.3809    0.6476 H         1 LEU         0.0315
    181 H80        21.3957   19.4205    1.4542 H         1 LEU         0.0315
    182 H81        21.1659   16.7926    1.5242 H         1 LEU         0.0298
    183 H82        19.8100   17.0001    3.6168 H         1 LEU         0.0232
    184 H83        19.2209   18.6114    3.0845 H         1 LEU         0.0232
    185 H84        20.9538   18.3799    3.4972 H         1 LEU         0.0232
    186 H85        19.1790   16.7188    0.0451 H         1 LEU         0.0232
    187 H86        18.2996   17.8011    1.1773 H         1 LEU         0.0232
    188 H87        18.7633   16.1449    1.6957 H         1 LEU         0.0232
    189 H88        22.8630   20.3018   -1.4456 H         1 GLN         0.1883
    190 H89        20.6227   21.7877   -2.6930 H         1 GLN         0.0801
    191 H90        22.4711   23.5274   -3.0386 H         1 GLN         0.0337
    192 H91        23.5617   22.4213   -2.1366 H         1 GLN         0.0337
    193 H92        21.9294   22.4731   -0.2145 H         1 GLN         0.0504
    194 H93        20.9758   23.7026   -1.1122 H         1 GLN         0.0504
    195 H94        24.3773   24.7729    0.8647 H         1 GLN         0.1814
    196 H95        23.7562   23.1562    0.8895 H         1 GLN         0.1814
    197 H96        22.8586   19.5066   -3.7402 H         1 ASP         0.1884
    198 H97        23.4511   20.5648   -6.4188 H         1 ASP         0.0819
    199 H98        23.6521   17.8573   -6.6416 H         1 ASP         0.0478
    200 H99        23.7976   18.0316   -4.8597 H         1 ASP         0.0478
    201 H100       21.9539   20.6971   -7.8011 H         1 SER         0.1884
    202 H101       19.4914   19.0329   -7.6507 H         1 SER         0.0823
    203 H102       19.3115   21.4966   -7.2994 H         1 SER         0.0606
    204 H103       18.4399   20.9461   -8.7705 H         1 SER         0.0606
    205 H104       19.5611   22.9300   -9.0805 H         1 SER         0.2097
    206 H105       20.1555   19.3489  -11.5102 H         1 NH2         0.1815
    207 H106       19.4714   20.5366  -10.4513 H         1 NH2         0.1815
@<TRIPOS>BOND
     1    1    2 2  
     2    1    3 1  
     3    4    1 am 
     4    5    4 1  
     5    6    5 1  
     6    5    8 1  
     7    6    7 2  
     8   14    6 am 
     9    8    9 1  
    10    9   10 1  
    11    9   11 2  
    12   10   12 1  
    13   11   13 1  
    14   13   12 2  
    15   15   14 1  
    16   16   15 1  
    17   15   18 1  
    18   16   17 2  
    19   24   16 am 
    20   18   19 1  
    21   19   20 1  
    22   20   21 1  
    23   21   22 1  
    24   23   25 2  
    25   23   26 1  
    26   32   23 am 
    27   26   24 1  
    28   26   27 1  
    29   26   31 1  
    30   27   30 1  
    31   28   29 1  
    32   30   28 1  
    33   29   67 2  
    34   33   32 1  
    35   34   33 1  
    36   33   36 1  
    37   34   35 2  
    38   40   34 am 
    39   36   37 1  
    40   37   38 1  
    41   37   39 1  
    42   41   40 1  
    43   42   41 1  
    44   41   44 1  
    45   42   43 2  
    46   50   42 am 
    47   44   45 1  
    48   45   46 1  
    49   45   47 2  
    50   46   48 1  
    51   47   49 1  
    52   49   48 2  
    53   51   50 1  
    54   52   51 1  
    55   51   54 1  
    56   52   53 2  
    57   62   52 am 
    58   54   55 1  
    59   55   56 1  
    60   56   57 1  
    61   57   58 ar 
    62   58   59 ar 
    63   58   60 ar 
    64   61   63 2  
    65   64   61 1  
    66   61   70 am 
    67   62   64 1  
    68   64   65 1  
    69   64   69 1  
    70   65   68 1  
    71   67   66 1  
    72   66   68 1  
    73   70   71 1  
    74   71   72 1  
    75   71   74 1  
    76   72   73 2  
    77   72   78 am 
    78   74   75 1  
    79   75   76 1  
    80   75   77 1  
    81   78   79 1  
    82   79   80 1  
    83   79   82 1  
    84   80   81 2  
    85   80   87 am 
    86   82   83 1  
    87   83   84 1  
    88   84   85 2  
    89   84   86 am 
    90   87   88 1  
    91   88   89 1  
    92   88   91 1  
    93   89   90 2  
    94   89   95 am 
    95   91   92 1  
    96   92   93 ar 
    97   92   94 ar 
    98   95   96 1  
    99   96   97 1  
   100   96   99 1  
   101   97   98 2  
   102   97  101 am 
   103   99  100 1  
   104    3  102 1  
   105    3  103 1  
   106    3  104 1  
   107    4  105 1  
   108    5  106 1  
   109    8  107 1  
   110    8  108 1  
   111   10  109 1  
   112   11  110 1  
   113   12  111 1  
   114   14  112 1  
   115   15  113 1  
   116   18  114 1  
   117   18  115 1  
   118   19  116 1  
   119   19  117 1  
   120   20  118 1  
   121   20  119 1  
   122   21  120 1  
   123   21  121 1  
   124   22  122 1  
   125   22  123 1  
   126   22  124 1  
   127   24  125 1  
   128   27  126 1  
   129   27  127 1  
   130   28  128 1  
   131   28  129 1  
   132   29  130 1  
   133   30  131 1  
   134   30  132 1  
   135   31  133 1  
   136   31  134 1  
   137   31  135 1  
   138   32  136 1  
   139   33  137 1  
   140   36  138 1  
   141   36  139 1  
   142   37  140 1  
   143   38  141 1  
   144   38  142 1  
   145   38  143 1  
   146   39  144 1  
   147   39  145 1  
   148   39  146 1  
   149   40  147 1  
   150   41  148 1  
   151   44  149 1  
   152   44  150 1  
   153   46  151 1  
   154   47  152 1  
   155   48  153 1  
   156   50  154 1  
   157   51  155 1  
   158   54  156 1  
   159   54  157 1  
   160   55  158 1  
   161   55  159 1  
   162   56  160 1  
   163   56  161 1  
   164   57  162 1  
   165   59  163 1  
   166   59  164 1  
   167   60  165 1  
   168   60  166 1  
   169   62  167 1  
   170   65  168 1  
   171   65  169 1  
   172   66  170 1  
   173   66  171 1  
   174   67  172 1  
   175   68  173 1  
   176   68  174 1  
   177   69  175 1  
   178   69  176 1  
   179   69  177 1  
   180   70  178 1  
   181   71  179 1  
   182   74  180 1  
   183   74  181 1  
   184   75  182 1  
   185   76  183 1  
   186   76  184 1  
   187   76  185 1  
   188   77  186 1  
   189   77  187 1  
   190   77  188 1  
   191   78  189 1  
   192   79  190 1  
   193   82  191 1  
   194   82  192 1  
   195   83  193 1  
   196   83  194 1  
   197   86  195 1  
   198   86  196 1  
   199   87  197 1  
   200   88  198 1  
   201   91  199 1  
   202   91  200 1  
   203   95  201 1  
   204   96  202 1  
   205   99  203 1  
   206   99  204 1  
   207  100  205 1  
   208  101  206 1  
   209  101  207 1  
@<TRIPOS>SUBSTRUCTURE
     1 ACE         1

