1sle_ligand
  -I-interpret- 

111115  0  0  0  0  0  0  0  0999 V2000
   20.3050   -1.7120   23.2220 C   0  0  0  0  0
   21.0950   -1.8610   24.1520 O   0  0  0  0  0
   19.7860   -2.9940   22.5720 C   0  0  0  0  0
   19.9970   -0.4720   22.8760 N   0  0  0  0  0
   19.0160   -0.1800   21.8560 C   0  0  0  0  0
   19.4960    1.0710   21.1320 C   0  0  0  0  0
   19.2470    2.1830   21.6030 O   0  0  0  0  0
   17.6770    0.0690   22.5320 C   0  0  0  0  0
   17.1530   -1.3490   23.5320 S   0  0  0  0  0
   20.2020    0.9120   20.0020 N   0  0  0  0  0
   20.7610    2.0480   19.2800 C   0  0  0  0  0
   19.7060    3.1080   18.9690 C   0  0  0  0  0
   18.6170    2.7480   18.5050 O   0  0  0  0  0
   21.3960    1.5440   17.9910 C   0  0  0  0  0
   22.1680    2.6450   17.2610 C   0  0  0  0  0
   21.5370    3.5340   16.4980 N   0  0  0  0  0
   23.5050    2.9120   17.4130 C   0  0  0  0  0
   22.4970    4.3760   16.1720 C   0  0  0  0  0
   23.6410    4.0100   16.7130 N   0  0  0  0  0
   19.9130    4.4140   19.1850 N   0  0  0  0  0
   18.8800    5.4220   18.9050 C   0  0  0  0  0
   18.3290    5.5150   17.4720 C   0  0  0  0  0
   17.3280    6.1990   17.2640 O   0  0  0  0  0
   19.5250    6.7020   19.4180 C   0  0  0  0  0
   20.9880    6.4160   19.3860 C   0  0  0  0  0
   21.0930    4.9910   19.8200 C   0  0  0  0  0
   18.9040    4.9020   16.4150 N   0  0  0  0  0
   18.3190    4.9580   15.0890 C   0  0  0  0  0
   17.2280    3.8910   14.9150 C   0  0  0  0  0
   16.3120    4.0770   14.1190 O   0  0  0  0  0
   19.4260    4.7700   14.0650 C   0  0  0  0  0
   18.9860    5.0310   12.6280 C   0  0  0  0  0
   20.0990    4.8320   11.6090 C   0  0  0  0  0
   21.2950    5.0300   11.8620 O   0  0  0  0  0
   19.7410    4.4490   10.4040 N   0  0  0  0  0
   17.2440    2.8060   15.6770 N   0  0  0  0  0
   16.2720    1.7430   15.5100 C   0  0  0  0  0
   14.9170    2.0320   16.1390 C   0  0  0  0  0
   14.6450    3.1670   16.5570 O   0  0  0  0  0
   14.0140    1.0340   16.2030 N   0  0  0  0  0
   12.6660    1.1600   16.7600 C   0  0  0  0  0
   12.6220    1.3570   18.2900 C   0  0  0  0  0
   13.6710    1.3540   18.9390 O   0  0  0  0  0
   12.0060   -0.1160   16.2530 C   0  0  0  0  0
   13.1170   -1.1370   16.3500 C   0  0  0  0  0
   14.2640   -0.3410   15.7590 C   0  0  0  0  0
   11.4700    1.5300   18.9620 N   0  0  0  0  0
   11.3010    1.2230   20.3900 C   0  0  0  0  0
   11.9040   -0.1500   20.6910 C   0  0  0  0  0
   11.7650   -1.0810   19.8820 O   0  0  0  0  0
    9.8120    1.2700   20.6150 C   0  0  0  0  0
    9.3670    2.2980   19.6030 C   0  0  0  0  0
   10.2040    1.9630   18.3760 C   0  0  0  0  0
   12.5570   -0.3210   21.8380 N   0  0  0  0  0
   13.2710   -1.5560   22.0620 C   0  0  0  0  0
   12.8630   -2.2700   23.3440 C   0  0  0  0  0
   12.7060   -1.7090   24.4340 O   0  0  0  0  0
   14.7520   -1.1650   21.9940 C   0  0  0  0  0
   16.0800   -2.3930   22.1790 S   0  0  0  0  0
   12.6370   -3.5660   23.1420 N   0  0  0  0  0
   20.6252   -3.5611   22.1692 H   0  0  0  0  0
   19.2657   -3.5936   23.3189 H   0  0  0  0  0
   19.0982   -2.7385   21.7659 H   0  0  0  0  0
   20.4673    0.3024   23.3445 H   0  0  0  0  0
   18.8971   -1.0006   21.1485 H   0  0  0  0  0
   16.9285    0.2372   21.7576 H   0  0  0  0  0
   17.7807    0.9321   23.1896 H   0  0  0  0  0
   20.3515   -0.0292   19.6385 H   0  0  0  0  0
   21.5107    2.5231   19.9128 H   0  0  0  0  0
   20.5998    1.1941   17.3339 H   0  0  0  0  0
   22.0968    0.7488   18.2454 H   0  0  0  0  0
   24.2578    2.3552   17.9710 H   0  0  0  0  0
   22.3628    5.2548   15.5412 H   0  0  0  0  0
   17.9439    5.1592   19.3977 H   0  0  0  0  0
   19.1798    6.9630   20.4184 H   0  0  0  0  0
   19.2625    7.5666   18.8083 H   0  0  0  0  0
   21.5521    7.0859   20.0349 H   0  0  0  0  0
   21.4168    6.5771   18.3969 H   0  0  0  0  0
   21.1169    4.8620   20.9021 H   0  0  0  0  0
   22.0274    4.5109   19.5291 H   0  0  0  0  0
   19.7729    4.3858   16.5528 H   0  0  0  0  0
   17.8422    5.9276   14.9452 H   0  0  0  0  0
   19.7488    3.7305   14.1224 H   0  0  0  0  0
   20.2116    5.4882   14.3000 H   0  0  0  0  0
   18.6663    6.0712   12.5662 H   0  0  0  0  0
   18.1942    4.3198   12.3926 H   0  0  0  0  0
   20.4474    4.3157    9.6803 H   0  0  0  0  0
   18.7568    4.2851   10.1923 H   0  0  0  0  0
   17.9586    2.7168   16.3994 H   0  0  0  0  0
   16.1099    1.6210   14.4391 H   0  0  0  0  0
   16.6742    0.8590   16.0048 H   0  0  0  0  0
   12.1448    2.0637   16.4442 H   0  0  0  0  0
   11.6134   -0.0146   15.2412 H   0  0  0  0  0
   11.1255   -0.3943   16.8321 H   0  0  0  0  0
   12.9102   -2.0756   15.8359 H   0  0  0  0  0
   13.3001   -1.5067   17.3589 H   0  0  0  0  0
   14.3039   -0.4216   14.6727 H   0  0  0  0  0
   15.2346   -0.7102   16.0903 H   0  0  0  0  0
   11.8100    1.9217   21.0540 H   0  0  0  0  0
    9.5405    1.5295   21.6383 H   0  0  0  0  0
    9.3275    0.3022   20.4852 H   0  0  0  0  0
    9.5177    3.3208   19.9484 H   0  0  0  0  0
    8.2959    2.2573   19.4053 H   0  0  0  0  0
   10.3164    2.8058   17.6940 H   0  0  0  0  0
    9.7460    1.2035   17.7423 H   0  0  0  0  0
   12.5532    0.4103   22.5491 H   0  0  0  0  0
   13.0325   -2.3076   21.3095 H   0  0  0  0  0
   14.8849   -0.5112   22.8560 H   0  0  0  0  0
   14.8759   -0.8046   20.9728 H   0  0  0  0  0
   12.3157   -4.1536   23.9113 H   0  0  0  0  0
   12.7851   -3.9716   22.2179 H   0  0  0  0  0
  1  2  2  0  0  0
  1  3  1  0  0  0
  5  6  1  0  0  0
  8  5  1  0  0  0
  5  4  1  0  0  0
  9  8  1  0  0  0
  6  7  2  0  0  0
 11 12  1  0  0  0
 11 14  1  0  0  0
 10 11  1  0  0  0
 14 15  1  0  0  0
 15 17  4  0  0  0
 15 16  4  0  0  0
 16 18  4  0  0  0
 18 19  4  0  0  0
 17 19  4  0  0  0
 12 13  2  0  0  0
 20 21  1  0  0  0
 21 24  1  0  0  0
 21 22  1  0  0  0
 22 23  2  0  0  0
 25 24  1  0  0  0
 26 25  1  0  0  0
 20 26  1  0  0  0
 29 28  1  0  0  0
 28 31  1  0  0  0
 28 27  1  0  0  0
 31 32  1  0  0  0
 32 33  1  0  0  0
 33 34  2  0  0  0
 33 35  1  0  0  0
 29 30  2  0  0  0
 38 37  1  0  0  0
 37 36  1  0  0  0
 38 39  2  0  0  0
 41 40  1  0  0  0
 41 44  1  0  0  0
 42 41  1  0  0  0
 42 43  2  0  0  0
 44 45  1  0  0  0
 45 46  1  0  0  0
 40 46  1  0  0  0
 48 47  1  0  0  0
 48 51  1  0  0  0
 49 48  1  0  0  0
 49 50  2  0  0  0
 51 52  1  0  0  0
 52 53  1  0  0  0
 47 53  1  0  0  0
 56 55  1  0  0  0
 55 58  1  0  0  0
 55 54  1  0  0  0
 58 59  1  0  0  0
 56 57  2  0  0  0
  4  1  1  0  0  0
  6 10  1  0  0  0
 12 20  1  0  0  0
 22 27  1  0  0  0
 36 29  1  0  0  0
 40 38  1  0  0  0
 47 42  1  0  0  0
 54 49  1  0  0  0
 59  9  1  0  0  0
 56 60  1  0  0  0
  3 61  1  0  0  0
  3 62  1  0  0  0
  3 63  1  0  0  0
  4 64  1  0  0  0
  5 65  1  0  0  0
  8 66  1  0  0  0
  8 67  1  0  0  0
 10 68  1  0  0  0
 11 69  1  0  0  0
 14 70  1  0  0  0
 14 71  1  0  0  0
 17 72  1  0  0  0
 18 73  1  0  0  0
 21 74  1  0  0  0
 24 75  1  0  0  0
 24 76  1  0  0  0
 25 77  1  0  0  0
 25 78  1  0  0  0
 26 79  1  0  0  0
 26 80  1  0  0  0
 27 81  1  0  0  0
 28 82  1  0  0  0
 31 83  1  0  0  0
 31 84  1  0  0  0
 32 85  1  0  0  0
 32 86  1  0  0  0
 35 87  1  0  0  0
 35 88  1  0  0  0
 36 89  1  0  0  0
 37 90  1  0  0  0
 37 91  1  0  0  0
 41 92  1  0  0  0
 44 93  1  0  0  0
 44 94  1  0  0  0
 45 95  1  0  0  0
 45 96  1  0  0  0
 46 97  1  0  0  0
 46 98  1  0  0  0
 48 99  1  0  0  0
 51100  1  0  0  0
 51101  1  0  0  0
 52102  1  0  0  0
 52103  1  0  0  0
 53104  1  0  0  0
 53105  1  0  0  0
 54106  1  0  0  0
 55107  1  0  0  0
 58108  1  0  0  0
 58109  1  0  0  0
 60110  1  0  0  0
 60111  1  0  0  0
M  END
$$$$
