5z4o_ligand
  -I-interpret- 

 24 25  0  0  0  0  0  0  0  0999 V2000
   -8.1200  -18.5260  -22.2550 C   0  0  0  0  0
   -9.4780  -18.5550  -22.0210 C   0  0  0  0  0
   -9.9590  -19.0810  -20.8430 C   0  0  0  0  0
   -9.0890  -19.5920  -19.8950 C   0  0  0  0  0
   -7.7290  -19.6010  -20.1560 C   0  0  0  0  0
   -7.2350  -19.0540  -21.3270 C   0  0  0  0  0
   -6.8350  -20.1290  -19.2140 O   0  0  0  0  0
   -5.4860  -20.2610  -19.5530 C   0  0  0  0  0
   -5.2000  -21.4350  -20.2330 C   0  0  0  0  0
   -3.9110  -21.6890  -20.6630 C   0  0  0  0  0
   -2.9040  -20.7680  -20.4210 C   0  0  0  0  0
   -3.1900  -19.5970  -19.7320 C   0  0  0  0  0
   -4.4810  -19.3480  -19.2920 C   0  0  0  0  0
   -1.6430  -20.9980  -20.8950 O   0  0  0  0  0
   -7.7389  -18.0849  -23.1760 H   0  0  0  0  0
  -10.1694  -18.1625  -22.7667 H   0  0  0  0  0
  -11.0326  -19.0952  -20.6554 H   0  0  0  0  0
   -9.4709  -19.9835  -18.9521 H   0  0  0  0  0
   -6.1620  -19.0383  -21.5180 H   0  0  0  0  0
   -5.9919  -22.1580  -20.4286 H   0  0  0  0  0
   -3.6863  -22.6146  -21.1930 H   0  0  0  0  0
   -2.3990  -18.8729  -19.5369 H   0  0  0  0  0
   -4.7033  -18.4340  -18.7413 H   0  0  0  0  0
   -1.0699  -20.2702  -20.6429 H   0  0  0  0  0
  1  2  4  0  0  0
  1  6  4  0  0  0
  2  3  4  0  0  0
  3  4  4  0  0  0
  4  5  4  0  0  0
  5  6  4  0  0  0
  5  7  1  0  0  0
  7  8  1  0  0  0
  8  9  4  0  0  0
  8 13  4  0  0  0
  9 10  4  0  0  0
 10 11  4  0  0  0
 11 12  4  0  0  0
 11 14  1  0  0  0
 12 13  4  0  0  0
  1 15  1  0  0  0
  2 16  1  0  0  0
  3 17  1  0  0  0
  4 18  1  0  0  0
  6 19  1  0  0  0
  9 20  1  0  0  0
 10 21  1  0  0  0
 12 22  1  0  0  0
 13 23  1  0  0  0
 14 24  1  0  0  0
M  END
$$$$
