1tuf_ligand
  -I-interpret- 

 29 28  0  0  0  0  0  0  0  0999 V2000
   55.8270   12.0530   20.1930 C   0  0  0  0  0
   57.2020   12.3620   20.7970 C   0  0  0  0  0
   58.1500   13.3320   21.5110 C   0  0  0  0  0
   59.6030   13.1790   21.9690 C   0  0  0  0  0
   60.4950   11.9840   21.6530 C   0  0  0  0  0
   61.9830   12.2750   21.4350 C   0  0  0  0  0
   62.7800   12.4650   20.1360 C   0  0  0  0  0
   64.1710   13.0970   20.0820 C   0  0  0  0  0
   65.2970   12.2710   20.6740 C   0  0  0  0  0
   55.5610   10.8470   19.6280 O   0  0  0  0  0
   54.9470   12.9130   20.2240 O   0  0  0  0  0
   65.6090   11.0730   20.0780 O   0  0  0  0  0
   65.8720   12.7200   21.6800 O   0  0  0  0  0
   57.6805   12.4931   19.8265 H   0  0  0  0  0
   57.0268   11.7608   21.6892 H   0  0  0  0  0
   57.6567   13.3901   22.4813 H   0  0  0  0  0
   58.2830   14.0726   20.7224 H   0  0  0  0  0
   59.5007   13.1140   23.0522 H   0  0  0  0  0
   60.1018   13.9896   21.4378 H   0  0  0  0  0
   60.1278   11.5758   20.7114 H   0  0  0  0  0
   60.4412   11.3306   22.5238 H   0  0  0  0  0
   62.4155   11.3397   21.7904 H   0  0  0  0  0
   62.0437   13.2825   21.8465 H   0  0  0  0  0
   62.1688   13.1733   19.5767 H   0  0  0  0  0
   62.9651   11.4409   19.8119 H   0  0  0  0  0
   64.1164   14.0107   20.6739 H   0  0  0  0  0
   64.4082   13.2275   19.0262 H   0  0  0  0  0
   56.3416   10.2907   19.6814 H   0  0  0  0  0
   65.0358   10.9349   19.3204 H   0  0  0  0  0
  1  2  1  0  0  0
  1 10  1  0  0  0
  1 11  2  0  0  0
  2  3  1  0  0  0
  3  4  1  0  0  0
  4  5  1  0  0  0
  5  6  1  0  0  0
  6  7  1  0  0  0
  7  8  1  0  0  0
  8  9  1  0  0  0
  9 12  1  0  0  0
  9 13  2  0  0  0
  2 14  1  0  0  0
  2 15  1  0  0  0
  3 16  1  0  0  0
  3 17  1  0  0  0
  4 18  1  0  0  0
  4 19  1  0  0  0
  5 20  1  0  0  0
  5 21  1  0  0  0
  6 22  1  0  0  0
  6 23  1  0  0  0
  7 24  1  0  0  0
  7 25  1  0  0  0
  8 26  1  0  0  0
  8 27  1  0  0  0
 10 28  1  0  0  0
 12 29  1  0  0  0
M  END
$$$$
