4zw5_ligand
  -I-interpret- 

 47 48  0  0  0  0  0  0  0  0999 V2000
   12.2060   12.5140   20.3920 C   0  0  0  0  0
   17.9780    8.2600    9.8360 C   0  0  0  0  0
   13.2700   13.1160   19.7340 C   0  0  0  0  0
   13.5140   12.7870   18.4120 C   0  0  0  0  0
   14.2670   10.5090   12.3940 C   0  0  0  0  0
   13.0500   11.5450   16.3400 C   0  0  0  0  0
   13.2410   12.5590   15.4090 C   0  0  0  0  0
   13.6240   12.2330   14.1120 C   0  0  0  0  0
   13.8080   10.9000   13.7760 C   0  0  0  0  0
   16.4990   10.3220   11.4870 C   0  0  0  0  0
   16.6730    8.9290    9.4390 C   0  0  0  0  0
   15.6100   10.9920   12.2520 N   0  0  0  0  0
   13.8100   12.2350   10.7060 N   0  0  0  0  0
   11.3990   11.5910   19.7380 C   0  0  0  0  0
   12.6880   11.8710   17.7560 C   0  0  0  0  0
   11.6420   11.2550   18.4110 C   0  0  0  0  0
   15.9620    9.3880   10.5780 O   0  0  0  0  0
   15.7730    7.8920    8.8010 C   0  0  0  0  0
   16.9160   10.0300    8.4220 C   0  0  0  0  0
   17.5830   10.8500   11.2620 O   0  0  0  0  0
   13.4430   11.0770   11.2670 C   0  0  0  0  0
   12.4830   10.4430   10.8380 O   0  0  0  0  0
   13.0300   12.7790    9.5950 O   0  0  0  0  0
   13.6310    9.8950   14.7190 C   0  0  0  0  0
   13.2450   10.2180   16.0120 C   0  0  0  0  0
   12.0016   12.7679   21.4321 H   0  0  0  0  0
   18.6031    8.9748   10.3711 H   0  0  0  0  0
   17.7661    7.4069   10.4805 H   0  0  0  0  0
   18.4977    7.9201    8.9402 H   0  0  0  0  0
   13.9036   13.8368   20.2507 H   0  0  0  0  0
   14.3508   13.2427   17.8826 H   0  0  0  0  0
   14.1721    9.4259   12.3163 H   0  0  0  0  0
   13.0920   13.6008   15.6927 H   0  0  0  0  0
   13.7776   13.0155   13.3689 H   0  0  0  0  0
   15.8953   11.8460   12.7313 H   0  0  0  0  0
   14.6290   12.7354   11.0512 H   0  0  0  0  0
   10.5686   11.1266   20.2698 H   0  0  0  0  0
   11.0196   10.5209   17.8994 H   0  0  0  0  0
   15.5894    7.0858    9.5112 H   0  0  0  0  0
   14.8265    8.3558    8.5232 H   0  0  0  0  0
   16.2574    7.4906    7.9109 H   0  0  0  0  0
   15.9593   10.4275    8.0832 H   0  0  0  0  0
   17.4991   10.8269    8.8835 H   0  0  0  0  0
   17.4634    9.6231    7.5718 H   0  0  0  0  0
   13.4201   13.6076    9.3071 H   0  0  0  0  0
   13.7953    8.8534   14.4431 H   0  0  0  0  0
   13.0980    9.4363   16.7573 H   0  0  0  0  0
  3  1  4  0  0  0
  1 14  4  0  0  0
 11  2  1  0  0  0
  4  3  4  0  0  0
 15  4  4  0  0  0
  5  9  1  0  0  0
 12  5  1  0  0  0
  5 21  1  0  0  0
  7  6  4  0  0  0
  6 15  1  0  0  0
  6 25  4  0  0  0
  8  7  4  0  0  0
  9  8  4  0  0  0
  9 24  4  0  0  0
 10 12  1  0  0  0
 17 10  1  0  0  0
 10 20  2  0  0  0
 11 17  1  0  0  0
 11 18  1  0  0  0
 11 19  1  0  0  0
 21 13  1  0  0  0
 13 23  1  0  0  0
 14 16  4  0  0  0
 15 16  4  0  0  0
 21 22  2  0  0  0
 24 25  4  0  0  0
  1 26  1  0  0  0
  2 27  1  0  0  0
  2 28  1  0  0  0
  2 29  1  0  0  0
  3 30  1  0  0  0
  4 31  1  0  0  0
  5 32  1  0  0  0
  7 33  1  0  0  0
  8 34  1  0  0  0
 12 35  1  0  0  0
 13 36  1  0  0  0
 14 37  1  0  0  0
 16 38  1  0  0  0
 18 39  1  0  0  0
 18 40  1  0  0  0
 18 41  1  0  0  0
 19 42  1  0  0  0
 19 43  1  0  0  0
 19 44  1  0  0  0
 23 45  1  0  0  0
 24 46  1  0  0  0
 25 47  1  0  0  0
M  END
$$$$
