5t6j_ligand
  -I-interpret- 

196196  0  0  0  0  0  0  0  0999 V2000
   -1.3150   29.9130  -16.9680 N   0  3  0  0  0
   -2.3920   29.5350  -16.0610 C   0  0  0  0  0
   -3.7400   29.4750  -16.7820 C   0  0  0  0  0
   -4.6950   28.8860  -16.2730 O   0  0  0  0  0
   -2.4760   30.5220  -14.8890 C   0  0  0  0  0
   -1.3410   30.4050  -13.8810 C   0  0  0  0  0
   -1.4760   29.1820  -12.9930 C   0  0  0  0  0
   -0.7390   28.2070  -13.1450 O   0  0  0  0  0
   -2.4220   29.2260  -12.0580 N   0  0  0  0  0
   -3.8100   30.0750  -17.9750 N   0  0  0  0  0
   -5.0970   30.2610  -18.6390 C   0  0  0  0  0
   -5.6420   28.9790  -19.2510 C   0  0  0  0  0
   -6.8560   28.8810  -19.4620 O   0  0  0  0  0
   -4.9840   31.3340  -19.7250 C   0  0  0  0  0
   -4.6460   32.7240  -19.1960 C   0  0  0  0  0
   -5.4100   33.0770  -17.9290 C   0  0  0  0  0
   -4.8640   33.0190  -16.8250 O   0  0  0  0  0
   -6.6770   33.4410  -18.0820 N   0  0  0  0  0
   -4.7910   27.9970  -19.5490 N   0  0  0  0  0
   -5.3040   26.7590  -20.1200 C   0  0  0  0  0
   -6.0640   25.9470  -19.0780 C   0  0  0  0  0
   -7.1500   25.4280  -19.3630 O   0  0  0  0  0
   -4.1640   25.9480  -20.7330 C   0  0  0  0  0
   -3.5460   26.5840  -21.9810 C   0  0  0  0  0
   -2.3140   25.8140  -22.4180 C   0  0  0  0  0
   -4.5480   26.6630  -23.1300 C   0  0  0  0  0
   -5.5300   25.8410  -17.8590 N   0  0  0  0  0
   -6.2720   25.1490  -16.8110 C   0  0  0  0  0
   -7.5450   25.9070  -16.4540 C   0  0  0  0  0
   -8.5810   25.2910  -16.1760 O   0  0  0  0  0
   -5.4020   24.9560  -15.5700 C   0  0  0  0  0
   -4.1750   24.0500  -15.6750 C   0  0  0  0  0
   -3.9240   23.4060  -14.3250 C   0  0  0  0  0
   -4.3150   22.9880  -16.7540 C   0  0  0  0  0
   -7.4890   27.2420  -16.4550 N   0  0  0  0  0
   -8.6840   28.0300  -16.1690 C   0  0  0  0  0
   -9.7960   27.7200  -17.1640 C   0  0  0  0  0
  -10.9630   27.5830  -16.7780 O   0  0  0  0  0
   -8.3520   29.5220  -16.1900 C   0  0  0  0  0
   -9.5820   30.4150  -16.3390 C   0  0  0  0  0
   -9.2630   31.8880  -16.1150 C   0  0  0  0  0
  -10.4710   32.7670  -16.4440 C   0  0  0  0  0
  -11.7500   32.2540  -15.8520 N   0  3  0  0  0
   -9.4580   27.6250  -18.4510 N   0  0  0  0  0
  -10.4650   27.2980  -19.4470 C   0  0  0  0  0
  -11.0390   25.9060  -19.2600 C   0  0  0  0  0
  -12.2400   25.6890  -19.4410 O   0  0  0  0  0
  -10.1870   24.9390  -18.9070 N   0  0  0  0  0
  -10.6630   23.5850  -18.6410 C   0  0  0  0  0
  -11.5670   23.5430  -17.4160 C   0  0  0  0  0
  -12.5650   22.8130  -17.4020 O   0  0  0  0  0
   -9.4760   22.6430  -18.4510 C   0  0  0  0  0
   -8.7210   22.2520  -19.7190 C   0  0  0  0  0
   -7.4000   21.5820  -19.3520 C   0  0  0  0  0
   -9.5750   21.3370  -20.5850 C   0  0  0  0  0
  -11.2290   24.3060  -16.3710 N   0  0  0  0  0
  -12.0670   24.3360  -15.1740 C   0  0  0  0  0
  -13.4350   24.9480  -15.4690 C   0  0  0  0  0
  -14.4600   24.4280  -15.0140 O   0  0  0  0  0
  -11.3660   25.1000  -14.0460 C   0  0  0  0  0
  -11.2580   26.4850  -14.3300 O   0  0  0  0  0
  -13.4740   26.0510  -16.2300 N   0  0  0  0  0
  -14.7570   26.6580  -16.5920 C   0  0  0  0  0
  -15.6110   25.6940  -17.4070 C   0  0  0  0  0
  -16.8380   25.6600  -17.2550 O   0  0  0  0  0
  -14.5420   27.9510  -17.3820 C   0  0  0  0  0
  -14.0280   29.2070  -16.6750 C   0  0  0  0  0
  -13.8900   30.3260  -17.6950 C   0  0  0  0  0
  -14.9440   29.6440  -15.5330 C   0  0  0  0  0
  -14.9790   24.9130  -18.2900 N   0  0  0  0  0
  -15.7160   23.9480  -19.1030 C   0  0  0  0  0
  -16.2180   22.7770  -18.2650 C   0  0  0  0  0
  -17.3700   22.3510  -18.4130 O   0  0  0  0  0
  -14.8350   23.4390  -20.2430 C   0  0  0  0  0
  -15.3760   22.2580  -20.8120 O   0  0  0  0  0
  -15.3680   22.2350  -17.3900 N   0  0  0  0  0
  -15.7850   21.1220  -16.5450 C   0  0  0  0  0
  -16.8760   21.5290  -15.5550 C   0  0  0  0  0
  -17.7240   20.7030  -15.2000 O   0  0  0  0  0
  -14.5820   20.5620  -15.7810 C   0  0  0  0  0
  -13.5820   19.8180  -16.6400 C   0  0  0  0  0
  -13.9590   19.1870  -17.8160 C   0  0  0  0  0
  -12.2580   19.7390  -16.2510 C   0  0  0  0  0
  -13.0300   18.5030  -18.5830 C   0  0  0  0  0
  -11.3300   19.0550  -17.0210 C   0  0  0  0  0
  -11.7210   18.4410  -18.1850 C   0  0  0  0  0
  -16.8760   22.7840  -15.1010 N   0  0  0  0  0
  -17.7430   23.2160  -14.0000 C   0  0  0  0  0
  -19.2310   22.9650  -14.2580 C   0  0  0  0  0
  -20.0220   22.8900  -13.3100 O   0  0  0  0  0
  -17.5200   24.7060  -13.7220 C   0  0  0  0  0
  -18.1610   25.1090  -12.5280 O   0  0  0  0  0
  -19.6480   22.8360  -15.4150 O   0  0  0  0  0
   -1.2731   29.2477  -17.7400 H   0  0  0  0  0
   -1.4923   30.8487  -17.3332 H   0  0  0  0  0
   -0.4288   29.9061  -16.4631 H   0  0  0  0  0
   -2.1646   28.5391  -15.6807 H   0  0  0  0  0
   -3.4006   30.3039  -14.3545 H   0  0  0  0  0
   -2.4237   31.5249  -15.3127 H   0  0  0  0  0
   -1.3657   31.2883  -13.2428 H   0  0  0  0  0
   -0.4067   30.3165  -14.4354 H   0  0  0  0  0
   -2.5584   28.4318  -11.4327 H   0  0  0  0  0
   -3.0107   30.0539  -11.9667 H   0  0  0  0  0
   -2.9566   30.4057  -18.4252 H   0  0  0  0  0
   -5.7986   30.5772  -17.8671 H   0  0  0  0  0
   -5.9566   31.4026  -20.2124 H   0  0  0  0  0
   -4.1725   31.0360  -20.3890 H   0  0  0  0  0
   -4.9207   33.4480  -19.9631 H   0  0  0  0  0
   -3.5822   32.7404  -18.9588 H   0  0  0  0  0
   -7.2391   33.6866  -17.2670 H   0  0  0  0  0
   -7.0887   33.4752  -19.0146 H   0  0  0  0  0
   -3.7918   28.1113  -19.3791 H   0  0  0  0  0
   -6.0089   27.0103  -20.9125 H   0  0  0  0  0
   -4.5777   24.9851  -21.0327 H   0  0  0  0  0
   -3.3768   25.8793  -19.9823 H   0  0  0  0  0
   -3.2564   27.6013  -21.7176 H   0  0  0  0  0
   -1.5775   25.8231  -21.6145 H   0  0  0  0  0
   -2.5921   24.7850  -22.6460 H   0  0  0  0  0
   -1.8904   26.2826  -23.3063 H   0  0  0  0  0
   -4.8842   25.6585  -23.3869 H   0  0  0  0  0
   -5.4027   27.2665  -22.8242 H   0  0  0  0  0
   -4.0701   27.1203  -23.9964 H   0  0  0  0  0
   -4.6121   26.2400  -17.6624 H   0  0  0  0  0
   -6.5539   24.1674  -17.1919 H   0  0  0  0  0
   -6.0508   24.4743  -14.8385 H   0  0  0  0  0
   -5.0073   25.9459  -15.3413 H   0  0  0  0  0
   -3.3254   24.6681  -15.9653 H   0  0  0  0  0
   -3.7472   24.1825  -13.5807 H   0  0  0  0  0
   -4.7947   22.8168  -14.0374 H   0  0  0  0  0
   -3.0503   22.7576  -14.3900 H   0  0  0  0  0
   -5.1762   22.3577  -16.5321 H   0  0  0  0  0
   -4.4560   23.4708  -17.7210 H   0  0  0  0  0
   -3.4128   22.3768  -16.7797 H   0  0  0  0  0
   -6.6069   27.7128  -16.6566 H   0  0  0  0  0
   -9.0374   27.7613  -15.1735 H   0  0  0  0  0
   -7.7082   29.7033  -17.0507 H   0  0  0  0  0
   -7.8813   29.7673  -15.2380 H   0  0  0  0  0
  -10.3118   30.1107  -15.5887 H   0  0  0  0  0
   -9.9582   30.3029  -17.3558 H   0  0  0  0  0
   -8.4372   32.1701  -16.7681 H   0  0  0  0  0
   -8.9999   32.0333  -15.0673 H   0  0  0  0  0
  -10.5881   32.7772  -17.5276 H   0  0  0  0  0
  -10.2851   33.7559  -16.0250 H   0  0  0  0  0
  -12.5152   32.8792  -16.1050 H   0  0  0  0  0
  -11.9396   31.3192  -16.2133 H   0  0  0  0  0
  -11.6620   32.2160  -14.8365 H   0  0  0  0  0
   -8.4915   27.7821  -18.7366 H   0  0  0  0  0
   -9.9918   27.3370  -20.4282 H   0  0  0  0  0
  -11.2809   28.0138  -19.3470 H   0  0  0  0  0
   -9.1925   25.1495  -18.8224 H   0  0  0  0  0
  -11.2496   23.2591  -19.5000 H   0  0  0  0  0
   -9.8819   21.7188  -18.0396 H   0  0  0  0  0
   -8.7620   23.1740  -17.8215 H   0  0  0  0  0
   -8.5031   23.1514  -20.2949 H   0  0  0  0  0
   -6.7920   22.2748  -18.7703 H   0  0  0  0  0
   -7.5994   20.6877  -18.7616 H   0  0  0  0  0
   -6.8684   21.3066  -20.2628 H   0  0  0  0  0
   -9.8209   20.4346  -20.0253 H   0  0  0  0  0
  -10.4928   21.8549  -20.8634 H   0  0  0  0  0
   -9.0207   21.0686  -21.4843 H   0  0  0  0  0
  -10.3806   24.8709  -16.4096 H   0  0  0  0  0
  -12.2254   23.3071  -14.8509 H   0  0  0  0  0
  -10.3600   24.6955  -13.9341 H   0  0  0  0  0
  -11.9563   24.9834  -13.1371 H   0  0  0  0  0
  -10.8148   26.9262  -13.6017 H   0  0  0  0  0
  -12.6044   26.4704  -16.5591 H   0  0  0  0  0
  -15.2825   26.8908  -15.6658 H   0  0  0  0  0
  -15.5377   28.2244  -17.7311 H   0  0  0  0  0
  -13.7593   27.7038  -18.0992 H   0  0  0  0  0
  -13.0589   28.9761  -16.2328 H   0  0  0  0  0
  -13.1852   30.0246  -18.4700 H   0  0  0  0  0
  -14.8621   30.5278  -18.1448 H   0  0  0  0  0
  -13.5240   31.2250  -17.1990 H   0  0  0  0  0
  -15.9369   29.8599  -15.9276 H   0  0  0  0  0
  -15.0107   28.8438  -14.7959 H   0  0  0  0  0
  -14.5357   30.5390  -15.0636 H   0  0  0  0  0
  -13.9678   24.9922  -18.3975 H   0  0  0  0  0
  -16.5852   24.4575  -19.5190 H   0  0  0  0  0
  -13.8442   23.2155  -19.8474 H   0  0  0  0  0
  -14.7815   24.2071  -21.0145 H   0  0  0  0  0
  -14.8069   21.9576  -21.5243 H   0  0  0  0  0
  -14.4196   22.6021  -17.3118 H   0  0  0  0  0
  -16.1983   20.3553  -17.2003 H   0  0  0  0  0
  -14.9704   19.8487  -15.0541 H   0  0  0  0  0
  -14.0573   21.4124  -15.3455 H   0  0  0  0  0
  -14.9986   19.2297  -18.1407 H   0  0  0  0  0
  -11.9394   20.2208  -15.3267 H   0  0  0  0  0
  -13.3416   18.0130  -19.5054 H   0  0  0  0  0
  -10.2890   19.0047  -16.7019 H   0  0  0  0  0
  -10.9908   17.9050  -18.7914 H   0  0  0  0  0
  -16.2524   23.4651  -15.5341 H   0  0  0  0  0
  -17.4672   22.6132  -13.1347 H   0  0  0  0  0
  -19.5445   23.0107  -12.4860 H   0  0  0  0  0
  -17.9377   25.2791  -14.5498 H   0  0  0  0  0
  -16.4495   24.8823  -13.6169 H   0  0  0  0  0
  -18.0034   26.0446  -12.3816 H   0  0  0  0  0
  1  2  1  0  0  0
  2  3  1  0  0  0
  2  5  1  0  0  0
  3  4  2  0  0  0
  3 10  1  0  0  0
  5  6  1  0  0  0
  6  7  1  0  0  0
  7  8  2  0  0  0
  7  9  1  0  0  0
 10 11  1  0  0  0
 11 12  1  0  0  0
 11 14  1  0  0  0
 12 13  2  0  0  0
 12 19  1  0  0  0
 14 15  1  0  0  0
 15 16  1  0  0  0
 16 17  2  0  0  0
 16 18  1  0  0  0
 19 20  1  0  0  0
 20 21  1  0  0  0
 20 23  1  0  0  0
 21 22  2  0  0  0
 21 27  1  0  0  0
 23 24  1  0  0  0
 24 25  1  0  0  0
 24 26  1  0  0  0
 27 28  1  0  0  0
 28 29  1  0  0  0
 28 31  1  0  0  0
 29 30  2  0  0  0
 29 35  1  0  0  0
 31 32  1  0  0  0
 32 33  1  0  0  0
 32 34  1  0  0  0
 35 36  1  0  0  0
 36 37  1  0  0  0
 36 39  1  0  0  0
 37 38  2  0  0  0
 37 44  1  0  0  0
 39 40  1  0  0  0
 40 41  1  0  0  0
 41 42  1  0  0  0
 42 43  1  0  0  0
 44 45  1  0  0  0
 45 46  1  0  0  0
 46 47  2  0  0  0
 46 48  1  0  0  0
 48 49  1  0  0  0
 49 50  1  0  0  0
 49 52  1  0  0  0
 50 51  2  0  0  0
 50 56  1  0  0  0
 52 53  1  0  0  0
 53 54  1  0  0  0
 53 55  1  0  0  0
 56 57  1  0  0  0
 57 58  1  0  0  0
 57 60  1  0  0  0
 58 59  2  0  0  0
 58 62  1  0  0  0
 60 61  1  0  0  0
 62 63  1  0  0  0
 63 64  1  0  0  0
 63 66  1  0  0  0
 64 65  2  0  0  0
 64 70  1  0  0  0
 66 67  1  0  0  0
 67 68  1  0  0  0
 67 69  1  0  0  0
 70 71  1  0  0  0
 71 72  1  0  0  0
 71 74  1  0  0  0
 72 73  2  0  0  0
 72 76  1  0  0  0
 74 75  1  0  0  0
 76 77  1  0  0  0
 77 78  1  0  0  0
 77 80  1  0  0  0
 78 79  2  0  0  0
 78 87  1  0  0  0
 80 81  1  0  0  0
 81 82  4  0  0  0
 81 83  4  0  0  0
 82 84  4  0  0  0
 83 85  4  0  0  0
 84 86  4  0  0  0
 85 86  4  0  0  0
 87 88  1  0  0  0
 88 89  1  0  0  0
 88 91  1  0  0  0
 89 90  1  0  0  0
 89 93  2  0  0  0
 91 92  1  0  0  0
  1 94  1  0  0  0
  1 95  1  0  0  0
  1 96  1  0  0  0
  2 97  1  0  0  0
  5 98  1  0  0  0
  5 99  1  0  0  0
  6100  1  0  0  0
  6101  1  0  0  0
  9102  1  0  0  0
  9103  1  0  0  0
 10104  1  0  0  0
 11105  1  0  0  0
 14106  1  0  0  0
 14107  1  0  0  0
 15108  1  0  0  0
 15109  1  0  0  0
 18110  1  0  0  0
 18111  1  0  0  0
 19112  1  0  0  0
 20113  1  0  0  0
 23114  1  0  0  0
 23115  1  0  0  0
 24116  1  0  0  0
 25117  1  0  0  0
 25118  1  0  0  0
 25119  1  0  0  0
 26120  1  0  0  0
 26121  1  0  0  0
 26122  1  0  0  0
 27123  1  0  0  0
 28124  1  0  0  0
 31125  1  0  0  0
 31126  1  0  0  0
 32127  1  0  0  0
 33128  1  0  0  0
 33129  1  0  0  0
 33130  1  0  0  0
 34131  1  0  0  0
 34132  1  0  0  0
 34133  1  0  0  0
 35134  1  0  0  0
 36135  1  0  0  0
 39136  1  0  0  0
 39137  1  0  0  0
 40138  1  0  0  0
 40139  1  0  0  0
 41140  1  0  0  0
 41141  1  0  0  0
 42142  1  0  0  0
 42143  1  0  0  0
 43144  1  0  0  0
 43145  1  0  0  0
 43146  1  0  0  0
 44147  1  0  0  0
 45148  1  0  0  0
 45149  1  0  0  0
 48150  1  0  0  0
 49151  1  0  0  0
 52152  1  0  0  0
 52153  1  0  0  0
 53154  1  0  0  0
 54155  1  0  0  0
 54156  1  0  0  0
 54157  1  0  0  0
 55158  1  0  0  0
 55159  1  0  0  0
 55160  1  0  0  0
 56161  1  0  0  0
 57162  1  0  0  0
 60163  1  0  0  0
 60164  1  0  0  0
 61165  1  0  0  0
 62166  1  0  0  0
 63167  1  0  0  0
 66168  1  0  0  0
 66169  1  0  0  0
 67170  1  0  0  0
 68171  1  0  0  0
 68172  1  0  0  0
 68173  1  0  0  0
 69174  1  0  0  0
 69175  1  0  0  0
 69176  1  0  0  0
 70177  1  0  0  0
 71178  1  0  0  0
 74179  1  0  0  0
 74180  1  0  0  0
 75181  1  0  0  0
 76182  1  0  0  0
 77183  1  0  0  0
 80184  1  0  0  0
 80185  1  0  0  0
 82186  1  0  0  0
 83187  1  0  0  0
 84188  1  0  0  0
 85189  1  0  0  0
 86190  1  0  0  0
 87191  1  0  0  0
 88192  1  0  0  0
 90193  1  0  0  0
 91194  1  0  0  0
 91195  1  0  0  0
 92196  1  0  0  0
M  END
$$$$
