### 
### Created by X-TOOL on Mon Sep 10 21:13:29 2018
### 

@<TRIPOS>MOLECULE
5t6j_ligand
  195   195     1     0     0
SMALL
GAST_HUCK


@<TRIPOS>ATOM
      1 N          -1.3150   29.9130  -16.9680 N.4       1 GLN         0.2380
      2 CA         -2.3920   29.5350  -16.0610 C.3       1 GLN         0.0671
      3 C          -3.7400   29.4750  -16.7820 C.2       1 GLN         0.2269
      4 O          -4.6950   28.8860  -16.2730 O.2       1 GLN        -0.3907
      5 CB         -2.4760   30.5220  -14.8890 C.3       1 GLN         0.0247
      6 CG         -1.3410   30.4050  -13.8810 C.3       1 GLN         0.0443
      7 CD         -1.4760   29.1820  -12.9930 C.2       1 GLN         0.1738
      8 OE1        -0.7390   28.2070  -13.1450 O.2       1 GLN        -0.3973
      9 NE2        -2.4220   29.2260  -12.0580 N.am      1 GLN        -0.3009
     10 N          -3.8100   30.0750  -17.9750 N.am      1 GLN        -0.2609
     11 CA         -5.0970   30.2610  -18.6390 C.3       1 GLN         0.1331
     12 C          -5.6420   28.9790  -19.2510 C.2       1 GLN         0.2040
     13 O          -6.8560   28.8810  -19.4620 O.2       1 GLN        -0.3944
     14 CB         -4.9840   31.3340  -19.7250 C.3       1 GLN         0.0045
     15 CG         -4.6460   32.7240  -19.1960 C.3       1 GLN         0.0412
     16 CD         -5.4100   33.0770  -17.9290 C.2       1 GLN         0.1737
     17 OE1        -4.8640   33.0190  -16.8250 O.2       1 GLN        -0.3973
     18 NE2        -6.6770   33.4410  -18.0820 N.am      1 GLN        -0.3009
     19 N          -4.7910   27.9970  -19.5490 N.am      1 LEU        -0.2637
     20 CA         -5.3040   26.7590  -20.1200 C.3       1 LEU         0.1312
     21 C          -6.0640   25.9470  -19.0780 C.2       1 LEU         0.2039
     22 O          -7.1500   25.4280  -19.3630 O.2       1 LEU        -0.3944
     23 CB         -4.1640   25.9480  -20.7330 C.3       1 LEU        -0.0101
     24 CG         -3.5460   26.5840  -21.9810 C.3       1 LEU        -0.0425
     25 CD1        -2.3140   25.8140  -22.4180 C.3       1 LEU        -0.0625
     26 CD2        -4.5480   26.6630  -23.1300 C.3       1 LEU        -0.0625
     27 N          -5.5300   25.8410  -17.8590 N.am      1 LEU        -0.2637
     28 CA         -6.2720   25.1490  -16.8110 C.3       1 LEU         0.1312
     29 C          -7.5450   25.9070  -16.4540 C.2       1 LEU         0.2039
     30 O          -8.5810   25.2910  -16.1760 O.2       1 LEU        -0.3944
     31 CB         -5.4020   24.9560  -15.5700 C.3       1 LEU        -0.0101
     32 CG         -4.1750   24.0500  -15.6750 C.3       1 LEU        -0.0425
     33 CD1        -3.9240   23.4060  -14.3250 C.3       1 LEU        -0.0625
     34 CD2        -4.3150   22.9880  -16.7540 C.3       1 LEU        -0.0625
     35 N          -7.4890   27.2420  -16.4550 N.am      1 LYS        -0.2637
     36 CA         -8.6840   28.0300  -16.1690 C.3       1 LYS         0.1310
     37 C          -9.7960   27.7200  -17.1640 C.2       1 LYS         0.2037
     38 O         -10.9630   27.5830  -16.7780 O.2       1 LYS        -0.3944
     39 CB         -8.3520   29.5220  -16.1900 C.3       1 LYS        -0.0122
     40 CG         -9.5820   30.4150  -16.3390 C.3       1 LYS        -0.0440
     41 CD         -9.2630   31.8880  -16.1150 C.3       1 LYS        -0.0124
     42 CE        -10.4710   32.7670  -16.4440 C.3       1 LYS        -0.0354
     43 NZ        -11.7500   32.2540  -15.8520 N.4       1 LYS         0.2185
     44 N          -9.4580   27.6250  -18.4510 N.am      1 GLY        -0.2664
     45 CA        -10.4650   27.2980  -19.4470 C.3       1 GLY         0.1201
     46 C         -11.0390   25.9060  -19.2600 C.2       1 GLY         0.2007
     47 O         -12.2400   25.6890  -19.4410 O.2       1 GLY        -0.3947
     48 N         -10.1870   24.9390  -18.9070 N.am      1 LEU        -0.2640
     49 CA        -10.6630   23.5850  -18.6410 C.3       1 LEU         0.1312
     50 C         -11.5670   23.5430  -17.4160 C.2       1 LEU         0.2040
     51 O         -12.5650   22.8130  -17.4020 O.2       1 LEU        -0.3944
     52 CB         -9.4760   22.6430  -18.4510 C.3       1 LEU        -0.0101
     53 CG         -8.7210   22.2520  -19.7190 C.3       1 LEU        -0.0425
     54 CD1        -7.4000   21.5820  -19.3520 C.3       1 LEU        -0.0625
     55 CD2        -9.5750   21.3370  -20.5850 C.3       1 LEU        -0.0625
     56 N         -11.2290   24.3060  -16.3710 N.am      1 SER        -0.2616
     57 CA        -12.0670   24.3360  -15.1740 C.3       1 SER         0.1539
     58 C         -13.4350   24.9480  -15.4690 C.2       1 SER         0.2062
     59 O         -14.4600   24.4280  -15.0140 O.2       1 SER        -0.3943
     60 CB        -11.3660   25.1000  -14.0460 C.3       1 SER         0.0843
     61 OG        -11.2580   26.4850  -14.3300 O.3       1 SER        -0.3903
     62 N         -13.4740   26.0510  -16.2300 N.am      1 LEU        -0.2636
     63 CA        -14.7570   26.6580  -16.5920 C.3       1 LEU         0.1312
     64 C         -15.6110   25.6940  -17.4070 C.2       1 LEU         0.2040
     65 O         -16.8380   25.6600  -17.2550 O.2       1 LEU        -0.3944
     66 CB        -14.5420   27.9510  -17.3820 C.3       1 LEU        -0.0101
     67 CG        -14.0280   29.2070  -16.6750 C.3       1 LEU        -0.0425
     68 CD1       -13.8900   30.3260  -17.6950 C.3       1 LEU        -0.0625
     69 CD2       -14.9440   29.6440  -15.5330 C.3       1 LEU        -0.0625
     70 N         -14.9790   24.9130  -18.2900 N.am      1 SER        -0.2616
     71 CA        -15.7160   23.9480  -19.1030 C.3       1 SER         0.1539
     72 C         -16.2180   22.7770  -18.2650 C.2       1 SER         0.2063
     73 O         -17.3700   22.3510  -18.4130 O.2       1 SER        -0.3943
     74 CB        -14.8350   23.4390  -20.2430 C.3       1 SER         0.0843
     75 OG        -15.3760   22.2580  -20.8120 O.3       1 SER        -0.3903
     76 N         -15.3680   22.2350  -17.3900 N.am      1 PHE        -0.2619
     77 CA        -15.7850   21.1220  -16.5450 C.3       1 PHE         0.1404
     78 C         -16.8760   21.5290  -15.5550 C.2       1 PHE         0.2055
     79 O         -17.7240   20.7030  -15.2000 O.2       1 PHE        -0.3942
     80 CB        -14.5820   20.5620  -15.7810 C.3       1 PHE         0.0214
     81 CG        -13.5820   19.8180  -16.6400 C.ar      1 PHE        -0.0386
     82 CD1       -13.9590   19.1870  -17.8160 C.ar      1 PHE        -0.0601
     83 CD2       -12.2580   19.7390  -16.2510 C.ar      1 PHE        -0.0601
     84 CE1       -13.0300   18.5030  -18.5830 C.ar      1 PHE        -0.0686
     85 CE2       -11.3300   19.0550  -17.0210 C.ar      1 PHE        -0.0686
     86 CZ        -11.7210   18.4410  -18.1850 C.ar      1 PHE        -0.0687
     87 N         -16.8760   22.7840  -15.1010 N.am      1 SER        -0.2671
     88 CA        -17.7430   23.2160  -14.0000 C.3       1 SER         0.1173
     89 C         -19.2310   22.9650  -14.2580 C.2       1 SER         0.0623
     90 O         -20.0220   22.8900  -13.3100 O.co2     1 SER        -0.5665
     91 CB        -17.5200   24.7060  -13.7220 C.3       1 SER         0.0789
     92 OG        -18.1610   25.1090  -12.5280 O.3       1 SER        -0.3910
     93 OXT       -19.6480   22.8360  -15.4150 O.co2     1 SER        -0.5665
     94 H1         -0.4440   29.9427  -16.4614 H         1 GLN         0.2015
     95 H2         -1.5079   30.8222  -17.3582 H         1 GLN         0.2015
     96 H3         -1.2484   29.2355  -17.7114 H         1 GLN         0.2015
     97 H4         -2.1689   28.5349  -15.6611 H         1 GLN         0.1100
     98 H5         -3.4244   30.3469  -14.3600 H         1 GLN         0.0370
     99 H6         -2.4676   31.5429  -15.2985 H         1 GLN         0.0370
    100 H7         -1.3390   31.3033  -13.2462 H         1 GLN         0.0506
    101 H8         -0.3888   30.3404  -14.4279 H         1 GLN         0.0506
    102 H9         -2.5553   28.4476  -11.4446 H         1 GLN         0.1814
    103 H10        -2.9995   30.0375  -11.9688 H         1 GLN         0.1814
    104 H11        -2.9733   30.3992  -18.4164 H         1 GLN         0.1885
    105 H12        -5.8168   30.6066  -17.8824 H         1 GLN         0.0801
    106 H13        -5.9460   31.3910  -20.2554 H         1 GLN         0.0337
    107 H14        -4.1947   31.0312  -20.4287 H         1 GLN         0.0337
    108 H15        -4.8918   33.4641  -19.9717 H         1 GLN         0.0504
    109 H16        -3.5684   32.7645  -18.9788 H         1 GLN         0.0504
    110 H17        -7.2273   33.6841  -17.2832 H         1 GLN         0.1814
    111 H18        -7.0814   33.4722  -18.9961 H         1 GLN         0.1814
    112 H19        -3.8114   28.1091  -19.3824 H         1 LEU         0.1883
    113 H20        -6.0078   27.0195  -20.9242 H         1 LEU         0.0800
    114 H21        -4.5537   24.9566  -21.0073 H         1 LEU         0.0315
    115 H22        -3.3743   25.8348  -19.9757 H         1 LEU         0.0315
    116 H23        -3.2399   27.6087  -21.7237 H         1 LEU         0.0298
    117 H24        -1.8855   26.2860  -23.3145 H         1 LEU         0.0232
    118 H25        -2.5934   24.7753  -22.6485 H         1 LEU         0.0232
    119 H26        -1.5698   25.8225  -21.6080 H         1 LEU         0.0232
    120 H27        -5.4369   27.2227  -22.8035 H         1 LEU         0.0232
    121 H28        -4.8440   25.6466  -23.4289 H         1 LEU         0.0232
    122 H29        -4.0852   27.1767  -23.9855 H         1 LEU         0.0232
    123 H30        -4.6301   26.2322  -17.6663 H         1 LEU         0.1883
    124 H31        -6.5570   24.1566  -17.1904 H         1 LEU         0.0800
    125 H32        -6.0471   24.5395  -14.7823 H         1 LEU         0.0315
    126 H33        -5.0461   25.9510  -15.2645 H         1 LEU         0.0315
    127 H34        -3.3081   24.6768  -15.9310 H         1 LEU         0.0298
    128 H35        -3.0424   22.7513  -14.3893 H         1 LEU         0.0232
    129 H36        -4.8021   22.8109  -14.0336 H         1 LEU         0.0232
    130 H37        -3.7454   24.1886  -13.5729 H         1 LEU         0.0232
    131 H38        -4.4963   23.4730  -17.7245 H         1 LEU         0.0232
    132 H39        -5.1602   22.3273  -16.5108 H         1 LEU         0.0232
    133 H40        -3.3898   22.3954  -16.8075 H         1 LEU         0.0232
    134 H41        -6.6242   27.7036  -16.6526 H         1 LYS         0.1883
    135 H42        -9.0388   27.7665  -15.1617 H         1 LYS         0.0800
    136 H43        -7.6753   29.7168  -17.0351 H         1 LYS         0.0312
    137 H44        -7.8460   29.7799  -15.2480 H         1 LYS         0.0312
    138 H45       -10.3370   30.1015  -15.6030 H         1 LYS         0.0269
    139 H46        -9.9866   30.2920  -17.3545 H         1 LYS         0.0269
    140 H47        -8.4216   32.1763  -16.7622 H         1 LYS         0.0317
    141 H48        -8.9842   32.0395  -15.0618 H         1 LYS         0.0317
    142 H49       -10.5843   32.8115  -17.5372 H         1 LYS         0.0813
    143 H50       -10.2851   33.7782  -16.0531 H         1 LYS         0.0813
    144 H51       -12.5070   32.8712  -16.1014 H         1 LYS         0.1994
    145 H52       -11.6643   32.2160  -14.8484 H         1 LYS         0.1994
    146 H53       -11.9384   31.3301  -16.2084 H         1 LYS         0.1994
    147 H54        -8.5104   27.7790  -18.7310 H         1 GLY         0.1881
    148 H55       -10.0065   27.3590  -20.4450 H         1 GLY         0.0763
    149 H56       -11.2834   28.0294  -19.3741 H         1 GLY         0.0763
    150 H57        -9.2120   25.1453  -18.8241 H         1 LEU         0.1883
    151 H58       -11.2443   23.2455  -19.5109 H         1 LEU         0.0800
    152 H59        -9.8504   21.7199  -17.9844 H         1 LEU         0.0315
    153 H60        -8.7625   23.1335  -17.7725 H         1 LEU         0.0315
    154 H61        -8.5012   23.1651  -20.2916 H         1 LEU         0.0298
    155 H62        -6.8625   21.3036  -20.2705 H         1 LEU         0.0232
    156 H63        -7.5998   20.6792  -18.7562 H         1 LEU         0.0232
    157 H64        -6.7854   22.2802  -18.7649 H         1 LEU         0.0232
    158 H65       -10.5189   21.8439  -20.8341 H         1 LEU         0.0232
    159 H66        -9.7912   20.4089  -20.0356 H         1 LEU         0.0232
    160 H67        -9.0322   21.0970  -21.5112 H         1 LEU         0.0232
    161 H68       -10.3972   24.8598  -16.4089 H         1 SER         0.1884
    162 H69       -12.2226   23.2992  -14.8411 H         1 SER         0.0823
    163 H70       -10.3562   24.6855  -13.9104 H         1 SER         0.0606
    164 H71       -11.9428   24.9717  -13.1182 H         1 SER         0.0606
    165 H72       -10.7559   26.6054  -15.1274 H         1 SER         0.2097
    166 H73       -12.6214   26.4621  -16.5527 H         1 LEU         0.1883
    167 H74       -15.2962   26.9012  -15.6646 H         1 LEU         0.0800
    168 H75       -15.5118   28.2139  -17.8296 H         1 LEU         0.0315
    169 H76       -13.8209   27.7189  -18.1796 H         1 LEU         0.0315
    170 H77       -13.0361   28.9869  -16.2535 H         1 LEU         0.0298
    171 H78       -13.5207   31.2339  -17.1956 H         1 LEU         0.0232
    172 H79       -14.8705   30.5307  -18.1497 H         1 LEU         0.0232
    173 H80       -13.1789   30.0231  -18.4777 H         1 LEU         0.0232
    174 H81       -15.0353   28.8264  -14.8028 H         1 LEU         0.0232
    175 H82       -15.9383   29.8901  -15.9341 H         1 LEU         0.0232
    176 H83       -14.5180   30.5301  -15.0398 H         1 LEU         0.0232
    177 H84       -13.9876   24.9906  -18.3953 H         1 SER         0.1884
    178 H85       -16.5880   24.4590  -19.5372 H         1 SER         0.0823
    179 H86       -13.8297   23.2227  -19.8523 H         1 SER         0.0606
    180 H87       -14.7674   24.2148  -21.0199 H         1 SER         0.0606
    181 H88       -14.8128   21.9607  -21.5169 H         1 SER         0.2097
    182 H89       -14.4382   22.5949  -17.3134 H         1 PHE         0.1885
    183 H90       -16.1877   20.3311  -17.1948 H         1 PHE         0.0823
    184 H91       -14.9556   19.8701  -15.0118 H         1 PHE         0.0474
    185 H92       -14.0614   21.4016  -15.2973 H         1 PHE         0.0474
    186 H93       -14.9929   19.2295  -18.1389 H         1 PHE         0.0557
    187 H94       -11.9411   20.2182  -15.3317 H         1 PHE         0.0557
    188 H95       -13.3399   18.0157  -19.5004 H         1 PHE         0.0599
    189 H96       -10.2947   19.0049  -16.7037 H         1 PHE         0.0599
    190 H97       -10.9949   17.9080  -18.7881 H         1 PHE         0.0559
    191 H98       -16.2646   23.4518  -15.5256 H         1 SER         0.1876
    192 H99       -17.4563   22.6457  -13.1041 H         1 SER         0.0749
    193 H100      -17.9249   25.2912  -14.5608 H         1 SER         0.0599
    194 H101      -16.4403   24.8954  -13.6302 H         1 SER         0.0599
    195 H102      -19.0950   24.9520  -12.6027 H         1 SER         0.2096
@<TRIPOS>BOND
     1    1    2 1  
     2    2    3 1  
     3    2    5 1  
     4    3    4 2  
     5    3   10 am 
     6    5    6 1  
     7    6    7 1  
     8    7    8 2  
     9    7    9 am 
    10   10   11 1  
    11   11   12 1  
    12   11   14 1  
    13   12   13 2  
    14   12   19 am 
    15   14   15 1  
    16   15   16 1  
    17   16   17 2  
    18   16   18 am 
    19   19   20 1  
    20   20   21 1  
    21   20   23 1  
    22   21   22 2  
    23   21   27 am 
    24   23   24 1  
    25   24   25 1  
    26   24   26 1  
    27   27   28 1  
    28   28   29 1  
    29   28   31 1  
    30   29   30 2  
    31   29   35 am 
    32   31   32 1  
    33   32   33 1  
    34   32   34 1  
    35   35   36 1  
    36   36   37 1  
    37   36   39 1  
    38   37   38 2  
    39   37   44 am 
    40   39   40 1  
    41   40   41 1  
    42   41   42 1  
    43   42   43 1  
    44   44   45 1  
    45   45   46 1  
    46   46   47 2  
    47   46   48 am 
    48   48   49 1  
    49   49   50 1  
    50   49   52 1  
    51   50   51 2  
    52   50   56 am 
    53   52   53 1  
    54   53   54 1  
    55   53   55 1  
    56   56   57 1  
    57   57   58 1  
    58   57   60 1  
    59   58   59 2  
    60   58   62 am 
    61   60   61 1  
    62   62   63 1  
    63   63   64 1  
    64   63   66 1  
    65   64   65 2  
    66   64   70 am 
    67   66   67 1  
    68   67   68 1  
    69   67   69 1  
    70   70   71 1  
    71   71   72 1  
    72   71   74 1  
    73   72   73 2  
    74   72   76 am 
    75   74   75 1  
    76   76   77 1  
    77   77   78 1  
    78   77   80 1  
    79   78   79 2  
    80   78   87 am 
    81   80   81 1  
    82   81   82 ar 
    83   81   83 ar 
    84   82   84 ar 
    85   83   85 ar 
    86   84   86 ar 
    87   85   86 ar 
    88   87   88 1  
    89   88   89 1  
    90   88   91 1  
    91   89   90 ar 
    92   89   93 ar 
    93   91   92 1  
    94    1   94 1  
    95    1   95 1  
    96    1   96 1  
    97    2   97 1  
    98    5   98 1  
    99    5   99 1  
   100    6  100 1  
   101    6  101 1  
   102    9  102 1  
   103    9  103 1  
   104   10  104 1  
   105   11  105 1  
   106   14  106 1  
   107   14  107 1  
   108   15  108 1  
   109   15  109 1  
   110   18  110 1  
   111   18  111 1  
   112   19  112 1  
   113   20  113 1  
   114   23  114 1  
   115   23  115 1  
   116   24  116 1  
   117   25  117 1  
   118   25  118 1  
   119   25  119 1  
   120   26  120 1  
   121   26  121 1  
   122   26  122 1  
   123   27  123 1  
   124   28  124 1  
   125   31  125 1  
   126   31  126 1  
   127   32  127 1  
   128   33  128 1  
   129   33  129 1  
   130   33  130 1  
   131   34  131 1  
   132   34  132 1  
   133   34  133 1  
   134   35  134 1  
   135   36  135 1  
   136   39  136 1  
   137   39  137 1  
   138   40  138 1  
   139   40  139 1  
   140   41  140 1  
   141   41  141 1  
   142   42  142 1  
   143   42  143 1  
   144   43  144 1  
   145   43  145 1  
   146   43  146 1  
   147   44  147 1  
   148   45  148 1  
   149   45  149 1  
   150   48  150 1  
   151   49  151 1  
   152   52  152 1  
   153   52  153 1  
   154   53  154 1  
   155   54  155 1  
   156   54  156 1  
   157   54  157 1  
   158   55  158 1  
   159   55  159 1  
   160   55  160 1  
   161   56  161 1  
   162   57  162 1  
   163   60  163 1  
   164   60  164 1  
   165   61  165 1  
   166   62  166 1  
   167   63  167 1  
   168   66  168 1  
   169   66  169 1  
   170   67  170 1  
   171   68  171 1  
   172   68  172 1  
   173   68  173 1  
   174   69  174 1  
   175   69  175 1  
   176   69  176 1  
   177   70  177 1  
   178   71  178 1  
   179   74  179 1  
   180   74  180 1  
   181   75  181 1  
   182   76  182 1  
   183   77  183 1  
   184   80  184 1  
   185   80  185 1  
   186   82  186 1  
   187   83  187 1  
   188   84  188 1  
   189   85  189 1  
   190   86  190 1  
   191   87  191 1  
   192   88  192 1  
   193   91  193 1  
   194   91  194 1  
   195   92  195 1  
@<TRIPOS>SUBSTRUCTURE
     1 GLN         1

