1sqn_ligand
  -I-interpret- 

 49 52  0  0  0  0  0  0  0  0999 V2000
   -4.1220   -1.1470   30.7680 O   0  0  0  0  0
   -3.7310   -0.3340   29.9590 C   0  0  0  0  0
   -4.4900    0.9880   29.7420 C   0  0  0  0  0
   -2.5860   -0.6780   29.1600 C   0  0  0  0  0
   -2.1910    0.2160   28.1060 C   0  0  0  0  0
   -0.8560   -0.1210   27.4590 C   0  0  0  0  0
   -2.9580    1.3330   27.6770 C   0  0  0  0  0
   -4.3850    1.2920   28.2630 C   0  0  0  0  0
   -2.8080    1.6270   26.2540 C   0  0  0  0  0
   -1.6160    1.3810   25.5500 C   0  0  0  0  0
   -0.9620    0.0700   25.9880 C   0  0  0  0  0
   -3.6500    2.8190   25.7550 C   0  0  0  0  0
   -3.4930    3.0750   24.1940 C   0  0  0  0  0
   -2.1050    2.9940   23.6570 C   0  0  0  0  0
   -1.4440    1.7140   24.1630 C   0  0  0  0  0
   -1.4140    4.2380   24.2320 C   0  0  0  0  0
   -1.8860    2.9150   22.1190 C   0  0  0  0  0
   -1.9890    4.1550   21.4200 O   0  0  0  0  0
   -0.4500    2.3470   22.0170 C   0  0  0  0  0
   -0.2250    1.5110   23.2800 C   0  0  0  0  0
   -2.8680    2.0190   21.4830 C   0  0  0  0  0
   -3.7620    1.2630   20.9700 C   0  0  0  0  0
   -4.0622    1.7916   30.3414 H   0  0  0  0  0
   -5.5308    0.9013   30.0541 H   0  0  0  0  0
   -2.8573   -1.6071   28.6587 H   0  0  0  0  0
   -1.7463   -0.6876   29.8549 H   0  0  0  0  0
   -2.9941    0.9488   28.0280 H   0  0  0  0  0
   -0.5966   -1.1574   27.6751 H   0  0  0  0  0
   -0.0812    0.5339   27.8575 H   0  0  0  0  0
   -2.5387    2.2405   28.1114 H   0  0  0  0  0
   -4.7993    2.2910   28.1269 H   0  0  0  0  0
   -4.9030    0.4830   27.7479 H   0  0  0  0  0
   -3.2714    0.7041   25.9052 H   0  0  0  0  0
   -1.0418    2.2425   25.8908 H   0  0  0  0  0
   -1.5916   -0.7361   25.6113 H   0  0  0  0  0
    0.0561    0.0816   25.5987 H   0  0  0  0  0
   -3.3048    3.7122   26.2757 H   0  0  0  0  0
   -4.6979    2.5927   25.9520 H   0  0  0  0  0
   -3.8323    4.0952   24.0147 H   0  0  0  0  0
   -4.0611    2.2896   23.6956 H   0  0  0  0  0
   -1.9509    0.7550   24.0563 H   0  0  0  0  0
   -1.9361    5.1321   23.8913 H   0  0  0  0  0
   -1.4377    4.1946   25.3209 H   0  0  0  0  0
   -0.3792    4.2677   23.8907 H   0  0  0  0  0
   -1.8397    4.0064   20.4834 H   0  0  0  0  0
    0.2838    3.1497   21.9434 H   0  0  0  0  0
   -0.3326    1.7394   21.1197 H   0  0  0  0  0
   -0.0983    0.4576   23.0302 H   0  0  0  0  0
    0.6833    1.8236   23.7952 H   0  0  0  0  0
  1  2  2  0  0  0
  2  3  1  0  0  0
  2  4  1  0  0  0
  3  8  1  0  0  0
  4  5  1  0  0  0
  5  6  1  0  0  0
  5  7  1  0  0  0
  6 11  1  0  0  0
  7  8  1  0  0  0
  7  9  1  0  0  0
  9 10  1  0  0  0
  9 12  1  0  0  0
 10 11  1  0  0  0
 10 15  1  0  0  0
 12 13  1  0  0  0
 13 14  1  0  0  0
 14 15  1  0  0  0
 14 16  1  0  0  0
 14 17  1  0  0  0
 15 20  1  0  0  0
 17 18  1  0  0  0
 17 19  1  0  0  0
 17 21  1  0  0  0
 19 20  1  0  0  0
 21 22  3  0  0  0
  3 23  1  0  0  0
  3 24  1  0  0  0
  4 25  1  0  0  0
  4 26  1  0  0  0
  5 27  1  0  0  0
  6 28  1  0  0  0
  6 29  1  0  0  0
  7 30  1  0  0  0
  8 31  1  0  0  0
  8 32  1  0  0  0
  9 33  1  0  0  0
 10 34  1  0  0  0
 11 35  1  0  0  0
 11 36  1  0  0  0
 12 37  1  0  0  0
 12 38  1  0  0  0
 13 39  1  0  0  0
 13 40  1  0  0  0
 15 41  1  0  0  0
 16 42  1  0  0  0
 16 43  1  0  0  0
 16 44  1  0  0  0
 18 45  1  0  0  0
 19 46  1  0  0  0
 19 47  1  0  0  0
 20 48  1  0  0  0
 20 49  1  0  0  0
M  END
$$$$
