6h76_ligand
  -I-interpret- 

 40 40  0  0  0  0  0  0  0  0999 V2000
   -7.9630   -9.4860   11.1270 C   0  0  0  0  0
   -9.2050   -9.1900   11.9480 C   0  0  0  0  0
  -10.3360   -8.7370   11.0300 C   0  0  0  0  0
  -11.4880   -8.1960   11.8790 C   0  0  0  0  0
  -10.9590   -7.0990   12.8550 C   0  0  0  0  0
   -9.8740   -7.7200   13.6960 C   0  0  0  0  0
   -9.2530   -6.7140   14.6610 C   0  0  0  0  0
   -8.0690   -7.3640   15.4450 C   0  0  0  0  0
   -7.4560   -6.4060   16.4690 C   0  0  0  0  0
  -12.5740   -5.3820   13.5250 C   0  0  0  0  0
  -13.6270   -4.9730   14.5100 C   0  0  0  0  0
  -12.0470   -6.5680   13.6580 N   0  0  0  0  0
   -7.3580   -8.5110   10.6140 O   0  0  0  0  0
   -7.5610  -10.6770   11.0430 O   0  0  0  0  0
   -9.6400  -10.3540   12.6530 O   0  0  0  0  0
  -12.5560   -7.7110   11.0830 O   0  0  0  0  0
   -8.8260   -8.2000   12.8880 O   0  0  0  0  0
   -8.6860   -5.6020   13.9220 O   0  0  0  0  0
   -8.5450   -8.5560   16.0600 O   0  0  0  0  0
   -8.3830   -5.8950   17.3970 O   0  0  0  0  0
  -12.2070   -4.6090   12.6720 O   0  0  0  0  0
  -10.6851   -9.5816   10.4359 H   0  0  0  0  0
   -9.9743   -7.9542   10.3633 H   0  0  0  0  0
  -11.8921   -9.0213   12.4652 H   0  0  0  0  0
  -10.5440   -6.2531   12.3070 H   0  0  0  0  0
  -10.3515   -8.5286   14.2494 H   0  0  0  0  0
  -10.0404   -6.3863   15.3398 H   0  0  0  0  0
   -7.2648   -7.6018   14.7487 H   0  0  0  0  0
   -7.0484   -5.5588   15.9174 H   0  0  0  0  0
   -6.7092   -6.9665   17.0314 H   0  0  0  0  0
  -13.2793   -4.1068   15.0730 H   0  0  0  0  0
  -14.5424   -4.7174   13.9762 H   0  0  0  0  0
  -13.8225   -5.7983   15.1946 H   0  0  0  0  0
  -12.4302   -7.1718   14.3853 H   0  0  0  0  0
   -8.1737  -11.2537   11.5052 H   0  0  0  0  0
   -9.8989  -11.0303   12.0228 H   0  0  0  0  0
  -12.8577   -8.4077   10.4955 H   0  0  0  0  0
   -9.3787   -5.1664   13.4200 H   0  0  0  0  0
   -7.8297   -8.9707   16.5478 H   0  0  0  0  0
   -7.9326   -5.3048   18.0057 H   0  0  0  0  0
  2  1  1  0  0  0
  1 13  2  0  0  0
  1 14  1  0  0  0
  3  2  1  0  0  0
  2 15  1  0  0  0
 17  2  1  0  0  0
  4  3  1  0  0  0
  5  4  1  0  0  0
  4 16  1  0  0  0
  5  6  1  0  0  0
 12  5  1  0  0  0
  6  7  1  0  0  0
  6 17  1  0  0  0
  7  8  1  0  0  0
  7 18  1  0  0  0
  8  9  1  0  0  0
  8 19  1  0  0  0
  9 20  1  0  0  0
 10 11  1  0  0  0
 10 12  1  0  0  0
 10 21  2  0  0  0
  3 22  1  0  0  0
  3 23  1  0  0  0
  4 24  1  0  0  0
  5 25  1  0  0  0
  6 26  1  0  0  0
  7 27  1  0  0  0
  8 28  1  0  0  0
  9 29  1  0  0  0
  9 30  1  0  0  0
 11 31  1  0  0  0
 11 32  1  0  0  0
 11 33  1  0  0  0
 12 34  1  0  0  0
 14 35  1  0  0  0
 15 36  1  0  0  0
 16 37  1  0  0  0
 18 38  1  0  0  0
 19 39  1  0  0  0
 20 40  1  0  0  0
M  END
$$$$
