5d3t_ligand
  -I-interpret- 

 47 48  0  0  0  0  0  0  0  0999 V2000
   11.3040    6.0210    2.5180 C   0  0  0  0  0
   11.2190    6.6650    1.1420 C   0  0  0  0  0
   11.1300    5.5780    0.0910 C   0  0  0  0  0
   12.1020    4.7110   -0.3960 C   0  0  0  0  0
   11.5030    3.8070   -1.3930 C   0  0  0  0  0
    6.2110    7.9100   -1.8270 C   0  0  0  0  0
    6.4390    6.4320   -1.6210 C   0  0  0  0  0
    6.2950    8.8130   -0.7650 C   0  0  0  0  0
    5.4330   10.1990   -4.7540 C   0  0  0  0  0
   12.1760    2.7290   -2.1980 C   0  0  0  0  0
   13.5390    4.6400   -0.0680 C   0  0  0  0  0
   14.2000    5.9120    0.3990 C   0  0  0  0  0
    9.9040    5.1510   -0.6400 C   0  0  0  0  0
    8.5590    5.8180   -0.4820 C   0  0  0  0  0
   10.1990    4.1350   -1.4820 N   0  0  0  0  0
    7.8830    6.1450   -1.6080 N   0  0  0  0  0
   14.1320    3.5850   -0.2270 O   0  0  0  0  0
    8.0940    6.0560    0.6150 O   0  0  0  0  0
    5.9300    8.3740   -3.0990 C   0  0  0  0  0
    5.7180    9.7260   -3.3460 C   0  0  0  0  0
    5.8120   10.6280   -2.2880 C   0  0  0  0  0
    6.0970   10.1690   -1.0020 C   0  0  0  0  0
    4.8040   11.2360   -4.9910 O   0  0  0  0  0
    5.9360    9.4280   -5.8270 N   0  0  0  0  0
    8.5230    6.2630   -2.9220 C   0  0  0  0  0
   10.4140    5.4156    2.6900 H   0  0  0  0  0
   12.1904    5.3885    2.5676 H   0  0  0  0  0
   11.3683    6.7991    3.2786 H   0  0  0  0  0
   12.1063    7.2733    0.9663 H   0  0  0  0  0
   10.3349    7.3003    1.0884 H   0  0  0  0  0
    5.9698    5.8789   -2.4346 H   0  0  0  0  0
    6.0038    6.1304   -0.6682 H   0  0  0  0  0
    6.5141    8.4577    0.2419 H   0  0  0  0  0
   12.9638    3.1711   -2.8079 H   0  0  0  0  0
   12.6084    1.9900   -1.5235 H   0  0  0  0  0
   11.4417    2.2476   -2.8439 H   0  0  0  0  0
   14.6412    5.7508    1.3826 H   0  0  0  0  0
   14.9795    6.1957   -0.3082 H   0  0  0  0  0
   13.4556    6.7059    0.4590 H   0  0  0  0  0
    5.8735    7.6653   -3.9252 H   0  0  0  0  0
    5.6627   11.6930   -2.4655 H   0  0  0  0  0
    6.1650   10.8781   -0.1770 H   0  0  0  0  0
    5.7788    9.7289   -6.7889 H   0  0  0  0  0
    6.4561    8.5709   -5.6393 H   0  0  0  0  0
    8.0596    5.5606   -3.6148 H   0  0  0  0  0
    8.3983    7.2794   -3.2955 H   0  0  0  0  0
    9.5851    6.0364   -2.8291 H   0  0  0  0  0
  2  1  1  0  0  0
  3  2  1  0  0  0
  3  4  4  0  0  0
 13  3  4  0  0  0
  5  4  4  0  0  0
  4 11  1  0  0  0
  5 10  1  0  0  0
 15  5  4  0  0  0
  6  7  1  0  0  0
  6  8  4  0  0  0
 19  6  4  0  0  0
  7 16  1  0  0  0
  8 22  4  0  0  0
 20  9  1  0  0  0
  9 23  2  0  0  0
  9 24  1  0  0  0
 11 12  1  0  0  0
 11 17  2  0  0  0
 14 13  1  0  0  0
 13 15  4  0  0  0
 16 14  1  0  0  0
 14 18  2  0  0  0
 16 25  1  0  0  0
 19 20  4  0  0  0
 20 21  4  0  0  0
 21 22  4  0  0  0
  1 26  1  0  0  0
  1 27  1  0  0  0
  1 28  1  0  0  0
  2 29  1  0  0  0
  2 30  1  0  0  0
  7 31  1  0  0  0
  7 32  1  0  0  0
  8 33  1  0  0  0
 10 34  1  0  0  0
 10 35  1  0  0  0
 10 36  1  0  0  0
 12 37  1  0  0  0
 12 38  1  0  0  0
 12 39  1  0  0  0
 19 40  1  0  0  0
 21 41  1  0  0  0
 22 42  1  0  0  0
 24 43  1  0  0  0
 24 44  1  0  0  0
 25 45  1  0  0  0
 25 46  1  0  0  0
 25 47  1  0  0  0
M  END
$$$$
