4uff_ligand
  -I-interpret- 

 68 70  0  0  0  0  0  0  0  0999 V2000
   60.7020  -10.8340  164.3840 O   0  0  0  0  0
   59.7630  -10.0050  165.0800 S   0  0  0  0  0
   58.6490  -10.6100  165.7420 O   0  0  0  0  0
   59.1070   -8.7900  163.9520 C   0  0  0  0  0
   58.0140   -9.3510  163.0820 C   0  0  0  0  0
   58.3140  -10.2000  162.0310 C   0  0  0  0  0
   57.3070  -10.7210  161.2360 C   0  0  0  0  0
   55.9910  -10.3990  161.4850 C   0  0  0  0  0
   55.6820   -9.5540  162.5290 C   0  0  0  0  0
   56.6880   -9.0320  163.3230 C   0  0  0  0  0
   60.5930   -9.2020  166.2150 N   0  0  0  0  0
   61.9660   -8.7180  166.1090 C   0  0  0  0  0
   62.5450   -8.5320  167.5200 C   0  0  0  0  0
   63.9180   -7.9080  167.5240 C   0  0  0  0  0
   64.1090   -6.6210  167.9980 C   0  0  0  0  0
   65.3630   -6.0370  167.9760 C   0  0  0  0  0
   66.4450   -6.7360  167.4870 C   0  0  0  0  0
   66.2720   -8.0210  167.0240 C   0  0  0  0  0
   65.0170   -8.6050  167.0420 C   0  0  0  0  0
   61.8500   -7.3590  165.4160 C   0  0  0  0  0
   60.9670   -6.5860  165.7500 O   0  0  0  0  0
   62.7460   -7.0130  164.4670 N   0  0  0  0  0
   63.8230   -7.8800  164.0040 C   0  0  0  0  0
   62.6620   -5.6950  163.8590 C   0  0  0  0  0
   61.3770   -5.5420  163.0660 C   0  0  0  0  0
   60.9090   -6.4780  162.4230 O   0  0  0  0  0
   60.7940   -4.3500  163.1280 N   0  0  0  0  0
   59.5260   -4.1090  162.4550 C   0  0  0  0  0
   58.3500   -4.0740  163.4010 C   0  0  0  0  0
   57.8550   -2.8670  163.8620 C   0  0  0  0  0
   56.8270   -2.8240  164.7850 C   0  0  0  0  0
   56.2550   -3.9940  165.2690 C   0  0  0  0  0
   55.1600   -3.9370  166.2600 C   0  0  0  0  0
   54.8170   -2.8600  166.8730 N   0  0  0  0  0
   54.4880   -5.0640  166.5210 N   0  0  0  0  0
   56.7420   -5.2110  164.7950 C   0  0  0  0  0
   57.7740   -5.2440  163.8730 C   0  0  0  0  0
   59.9178   -8.4568  163.3042 H   0  0  0  0  0
   58.6865   -7.9743  164.5401 H   0  0  0  0  0
   59.3525  -10.4610  161.8272 H   0  0  0  0  0
   57.5564  -11.3879  160.4107 H   0  0  0  0  0
   55.1985  -10.8102  160.8598 H   0  0  0  0  0
   54.6422   -9.2961  162.7299 H   0  0  0  0  0
   56.4344   -8.3635  164.1458 H   0  0  0  0  0
   60.1075   -9.0156  167.0925 H   0  0  0  0  0
   62.6139   -9.4045  165.5640 H   0  0  0  0  0
   62.6306   -9.5194  167.9737 H   0  0  0  0  0
   61.8778   -7.8637  168.0644 H   0  0  0  0  0
   63.2612   -6.0614  168.3932 H   0  0  0  0  0
   65.4954   -5.0206  168.3467 H   0  0  0  0  0
   67.4322   -6.2743  167.4668 H   0  0  0  0  0
   67.1260   -8.5803  166.6420 H   0  0  0  0  0
   64.8907   -9.6231  166.6737 H   0  0  0  0  0
   64.4727   -8.1298  164.8428 H   0  0  0  0  0
   63.3987   -8.7933  163.5869 H   0  0  0  0  0
   64.4000   -7.3628  163.2374 H   0  0  0  0  0
   63.5073   -5.5676  163.1827 H   0  0  0  0  0
   62.6766   -4.9441  164.6490 H   0  0  0  0  0
   61.2390   -3.5966  163.6521 H   0  0  0  0  0
   59.3626   -4.9275  161.7539 H   0  0  0  0  0
   59.5890   -3.1353  161.9691 H   0  0  0  0  0
   58.2825   -1.9353  163.4914 H   0  0  0  0  0
   56.4604   -1.8600  165.1376 H   0  0  0  0  0
   55.3093   -1.9869  166.6842 H   0  0  0  0  0
   53.7216   -5.0566  167.1940 H   0  0  0  0  0
   54.7420   -5.9307  166.0469 H   0  0  0  0  0
   56.3068   -6.1440  165.1531 H   0  0  0  0  0
   58.1399   -6.2052  163.5121 H   0  0  0  0  0
  1  2  2  0  0  0
  2  3  2  0  0  0
  2  4  1  0  0  0
  2 11  1  0  0  0
  4  5  1  0  0  0
  5  6  4  0  0  0
  5 10  4  0  0  0
  6  7  4  0  0  0
  7  8  4  0  0  0
  8  9  4  0  0  0
  9 10  4  0  0  0
 11 12  1  0  0  0
 12 13  1  0  0  0
 12 20  1  0  0  0
 13 14  1  0  0  0
 14 15  4  0  0  0
 14 19  4  0  0  0
 15 16  4  0  0  0
 16 17  4  0  0  0
 17 18  4  0  0  0
 18 19  4  0  0  0
 20 21  2  0  0  0
 20 22  1  0  0  0
 22 23  1  0  0  0
 22 24  1  0  0  0
 24 25  1  0  0  0
 25 26  2  0  0  0
 25 27  1  0  0  0
 27 28  1  0  0  0
 28 29  1  0  0  0
 29 30  4  0  0  0
 29 37  4  0  0  0
 30 31  4  0  0  0
 31 32  4  0  0  0
 32 33  1  0  0  0
 32 36  4  0  0  0
 33 34  2  0  0  0
 33 35  1  0  0  0
 36 37  4  0  0  0
  4 38  1  0  0  0
  4 39  1  0  0  0
  6 40  1  0  0  0
  7 41  1  0  0  0
  8 42  1  0  0  0
  9 43  1  0  0  0
 10 44  1  0  0  0
 11 45  1  0  0  0
 12 46  1  0  0  0
 13 47  1  0  0  0
 13 48  1  0  0  0
 15 49  1  0  0  0
 16 50  1  0  0  0
 17 51  1  0  0  0
 18 52  1  0  0  0
 19 53  1  0  0  0
 23 54  1  0  0  0
 23 55  1  0  0  0
 23 56  1  0  0  0
 24 57  1  0  0  0
 24 58  1  0  0  0
 27 59  1  0  0  0
 28 60  1  0  0  0
 28 61  1  0  0  0
 30 62  1  0  0  0
 31 63  1  0  0  0
 34 64  1  0  0  0
 35 65  1  0  0  0
 35 66  1  0  0  0
 36 67  1  0  0  0
 37 68  1  0  0  0
M  END
$$$$
