3avb_ligand
  -I-interpret- 

130130  0  0  0  0  0  0  0  0999 V2000
    9.6790  -53.6360    2.8620 N   0  0  0  0  0
   10.0630  -53.5160    4.3180 C   0  0  0  0  0
    9.2710  -52.5360    5.2000 C   0  0  0  0  0
    9.7490  -52.1450    6.2990 O   0  0  0  0  0
   11.5690  -53.2200    4.4970 C   0  0  0  0  0
   12.3550  -54.2960    4.0140 O   0  0  0  0  0
    8.0850  -52.1350    4.7200 N   0  0  0  0  0
    7.1500  -51.1880    5.3840 C   0  0  0  0  0
    7.5010  -49.6940    5.2090 C   0  0  0  0  0
    6.7080  -48.8190    5.5900 O   0  0  0  0  0
    6.9190  -51.5490    6.8750 C   0  0  0  0  0
    5.6080  -51.1710    7.5960 C   0  0  0  0  0
    4.3770  -51.4660    6.7660 C   0  0  0  0  0
    5.5090  -51.8930    8.9780 C   0  0  0  0  0
    8.6610  -49.4240    4.6020 N   0  0  0  0  0
    9.2710  -48.0730    4.5440 C   0  0  0  0  0
    8.8030  -47.4040    3.2600 C   0  0  0  0  0
    8.5340  -48.1120    2.2780 O   0  0  0  0  0
   10.7850  -48.1940    4.4380 C   0  0  0  0  0
   11.4940  -49.0320    5.4860 C   0  0  0  0  0
   11.2630  -48.4720    6.8450 C   0  0  0  0  0
   12.0380  -49.3310    7.8620 C   0  0  0  0  0
   11.7300  -48.8830    9.2100 N   0  3  0  0  0
    8.7950  -46.0620    3.2350 N   0  0  0  0  0
    8.3070  -45.2590    2.0760 C   0  0  0  0  0
    9.1140  -45.5940    0.8370 C   0  0  0  0  0
    8.5820  -45.5970   -0.3230 O   0  0  0  0  0
    8.4120  -43.7280    2.4460 C   0  0  0  0  0
    7.2510  -43.3540    3.3470 C   0  0  0  0  0
    8.3920  -42.7720    1.2360 C   0  0  0  0  0
    5.9440  -43.0490    2.5110 C   0  0  0  0  0
   10.4140  -45.8830    1.0810 N   0  0  0  0  0
   11.3520  -46.1210   -0.0140 C   0  0  0  0  0
   11.5630  -47.5940   -0.2780 C   0  0  0  0  0
   12.3440  -47.9220   -1.1630 O   0  0  0  0  0
   12.7420  -45.4600    0.1580 C   0  0  0  0  0
   13.3920  -45.7300    1.5040 C   0  0  0  0  0
   14.5620  -45.2560    1.6660 O   0  0  0  0  0
   12.7730  -46.3870    2.3990 O   0  0  0  0  0
   10.8910  -48.4490    0.4890 N   0  0  0  0  0
   10.9820  -49.9060    0.2700 C   0  0  0  0  0
    9.7050  -50.4970    0.8400 C   0  0  0  0  0
    9.6370  -50.8800    2.0330 O   0  0  0  0  0
   12.2690  -50.4820    0.8950 C   0  0  0  0  0
   12.5070  -51.9870    0.5410 C   0  0  0  0  0
   11.7860  -52.5830   -0.2490 O   0  0  0  0  0
   13.5440  -52.5720    1.1260 N   0  0  0  0  0
    8.6510  -50.4710    0.0240 N   0  0  0  0  0
    7.3200  -50.8130    0.5620 C   0  0  0  0  0
    7.3260  -52.2580    1.1210 C   0  0  0  0  0
    6.7200  -52.5450    2.1790 O   0  0  0  0  0
    6.2130  -50.5710   -0.4810 C   0  0  0  0  0
    5.8260  -49.0680   -0.5900 C   0  0  0  0  0
    4.7450  -48.9510   -1.6110 C   0  0  0  0  0
    5.3360  -48.4070    0.7250 C   0  0  0  0  0
    8.0830  -53.1160    0.4440 N   0  0  0  0  0
    8.3790  -54.4910    0.9240 C   0  0  0  0  0
    8.7940  -54.5510    2.4170 C   0  0  0  0  0
    8.3160  -55.4390    3.1470 O   0  0  0  0  0
    9.4680  -55.1230    0.0450 C   0  0  0  0  0
    8.8910  -55.8940   -1.1440 C   0  0  0  0  0
    7.6560  -56.0300   -1.2230 O   0  0  0  0  0
    9.6900  -56.3500   -1.9970 O   0  0  0  0  0
   10.1060  -52.9997    2.1888 H   0  0  0  0  0
    9.7912  -54.5071    4.6812 H   0  0  0  0  0
   11.7762  -53.0824    5.5582 H   0  0  0  0  0
   11.8197  -52.3213    3.9335 H   0  0  0  0  0
   13.2850  -54.0910    4.1350 H   0  0  0  0  0
    7.7980  -52.5138    3.8175 H   0  0  0  0  0
    6.2089  -51.3182    4.8498 H   0  0  0  0  0
    7.6831  -50.9797    7.4043 H   0  0  0  0  0
    6.9186  -52.6390    6.8841 H   0  0  0  0  0
    5.6404  -50.0928    7.7526 H   0  0  0  0  0
    4.4225  -50.8985    5.8365 H   0  0  0  0  0
    4.3390  -52.5318    6.5409 H   0  0  0  0  0
    3.4862  -51.1794    7.3250 H   0  0  0  0  0
    5.5289  -52.9720    8.8250 H   0  0  0  0  0
    6.3525  -51.5976    9.6020 H   0  0  0  0  0
    4.5768  -51.6113    9.4677 H   0  0  0  0  0
    9.1566  -50.1933    4.1515 H   0  0  0  0  0
    8.9901  -47.5119    5.4352 H   0  0  0  0  0
   11.1703  -47.1818    4.5609 H   0  0  0  0  0
   10.9744  -48.6910    3.4866 H   0  0  0  0  0
   12.5640  -49.0275    5.2784 H   0  0  0  0  0
   11.1024  -50.0486    5.4507 H   0  0  0  0  0
   10.1984  -48.4864    7.0787 H   0  0  0  0  0
   11.6099  -47.4396    6.8872 H   0  0  0  0  0
   13.1082  -49.2302    7.6815 H   0  0  0  0  0
   11.7472  -50.3756    7.7512 H   0  0  0  0  0
   12.2439  -49.4527    9.8821 H   0  0  0  0  0
   12.0024  -47.9054    9.3127 H   0  0  0  0  0
   10.7284  -48.9776    9.3779 H   0  0  0  0  0
    9.1420  -45.5632    4.0543 H   0  0  0  0  0
    7.2657  -45.4960    1.8579 H   0  0  0  0  0
    9.3801  -43.6096    2.9327 H   0  0  0  0  0
    7.5214  -42.4573    3.9046 H   0  0  0  0  0
    7.0470  -44.1921    4.0134 H   0  0  0  0  0
    9.2341  -42.9981    0.5820 H   0  0  0  0  0
    7.4591  -42.9019    0.6874 H   0  0  0  0  0
    8.4686  -41.7427    1.5865 H   0  0  0  0  0
    6.1349  -42.2191    1.8306 H   0  0  0  0  0
    5.6660  -43.9337    1.9381 H   0  0  0  0  0
    5.1333  -42.7847    3.1900 H   0  0  0  0  0
   10.7440  -45.9355    2.0447 H   0  0  0  0  0
   10.8625  -45.6442   -0.8632 H   0  0  0  0  0
   12.5997  -44.3823    0.0779 H   0  0  0  0  0
   13.3961  -45.8787   -0.6068 H   0  0  0  0  0
   14.8344  -44.7990    0.8669 H   0  0  0  0  0
   10.3026  -48.0913    1.2415 H   0  0  0  0  0
   11.0597  -50.1611   -0.7869 H   0  0  0  0  0
   12.1710  -50.4093    1.9781 H   0  0  0  0  0
   13.1108  -49.9131    0.5002 H   0  0  0  0  0
   13.7610  -53.5476    0.9223 H   0  0  0  0  0
   14.1244  -52.0462    1.7795 H   0  0  0  0  0
    8.7629  -50.2184   -0.9579 H   0  0  0  0  0
    7.0913  -50.1480    1.3948 H   0  0  0  0  0
    5.3282  -51.1273   -0.1715 H   0  0  0  0  0
    6.5854  -50.8964   -1.4523 H   0  0  0  0  0
    6.7387  -48.5362   -0.8588 H   0  0  0  0  0
    5.1108  -49.3193   -2.5694 H   0  0  0  0  0
    3.8850  -49.5427   -1.2972 H   0  0  0  0  0
    4.4519  -47.9058   -1.7099 H   0  0  0  0  0
    4.4484  -48.9283    1.0834 H   0  0  0  0  0
    6.1232  -48.4686    1.4764 H   0  0  0  0  0
    5.0933  -47.3613    0.5360 H   0  0  0  0  0
    8.4793  -52.8164   -0.4468 H   0  0  0  0  0
    7.4513  -55.0576    0.8437 H   0  0  0  0  0
   10.0292  -55.8263    0.6602 H   0  0  0  0  0
   10.0909  -54.3190   -0.3471 H   0  0  0  0  0
   10.5890  -56.1314   -1.7408 H   0  0  0  0  0
  1  2  1  0  0  0
  1 58  1  0  0  0
  2  3  1  0  0  0
  2  5  1  0  0  0
  3  4  2  0  0  0
  3  7  1  0  0  0
  5  6  1  0  0  0
  7  8  1  0  0  0
  8  9  1  0  0  0
  8 11  1  0  0  0
  9 10  2  0  0  0
  9 15  1  0  0  0
 11 12  1  0  0  0
 12 13  1  0  0  0
 12 14  1  0  0  0
 15 16  1  0  0  0
 16 17  1  0  0  0
 16 19  1  0  0  0
 17 18  2  0  0  0
 17 24  1  0  0  0
 19 20  1  0  0  0
 20 21  1  0  0  0
 21 22  1  0  0  0
 22 23  1  0  0  0
 24 25  1  0  0  0
 25 26  1  0  0  0
 25 28  1  0  0  0
 26 27  2  0  0  0
 26 32  1  0  0  0
 28 29  1  0  0  0
 28 30  1  0  0  0
 29 31  1  0  0  0
 32 33  1  0  0  0
 33 34  1  0  0  0
 33 36  1  0  0  0
 34 35  2  0  0  0
 34 40  1  0  0  0
 36 37  1  0  0  0
 37 38  1  0  0  0
 37 39  2  0  0  0
 40 41  1  0  0  0
 41 42  1  0  0  0
 41 44  1  0  0  0
 42 43  2  0  0  0
 42 48  1  0  0  0
 44 45  1  0  0  0
 45 46  2  0  0  0
 45 47  1  0  0  0
 48 49  1  0  0  0
 49 50  1  0  0  0
 49 52  1  0  0  0
 50 51  2  0  0  0
 50 56  1  0  0  0
 52 53  1  0  0  0
 53 54  1  0  0  0
 53 55  1  0  0  0
 56 57  1  0  0  0
 57 58  1  0  0  0
 57 60  1  0  0  0
 58 59  2  0  0  0
 60 61  1  0  0  0
 61 62  2  0  0  0
 61 63  1  0  0  0
  1 64  1  0  0  0
  2 65  1  0  0  0
  5 66  1  0  0  0
  5 67  1  0  0  0
  6 68  1  0  0  0
  7 69  1  0  0  0
  8 70  1  0  0  0
 11 71  1  0  0  0
 11 72  1  0  0  0
 12 73  1  0  0  0
 13 74  1  0  0  0
 13 75  1  0  0  0
 13 76  1  0  0  0
 14 77  1  0  0  0
 14 78  1  0  0  0
 14 79  1  0  0  0
 15 80  1  0  0  0
 16 81  1  0  0  0
 19 82  1  0  0  0
 19 83  1  0  0  0
 20 84  1  0  0  0
 20 85  1  0  0  0
 21 86  1  0  0  0
 21 87  1  0  0  0
 22 88  1  0  0  0
 22 89  1  0  0  0
 23 90  1  0  0  0
 23 91  1  0  0  0
 23 92  1  0  0  0
 24 93  1  0  0  0
 25 94  1  0  0  0
 28 95  1  0  0  0
 29 96  1  0  0  0
 29 97  1  0  0  0
 30 98  1  0  0  0
 30 99  1  0  0  0
 30100  1  0  0  0
 31101  1  0  0  0
 31102  1  0  0  0
 31103  1  0  0  0
 32104  1  0  0  0
 33105  1  0  0  0
 36106  1  0  0  0
 36107  1  0  0  0
 38108  1  0  0  0
 40109  1  0  0  0
 41110  1  0  0  0
 44111  1  0  0  0
 44112  1  0  0  0
 47113  1  0  0  0
 47114  1  0  0  0
 48115  1  0  0  0
 49116  1  0  0  0
 52117  1  0  0  0
 52118  1  0  0  0
 53119  1  0  0  0
 54120  1  0  0  0
 54121  1  0  0  0
 54122  1  0  0  0
 55123  1  0  0  0
 55124  1  0  0  0
 55125  1  0  0  0
 56126  1  0  0  0
 57127  1  0  0  0
 60128  1  0  0  0
 60129  1  0  0  0
 63130  1  0  0  0
M  END
$$$$
