2mlm_ligand
  -I-interpret- 

 48 51  0  0  0  0  0  0  0  0999 V2000
   20.6450   20.2940   13.6910 S   0  0  0  0  0
   20.5830   21.2790   12.2400 C   0  0  0  0  0
   19.3850   21.8880   11.8520 C   0  0  0  0  0
   21.7260   21.4370   11.4520 C   0  0  0  0  0
   19.3310   22.6410   10.6850 C   0  0  0  0  0
   20.4680   22.7920    9.9010 C   0  0  0  0  0
   21.6620   22.1910   10.2830 C   0  0  0  0  0
   22.9430   20.8750   11.8370 C   0  0  0  0  0
   23.4650   21.1600   12.9210 O   0  0  0  0  0
   23.4910   20.0500   10.9320 N   0  0  0  0  0
   24.9470   19.9320   10.7660 C   0  0  0  0  0
   25.4000   18.4910   11.0090 C   0  0  0  0  0
   24.8160   17.7600   11.8090 O   0  0  0  0  0
   26.4680   18.1130   10.2920 N   0  0  0  0  0
   26.9630   16.7290   10.3470 C   0  0  0  0  0
   25.8580   15.7670    9.9510 C   0  0  0  0  0
   26.3830   14.3400    9.9900 C   0  0  0  0  0
   27.5450   14.1980    9.0180 C   0  0  0  0  0
   28.6520   15.1580    9.4220 C   0  0  0  0  0
   28.1290   16.5820    9.3870 C   0  0  0  0  0
   29.1230   14.8320   10.8300 C   0  0  0  0  0
   27.9630   14.9740   11.7990 C   0  0  0  0  0
   27.4310   16.3990   11.7590 C   0  0  0  0  0
   26.8580   14.0140   11.3990 C   0  0  0  0  0
   21.8787   19.8246   13.8539 H   0  0  0  0  0
   18.4920   21.7718   12.4661 H   0  0  0  0  0
   18.3958   23.1135   10.3846 H   0  0  0  0  0
   20.4239   23.3822    8.9857 H   0  0  0  0  0
   22.5518   22.3105    9.6649 H   0  0  0  0  0
   22.8788   19.4875   10.3411 H   0  0  0  0  0
   25.4393   20.5840   11.4875 H   0  0  0  0  0
   25.2114   20.2191    9.7483 H   0  0  0  0  0
   26.9436   18.7943    9.7004 H   0  0  0  0  0
   25.5201   16.0004    8.9413 H   0  0  0  0  0
   25.0260   15.8653   10.6483 H   0  0  0  0  0
   25.5866   13.6524    9.7053 H   0  0  0  0  0
   27.2084   14.4310    8.0078 H   0  0  0  0  0
   27.9202   13.1749    9.0422 H   0  0  0  0  0
   29.4850   15.0572    8.7262 H   0  0  0  0  0
   28.9258   17.2645    9.6826 H   0  0  0  0  0
   27.7941   16.8168    8.3767 H   0  0  0  0  0
   29.9195   15.5196   11.1144 H   0  0  0  0  0
   29.4971   13.8086   10.8595 H   0  0  0  0  0
   28.3043   14.7452   12.8086 H   0  0  0  0  0
   26.5932   16.4929   12.4500 H   0  0  0  0  0
   28.2225   17.0899   12.0495 H   0  0  0  0  0
   27.2384   12.9929   11.4256 H   0  0  0  0  0
   26.0240   14.1121   12.0940 H   0  0  0  0  0
  1  2  1  0  0  0
  2  3  4  0  0  0
  2  4  4  0  0  0
  3  5  4  0  0  0
  4  7  4  0  0  0
  4  8  1  0  0  0
  5  6  4  0  0  0
  6  7  4  0  0  0
  8  9  2  0  0  0
  8 10  1  0  0  0
 10 11  1  0  0  0
 11 12  1  0  0  0
 12 13  2  0  0  0
 12 14  1  0  0  0
 14 15  1  0  0  0
 15 16  1  0  0  0
 15 20  1  0  0  0
 15 23  1  0  0  0
 16 17  1  0  0  0
 17 18  1  0  0  0
 17 24  1  0  0  0
 18 19  1  0  0  0
 19 20  1  0  0  0
 19 21  1  0  0  0
 21 22  1  0  0  0
 22 23  1  0  0  0
 22 24  1  0  0  0
  1 25  1  0  0  0
  3 26  1  0  0  0
  5 27  1  0  0  0
  6 28  1  0  0  0
  7 29  1  0  0  0
 10 30  1  0  0  0
 11 31  1  0  0  0
 11 32  1  0  0  0
 14 33  1  0  0  0
 16 34  1  0  0  0
 16 35  1  0  0  0
 17 36  1  0  0  0
 18 37  1  0  0  0
 18 38  1  0  0  0
 19 39  1  0  0  0
 20 40  1  0  0  0
 20 41  1  0  0  0
 21 42  1  0  0  0
 21 43  1  0  0  0
 22 44  1  0  0  0
 23 45  1  0  0  0
 23 46  1  0  0  0
 24 47  1  0  0  0
 24 48  1  0  0  0
M  END
$$$$
