6ew3_ligand
  -I-interpret- 

 20 20  0  0  0  0  0  0  0  0999 V2000
  -28.7130    7.2420   58.8520 C   0  0  0  0  0
  -30.9040    8.3960   57.5760 C   0  0  0  0  0
  -30.9590    6.5060   55.6800 Cl  0  0  0  0  0
  -30.3120    7.2390   57.0890 C   0  0  0  0  0
  -29.2130    6.6460   57.7040 C   0  0  0  0  0
  -28.5800    5.4510   57.1400 C   0  0  0  0  0
  -27.3440    5.4690   56.6270 C   0  0  0  0  0
  -26.7630    4.2240   56.0700 C   0  0  0  0  0
  -27.5260    3.1020   56.0710 O   0  0  0  0  0
  -25.6490    4.1170   55.5970 O   0  0  0  0  0
  -26.3410    6.9000   56.5580 S   0  0  0  0  0
  -27.4100    6.5150   59.6420 Cl  0  0  0  0  0
  -29.2940    8.4070   59.3420 C   0  0  0  0  0
  -28.6630    9.1640   60.7200 Cl  0  0  0  0  0
  -30.3840    8.9870   58.7130 C   0  0  0  0  0
  -31.7654    8.8321   57.0701 H   0  0  0  0  0
  -29.1359    4.5134   57.1382 H   0  0  0  0  0
  -28.3798    3.2973   56.4641 H   0  0  0  0  0
  -25.1750    6.5955   55.9952 H   0  0  0  0  0
  -30.8272    9.9001   59.1105 H   0  0  0  0  0
  5  1  4  0  0  0
  1 12  1  0  0  0
  1 13  4  0  0  0
  4  2  4  0  0  0
  2 15  4  0  0  0
  4  3  1  0  0  0
  4  5  4  0  0  0
  5  6  1  0  0  0
  6  7  2  0  0  0
  7  8  1  0  0  0
  7 11  1  0  0  0
  8  9  1  0  0  0
  8 10  2  0  0  0
 13 14  1  0  0  0
 13 15  4  0  0  0
  2 16  1  0  0  0
  6 17  1  0  0  0
  9 18  1  0  0  0
 11 19  1  0  0  0
 15 20  1  0  0  0
M  END
$$$$
