### 
### Created by X-TOOL on Mon Sep 10 21:13:30 2018
### 

@<TRIPOS>MOLECULE
5n31_ligand
   64    64     1     0     0
SMALL
GAST_HUCK


@<TRIPOS>ATOM
      1 C10        38.2680   36.4180   -1.2300 C.3       1 8LB        -0.0557
      2 C11        39.4010   35.4180   -1.4240 C.3       1 8LB        -0.0653
      3 C12        38.0210   37.6650   -5.5160 C.2       1 8LB         0.0601
      4 C13        34.2140   40.2690   -6.8740 C.3       1 8LB         0.1132
      5 C14        33.5670   39.9290   -9.2700 C.2       1 8LB         0.3229
      6 C15        32.5910   39.9590  -11.4470 C.3       1 8LB         0.1113
      7 C16        31.0640   39.8150  -11.5760 C.ar      1 8LB        -0.0130
      8 C19        28.2970   39.5350  -11.7900 C.ar      1 8LB        -0.0687
      9 C20        28.9890   40.3060  -12.7160 C.ar      1 8LB        -0.0685
     10 C21        30.3710   40.4490  -12.6040 C.ar      1 8LB        -0.0578
     11 O01        36.2650   42.1410   -6.6150 O.co2     1 8LB        -0.6057
     12 P01        34.9140   41.7440   -6.0280 P.3       1 8LB         0.0870
     13 N01        35.1260   41.2330   -4.4300 N.am      1 8LB        -0.2736
     14 C01        36.2660   41.7430   -3.6750 C.3       1 8LB         0.1229
     15 C02        35.9030   41.6490   -2.2010 C.3       1 8LB        -0.0136
     16 C03        36.9760   42.1790   -1.2570 C.3       1 8LB        -0.0429
     17 C04        36.6900   41.7820    0.1880 C.3       1 8LB        -0.0625
     18 C05        37.1470   43.6900   -1.3620 C.3       1 8LB        -0.0625
     19 C06        37.4980   40.8990   -3.9380 C.2       1 8LB         0.1994
     20 N02        37.2650   39.5320   -4.1790 N.am      1 8LB        -0.2698
     21 C07        38.3780   38.6450   -4.4070 C.3       1 8LB         0.0944
     22 O02        36.8320   37.6300   -5.9630 O.co2     1 8LB        -0.5666
     23 O03        38.9370   36.9190   -5.9620 O.co2     1 8LB        -0.5666
     24 O04        38.6220   41.3430   -3.8850 O.2       1 8LB        -0.3949
     25 O05        33.9240   42.8970   -6.1520 O.co2     1 8LB        -0.6057
     26 N04        33.5810   40.7000   -8.0940 N.am      1 8LB        -0.2448
     27 O06        32.9240   40.6370  -10.2680 O.3       1 8LB        -0.2506
     28 C17        30.3650   39.0660  -10.6390 C.ar      1 8LB        -0.0578
     29 C18        28.9930   38.9220  -10.7470 C.ar      1 8LB        -0.0685
     30 O07        34.0630   38.8570   -9.3470 O.2       1 8LB        -0.3774
     31 C08        38.8460   37.9630   -3.1320 C.3       1 8LB        -0.0179
     32 C09        37.7870   37.0600   -2.5470 C.3       1 8LB        -0.0497
     33 H1         38.6187   37.2170   -0.5602 H         1 8LB         0.0263
     34 H2         37.4182   35.8966   -0.7654 H         1 8LB         0.0263
     35 H3         39.6930   35.0010   -0.4489 H         1 8LB         0.0230
     36 H4         40.2643   35.9257   -1.8789 H         1 8LB         0.0230
     37 H5         39.0638   34.6053   -2.0841 H         1 8LB         0.0230
     38 H6         33.4722   39.7844   -6.2222 H         1 8LB         0.0743
     39 H7         35.0196   39.5567   -7.1055 H         1 8LB         0.0743
     40 H8         32.9751   40.5235  -12.3094 H         1 8LB         0.0776
     41 H9         33.0484   38.9587  -11.4303 H         1 8LB         0.0776
     42 H10        27.2237   39.4104  -11.8771 H         1 8LB         0.0559
     43 H11        28.4556   40.7949  -13.5232 H         1 8LB         0.0599
     44 H12        30.9095   41.0574  -13.3215 H         1 8LB         0.0557
     45 H13        34.4822   40.5933   -4.0102 H         1 8LB         0.1669
     46 H14        36.4667   42.7879   -3.9539 H         1 8LB         0.0753
     47 H15        35.7213   40.5918   -1.9574 H         1 8LB         0.0311
     48 H16        34.9820   42.2271   -2.0352 H         1 8LB         0.0311
     49 H17        37.9293   41.7154   -1.5506 H         1 8LB         0.0298
     50 H18        37.4812   42.1793    0.8408 H         1 8LB         0.0232
     51 H19        36.6644   40.6853    0.2688 H         1 8LB         0.0232
     52 H20        35.7183   42.1952    0.4964 H         1 8LB         0.0232
     53 H21        37.3526   43.9640   -2.4073 H         1 8LB         0.0232
     54 H22        37.9870   44.0090   -0.7274 H         1 8LB         0.0232
     55 H23        36.2249   44.1875   -1.0271 H         1 8LB         0.0232
     56 H24        36.3301   39.1772   -4.1920 H         1 8LB         0.1875
     57 H25        39.2194   39.2554   -4.7669 H         1 8LB         0.0726
     58 H26        33.1290   41.5919   -8.1053 H         1 8LB         0.1884
     59 H27        30.8954   38.5927   -9.8206 H         1 8LB         0.0557
     60 H28        28.4550   38.3289  -10.0164 H         1 8LB         0.0599
     61 H29        39.1025   38.7345   -2.3911 H         1 8LB         0.0305
     62 H30        39.7385   37.3615   -3.3590 H         1 8LB         0.0305
     63 H31        36.8810   37.6513   -2.3482 H         1 8LB         0.0267
     64 H32        37.5543   36.2644   -3.2701 H         1 8LB         0.0267
@<TRIPOS>BOND
     1    1    2 1  
     2   32    1 1  
     3   21    3 1  
     4    3   22 ar 
     5    3   23 ar 
     6   12    4 1  
     7    4   26 1  
     8   26    5 am 
     9    5   27 1  
    10    5   30 2  
    11    6    7 1  
    12   27    6 1  
    13    7   10 ar 
    14    7   28 ar 
    15    9    8 ar 
    16   29    8 ar 
    17   10    9 ar 
    18   12   11 ar 
    19   13   12 am 
    20   12   25 ar 
    21   14   13 1  
    22   14   15 1  
    23   19   14 1  
    24   15   16 1  
    25   16   17 1  
    26   16   18 1  
    27   20   19 am 
    28   19   24 2  
    29   21   20 1  
    30   31   21 1  
    31   28   29 ar 
    32   31   32 1  
    33    1   33 1  
    34    1   34 1  
    35    2   35 1  
    36    2   36 1  
    37    2   37 1  
    38    4   38 1  
    39    4   39 1  
    40    6   40 1  
    41    6   41 1  
    42    8   42 1  
    43    9   43 1  
    44   10   44 1  
    45   13   45 1  
    46   14   46 1  
    47   15   47 1  
    48   15   48 1  
    49   16   49 1  
    50   17   50 1  
    51   17   51 1  
    52   17   52 1  
    53   18   53 1  
    54   18   54 1  
    55   18   55 1  
    56   20   56 1  
    57   21   57 1  
    58   26   58 1  
    59   28   59 1  
    60   29   60 1  
    61   31   61 1  
    62   31   62 1  
    63   32   63 1  
    64   32   64 1  
@<TRIPOS>SUBSTRUCTURE
     1 8LB         1

