5n31_ligand
  -I-interpret- 

 66 66  0  0  0  0  0  0  0  0999 V2000
   38.2680   36.4180   -1.2300 C   0  0  0  0  0
   39.4010   35.4180   -1.4240 C   0  0  0  0  0
   38.0210   37.6650   -5.5160 C   0  0  0  0  0
   34.2140   40.2690   -6.8740 C   0  0  0  0  0
   33.5670   39.9290   -9.2700 C   0  0  0  0  0
   32.5910   39.9590  -11.4470 C   0  0  0  0  0
   31.0640   39.8150  -11.5760 C   0  0  0  0  0
   28.2970   39.5350  -11.7900 C   0  0  0  0  0
   28.9890   40.3060  -12.7160 C   0  0  0  0  0
   30.3710   40.4490  -12.6040 C   0  0  0  0  0
   36.2650   42.1410   -6.6150 O   0  0  0  0  0
   34.9140   41.7440   -6.0280 P   0  0  0  0  0
   35.1260   41.2330   -4.4300 N   0  0  0  0  0
   36.2660   41.7430   -3.6750 C   0  0  0  0  0
   35.9030   41.6490   -2.2010 C   0  0  0  0  0
   36.9760   42.1790   -1.2570 C   0  0  0  0  0
   36.6900   41.7820    0.1880 C   0  0  0  0  0
   37.1470   43.6900   -1.3620 C   0  0  0  0  0
   37.4980   40.8990   -3.9380 C   0  0  0  0  0
   37.2650   39.5320   -4.1790 N   0  0  0  0  0
   38.3780   38.6450   -4.4070 C   0  0  0  0  0
   36.8320   37.6300   -5.9630 O   0  0  0  0  0
   38.9370   36.9190   -5.9620 O   0  0  0  0  0
   38.6220   41.3430   -3.8850 O   0  0  0  0  0
   33.9240   42.8970   -6.1520 O   0  0  0  0  0
   33.5810   40.7000   -8.0940 N   0  0  0  0  0
   32.9240   40.6370  -10.2680 O   0  0  0  0  0
   30.3650   39.0660  -10.6390 C   0  0  0  0  0
   28.9930   38.9220  -10.7470 C   0  0  0  0  0
   34.0630   38.8570   -9.3470 O   0  0  0  0  0
   38.8460   37.9630   -3.1320 C   0  0  0  0  0
   37.7870   37.0600   -2.5470 C   0  0  0  0  0
   38.6414   37.2183   -0.5911 H   0  0  0  0  0
   37.4240   35.8793   -0.7992 H   0  0  0  0  0
   39.0656   34.6133   -2.0783 H   0  0  0  0  0
   40.2557   35.9222   -1.8749 H   0  0  0  0  0
   39.6894   35.0055   -0.4571 H   0  0  0  0  0
   33.4841   39.7809   -6.2282 H   0  0  0  0  0
   35.0080   39.5566   -7.0981 H   0  0  0  0  0
   32.9655   40.5267  -12.2988 H   0  0  0  0  0
   33.0386   38.9655  -11.4216 H   0  0  0  0  0
   27.2178   39.4098  -11.8776 H   0  0  0  0  0
   28.4527   40.7976  -13.5277 H   0  0  0  0  0
   30.9125   41.0608  -13.3255 H   0  0  0  0  0
   36.8776   41.4068   -6.5303 H   0  0  0  0  0
   34.4693   40.5805   -4.0018 H   0  0  0  0  0
   36.4858   42.7690   -3.9701 H   0  0  0  0  0
   35.7660   40.5924   -1.9707 H   0  0  0  0  0
   35.0125   42.2592   -2.0500 H   0  0  0  0  0
   37.9133   41.7179   -1.5685 H   0  0  0  0  0
   35.7270   42.1920    0.4923 H   0  0  0  0  0
   36.6648   40.6951    0.2667 H   0  0  0  0  0
   37.4746   42.1762    0.8338 H   0  0  0  0  0
   37.4343   43.9520   -2.3803 H   0  0  0  0  0
   36.2057   44.1792   -1.1114 H   0  0  0  0  0
   37.9229   44.0156   -0.6691 H   0  0  0  0  0
   36.3114   39.1702   -4.1923 H   0  0  0  0  0
   39.2360   39.2308   -4.7369 H   0  0  0  0  0
   36.2953   38.2719   -5.4923 H   0  0  0  0  0
   33.1199   41.6098   -8.1055 H   0  0  0  0  0
   30.8984   38.5901   -9.8161 H   0  0  0  0  0
   28.4520   38.3256  -10.0123 H   0  0  0  0  0
   39.0758   38.7359   -2.3985 H   0  0  0  0  0
   39.7165   37.3530   -3.3734 H   0  0  0  0  0
   36.8977   37.6552   -2.3397 H   0  0  0  0  0
   37.5717   36.2666   -3.2628 H   0  0  0  0  0
  1  2  1  0  0  0
 32  1  1  0  0  0
 21  3  1  0  0  0
  3 22  1  0  0  0
  3 23  2  0  0  0
 12  4  1  0  0  0
  4 26  1  0  0  0
 26  5  1  0  0  0
  5 27  1  0  0  0
  5 30  2  0  0  0
  6  7  1  0  0  0
 27  6  1  0  0  0
  7 10  4  0  0  0
  7 28  4  0  0  0
  9  8  4  0  0  0
 29  8  4  0  0  0
 10  9  4  0  0  0
 12 11  1  0  0  0
 13 12  1  0  0  0
 12 25  2  0  0  0
 14 13  1  0  0  0
 14 15  1  0  0  0
 19 14  1  0  0  0
 15 16  1  0  0  0
 16 17  1  0  0  0
 16 18  1  0  0  0
 20 19  1  0  0  0
 19 24  2  0  0  0
 21 20  1  0  0  0
 31 21  1  0  0  0
 28 29  4  0  0  0
 31 32  1  0  0  0
  1 33  1  0  0  0
  1 34  1  0  0  0
  2 35  1  0  0  0
  2 36  1  0  0  0
  2 37  1  0  0  0
  4 38  1  0  0  0
  4 39  1  0  0  0
  6 40  1  0  0  0
  6 41  1  0  0  0
  8 42  1  0  0  0
  9 43  1  0  0  0
 10 44  1  0  0  0
 11 45  1  0  0  0
 13 46  1  0  0  0
 14 47  1  0  0  0
 15 48  1  0  0  0
 15 49  1  0  0  0
 16 50  1  0  0  0
 17 51  1  0  0  0
 17 52  1  0  0  0
 17 53  1  0  0  0
 18 54  1  0  0  0
 18 55  1  0  0  0
 18 56  1  0  0  0
 20 57  1  0  0  0
 21 58  1  0  0  0
 22 59  1  0  0  0
 26 60  1  0  0  0
 28 61  1  0  0  0
 29 62  1  0  0  0
 31 63  1  0  0  0
 31 64  1  0  0  0
 32 65  1  0  0  0
 32 66  1  0  0  0
M  END
$$$$
