3anr_ligand
  -I-interpret- 

 27 29  0  0  0  0  0  0  0  0999 V2000
    4.5020   25.2040   14.2410 C   0  0  0  0  0
    5.9850   25.2420   13.8740 C   0  0  0  0  0
    6.8340   24.3240   14.4600 N   0  0  0  0  0
    8.1810   24.2600   14.1990 C   0  0  0  0  0
    8.7420   25.1680   13.2880 C   0  0  0  0  0
    7.8810   26.1270   12.6760 C   0  0  0  0  0
    6.5010   26.1610   12.9720 C   0  0  0  0  0
    5.9660   27.1510   12.2530 N   0  0  0  0  0
    6.9000   27.7250   11.5450 C   0  0  0  0  0
    6.7930   28.7750   10.6760 C   0  0  0  0  0
    8.1250   27.1250   11.7640 C   0  0  0  0  0
    9.3420   27.5510   11.1010 C   0  0  0  0  0
    9.2400   28.6480   10.1800 C   0  0  0  0  0
    7.9480   29.2400    9.9930 C   0  0  0  0  0
    7.8320   30.3070    9.1000 O   0  0  0  0  0
    6.5460   31.0510    8.9910 C   0  0  0  0  0
    4.0878   24.2318   13.9740 H   0  0  0  0  0
    4.3901   25.3661   15.3131 H   0  0  0  0  0
    3.9742   25.9871   13.6968 H   0  0  0  0  0
    8.8050   23.5148   14.6923 H   0  0  0  0  0
    9.8063   25.1414   13.0543 H   0  0  0  0  0
    5.8274   29.2522   10.5085 H   0  0  0  0  0
   10.2952   27.0588   11.2937 H   0  0  0  0  0
   10.1135   29.0172    9.6425 H   0  0  0  0  0
    5.7555   30.3650    8.6868 H   0  0  0  0  0
    6.2974   31.4879    9.9582 H   0  0  0  0  0
    6.6475   31.8426    8.2486 H   0  0  0  0  0
  1  2  1  0  0  0
  2  3  4  0  0  0
  2  7  4  0  0  0
  3  4  4  0  0  0
  4  5  4  0  0  0
  5  6  4  0  0  0
  6  7  4  0  0  0
  6 11  4  0  0  0
  7  8  4  0  0  0
  8  9  4  0  0  0
  9 10  4  0  0  0
  9 11  4  0  0  0
 10 14  4  0  0  0
 11 12  4  0  0  0
 12 13  4  0  0  0
 13 14  4  0  0  0
 14 15  1  0  0  0
 15 16  1  0  0  0
  1 17  1  0  0  0
  1 18  1  0  0  0
  1 19  1  0  0  0
  4 20  1  0  0  0
  5 21  1  0  0  0
 10 22  1  0  0  0
 12 23  1  0  0  0
 13 24  1  0  0  0
 16 25  1  0  0  0
 16 26  1  0  0  0
 16 27  1  0  0  0
M  END
$$$$
