6afg_ligand
  -I-interpret- 

 21 22  0  0  0  0  0  0  0  0999 V2000
  -38.4660   13.9630   -9.9910 O   0  0  0  0  0
  -37.7120   13.7620  -10.9550 C   0  0  0  0  0
  -37.2520   12.5090  -11.3640 C   0  0  0  0  0
  -38.1750   11.4550  -11.3110 O   0  0  0  0  0
  -36.5760   12.7420  -12.5890 C   0  0  0  0  0
  -36.0990   11.8880  -13.5350 C   0  0  0  0  0
  -35.4730   12.3970  -14.6890 C   0  0  0  0  0
  -35.3450   13.7770  -14.7930 C   0  0  0  0  0
  -35.8780   14.6160  -13.8030 C   0  0  0  0  0
  -36.4590   14.0930  -12.7110 C   0  0  0  0  0
  -37.0650   14.6850  -11.6870 N   0  0  0  0  0
  -37.1780   16.1850  -11.5630 C   0  0  0  0  0
  -36.5562   12.0870  -10.6388 H   0  0  0  0  0
  -38.5565   11.4091  -10.4312 H   0  0  0  0  0
  -36.2014   10.8113  -13.3996 H   0  0  0  0  0
  -35.1029   11.7340  -15.4710 H   0  0  0  0  0
  -34.8274   14.2100  -15.6489 H   0  0  0  0  0
  -35.8203   15.6981  -13.9207 H   0  0  0  0  0
  -36.1799   16.6220  -11.5326 H   0  0  0  0  0
  -37.7227   16.5792  -12.4209 H   0  0  0  0  0
  -37.7127   16.4332  -10.6462 H   0  0  0  0  0
  1  2  2  0  0  0
  2  3  1  0  0  0
  2 11  1  0  0  0
  3  4  1  0  0  0
  3  5  1  0  0  0
  5  6  4  0  0  0
  5 10  4  0  0  0
  6  7  4  0  0  0
  7  8  4  0  0  0
  8  9  4  0  0  0
  9 10  4  0  0  0
 10 11  1  0  0  0
 11 12  1  0  0  0
  3 13  1  0  0  0
  4 14  1  0  0  0
  6 15  1  0  0  0
  7 16  1  0  0  0
  8 17  1  0  0  0
  9 18  1  0  0  0
 12 19  1  0  0  0
 12 20  1  0  0  0
 12 21  1  0  0  0
M  END
$$$$
