5hlw_ligand
  -I-interpret- 

 67 72  0  0  0  0  0  0  0  0999 V2000
   19.7790  -11.8040   57.7940 C   0  0  0  0  0
   20.3400  -12.3550   58.9500 C   0  0  0  0  0
   21.6230  -11.9510   59.4210 C   0  0  0  0  0
   21.0920  -13.3760   61.0500 C   0  0  0  0  0
   19.0030   -8.7130   56.5180 C   0  0  0  0  0
   17.5170   -7.5020   57.7190 C   0  0  0  0  0
   13.4350  -12.5280   58.7860 C   0  0  0  0  0
   22.3860  -10.9820   58.7420 C   0  0  0  0  0
   21.8200  -10.4110   57.5750 C   0  0  0  0  0
   13.9460  -11.1840   58.9150 C   0  0  0  0  0
   14.3050  -13.3470   58.1230 C   0  0  0  0  0
   20.5200  -10.8170   57.1220 C   0  0  0  0  0
   15.1870  -11.0320   58.3270 C   0  0  0  0  0
   16.3180   -7.3460   58.5360 C   0  0  0  0  0
   15.5590   -8.4820   58.7880 C   0  0  0  0  0
   15.9830   -9.7870   58.2190 C   0  0  0  0  0
   20.2010  -15.0240   62.7940 C   0  0  0  0  0
   18.6400  -17.0810   67.9070 C   0  0  0  0  0
   17.1520  -17.8860   65.9790 C   0  0  0  0  0
   17.5960  -17.4870   68.9910 C   0  0  0  0  0
   16.4540  -18.7810   67.0640 C   0  0  0  0  0
   17.9070  -16.6690   66.6160 C   0  0  0  0  0
   16.0590  -19.9050   70.2260 C   0  0  0  0  0
   18.7620  -15.7970   65.6670 C   0  0  0  0  0
   19.7830  -16.5470   64.7850 C   0  0  0  0  0
   15.4070  -18.7460   69.4210 C   0  0  0  0  0
   22.0320  -12.5610   60.6240 N   0  0  0  0  0
   18.4940   -6.6780   57.2420 N   0  0  0  0  0
   19.3610   -7.3980   56.5420 N   0  0  0  0  0
   17.1090   -9.9330   57.4800 N   0  0  0  0  0
   17.8350   -8.8300   57.2510 N   0  0  0  0  0
   21.1560  -14.1140   62.2260 N   0  0  0  0  0
   20.6230  -15.5670   64.0310 N   0  0  0  0  0
   16.3050  -18.0490   68.3960 N   0  3  0  0  0
   19.1290  -15.2950   62.2760 O   0  0  0  0  0
   15.7380  -12.5420   57.6370 S   0  0  0  0  0
   19.6320  -13.4960   60.0200 S   0  0  0  0  0
   19.7940  -10.0230   55.7270 S   0  0  0  0  0
   18.8045  -12.1275   57.4281 H   0  0  0  0  0
   12.4684  -12.8516   59.1722 H   0  0  0  0  0
   23.3715  -10.6833   59.0992 H   0  0  0  0  0
   22.3762   -9.6577   57.0171 H   0  0  0  0  0
   13.4123  -10.3789   59.4200 H   0  0  0  0  0
   14.1085  -14.4006   57.9243 H   0  0  0  0  0
   16.0284   -6.3735   58.9341 H   0  0  0  0  0
   14.6587   -8.4162   59.3989 H   0  0  0  0  0
   19.2948  -17.9271   67.6986 H   0  0  0  0  0
   19.2338  -16.2425   68.2708 H   0  0  0  0  0
   16.3823  -17.4975   65.3120 H   0  0  0  0  0
   17.8812  -18.4995   65.4498 H   0  0  0  0  0
   17.3387  -16.5912   69.5562 H   0  0  0  0  0
   18.0439  -18.2659   69.6081 H   0  0  0  0  0
   17.0711  -19.6646   67.2267 H   0  0  0  0  0
   15.4587  -19.0411   66.7037 H   0  0  0  0  0
   17.1123  -15.9715   66.8805 H   0  0  0  0  0
   16.3912  -20.6820   69.5375 H   0  0  0  0  0
   16.9137  -19.5224   70.7838 H   0  0  0  0  0
   15.3277  -20.3205   70.9192 H   0  0  0  0  0
   19.3430  -15.1321   66.3061 H   0  0  0  0  0
   18.0626  -15.3178   64.9819 H   0  0  0  0  0
   19.2487  -17.1810   64.0774 H   0  0  0  0  0
   20.4257  -17.1572   65.4196 H   0  0  0  0  0
   15.1301  -17.9855   70.1511 H   0  0  0  0  0
   14.5872  -19.1902   68.8564 H   0  0  0  0  0
   22.0112  -13.9906   62.7680 H   0  0  0  0  0
   21.5229  -15.2825   64.4177 H   0  0  0  0  0
   15.7832  -17.2166   68.1219 H   0  0  0  0  0
  2  1  4  0  0  0
  1 12  4  0  0  0
  2  3  4  0  0  0
 37  2  4  0  0  0
  3  8  4  0  0  0
 27  3  4  0  0  0
  4 27  4  0  0  0
 32  4  1  0  0  0
  4 37  4  0  0  0
  5 29  4  0  0  0
  5 31  4  0  0  0
 38  5  1  0  0  0
  6 14  4  0  0  0
  6 28  4  0  0  0
 31  6  4  0  0  0
 10  7  4  0  0  0
 11  7  4  0  0  0
  8  9  4  0  0  0
 12  9  4  0  0  0
 13 10  4  0  0  0
 36 11  4  0  0  0
 12 38  1  0  0  0
 16 13  1  0  0  0
 13 36  4  0  0  0
 14 15  4  0  0  0
 15 16  4  0  0  0
 16 30  4  0  0  0
 17 32  1  0  0  0
 33 17  1  0  0  0
 17 35  2  0  0  0
 20 18  1  0  0  0
 18 22  1  0  0  0
 21 19  1  0  0  0
 19 22  1  0  0  0
 34 20  1  0  0  0
 34 21  1  0  0  0
 22 24  1  0  0  0
 26 23  1  0  0  0
 24 25  1  0  0  0
 25 33  1  0  0  0
 26 34  1  0  0  0
 28 29  4  0  0  0
 30 31  4  0  0  0
  1 39  1  0  0  0
  7 40  1  0  0  0
  8 41  1  0  0  0
  9 42  1  0  0  0
 10 43  1  0  0  0
 11 44  1  0  0  0
 14 45  1  0  0  0
 15 46  1  0  0  0
 18 47  1  0  0  0
 18 48  1  0  0  0
 19 49  1  0  0  0
 19 50  1  0  0  0
 20 51  1  0  0  0
 20 52  1  0  0  0
 21 53  1  0  0  0
 21 54  1  0  0  0
 22 55  1  0  0  0
 23 56  1  0  0  0
 23 57  1  0  0  0
 23 58  1  0  0  0
 24 59  1  0  0  0
 24 60  1  0  0  0
 25 61  1  0  0  0
 25 62  1  0  0  0
 26 63  1  0  0  0
 26 64  1  0  0  0
 32 65  1  0  0  0
 33 66  1  0  0  0
 34 67  1  0  0  0
M  END
$$$$
