4ufd_ligand
  -I-interpret- 

 72 75  0  0  0  0  0  0  0  0999 V2000
   14.9350  -15.2980   21.3710 C   0  0  0  0  0
   15.6010  -16.6010   22.1940 S   0  0  0  0  0
   13.9310  -15.7110   20.3170 C   0  0  0  0  0
   14.3520  -16.1100   19.0500 C   0  0  0  0  0
   13.4130  -16.4900   18.0910 C   0  0  0  0  0
   12.0560  -16.4650   18.3960 C   0  0  0  0  0
   11.6380  -16.0590   19.6600 C   0  0  0  0  0
   12.5720  -15.6780   20.6190 C   0  0  0  0  0
   16.4820  -17.3380   21.3400 O   0  0  0  0  0
   14.5240  -17.3680   22.7490 O   0  0  0  0  0
   18.5840  -13.7780   21.7470 N   0  0  0  0  0
   18.5100  -12.4580   21.1150 C   0  0  0  0  0
   17.2190  -12.2760   20.3710 C   0  0  0  0  0
   16.7460  -13.1930   19.7120 O   0  0  0  0  0
   19.6630  -12.4160   20.1220 C   0  0  0  0  0
   20.5040  -13.6510   20.3680 C   0  0  0  0  0
   19.6600  -14.6080   21.1940 C   0  0  0  0  0
   16.4370  -16.0370   23.4480 N   0  0  0  0  0
   17.7640  -15.4560   23.3260 C   0  0  0  0  0
   17.6920  -14.0980   22.6830 C   0  0  0  0  0
   16.8280  -13.3070   23.0510 O   0  0  0  0  0
   18.3530  -15.3500   24.7380 C   0  0  0  0  0
   19.7600  -14.7830   24.7630 C   0  0  0  0  0
   19.9740  -13.5190   25.3010 C   0  0  0  0  0
   20.8420  -15.5100   24.2660 C   0  0  0  0  0
   21.2540  -12.9800   25.3350 C   0  0  0  0  0
   22.1250  -14.9660   24.3080 C   0  0  0  0  0
   22.3380  -13.7000   24.8400 C   0  0  0  0  0
   16.6100  -11.0980   20.4800 N   0  0  0  0  0
   15.3510  -10.7700   19.8290 C   0  0  0  0  0
   14.2450  -10.7760   20.8570 C   0  0  0  0  0
   13.9140   -9.6190   21.5460 C   0  0  0  0  0
   12.9020   -9.6430   22.4940 C   0  0  0  0  0
   12.2200  -10.8150   22.7650 C   0  0  0  0  0
   11.1280  -10.8130   23.7910 C   0  0  0  0  0
   10.5020  -11.8840   24.0710 N   0  0  0  0  0
   10.8290   -9.7310   24.3740 N   0  0  0  0  0
   12.5510  -11.9750   22.0750 C   0  0  0  0  0
   13.5610  -11.9500   21.1270 C   0  0  0  0  0
   15.7475  -14.7747   20.8670 H   0  0  0  0  0
   14.4133  -14.6779   22.1000 H   0  0  0  0  0
   15.4148  -16.1252   18.8084 H   0  0  0  0  0
   13.7429  -16.8069   17.1016 H   0  0  0  0  0
   11.3220  -16.7626   17.6471 H   0  0  0  0  0
   10.5749  -16.0393   19.8998 H   0  0  0  0  0
   12.2400  -15.3541   21.6054 H   0  0  0  0  0
   18.5646  -11.6699   21.8661 H   0  0  0  0  0
   20.2564  -11.5118   20.2579 H   0  0  0  0  0
   19.2898  -12.4011   19.0980 H   0  0  0  0  0
   21.4219  -13.3929   20.8962 H   0  0  0  0  0
   20.7967  -14.1118   19.4246 H   0  0  0  0  0
   19.2704  -15.4285   20.5915 H   0  0  0  0  0
   20.2438  -15.0904   21.9780 H   0  0  0  0  0
   16.0147  -16.0898   24.3749 H   0  0  0  0  0
   18.3947  -16.0819   22.6947 H   0  0  0  0  0
   18.3973  -16.3574   25.1520 H   0  0  0  0  0
   17.7164  -14.6747   25.3097 H   0  0  0  0  0
   19.1341  -12.9486   25.6977 H   0  0  0  0  0
   20.6844  -16.5030   23.8450 H   0  0  0  0  0
   21.4109  -11.9854   25.7526 H   0  0  0  0  0
   22.9678  -15.5383   23.9204 H   0  0  0  0  0
   23.3416  -13.2758   24.8694 H   0  0  0  0  0
   17.0528  -10.3813   21.0550 H   0  0  0  0  0
   15.1359  -11.5073   19.0555 H   0  0  0  0  0
   15.4212   -9.7826   19.3726 H   0  0  0  0  0
   14.4489   -8.6913   21.3426 H   0  0  0  0  0
   12.6420   -8.7302   23.0300 H   0  0  0  0  0
    9.7567  -11.8719   24.7673 H   0  0  0  0  0
   10.7452  -12.7551   23.5993 H   0  0  0  0  0
   11.3294   -8.8725   24.1439 H   0  0  0  0  0
   12.0169  -12.9029   22.2793 H   0  0  0  0  0
   13.8197  -12.8620   20.5889 H   0  0  0  0  0
  2  1  1  0  0  0
  1  3  1  0  0  0
  2  9  2  0  0  0
  2 10  2  0  0  0
 18  2  1  0  0  0
  3  4  4  0  0  0
  3  8  4  0  0  0
  4  5  4  0  0  0
  5  6  4  0  0  0
  7  6  4  0  0  0
  8  7  4  0  0  0
 11 12  1  0  0  0
 11 17  1  0  0  0
 20 11  1  0  0  0
 12 13  1  0  0  0
 12 15  1  0  0  0
 13 14  2  0  0  0
 13 29  1  0  0  0
 16 15  1  0  0  0
 17 16  1  0  0  0
 19 18  1  0  0  0
 19 20  1  0  0  0
 19 22  1  0  0  0
 20 21  2  0  0  0
 22 23  1  0  0  0
 23 24  4  0  0  0
 23 25  4  0  0  0
 24 26  4  0  0  0
 25 27  4  0  0  0
 26 28  4  0  0  0
 27 28  4  0  0  0
 29 30  1  0  0  0
 30 31  1  0  0  0
 31 32  4  0  0  0
 31 39  4  0  0  0
 32 33  4  0  0  0
 33 34  4  0  0  0
 34 35  1  0  0  0
 34 38  4  0  0  0
 35 36  1  0  0  0
 35 37  2  0  0  0
 38 39  4  0  0  0
  1 40  1  0  0  0
  1 41  1  0  0  0
  4 42  1  0  0  0
  5 43  1  0  0  0
  6 44  1  0  0  0
  7 45  1  0  0  0
  8 46  1  0  0  0
 12 47  1  0  0  0
 15 48  1  0  0  0
 15 49  1  0  0  0
 16 50  1  0  0  0
 16 51  1  0  0  0
 17 52  1  0  0  0
 17 53  1  0  0  0
 18 54  1  0  0  0
 19 55  1  0  0  0
 22 56  1  0  0  0
 22 57  1  0  0  0
 24 58  1  0  0  0
 25 59  1  0  0  0
 26 60  1  0  0  0
 27 61  1  0  0  0
 28 62  1  0  0  0
 29 63  1  0  0  0
 30 64  1  0  0  0
 30 65  1  0  0  0
 32 66  1  0  0  0
 33 67  1  0  0  0
 36 68  1  0  0  0
 36 69  1  0  0  0
 37 70  1  0  0  0
 38 71  1  0  0  0
 39 72  1  0  0  0
M  END
$$$$
