5w4v_ligand
  -I-interpret- 

 67 72  0  0  0  0  0  0  0  0999 V2000
    1.4730   14.5840  -16.2820 C   0  0  0  0  0
    1.6540   12.4610  -24.3300 C   0  0  0  0  0
    3.0950   11.9830  -22.5000 C   0  0  0  0  0
    0.1700   18.8420  -15.5250 C   0  0  0  0  0
    1.4210   13.2870  -16.7310 C   0  0  0  0  0
    2.7380   12.5670  -25.1650 C   0  0  0  0  0
    4.1820   12.0900  -23.3360 C   0  0  0  0  0
   -0.9510   19.3470  -14.9160 C   0  0  0  0  0
    6.3700   12.6470  -27.2930 C   0  0  0  0  0
    1.1270   15.3420  -18.5030 C   0  0  0  0  0
    7.1010   12.2600  -26.1430 C   0  0  0  0  0
   -0.9990   16.8340  -15.8950 C   0  0  0  0  0
    2.6900   17.3160  -14.4320 C   0  0  0  0  0
    5.0780   12.7800  -26.8410 C   0  0  0  0  0
    4.6740   17.2590  -15.1800 C   0  0  0  0  0
    1.0800   14.0380  -18.9440 C   0  0  0  0  0
    1.8270   12.1700  -22.9980 C   0  0  0  0  0
    1.3190   15.6200  -17.1690 C   0  0  0  0  0
    0.1590   17.5620  -16.0280 C   0  0  0  0  0
    0.8410   12.4250  -20.6990 C   0  0  0  0  0
    1.2260   12.9960  -18.0580 C   0  0  0  0  0
    4.0060   12.3810  -24.6690 C   0  0  0  0  0
    0.8840   13.7310  -20.2730 C   0  0  0  0  0
   -2.0620   18.5440  -14.8310 C   0  0  0  0  0
    2.5560   17.1560  -15.7940 C   0  0  0  0  0
    0.9960   11.4600  -19.7370 C   0  0  0  0  0
    4.2420   16.9610  -17.6260 C   0  0  0  0  0
    1.5100    9.3440  -19.1130 C   0  0  0  0  0
    0.6240   12.0590  -22.1260 C   0  0  0  0  0
    1.3880   17.0280  -16.6860 C   0  0  0  0  0
   -3.2800   19.0840  -14.1730 C   0  0  0  0  0
    4.0050   17.3820  -14.0570 N   0  0  0  0  0
   -2.1050   17.2990  -15.3080 N   0  0  0  0  0
    6.3310   12.1600  -25.0570 N   0  0  0  0  0
    1.1840   11.7220  -18.4450 N   0  0  0  0  0
    5.1110   12.4810  -25.5090 N   0  0  0  0  0
    3.8390   17.1200  -16.2490 N   0  0  0  0  0
    1.6580   17.8420  -17.8160 O   0  0  0  0  0
    0.9480   10.1430  -20.1480 O   0  0  0  0  0
   -2.9800   20.0390  -13.2520 F   0  0  0  0  0
   -4.1360   19.6620  -15.0570 F   0  0  0  0  0
   -3.9930   18.1320  -13.5150 F   0  0  0  0  0
    0.6930   14.9960  -21.4200 Cl  0  0  0  0  0
    1.6361   14.7900  -15.2241 H   0  0  0  0  0
    0.6492   12.6086  -24.7259 H   0  0  0  0  0
    3.2385   11.7504  -21.4448 H   0  0  0  0  0
    1.0678   19.4543  -15.6100 H   0  0  0  0  0
    1.5371   12.4709  -16.0178 H   0  0  0  0  0
    2.5934   12.7984  -26.2203 H   0  0  0  0  0
    5.1872   11.9436  -22.9406 H   0  0  0  0  0
   -0.9596   20.3587  -14.5104 H   0  0  0  0  0
    6.7455   12.8035  -28.3043 H   0  0  0  0  0
    1.0114   16.1590  -19.2152 H   0  0  0  0  0
    8.1735   12.0654  -26.1446 H   0  0  0  0  0
   -1.0159   15.8187  -16.2913 H   0  0  0  0  0
    1.8519   17.3819  -13.7383 H   0  0  0  0  0
    4.2047   13.0661  -27.4271 H   0  0  0  0  0
    5.7618   17.2670  -15.2492 H   0  0  0  0  0
    4.8247   17.8287  -17.9352 H   0  0  0  0  0
    4.8486   16.0607  -17.7241 H   0  0  0  0  0
    3.3559   16.8739  -18.2548 H   0  0  0  0  0
    2.5418    9.6495  -18.9396 H   0  0  0  0  0
    0.9318    9.4769  -18.1986 H   0  0  0  0  0
    1.4852    8.2958  -19.4109 H   0  0  0  0  0
    0.3233   11.0114  -22.1387 H   0  0  0  0  0
   -0.1142   12.7575  -22.5200 H   0  0  0  0  0
    1.7098   18.7607  -17.5422 H   0  0  0  0  0
  1  5  4  0  0  0
 18  1  4  0  0  0
  2  6  4  0  0  0
 17  2  4  0  0  0
  3  7  4  0  0  0
 17  3  4  0  0  0
  4  8  4  0  0  0
 19  4  4  0  0  0
  5 21  4  0  0  0
  6 22  4  0  0  0
  7 22  4  0  0  0
  8 24  4  0  0  0
  9 11  4  0  0  0
 14  9  4  0  0  0
 10 16  4  0  0  0
 18 10  4  0  0  0
 11 34  4  0  0  0
 19 12  4  0  0  0
 12 33  4  0  0  0
 25 13  4  0  0  0
 13 32  4  0  0  0
 36 14  4  0  0  0
 32 15  4  0  0  0
 15 37  4  0  0  0
 16 21  4  0  0  0
 16 23  4  0  0  0
 29 17  1  0  0  0
 30 18  1  0  0  0
 30 19  1  0  0  0
 23 20  4  0  0  0
 20 26  4  0  0  0
 20 29  1  0  0  0
 21 35  4  0  0  0
 22 36  1  0  0  0
 23 43  1  0  0  0
 24 31  1  0  0  0
 33 24  4  0  0  0
 25 30  1  0  0  0
 25 37  4  0  0  0
 26 35  4  0  0  0
 26 39  1  0  0  0
 37 27  1  0  0  0
 39 28  1  0  0  0
 30 38  1  0  0  0
 31 40  1  0  0  0
 31 41  1  0  0  0
 31 42  1  0  0  0
 34 36  4  0  0  0
  1 44  1  0  0  0
  2 45  1  0  0  0
  3 46  1  0  0  0
  4 47  1  0  0  0
  5 48  1  0  0  0
  6 49  1  0  0  0
  7 50  1  0  0  0
  8 51  1  0  0  0
  9 52  1  0  0  0
 10 53  1  0  0  0
 11 54  1  0  0  0
 12 55  1  0  0  0
 13 56  1  0  0  0
 14 57  1  0  0  0
 15 58  1  0  0  0
 27 59  1  0  0  0
 27 60  1  0  0  0
 27 61  1  0  0  0
 28 62  1  0  0  0
 28 63  1  0  0  0
 28 64  1  0  0  0
 29 65  1  0  0  0
 29 66  1  0  0  0
 38 67  1  0  0  0
M  END
$$$$
