### 
### Created by X-TOOL on Mon Sep 10 21:13:11 2018
### 

@<TRIPOS>MOLECULE
4ach_ligand
   59    61     1     0     0
SMALL
GAST_HUCK


@<TRIPOS>ATOM
      1 C1         47.6880   42.3470   54.6820 C.3       1 KDI        -0.1255
      2 N2         46.2310   42.4230   54.8910 N.4       1 KDI         0.4029
      3 C3         45.4830   42.2220   53.6340 C.3       1 KDI        -0.0959
      4 C4         45.7800   41.4950   55.9400 C.3       1 KDI        -0.0959
      5 C5         44.3050   41.7580   56.3010 C.3       1 KDI         0.0110
      6 N6         43.4420   42.1440   55.1380 N.am      1 KDI        -0.2379
      7 S7         41.7740   41.9980   55.2570 S.o2      1 KDI         0.0707
      8 O8         41.4090   42.0340   56.6360 O.2       1 KDI        -0.1500
      9 O9         41.1980   42.8630   54.2750 O.2       1 KDI        -0.1500
     10 C10        41.4500   40.3600   54.6890 C.ar      1 KDI         0.1090
     11 C11        41.2580   40.1670   53.3170 C.ar      1 KDI        -0.0338
     12 C12        41.0050   38.8950   52.8560 C.ar      1 KDI        -0.0503
     13 C13        41.0010   37.8020   53.7550 C.ar      1 KDI        -0.0002
     14 C14        41.2420   37.9970   55.1350 C.ar      1 KDI        -0.0503
     15 C15        41.4670   39.2840   55.5960 C.ar      1 KDI        -0.0338
     16 C16        40.6800   36.4450   53.2260 C.ar      1 KDI         0.0739
     17 C17        41.1710   36.0420   51.9670 C.ar      1 KDI         0.0380
     18 N18        40.8570   34.8470   51.4860 N.ar      1 KDI        -0.2533
     19 C19        40.0270   34.0330   52.1520 C.ar      1 KDI         0.1611
     20 C20        39.5000   34.4140   53.4150 C.ar      1 KDI         0.1689
     21 N21        39.8300   35.6380   53.8830 N.ar      1 KDI        -0.2604
     22 C22        38.5670   33.5360   54.1970 C.2       1 KDI         0.2246
     23 O23        38.0850   32.5140   53.7200 O.2       1 KDI        -0.3826
     24 N24        38.2670   33.9190   55.4630 N.am      1 KDI        -0.2850
     25 C25        37.3620   33.2400   56.3990 C.3       1 KDI         0.0325
     26 C27        37.8360   37.3890   56.1110 C.3       1 KDI         0.0364
     27 C30        36.1690   34.1670   56.6710 C.3       1 KDI        -0.0093
     28 N31        39.7330   32.7950   51.5980 N.pl3     1 KDI        -0.3112
     29 C6         44.0210   42.6580   53.8570 C.3       1 KDI         0.0110
     30 C28        36.5920   35.5830   57.1040 C.3       1 KDI         0.0491
     31 O29        36.7260   36.4940   56.0000 O.3       1 KDI        -0.3829
     32 H          48.2006   42.6027   55.6093 H         1 KDI        -0.0019
     33 H          47.9586   41.3343   54.3831 H         1 KDI        -0.0019
     34 H          47.9786   43.0480   53.8995 H         1 KDI        -0.0019
     35 H          45.5172   41.1714   53.3455 H         1 KDI         0.0033
     36 H          45.9301   42.8160   52.8369 H         1 KDI         0.0033
     37 H          46.3926   41.6432   56.8293 H         1 KDI         0.0033
     38 H          45.8765   40.4734   55.5725 H         1 KDI         0.0033
     39 H          44.2912   42.5936   57.0007 H         1 KDI         0.0458
     40 H          43.9033   40.8276   56.7024 H         1 KDI         0.0458
     41 H          41.3078   41.0083   52.6257 H         1 KDI         0.0639
     42 H          40.8074   38.7293   51.7969 H         1 KDI         0.0630
     43 H          41.2505   37.1512   55.8225 H         1 KDI         0.0630
     44 H          41.6560   39.4621   56.6546 H         1 KDI         0.0639
     45 H          41.8080   36.7122   51.3898 H         1 KDI         0.0922
     46 H          38.7180   34.7692   55.8009 H         1 KDI         0.1844
     47 H          37.8837   33.0179   57.3299 H         1 KDI         0.0520
     48 H          37.0156   32.2999   55.9697 H         1 KDI         0.0520
     49 H          37.7265   37.9915   57.0127 H         1 KDI         0.0523
     50 H          38.7604   36.8142   56.1666 H         1 KDI         0.0523
     51 H          37.8641   38.0410   55.2380 H         1 KDI         0.0523
     52 H          35.5890   33.7310   57.4843 H         1 KDI         0.0307
     53 H          35.6025   34.2590   55.7443 H         1 KDI         0.0307
     54 H          40.1458   32.5248   50.7053 H         1 KDI         0.1819
     55 H          39.1041   32.1553   52.0836 H         1 KDI         0.1819
     56 H          43.4264   42.2515   53.0389 H         1 KDI         0.0458
     57 H          44.0037   43.7470   53.8999 H         1 KDI         0.0458
     58 H          37.5653   35.5043   57.5884 H         1 KDI         0.0560
     59 H          35.8165   35.9732   57.7631 H         1 KDI         0.0560
@<TRIPOS>BOND
     1    2    1 1  
     2    3    2 1  
     3    4    2 1  
     4   29    3 1  
     5    5    4 1  
     6    6    5 1  
     7    7    6 am 
     8    6   29 1  
     9    7    8 2  
    10    7    9 2  
    11   10    7 1  
    12   11   10 ar 
    13   15   10 ar 
    14   12   11 ar 
    15   13   12 ar 
    16   13   14 ar 
    17   16   13 1  
    18   14   15 ar 
    19   16   17 ar 
    20   21   16 ar 
    21   18   17 ar 
    22   19   18 ar 
    23   20   19 ar 
    24   19   28 1  
    25   20   21 ar 
    26   22   20 1  
    27   22   23 2  
    28   24   22 am 
    29   25   24 1  
    30   27   25 1  
    31   31   26 1  
    32   30   27 1  
    33   30   31 1  
    34    1   32 1  
    35    1   33 1  
    36    1   34 1  
    37    3   35 1  
    38    3   36 1  
    39    4   37 1  
    40    4   38 1  
    41    5   39 1  
    42    5   40 1  
    43   11   41 1  
    44   12   42 1  
    45   14   43 1  
    46   15   44 1  
    47   17   45 1  
    48   24   46 1  
    49   25   47 1  
    50   25   48 1  
    51   26   49 1  
    52   26   50 1  
    53   26   51 1  
    54   27   52 1  
    55   27   53 1  
    56   28   54 1  
    57   28   55 1  
    58   29   56 1  
    59   29   57 1  
    60   30   58 1  
    61   30   59 1  
@<TRIPOS>SUBSTRUCTURE
     1 KDI         1

