4ach_ligand
  -I-interpret- 

 60 62  0  0  0  0  0  0  0  0999 V2000
   47.6880   42.3470   54.6820 C   0  0  0  0  0
   46.2310   42.4230   54.8910 N   0  3  0  0  0
   45.4830   42.2220   53.6340 C   0  0  0  0  0
   45.7800   41.4950   55.9400 C   0  0  0  0  0
   44.3050   41.7580   56.3010 C   0  0  0  0  0
   43.4420   42.1440   55.1380 N   0  0  0  0  0
   41.7740   41.9980   55.2570 S   0  0  0  0  0
   41.4090   42.0340   56.6360 O   0  0  0  0  0
   41.1980   42.8630   54.2750 O   0  0  0  0  0
   41.4500   40.3600   54.6890 C   0  0  0  0  0
   41.2580   40.1670   53.3170 C   0  0  0  0  0
   41.0050   38.8950   52.8560 C   0  0  0  0  0
   41.0010   37.8020   53.7550 C   0  0  0  0  0
   41.2420   37.9970   55.1350 C   0  0  0  0  0
   41.4670   39.2840   55.5960 C   0  0  0  0  0
   40.6800   36.4450   53.2260 C   0  0  0  0  0
   41.1710   36.0420   51.9670 C   0  0  0  0  0
   40.8570   34.8470   51.4860 N   0  0  0  0  0
   40.0270   34.0330   52.1520 C   0  0  0  0  0
   39.5000   34.4140   53.4150 C   0  0  0  0  0
   39.8300   35.6380   53.8830 N   0  0  0  0  0
   38.5670   33.5360   54.1970 C   0  0  0  0  0
   38.0850   32.5140   53.7200 O   0  0  0  0  0
   38.2670   33.9190   55.4630 N   0  0  0  0  0
   37.3620   33.2400   56.3990 C   0  0  0  0  0
   37.8360   37.3890   56.1110 C   0  0  0  0  0
   36.1690   34.1670   56.6710 C   0  0  0  0  0
   39.7330   32.7950   51.5980 N   0  0  0  0  0
   44.0210   42.6580   53.8570 C   0  0  0  0  0
   36.5920   35.5830   57.1040 C   0  0  0  0  0
   36.7260   36.4940   56.0000 O   0  0  0  0  0
   48.2006   42.6027   55.6093 H   0  0  0  0  0
   47.9586   41.3343   54.3831 H   0  0  0  0  0
   47.9786   43.0480   53.8995 H   0  0  0  0  0
   46.0283   43.3687   55.2148 H   0  0  0  0  0
   45.5172   41.1714   53.3455 H   0  0  0  0  0
   45.9301   42.8160   52.8369 H   0  0  0  0  0
   46.3926   41.6432   56.8293 H   0  0  0  0  0
   45.8765   40.4734   55.5725 H   0  0  0  0  0
   44.2912   42.5936   57.0007 H   0  0  0  0  0
   43.9033   40.8276   56.7024 H   0  0  0  0  0
   41.3078   41.0083   52.6257 H   0  0  0  0  0
   40.8074   38.7293   51.7969 H   0  0  0  0  0
   41.2505   37.1512   55.8225 H   0  0  0  0  0
   41.6560   39.4621   56.6546 H   0  0  0  0  0
   41.8080   36.7122   51.3898 H   0  0  0  0  0
   38.7180   34.7692   55.8009 H   0  0  0  0  0
   37.8837   33.0179   57.3299 H   0  0  0  0  0
   37.0156   32.2999   55.9697 H   0  0  0  0  0
   37.7265   37.9915   57.0127 H   0  0  0  0  0
   38.7604   36.8142   56.1666 H   0  0  0  0  0
   37.8641   38.0410   55.2380 H   0  0  0  0  0
   35.5890   33.7310   57.4843 H   0  0  0  0  0
   35.6025   34.2590   55.7443 H   0  0  0  0  0
   40.1458   32.5248   50.7053 H   0  0  0  0  0
   39.1041   32.1553   52.0836 H   0  0  0  0  0
   43.4264   42.2515   53.0389 H   0  0  0  0  0
   44.0037   43.7470   53.8999 H   0  0  0  0  0
   37.5653   35.5043   57.5884 H   0  0  0  0  0
   35.8165   35.9732   57.7631 H   0  0  0  0  0
  2  1  1  0  0  0
  3  2  1  0  0  0
  4  2  1  0  0  0
 29  3  1  0  0  0
  5  4  1  0  0  0
  6  5  1  0  0  0
  7  6  1  0  0  0
  6 29  1  0  0  0
  7  8  2  0  0  0
  7  9  2  0  0  0
 10  7  1  0  0  0
 11 10  4  0  0  0
 15 10  4  0  0  0
 12 11  4  0  0  0
 13 12  4  0  0  0
 13 14  4  0  0  0
 16 13  1  0  0  0
 14 15  4  0  0  0
 16 17  4  0  0  0
 21 16  4  0  0  0
 18 17  4  0  0  0
 19 18  4  0  0  0
 20 19  4  0  0  0
 19 28  1  0  0  0
 20 21  4  0  0  0
 22 20  1  0  0  0
 22 23  2  0  0  0
 24 22  1  0  0  0
 25 24  1  0  0  0
 27 25  1  0  0  0
 31 26  1  0  0  0
 30 27  1  0  0  0
 30 31  1  0  0  0
  1 32  1  0  0  0
  1 33  1  0  0  0
  1 34  1  0  0  0
  2 35  1  0  0  0
  3 36  1  0  0  0
  3 37  1  0  0  0
  4 38  1  0  0  0
  4 39  1  0  0  0
  5 40  1  0  0  0
  5 41  1  0  0  0
 11 42  1  0  0  0
 12 43  1  0  0  0
 14 44  1  0  0  0
 15 45  1  0  0  0
 17 46  1  0  0  0
 24 47  1  0  0  0
 25 48  1  0  0  0
 25 49  1  0  0  0
 26 50  1  0  0  0
 26 51  1  0  0  0
 26 52  1  0  0  0
 27 53  1  0  0  0
 27 54  1  0  0  0
 28 55  1  0  0  0
 28 56  1  0  0  0
 29 57  1  0  0  0
 29 58  1  0  0  0
 30 59  1  0  0  0
 30 60  1  0  0  0
M  END
$$$$
