3hv4_ligand
  -I-interpret- 

 69 73  0  0  0  0  0  0  0  0999 V2000
   12.5160    1.5600    3.5570 C   0  0  0  0  0
   12.2680    2.4550    2.4860 C   0  0  0  0  0
   12.0630    3.8360    2.7440 C   0  0  0  0  0
   11.8030    4.7160    1.7560 N   0  0  0  0  0
   12.1080    4.3060    4.0650 C   0  0  0  0  0
   12.3580    3.4230    5.1230 C   0  0  0  0  0
   12.5490    2.0520    4.8820 C   0  0  0  0  0
   12.7920    1.2160    5.9200 N   0  0  0  0  0
   13.0050   -0.0850    5.7340 C   0  0  0  0  0
   12.9740   -0.6410    4.4660 C   0  0  0  0  0
   12.7340    0.1820    3.3610 C   0  0  0  0  0
   12.7100   -0.3340    2.1300 N   0  0  0  0  0
   12.4260   -1.6330    1.8680 C   0  0  0  0  0
   13.3610   -2.4430    1.1570 C   0  0  0  0  0
   11.2030   -2.1640    2.3000 C   0  0  0  0  0
   10.9270   -3.4880    2.0130 C   0  0  0  0  0
   11.8300   -4.2660    1.3030 C   0  0  0  0  0
   13.0510   -3.7730    0.8690 C   0  0  0  0  0
   13.8390   -4.6250    0.1940 N   0  0  0  0  0
   15.1110   -4.9330    0.3930 C   0  0  0  0  0
   15.7980   -4.4190    1.2780 O   0  0  0  0  0
   15.5990   -5.8020   -0.4970 N   0  0  0  0  0
   16.8520   -6.3750   -0.4960 C   0  0  0  0  0
   17.5880   -6.5910    0.5940 C   0  0  0  0  0
   18.6660   -7.2440    0.1560 C   0  0  0  0  0
   19.8480   -7.7200    1.0350 C   0  0  0  0  0
   20.4050   -6.5600    1.8640 C   0  0  0  0  0
   19.3720   -8.8130    1.9860 C   0  0  0  0  0
   20.9030   -8.3130    0.1320 C   0  0  0  0  0
   18.5750   -7.4670   -1.1470 N   0  0  0  0  0
   17.5060   -6.9650   -1.5260 N   0  0  0  0  0
   17.0690   -7.0600   -2.7960 C   0  0  0  0  0
   17.2170   -8.3040   -3.4260 C   0  0  0  0  0
   16.7910   -8.5140   -4.7480 C   0  0  0  0  0
   16.1830   -7.4500   -5.4000 C   0  0  0  0  0
   15.7090   -7.6360   -6.8290 C   0  0  0  0  0
   16.0090   -6.2120   -4.7690 C   0  0  0  0  0
   16.4590   -6.0070   -3.4730 C   0  0  0  0  0
   12.2346    2.0822    1.4623 H   0  0  0  0  0
   11.7487    4.3958    0.7891 H   0  0  0  0  0
   11.6606    5.7019    1.9755 H   0  0  0  0  0
   11.9475    5.3646    4.2692 H   0  0  0  0  0
   12.4049    3.8031    6.1435 H   0  0  0  0  0
   13.2072   -0.7232    6.5942 H   0  0  0  0  0
   13.1352   -1.7105    4.3304 H   0  0  0  0  0
   12.9166    0.2827    1.3442 H   0  0  0  0  0
   14.3157   -2.0238    0.8393 H   0  0  0  0  0
   10.4885   -1.5495    2.8477 H   0  0  0  0  0
    9.9874   -3.9265    2.3491 H   0  0  0  0  0
   11.5705   -5.3006    1.0786 H   0  0  0  0  0
   13.3920   -5.1055   -0.5868 H   0  0  0  0  0
   14.9767   -6.0701   -1.2594 H   0  0  0  0  0
   17.3594   -6.2983    1.6188 H   0  0  0  0  0
   20.7556   -5.7732    1.1960 H   0  0  0  0  0
   19.6199   -6.1669    2.5100 H   0  0  0  0  0
   21.2347   -6.9168    2.4742 H   0  0  0  0  0
   18.5815   -8.4184    2.6244 H   0  0  0  0  0
   18.9884   -9.6539    1.4082 H   0  0  0  0  0
   20.2071   -9.1452    2.6028 H   0  0  0  0  0
   20.4798   -9.1560   -0.4142 H   0  0  0  0  0
   21.2432   -7.5551   -0.5737 H   0  0  0  0  0
   21.7449   -8.6544    0.7343 H   0  0  0  0  0
   17.6734   -9.1276   -2.8769 H   0  0  0  0  0
   16.9324   -9.4750   -5.2426 H   0  0  0  0  0
   16.5582   -7.8953   -7.4613 H   0  0  0  0  0
   14.9703   -8.4367   -6.8641 H   0  0  0  0  0
   15.2591   -6.7091   -7.1848 H   0  0  0  0  0
   15.5143   -5.4002   -5.3023 H   0  0  0  0  0
   16.3370   -5.0366   -2.9919 H   0  0  0  0  0
  1  2  4  0  0  0
  1  7  4  0  0  0
  1 11  4  0  0  0
  2  3  4  0  0  0
  3  4  1  0  0  0
  3  5  4  0  0  0
  5  6  4  0  0  0
  6  7  4  0  0  0
  7  8  4  0  0  0
  8  9  4  0  0  0
  9 10  4  0  0  0
 10 11  4  0  0  0
 11 12  1  0  0  0
 12 13  1  0  0  0
 13 14  4  0  0  0
 13 15  4  0  0  0
 14 18  4  0  0  0
 15 16  4  0  0  0
 16 17  4  0  0  0
 17 18  4  0  0  0
 18 19  1  0  0  0
 19 20  1  0  0  0
 20 21  2  0  0  0
 20 22  1  0  0  0
 22 23  1  0  0  0
 23 24  4  0  0  0
 23 31  4  0  0  0
 24 25  4  0  0  0
 25 26  1  0  0  0
 25 30  4  0  0  0
 26 27  1  0  0  0
 26 28  1  0  0  0
 26 29  1  0  0  0
 30 31  4  0  0  0
 31 32  1  0  0  0
 32 33  4  0  0  0
 32 38  4  0  0  0
 33 34  4  0  0  0
 34 35  4  0  0  0
 35 36  1  0  0  0
 35 37  4  0  0  0
 37 38  4  0  0  0
  2 39  1  0  0  0
  4 40  1  0  0  0
  4 41  1  0  0  0
  5 42  1  0  0  0
  6 43  1  0  0  0
  9 44  1  0  0  0
 10 45  1  0  0  0
 12 46  1  0  0  0
 14 47  1  0  0  0
 15 48  1  0  0  0
 16 49  1  0  0  0
 17 50  1  0  0  0
 19 51  1  0  0  0
 22 52  1  0  0  0
 24 53  1  0  0  0
 27 54  1  0  0  0
 27 55  1  0  0  0
 27 56  1  0  0  0
 28 57  1  0  0  0
 28 58  1  0  0  0
 28 59  1  0  0  0
 29 60  1  0  0  0
 29 61  1  0  0  0
 29 62  1  0  0  0
 33 63  1  0  0  0
 34 64  1  0  0  0
 36 65  1  0  0  0
 36 66  1  0  0  0
 36 67  1  0  0  0
 37 68  1  0  0  0
 38 69  1  0  0  0
M  END
$$$$
