1hpv_ligand
  -I-interpret- 

 70 72  0  0  0  0  0  0  0  0999 V2000
   11.1690   14.9770    2.4450 C   0  0  0  0  0
    9.1760   16.2240    2.9970 C   0  0  0  0  0
   10.1490   15.7020    5.9990 C   0  0  0  0  0
   10.1130   15.1490    3.5480 C   0  0  0  0  0
   10.9600   16.6620    8.1450 C   0  0  0  0  0
   10.3870   18.1190    8.4840 C   0  0  0  0  0
   12.4160   16.2780    8.6520 C   0  0  0  0  0
   12.8310   14.9140    8.1700 C   0  0  0  0  0
   13.6360   14.8250    6.9780 C   0  0  0  0  0
   12.2990   13.7060    8.7650 C   0  0  0  0  0
   13.8910   13.5660    6.3310 C   0  0  0  0  0
   12.5740   12.4340    8.1160 C   0  0  0  0  0
   13.3710   12.3570    6.8870 C   0  0  0  0  0
    9.6950   18.4110    9.8910 C   0  0  0  0  0
    7.3810   17.6970    9.1700 C   0  0  0  0  0
    6.1860   18.4060    9.7900 C   0  0  0  0  0
    8.8320   16.3810   12.8860 C   0  0  0  0  0
   10.0730   16.3630   13.6040 C   0  0  0  0  0
   10.0920   16.6920   14.9920 C   0  0  0  0  0
    8.8650   17.0540   15.6200 C   0  0  0  0  0
    7.6520   17.0060   14.9260 C   0  0  0  0  0
    7.6390   16.6690   13.5550 C   0  0  0  0  0
    6.1460   19.9370    9.6140 C   0  0  0  0  0
    4.8220   17.6950    9.7310 C   0  0  0  0  0
    9.7510   16.6260    1.6330 C   0  0  0  0  0
   10.9400   16.4720    6.7130 N   0  0  0  0  0
    8.5160   17.5800   10.2280 N   0  0  0  0  0
    8.8400   17.3220   16.8980 N   0  0  0  0  0
   10.7260   15.6620    4.7310 O   0  0  0  0  0
    9.0810   15.3130    6.2870 O   0  0  0  0  0
   11.4320   19.0300    8.4660 O   0  0  0  0  0
   10.0510   15.5110   10.8470 O   0  0  0  0  0
    7.7070   15.1600   11.0710 O   0  0  0  0  0
   11.0530   16.0820    1.5150 O   0  0  0  0  0
    8.7650   16.1120   11.2000 S   0  0  0  0  0
   11.0082   14.0343    1.9220 H   0  0  0  0  0
   12.1661   14.9665    2.8852 H   0  0  0  0  0
    8.1571   15.8487    2.9012 H   0  0  0  0  0
    9.1182   17.0801    3.6692 H   0  0  0  0  0
    9.6159   14.2108    3.7944 H   0  0  0  0  0
   10.2946   16.0070    8.7074 H   0  0  0  0  0
    9.6069   18.1989    7.7269 H   0  0  0  0  0
   12.4093   16.2699    9.7419 H   0  0  0  0  0
   13.1210   17.0105    8.2590 H   0  0  0  0  0
   14.0625   15.7350    6.5560 H   0  0  0  0  0
   11.7059   13.7490    9.6785 H   0  0  0  0  0
   14.4816   13.5342    5.4154 H   0  0  0  0  0
   12.1788   11.5169    8.5528 H   0  0  0  0  0
   13.5626   11.3970    6.4077 H   0  0  0  0  0
    9.3380   19.4399    9.8458 H   0  0  0  0  0
   10.4466   18.1931   10.6498 H   0  0  0  0  0
    7.7389   18.2672    8.3128 H   0  0  0  0  0
    7.0841   16.7008    8.8420 H   0  0  0  0  0
    6.4249   18.2829   10.8463 H   0  0  0  0  0
   10.9980   16.0990   13.0914 H   0  0  0  0  0
   11.0228   16.6671   15.5587 H   0  0  0  0  0
    6.7182   17.2283   15.4425 H   0  0  0  0  0
    6.6929   16.6332   13.0150 H   0  0  0  0  0
    7.0321   20.3773   10.0713 H   0  0  0  0  0
    6.1257   20.1789    8.5514 H   0  0  0  0  0
    5.2520   20.3335   10.0953 H   0  0  0  0  0
    4.5466   17.5259    8.6900 H   0  0  0  0  0
    4.8893   16.7390   10.2503 H   0  0  0  0  0
    4.0677   18.3184   10.2111 H   0  0  0  0  0
    9.1149   16.2442    0.8344 H   0  0  0  0  0
    9.7934   17.7122    1.5531 H   0  0  0  0  0
   11.6311   17.0060    6.1861 H   0  0  0  0  0
    9.6986   17.2722   17.4464 H   0  0  0  0  0
    7.9619   17.5811   17.3477 H   0  0  0  0  0
   11.9223   18.9366    7.6460 H   0  0  0  0  0
  4  1  1  0  0  0
  1 34  1  0  0  0
 29  4  1  0  0  0
  5  6  1  0  0  0
  5  7  1  0  0  0
 26  5  1  0  0  0
  6 14  1  0  0  0
  7  8  1  0  0  0
  8  9  4  0  0  0
  8 10  4  0  0  0
  9 11  4  0  0  0
 10 12  4  0  0  0
 11 13  4  0  0  0
 12 13  4  0  0  0
 14 27  1  0  0  0
 15 16  1  0  0  0
 27 15  1  0  0  0
 16 23  1  0  0  0
 16 24  1  0  0  0
 17 18  4  0  0  0
 17 22  4  0  0  0
 18 19  4  0  0  0
 19 20  4  0  0  0
 21 20  4  0  0  0
 22 21  4  0  0  0
 35 33  2  0  0  0
 35 32  2  0  0  0
 27 35  1  0  0  0
 35 17  1  0  0  0
 34 25  1  0  0  0
  6 31  1  0  0  0
  3 30  2  0  0  0
  3 29  1  0  0  0
 20 28  1  0  0  0
  3 26  1  0  0  0
 25  2  1  0  0  0
  4  2  1  0  0  0
  1 36  1  0  0  0
  1 37  1  0  0  0
  2 38  1  0  0  0
  2 39  1  0  0  0
  4 40  1  0  0  0
  5 41  1  0  0  0
  6 42  1  0  0  0
  7 43  1  0  0  0
  7 44  1  0  0  0
  9 45  1  0  0  0
 10 46  1  0  0  0
 11 47  1  0  0  0
 12 48  1  0  0  0
 13 49  1  0  0  0
 14 50  1  0  0  0
 14 51  1  0  0  0
 15 52  1  0  0  0
 15 53  1  0  0  0
 16 54  1  0  0  0
 18 55  1  0  0  0
 19 56  1  0  0  0
 21 57  1  0  0  0
 22 58  1  0  0  0
 23 59  1  0  0  0
 23 60  1  0  0  0
 23 61  1  0  0  0
 24 62  1  0  0  0
 24 63  1  0  0  0
 24 64  1  0  0  0
 25 65  1  0  0  0
 25 66  1  0  0  0
 26 67  1  0  0  0
 28 68  1  0  0  0
 28 69  1  0  0  0
 31 70  1  0  0  0
M  END
$$$$
