3bl1_ligand
  -I-interpret- 

 40 42  0  0  0  0  0  0  0  0999 V2000
   -7.4680    0.9160   16.9850 O   0  0  0  0  0
   -6.0510    1.1250   16.9110 S   0  0  0  0  0
   -5.4540   -0.0630   16.3530 N   0  0  0  0  0
   -5.5830    1.3070   18.4150 O   0  0  0  0  0
   -5.7000    2.3410   15.8520 C   0  0  0  0  0
   -5.1880    2.1110   14.5560 C   0  0  0  0  0
   -5.9060    3.6720   16.1680 C   0  0  0  0  0
   -6.5720    4.0520   17.7680 Cl  0  0  0  0  0
   -5.6290    4.7030   15.2590 C   0  0  0  0  0
   -5.1040    4.4400   13.9930 C   0  0  0  0  0
   -4.8610    3.1260   13.6170 C   0  0  0  0  0
   -4.3490    2.7160   12.2300 C   0  0  0  0  0
   -4.5670    1.5470   11.9120 O   0  0  0  0  0
   -3.7590    3.3710   11.2130 N   0  0  0  0  0
   -3.2420    4.6440   10.8640 N   0  0  0  0  0
   -2.0030    4.7160   10.0830 C   0  0  0  0  0
   -2.1770    4.0750    8.7110 C   0  0  0  0  0
   -3.7830    5.9120   11.1120 C   0  0  0  0  0
   -2.9520    6.8640   10.5830 C   0  0  0  0  0
   -1.7470    6.2290    9.9230 C   0  0  0  0  0
   -4.9710    6.2670   11.7600 C   0  0  0  0  0
   -5.2920    7.6300   11.8680 C   0  0  0  0  0
   -4.4250    8.5990   11.3250 C   0  0  0  0  0
   -3.2340    8.2310   10.6730 C   0  0  0  0  0
   -6.0417   -0.8550   16.0925 H   0  0  0  0  0
   -4.4440   -0.1114   16.2188 H   0  0  0  0  0
   -5.0318    1.0757   14.2529 H   0  0  0  0  0
   -5.8285    5.7348   15.5482 H   0  0  0  0  0
   -4.8869    5.2582   13.3063 H   0  0  0  0  0
   -3.6449    2.7343   10.4244 H   0  0  0  0  0
   -1.1833    4.1878   10.5700 H   0  0  0  0  0
   -2.4510    3.0271    8.8331 H   0  0  0  0  0
   -2.9633    4.5962    8.1650 H   0  0  0  0  0
   -1.2407    4.1450    8.1573 H   0  0  0  0  0
   -1.6376    6.5258    8.8799 H   0  0  0  0  0
   -0.8077    6.5438   10.3777 H   0  0  0  0  0
   -5.6318    5.5039   12.1713 H   0  0  0  0  0
   -6.2092    7.9374   12.3704 H   0  0  0  0  0
   -4.6822    9.6546   11.4119 H   0  0  0  0  0
   -2.5599    8.9791   10.2558 H   0  0  0  0  0
  1  2  2  0  0  0
  2  3  1  0  0  0
  2  4  2  0  0  0
  2  5  1  0  0  0
  5  6  4  0  0  0
  5  7  4  0  0  0
  6 11  4  0  0  0
  7  8  1  0  0  0
  7  9  4  0  0  0
  9 10  4  0  0  0
 10 11  4  0  0  0
 11 12  1  0  0  0
 12 13  2  0  0  0
 12 14  1  0  0  0
 14 15  1  0  0  0
 15 16  1  0  0  0
 15 18  1  0  0  0
 16 17  1  0  0  0
 16 20  1  0  0  0
 18 19  4  0  0  0
 18 21  4  0  0  0
 19 20  1  0  0  0
 19 24  4  0  0  0
 21 22  4  0  0  0
 22 23  4  0  0  0
 23 24  4  0  0  0
  3 25  1  0  0  0
  3 26  1  0  0  0
  6 27  1  0  0  0
  9 28  1  0  0  0
 10 29  1  0  0  0
 14 30  1  0  0  0
 16 31  1  0  0  0
 17 32  1  0  0  0
 17 33  1  0  0  0
 17 34  1  0  0  0
 20 35  1  0  0  0
 20 36  1  0  0  0
 21 37  1  0  0  0
 22 38  1  0  0  0
 23 39  1  0  0  0
 24 40  1  0  0  0
M  END
$$$$
