1gfy_ligand
  -I-interpret- 

 27 28  0  0  0  0  0  0  0  0999 V2000
   14.1940   45.0590   17.0060 S   0  0  0  0  0
   13.9580   45.5700   18.7020 C   0  0  0  0  0
   12.4990   45.5480   18.9700 C   0  0  0  0  0
   11.4490   45.2640   18.1670 C   0  0  0  0  0
   11.4060   44.6490   16.8120 C   0  0  0  0  0
   12.7610   43.9420   16.7200 C   0  0  0  0  0
   11.9960   46.2350   20.4790 S   0  0  0  0  0
   10.4010   46.0440   20.0200 C   0  0  0  0  0
   10.1660   45.5560   18.8180 C   0  0  0  0  0
    8.7290   45.4290   18.2840 C   0  0  0  0  0
    7.7380   45.4230   18.9570 O   0  0  0  0  0
    8.6670   45.3550   17.0130 O   0  0  0  0  0
    9.3080   46.5050   20.8510 N   0  0  0  0  0
    9.4980   47.2040   21.9760 C   0  0  0  0  0
    8.1590   47.6450   22.5460 C   0  0  0  0  0
    7.1580   46.7170   22.4000 O   0  0  0  0  0
    7.9420   48.5860   23.2340 O   0  0  0  0  0
   10.5690   47.2680   22.6010 O   0  0  0  0  0
   14.3616   46.5701   18.8605 H   0  0  0  0  0
   14.4824   44.8978   19.3811 H   0  0  0  0  0
   11.2531   45.3799   16.0180 H   0  0  0  0  0
   10.5628   43.9711   16.6794 H   0  0  0  0  0
   12.7836   43.1759   17.4950 H   0  0  0  0  0
   12.8538   43.5428   15.7100 H   0  0  0  0  0
    9.5550   45.3738   16.6488 H   0  0  0  0  0
    8.3529   46.2876   20.5666 H   0  0  0  0  0
    7.4592   46.0111   21.8233 H   0  0  0  0  0
  1  2  1  0  0  0
  1  6  1  0  0  0
  2  3  1  0  0  0
  3  4  4  0  0  0
  3  7  4  0  0  0
  4  5  1  0  0  0
  4  9  4  0  0  0
  5  6  1  0  0  0
  7  8  4  0  0  0
  8  9  4  0  0  0
  8 13  1  0  0  0
  9 10  1  0  0  0
 10 11  2  0  0  0
 10 12  1  0  0  0
 13 14  1  0  0  0
 14 15  1  0  0  0
 14 18  2  0  0  0
 15 16  1  0  0  0
 15 17  2  0  0  0
  2 19  1  0  0  0
  2 20  1  0  0  0
  5 21  1  0  0  0
  5 22  1  0  0  0
  6 23  1  0  0  0
  6 24  1  0  0  0
 12 25  1  0  0  0
 13 26  1  0  0  0
 16 27  1  0  0  0
M  END
$$$$
