1ym1_ligand
  -I-interpret- 

 36 37  0  0  0  0  0  0  0  0999 V2000
   27.9890   56.4700   11.2410 C   0  0  0  0  0
   28.8260   57.3630   11.7060 C   0  0  0  0  0
   28.6030   57.8970   12.9140 C   0  0  0  0  0
   27.1380   57.1090   13.4180 S   0  0  0  0  0
   26.9470   56.1380   11.9870 C   0  0  0  0  0
   25.7850   55.1980   11.8150 C   0  0  0  0  0
   25.3540   54.9640   10.3670 C   0  0  0  0  0
   26.1510   54.5690    9.5190 O   0  0  0  0  0
   24.0770   55.2110   10.1200 N   0  0  0  0  0
   23.2630   54.7110    9.0000 C   0  0  0  0  0
   22.2990   55.8970    8.4880 B   0  0  0  0  0
   21.6030   56.3450    9.7110 O   0  0  0  0  0
   23.2650   56.9260    8.0160 O   0  0  0  0  0
   22.6240   53.3870    9.4310 C   0  0  0  0  0
   21.2850   53.2810    9.7890 C   0  0  0  0  0
   23.4130   52.2390    9.5030 C   0  0  0  0  0
   22.8690   51.0370    9.9370 C   0  0  0  0  0
   21.5330   50.9340   10.2950 C   0  0  0  0  0
   20.7370   52.0670   10.2160 C   0  0  0  0  0
   19.2440   51.9860   10.5710 C   0  0  0  0  0
   18.4830   52.8320   10.1010 O   0  0  0  0  0
   18.8100   51.0830   11.2960 O   0  0  0  0  0
   28.1461   56.0116   10.2646 H   0  0  0  0  0
   29.6921   57.6676   11.1184 H   0  0  0  0  0
   29.1937   58.6411   13.4484 H   0  0  0  0  0
   24.9357   55.6497   12.3276 H   0  0  0  0  0
   26.0997   54.2321   12.2102 H   0  0  0  0  0
   23.6004   55.8203   10.7849 H   0  0  0  0  0
   23.8323   54.4508    8.1076 H   0  0  0  0  0
   21.0010   57.0599    9.4916 H   0  0  0  0  0
   22.7833   57.6876    7.6851 H   0  0  0  0  0
   20.6478   54.1637    9.7358 H   0  0  0  0  0
   24.4637   52.2855    9.2167 H   0  0  0  0  0
   23.5063   50.1548    9.9976 H   0  0  0  0  0
   21.1179   49.9838   10.6310 H   0  0  0  0  0
   19.5359   50.5181   11.5708 H   0  0  0  0  0
  1  2  4  0  0  0
  1  5  4  0  0  0
  2  3  4  0  0  0
  3  4  4  0  0  0
  4  5  4  0  0  0
  5  6  1  0  0  0
  6  7  1  0  0  0
  7  8  2  0  0  0
  7  9  1  0  0  0
  9 10  1  0  0  0
 10 11  1  0  0  0
 10 14  1  0  0  0
 11 12  1  0  0  0
 11 13  1  0  0  0
 14 15  4  0  0  0
 14 16  4  0  0  0
 15 19  4  0  0  0
 16 17  4  0  0  0
 17 18  4  0  0  0
 18 19  4  0  0  0
 19 20  1  0  0  0
 20 21  2  0  0  0
 20 22  1  0  0  0
  1 23  1  0  0  0
  2 24  1  0  0  0
  3 25  1  0  0  0
  6 26  1  0  0  0
  6 27  1  0  0  0
  9 28  1  0  0  0
 10 29  1  0  0  0
 12 30  1  0  0  0
 13 31  1  0  0  0
 15 32  1  0  0  0
 16 33  1  0  0  0
 17 34  1  0  0  0
 18 35  1  0  0  0
 22 36  1  0  0  0
M  END
$$$$
