### 
### Created by X-TOOL on Mon Sep 10 21:12:52 2018
### 

@<TRIPOS>MOLECULE
1ym1_ligand
   35    36     1     0     0
SMALL
GAST_HUCK


@<TRIPOS>ATOM
      1 CAF        27.9890   56.4700   11.2410 C.2       1 SM2        -0.0791
      2 CAC        28.8260   57.3630   11.7060 C.2       1 SM2        -0.0924
      3 CAB        28.6030   57.8970   12.9140 C.2       1 SM2        -0.0189
      4 SAD        27.1380   57.1090   13.4180 S.3       1 SM2        -0.0419
      5 CAE        26.9470   56.1380   11.9870 C.2       1 SM2         0.0307
      6 CAG        25.7850   55.1980   11.8150 C.3       1 SM2         0.0818
      7 CAH        25.3540   54.9640   10.3670 C.2       1 SM2         0.1904
      8 OAI        26.1510   54.5690    9.5190 O.2       1 SM2        -0.3936
      9 NAJ        24.0770   55.2110   10.1200 N.am      1 SM2        -0.2815
     10 CAK        23.2630   54.7110    9.0000 C.3       1 SM2         0.0855
     11 B          22.2990   55.8970    8.4880 B         1 SM2         0.7343
     12 OAT        21.6030   56.3450    9.7110 O.3       1 SM2        -0.4949
     13 OAO        23.2650   56.9260    8.0160 O.3       1 SM2        -0.4949
     14 CAL        22.6240   53.3870    9.4310 C.ar      1 SM2        -0.0253
     15 CAQ        21.2850   53.2810    9.7890 C.ar      1 SM2        -0.0454
     16 CAM        23.4130   52.2390    9.5030 C.ar      1 SM2        -0.0569
     17 CAN        22.8690   51.0370    9.9370 C.ar      1 SM2        -0.0649
     18 CAS        21.5330   50.9340   10.2950 C.ar      1 SM2        -0.0545
     19 CAR        20.7370   52.0670   10.2160 C.ar      1 SM2         0.0035
     20 CAU        19.2440   51.9860   10.5710 C.2       1 SM2         0.0613
     21 OAW        18.4830   52.8320   10.1010 O.co2     1 SM2        -0.5607
     22 OAV        18.8100   51.0830   11.2960 O.co2     1 SM2        -0.5607
     23 H1         28.1460   56.0121   10.2655 H         1 SM2         0.0284
     24 H2         29.6913   57.6673   11.1189 H         1 SM2         0.0373
     25 H3         29.1931   58.6404   13.4479 H         1 SM2         0.0603
     26 H4         24.9265   55.6121   12.3641 H         1 SM2         0.0685
     27 H5         26.0642   54.2267   12.2494 H         1 SM2         0.0685
     28 H6         23.6098   55.8083   10.7719 H         1 SM2         0.1866
     29 H7         23.9343   54.4745    8.1613 H         1 SM2         0.0583
     30 H8         22.2407   56.5022   10.3973 H         1 SM2         0.1668
     31 H9         23.9114   57.0862    8.6934 H         1 SM2         0.1668
     32 H10        20.6513   54.1589    9.7361 H         1 SM2         0.0590
     33 H11        24.4579   52.2853    9.2183 H         1 SM2         0.0578
     34 H12        23.5028   50.1597    9.9973 H         1 SM2         0.0606
     35 H13        21.1202   49.9890   10.6291 H         1 SM2         0.0593
@<TRIPOS>BOND
     1    1    2 1  
     2    1    5 2  
     3    2    3 2  
     4    3    4 1  
     5    4    5 1  
     6    5    6 1  
     7    6    7 1  
     8    7    8 2  
     9    7    9 am 
    10    9   10 1  
    11   10   11 1  
    12   10   14 1  
    13   11   12 1  
    14   11   13 1  
    15   14   15 ar 
    16   14   16 ar 
    17   15   19 ar 
    18   16   17 ar 
    19   17   18 ar 
    20   18   19 ar 
    21   19   20 1  
    22   20   21 ar 
    23   20   22 ar 
    24    1   23 1  
    25    2   24 1  
    26    3   25 1  
    27    6   26 1  
    28    6   27 1  
    29    9   28 1  
    30   10   29 1  
    31   12   30 1  
    32   13   31 1  
    33   15   32 1  
    34   16   33 1  
    35   17   34 1  
    36   18   35 1  
@<TRIPOS>SUBSTRUCTURE
     1 SM2         1

