4mhs_ligand
  -I-interpret- 

 53 55  0  0  0  0  0  0  0  0999 V2000
   38.1490   28.0520   37.2000 C   0  0  0  0  0
   39.0380   28.5470   38.1600 C   0  0  0  0  0
   40.3370   28.0360   38.2380 C   0  0  0  0  0
   40.7530   27.0220   37.3690 C   0  0  0  0  0
   39.8630   26.5460   36.4010 C   0  0  0  0  0
   38.5510   27.0460   36.3050 C   0  0  0  0  0
   37.6530   26.5600   35.3230 C   0  0  0  0  0
   38.0810   26.3290   33.9980 C   0  0  0  0  0
   37.2060   25.8470   33.0170 C   0  0  0  0  0
   36.3120   26.3020   35.6460 C   0  0  0  0  0
   35.4300   25.8280   34.6710 C   0  0  0  0  0
   35.8580   25.5990   33.3510 C   0  0  0  0  0
   34.8880   25.1320   32.4500 C   0  0  0  0  0
   35.2170   24.5630   31.0660 C   0  0  0  0  0
   34.0760   24.0340   30.1710 C   0  0  0  0  0
   32.8880   24.1030   30.5250 O   0  0  0  0  0
   34.4870   23.5530   28.9860 N   0  0  0  0  0
   33.5370   22.9850   28.0190 C   0  0  0  0  0
   33.4570   21.5530   28.3160 O   0  0  0  0  0
   32.3840   20.9560   27.5600 C   0  0  0  0  0
   32.2320   19.5040   27.9530 C   0  0  0  0  0
   33.2910   18.8020   27.3070 O   0  0  0  0  0
   32.6030   21.1240   26.0040 C   0  0  0  0  0
   31.4330   20.6620   25.3100 O   0  0  0  0  0
   32.8960   22.5870   25.6160 C   0  0  0  0  0
   33.2860   22.6240   24.2300 O   0  0  0  0  0
   34.0090   23.1690   26.5630 C   0  0  0  0  0
   34.2710   24.5520   26.2850 O   0  0  0  0  0
   37.1357   28.4501   37.1457 H   0  0  0  0  0
   38.7181   29.3306   38.8468 H   0  0  0  0  0
   41.0302   28.4304   38.9810 H   0  0  0  0  0
   41.7584   26.6079   37.4453 H   0  0  0  0  0
   40.1920   25.7724   35.7071 H   0  0  0  0  0
   39.1186   26.5309   33.7318 H   0  0  0  0  0
   37.5634   25.6649   32.0035 H   0  0  0  0  0
   35.9565   26.4721   36.6623 H   0  0  0  0  0
   34.3916   25.6323   34.9384 H   0  0  0  0  0
   34.3226   26.0334   32.2135 H   0  0  0  0  0
   34.4662   24.2728   32.9715 H   0  0  0  0  0
   35.8388   23.6904   31.2662 H   0  0  0  0  0
   35.6349   25.4043   30.5132 H   0  0  0  0  0
   35.4794   23.5826   28.7523 H   0  0  0  0  0
   32.5754   23.4904   28.1087 H   0  0  0  0  0
   31.4569   21.4776   27.7976 H   0  0  0  0  0
   31.2605   19.1149   27.6483 H   0  0  0  0  0
   32.2841   19.3831   29.0350 H   0  0  0  0  0
   33.2365   17.8693   27.5276 H   0  0  0  0  0
   33.4719   20.5306   25.7194 H   0  0  0  0  0
   31.5627   20.7627   24.3642 H   0  0  0  0  0
   32.0094   23.2093   25.7381 H   0  0  0  0  0
   33.4716   23.5307   23.9751 H   0  0  0  0  0
   34.9444   22.6349   26.3957 H   0  0  0  0  0
   34.5631   24.6446   25.3752 H   0  0  0  0  0
  1  2  4  0  0  0
  1  6  4  0  0  0
  2  3  4  0  0  0
  3  4  4  0  0  0
  4  5  4  0  0  0
  5  6  4  0  0  0
  6  7  1  0  0  0
  7  8  4  0  0  0
  7 10  4  0  0  0
  8  9  4  0  0  0
  9 12  4  0  0  0
 10 11  4  0  0  0
 11 12  4  0  0  0
 12 13  1  0  0  0
 13 14  1  0  0  0
 14 15  1  0  0  0
 15 16  2  0  0  0
 15 17  1  0  0  0
 17 18  1  0  0  0
 18 19  1  0  0  0
 18 27  1  0  0  0
 19 20  1  0  0  0
 20 21  1  0  0  0
 20 23  1  0  0  0
 21 22  1  0  0  0
 23 24  1  0  0  0
 23 25  1  0  0  0
 25 26  1  0  0  0
 25 27  1  0  0  0
 27 28  1  0  0  0
  1 29  1  0  0  0
  2 30  1  0  0  0
  3 31  1  0  0  0
  4 32  1  0  0  0
  5 33  1  0  0  0
  8 34  1  0  0  0
  9 35  1  0  0  0
 10 36  1  0  0  0
 11 37  1  0  0  0
 13 38  1  0  0  0
 13 39  1  0  0  0
 14 40  1  0  0  0
 14 41  1  0  0  0
 17 42  1  0  0  0
 18 43  1  0  0  0
 20 44  1  0  0  0
 21 45  1  0  0  0
 21 46  1  0  0  0
 22 47  1  0  0  0
 23 48  1  0  0  0
 24 49  1  0  0  0
 25 50  1  0  0  0
 26 51  1  0  0  0
 27 52  1  0  0  0
 28 53  1  0  0  0
M  END
$$$$
