6fdc_ligand
  -I-interpret- 

 61 64  0  0  0  0  0  0  0  0999 V2000
   30.2120  229.5430  146.8830 C   0  0  0  0  0
   28.9900  228.8340  147.2670 C   0  0  0  0  0
   25.3070  228.2650  149.9520 C   0  0  0  0  0
   25.7940  228.5640  153.6730 C   0  0  0  0  0
   25.4630  230.6750  152.7070 C   0  0  0  0  0
   27.0600  227.7590  147.3840 C   0  0  0  0  0
   27.9890  228.2330  146.4790 C   0  0  0  0  0
   34.2600  232.1830  145.1330 C   0  0  0  0  0
   33.7080  231.7940  146.3720 O   0  0  0  0  0
   32.5650  231.0330  146.4270 C   0  0  0  0  0
   32.0620  230.8730  147.7170 C   0  0  0  0  0
   32.7770  231.4600  148.7100 O   0  0  0  0  0
   32.1050  231.6070  149.9400 C   0  0  0  0  0
   33.0120  232.4860  150.7680 C   0  0  0  0  0
   34.0750  231.4770  151.1930 C   0  0  0  0  0
   33.2740  230.2660  151.6380 C   0  0  0  0  0
   32.0010  230.3550  150.8150 C   0  0  0  0  0
   30.9030  230.1430  147.9280 C   0  0  0  0  0
   30.7040  229.7090  145.5840 C   0  0  0  0  0
   31.8780  230.4520  145.3580 C   0  0  0  0  0
   28.6410  228.7480  148.5750 N   0  0  0  0  0
   27.4740  228.0960  148.6060 N   0  0  0  0  0
   26.7910  227.7930  149.8550 C   0  0  0  0  0
   24.9220  228.6450  151.4250 C   0  0  0  0  0
   25.8780  229.2900  152.3810 N   0  3  0  0  0
   26.6020  229.1630  154.8420 C   0  0  0  0  0
   26.6030  230.5940  154.9760 O   0  0  0  0  0
   26.2720  231.3710  153.8140 C   0  0  0  0  0
   34.7520  231.0830  144.5180 F   0  0  0  0  0
   33.3480  232.7700  144.3280 F   0  0  0  0  0
   24.9600  229.3350  149.0440 O   0  0  0  0  0
   24.7172  227.4040  149.6374 H   0  0  0  0  0
   26.2078  227.5718  153.4929 H   0  0  0  0  0
   24.7474  228.5997  153.9756 H   0  0  0  0  0
   24.4364  230.6125  153.0680 H   0  0  0  0  0
   25.6109  231.2627  151.8010 H   0  0  0  0  0
   26.1510  227.2080  147.1427 H   0  0  0  0  0
   27.9551  228.1584  145.3921 H   0  0  0  0  0
   35.0453  232.9140  145.3258 H   0  0  0  0  0
   31.0987  231.9460  149.6938 H   0  0  0  0  0
   32.5114  232.9802  151.6007 H   0  0  0  0  0
   33.4079  233.3470  150.2293 H   0  0  0  0  0
   34.7170  231.8619  151.9853 H   0  0  0  0  0
   34.7672  231.2406  150.3849 H   0  0  0  0  0
   33.0773  230.2683  152.7101 H   0  0  0  0  0
   33.8096  229.3306  151.4761 H   0  0  0  0  0
   31.8847  229.4657  150.1955 H   0  0  0  0  0
   31.1294  230.4168  151.4667 H   0  0  0  0  0
   30.5225  230.0365  148.9439 H   0  0  0  0  0
   30.1756  229.2607  144.7426 H   0  0  0  0  0
   32.2537  230.5749  144.3422 H   0  0  0  0  0
   26.7737  226.7064  149.9397 H   0  0  0  0  0
   27.3335  228.3229  150.6379 H   0  0  0  0  0
   24.7263  227.6772  151.8867 H   0  0  0  0  0
   24.1547  229.4074  151.2909 H   0  0  0  0  0
   26.8032  229.2760  151.9518 H   0  0  0  0  0
   27.6392  228.8826  154.6586 H   0  0  0  0  0
   26.1351  228.7815  155.7501 H   0  0  0  0  0
   25.6416  232.1846  154.1729 H   0  0  0  0  0
   27.2247  231.6404  153.3581 H   0  0  0  0  0
   24.0363  229.5677  149.1636 H   0  0  0  0  0
  2  1  1  0  0  0
  1 18  4  0  0  0
  1 19  4  0  0  0
  2  7  4  0  0  0
 21  2  4  0  0  0
  3 23  1  0  0  0
 24  3  1  0  0  0
  3 31  1  0  0  0
 25  4  1  0  0  0
  4 26  1  0  0  0
 25  5  1  0  0  0
  5 28  1  0  0  0
  6  7  4  0  0  0
 22  6  4  0  0  0
  9  8  1  0  0  0
  8 29  1  0  0  0
  8 30  1  0  0  0
 10  9  1  0  0  0
 11 10  4  0  0  0
 20 10  4  0  0  0
 11 12  1  0  0  0
 18 11  4  0  0  0
 12 13  1  0  0  0
 13 14  1  0  0  0
 13 17  1  0  0  0
 14 15  1  0  0  0
 16 15  1  0  0  0
 17 16  1  0  0  0
 19 20  4  0  0  0
 22 21  4  0  0  0
 23 22  1  0  0  0
 24 25  1  0  0  0
 26 27  1  0  0  0
 27 28  1  0  0  0
  3 32  1  0  0  0
  4 33  1  0  0  0
  4 34  1  0  0  0
  5 35  1  0  0  0
  5 36  1  0  0  0
  6 37  1  0  0  0
  7 38  1  0  0  0
  8 39  1  0  0  0
 13 40  1  0  0  0
 14 41  1  0  0  0
 14 42  1  0  0  0
 15 43  1  0  0  0
 15 44  1  0  0  0
 16 45  1  0  0  0
 16 46  1  0  0  0
 17 47  1  0  0  0
 17 48  1  0  0  0
 18 49  1  0  0  0
 19 50  1  0  0  0
 20 51  1  0  0  0
 23 52  1  0  0  0
 23 53  1  0  0  0
 24 54  1  0  0  0
 24 55  1  0  0  0
 25 56  1  0  0  0
 26 57  1  0  0  0
 26 58  1  0  0  0
 28 59  1  0  0  0
 28 60  1  0  0  0
 31 61  1  0  0  0
M  END
$$$$
