3cm7_ligand
  -I-interpret- 

 73 76  0  0  0  0  0  0  0  0999 V2000
  -38.5570  -10.9400  -42.7580 C   0  0  0  0  0
  -37.6110  -10.1650  -43.6750 C   0  0  0  0  0
  -37.5580   -8.6380  -43.4180 C   0  0  0  0  0
  -37.0540   -8.3180  -42.0730 N   0  3  0  0  0
  -38.9310   -8.0150  -43.5830 C   0  0  0  0  0
  -39.7940   -8.1710  -42.7210 O   0  0  0  0  0
  -39.1110   -7.3020  -44.6850 N   0  0  0  0  0
  -40.4310   -6.6850  -44.8840 C   0  0  0  0  0
  -41.3230   -7.5810  -45.7910 C   0  0  0  0  0
  -40.8130   -8.4850  -46.4650 O   0  0  0  0  0
  -42.6550   -7.4220  -45.7840 N   0  0  0  0  0
  -40.3640   -5.1580  -45.1540 C   0  0  0  0  0
  -39.6920   -4.7760  -46.4840 C   0  0  0  0  0
  -38.2780   -4.6410  -46.2640 O   0  0  0  0  0
  -41.7230   -4.4350  -44.9270 C   0  0  0  0  0
  -42.9740   -5.0480  -45.5900 C   0  0  0  0  0
  -43.3780   -6.4040  -45.0050 C   0  0  0  0  0
  -44.8650   -6.6350  -45.2630 C   0  0  0  0  0
  -44.9590   -8.0540  -45.8180 C   0  0  0  0  0
  -43.6120   -8.2710  -46.5380 C   0  0  0  0  0
  -43.7330   -7.9620  -48.0260 C   0  0  0  0  0
  -44.6220   -7.2330  -48.4540 O   0  0  0  0  0
  -42.8390   -8.5630  -48.7930 N   0  0  0  0  0
  -42.8660   -8.3670  -50.2510 C   0  0  0  0  0
  -41.7410   -7.4200  -50.7280 C   0  0  0  0  0
  -41.2400   -7.5010  -52.0360 C   0  0  0  0  0
  -40.2350   -6.6320  -52.4660 C   0  0  0  0  0
  -39.7320   -5.6660  -51.5910 C   0  0  0  0  0
  -40.2320   -5.5710  -50.2870 C   0  0  0  0  0
  -41.2370   -6.4430  -49.8570 C   0  0  0  0  0
  -42.8290   -9.7410  -50.9180 C   0  0  0  0  0
  -43.9260  -10.1550  -51.6650 C   0  0  0  0  0
  -43.9070  -11.4110  -52.2750 C   0  0  0  0  0
  -42.7980  -12.2510  -52.1330 C   0  0  0  0  0
  -41.7020  -11.8310  -51.3780 C   0  0  0  0  0
  -41.7240  -10.5770  -50.7690 C   0  0  0  0  0
  -38.2464  -10.8070  -41.7217 H   0  0  0  0  0
  -39.5725  -10.5651  -42.8853 H   0  0  0  0  0
  -38.5242  -11.9987  -43.0154 H   0  0  0  0  0
  -37.9766  -10.3010  -44.6928 H   0  0  0  0  0
  -36.6081  -10.5506  -43.4919 H   0  0  0  0  0
  -36.8694   -8.2258  -44.1555 H   0  0  0  0  0
  -36.1300   -8.7322  -41.9500 H   0  0  0  0  0
  -36.9909   -7.3055  -41.9668 H   0  0  0  0  0
  -37.6929   -8.6953  -41.3731 H   0  0  0  0  0
  -38.3632   -7.1855  -45.3688 H   0  0  0  0  0
  -40.9857   -6.6675  -43.9459 H   0  0  0  0  0
  -39.6891   -4.7770  -44.3876 H   0  0  0  0  0
  -40.1015   -3.8339  -46.8485 H   0  0  0  0  0
  -39.8786   -5.5498  -47.2287 H   0  0  0  0  0
  -37.8483   -4.4025  -47.0887 H   0  0  0  0  0
  -41.6083   -3.4471  -45.3730 H   0  0  0  0  0
  -41.9058   -4.4834  -43.8535 H   0  0  0  0  0
  -42.7416   -5.2035  -46.6435 H   0  0  0  0  0
  -43.8026   -4.3602  -45.4214 H   0  0  0  0  0
  -43.1618   -6.4461  -43.9375 H   0  0  0  0  0
  -45.2707   -5.9025  -45.9609 H   0  0  0  0  0
  -45.4538   -6.5192  -44.3531 H   0  0  0  0  0
  -45.8083   -8.1765  -46.4902 H   0  0  0  0  0
  -45.1286   -8.7913  -45.0334 H   0  0  0  0  0
  -43.2642   -9.3040  -46.5362 H   0  0  0  0  0
  -42.1294   -9.1635  -48.3731 H   0  0  0  0  0
  -43.7875   -7.8646  -50.5450 H   0  0  0  0  0
  -41.6385   -8.2483  -52.7222 H   0  0  0  0  0
  -39.8443   -6.7071  -53.4808 H   0  0  0  0  0
  -38.9488   -4.9851  -51.9243 H   0  0  0  0  0
  -39.8376   -4.8166  -49.6062 H   0  0  0  0  0
  -41.6294   -6.3633  -48.8432 H   0  0  0  0  0
  -44.7938   -9.5045  -51.7736 H   0  0  0  0  0
  -44.7623  -11.7389  -52.8658 H   0  0  0  0  0
  -42.7896  -13.2308  -52.6106 H   0  0  0  0  0
  -40.8335  -12.4798  -51.2650 H   0  0  0  0  0
  -40.8724  -10.2487  -50.1731 H   0  0  0  0  0
  1  2  1  0  0  0
  2  3  1  0  0  0
  3  4  1  0  0  0
  3  5  1  0  0  0
  5  6  2  0  0  0
  5  7  1  0  0  0
  7  8  1  0  0  0
  8  9  1  0  0  0
  8 12  1  0  0  0
  9 10  2  0  0  0
  9 11  1  0  0  0
 11 17  1  0  0  0
 11 20  1  0  0  0
 12 13  1  0  0  0
 12 15  1  0  0  0
 13 14  1  0  0  0
 15 16  1  0  0  0
 16 17  1  0  0  0
 17 18  1  0  0  0
 18 19  1  0  0  0
 19 20  1  0  0  0
 20 21  1  0  0  0
 21 22  2  0  0  0
 21 23  1  0  0  0
 23 24  1  0  0  0
 24 25  1  0  0  0
 24 31  1  0  0  0
 25 26  4  0  0  0
 25 30  4  0  0  0
 26 27  4  0  0  0
 27 28  4  0  0  0
 28 29  4  0  0  0
 29 30  4  0  0  0
 31 32  4  0  0  0
 31 36  4  0  0  0
 32 33  4  0  0  0
 33 34  4  0  0  0
 34 35  4  0  0  0
 35 36  4  0  0  0
  1 37  1  0  0  0
  1 38  1  0  0  0
  1 39  1  0  0  0
  2 40  1  0  0  0
  2 41  1  0  0  0
  3 42  1  0  0  0
  4 43  1  0  0  0
  4 44  1  0  0  0
  4 45  1  0  0  0
  7 46  1  0  0  0
  8 47  1  0  0  0
 12 48  1  0  0  0
 13 49  1  0  0  0
 13 50  1  0  0  0
 14 51  1  0  0  0
 15 52  1  0  0  0
 15 53  1  0  0  0
 16 54  1  0  0  0
 16 55  1  0  0  0
 17 56  1  0  0  0
 18 57  1  0  0  0
 18 58  1  0  0  0
 19 59  1  0  0  0
 19 60  1  0  0  0
 20 61  1  0  0  0
 23 62  1  0  0  0
 24 63  1  0  0  0
 26 64  1  0  0  0
 27 65  1  0  0  0
 28 66  1  0  0  0
 29 67  1  0  0  0
 30 68  1  0  0  0
 32 69  1  0  0  0
 33 70  1  0  0  0
 34 71  1  0  0  0
 35 72  1  0  0  0
 36 73  1  0  0  0
M  END
$$$$
