3g2u_ligand
  -I-interpret- 

111110  0  0  0  0  0  0  0  0999 V2000
  -12.1160   -6.5590   -7.1490 N   0  3  0  0  0
  -11.4160   -6.4270   -5.8400 C   0  0  0  0  0
  -10.3950   -7.5500   -5.6630 C   0  0  0  0  0
   -9.6830   -7.5960   -4.6540 O   0  0  0  0  0
  -12.4290   -6.4320   -4.6860 C   0  0  0  0  0
  -11.7880   -6.5220   -3.4210 O   0  0  0  0  0
  -10.3560   -8.4720   -6.6250 N   0  0  0  0  0
   -9.1740   -9.3140   -6.8490 C   0  0  0  0  0
   -9.2710  -10.1750   -8.1110 C   0  0  0  0  0
  -10.3510  -10.6410   -8.4830 O   0  0  0  0  0
   -8.8990  -10.2070   -5.6340 C   0  0  0  0  0
   -7.4770  -10.7350   -5.6090 C   0  0  0  0  0
   -6.6390  -10.2640   -6.4160 O   0  0  0  0  0
   -7.1830  -11.5810   -4.7420 O   0  0  0  0  0
   -8.1160  -10.4530   -8.7080 N   0  0  0  0  0
   -8.0040  -11.4520   -9.7650 C   0  0  0  0  0
   -8.3490  -12.8450   -9.2550 C   0  0  0  0  0
   -8.2990  -13.1080   -8.0570 O   0  0  0  0  0
   -6.5960  -11.4420  -10.3680 C   0  0  0  0  0
   -6.4490  -10.5160  -11.5660 C   0  0  0  0  0
   -4.9980  -10.2210  -11.9110 C   0  0  0  0  0
   -4.2360  -11.1730  -12.2280 O   0  0  0  0  0
   -4.6260   -9.0250  -11.8760 O   0  0  0  0  0
   -8.6560  -13.7470  -10.1790 N   0  0  0  0  0
   -8.6380  -15.1710   -9.8850 C   0  0  0  0  0
   -7.2100  -15.7100   -9.8270 C   0  0  0  0  0
   -6.3110  -15.2110  -10.5070 O   0  0  0  0  0
   -9.4610  -15.9570  -10.9170 C   0  0  0  0  0
  -10.9040  -15.4660  -11.0170 C   0  0  0  0  0
  -11.4000  -15.3040  -12.1530 O   0  0  0  0  0
  -11.5370  -15.2250   -9.9630 O   0  0  0  0  0
   -7.0200  -16.7410   -9.0130 N   0  0  0  0  0
   -5.7700  -17.4620   -8.9810 C   0  0  0  0  0
   -5.4070  -17.9690  -10.3790 C   0  0  0  0  0
   -6.1860  -18.6730  -11.0170 O   0  0  0  0  0
   -5.8470  -18.6240   -7.9920 C   0  0  0  0  0
   -4.6120  -19.5230   -7.9640 C   0  0  0  0  0
   -3.3380  -18.7140   -7.6780 C   0  0  0  0  0
   -4.7920  -20.6560   -6.9610 C   0  0  0  0  0
   -4.2160  -17.6010  -10.8390 N   0  0  0  0  0
   -3.6920  -18.0700  -12.1090 C   0  0  0  0  0
   -3.2250  -19.5120  -11.9820 C   0  0  0  0  0
   -2.2640  -19.8010  -11.2750 O   0  0  0  0  0
   -2.5340  -17.1690  -12.5570 C   0  0  0  0  0
   -1.7870  -17.4930  -13.8510 C   0  0  0  0  0
   -2.7350  -17.4130  -15.0490 C   0  0  0  0  0
   -0.6140  -16.5420  -14.0330 C   0  0  0  0  0
   -3.9100  -20.4200  -12.6660 N   0  0  0  0  0
   -3.4570  -21.8090  -12.7640 C   0  0  0  0  0
   -2.1890  -21.9740  -13.6240 C   0  0  0  0  0
   -1.0850  -22.1500  -13.0970 O   0  0  0  0  0
   -4.5860  -22.7020  -13.2740 C   0  0  0  0  0
   -5.8220  -22.6820  -12.3720 C   0  0  0  0  0
   -5.5620  -23.2710  -10.9870 C   0  0  0  0  0
   -4.8430  -24.2900  -10.8970 O   0  0  0  0  0
   -6.1700  -22.7890  -10.0050 O   0  0  0  0  0
   -2.2120  -21.8630  -14.8560 O   0  0  0  0  0
  -11.4288   -6.5538   -7.9027 H   0  0  0  0  0
  -12.6366   -7.4360   -7.1679 H   0  0  0  0  0
  -12.7601   -5.7772   -7.2691 H   0  0  0  0  0
  -10.8850   -5.4752   -5.8273 H   0  0  0  0  0
  -13.0778   -7.2999   -4.8036 H   0  0  0  0  0
  -12.9909   -5.4986   -4.7195 H   0  0  0  0  0
  -12.4511   -6.5224   -2.7268 H   0  0  0  0  0
  -11.1723   -8.5964   -7.2239 H   0  0  0  0  0
   -8.3427   -8.6242   -6.9948 H   0  0  0  0  0
   -9.5736  -11.0616   -5.6859 H   0  0  0  0  0
   -9.0506   -9.6081   -4.7360 H   0  0  0  0  0
   -7.0731   -9.6322   -6.9940 H   0  0  0  0  0
   -7.2781   -9.9496   -8.4164 H   0  0  0  0  0
   -8.7227  -11.1915  -10.5419 H   0  0  0  0  0
   -6.3816  -12.4542  -10.7108 H   0  0  0  0  0
   -5.9138  -11.0861   -9.5959 H   0  0  0  0  0
   -6.9309   -9.5705  -11.3172 H   0  0  0  0  0
   -6.9020  -11.0095  -12.4259 H   0  0  0  0  0
   -4.7241  -11.9987  -12.1890 H   0  0  0  0  0
   -8.9102  -13.4344  -11.1161 H   0  0  0  0  0
   -9.0922  -15.3058   -8.9034 H   0  0  0  0  0
   -9.4834  -17.0005  -10.6029 H   0  0  0  0  0
   -8.9929  -15.8215  -11.8920 H   0  0  0  0  0
  -10.9787  -15.4145   -9.2054 H   0  0  0  0  0
   -7.7769  -17.0313   -8.3940 H   0  0  0  0  0
   -4.9874  -16.7797   -8.6491 H   0  0  0  0  0
   -6.6860  -19.2477   -8.3006 H   0  0  0  0  0
   -5.9441  -18.1879   -6.9978 H   0  0  0  0  0
   -4.4959  -19.9676   -8.9524 H   0  0  0  0  0
   -3.2033  -17.9634   -8.4568 H   0  0  0  0  0
   -3.4312  -18.2221   -6.7098 H   0  0  0  0  0
   -2.4786  -19.3844   -7.6652 H   0  0  0  0  0
   -4.9463  -20.2379   -5.9663 H   0  0  0  0  0
   -5.6578  -21.2551   -7.2430 H   0  0  0  0  0
   -3.9001  -21.2827   -6.9588 H   0  0  0  0  0
   -3.6485  -16.9650  -10.2787 H   0  0  0  0  0
   -4.4814  -18.0276  -12.8594 H   0  0  0  0  0
   -1.7847  -17.2697  -11.7718 H   0  0  0  0  0
   -2.9931  -16.1971  -12.7379 H   0  0  0  0  0
   -1.4014  -18.5105  -13.7865 H   0  0  0  0  0
   -3.5457  -18.1297  -14.9177 H   0  0  0  0  0
   -3.1463  -16.4060  -15.1186 H   0  0  0  0  0
   -2.1861  -17.6466  -15.9613 H   0  0  0  0  0
   -0.9826  -15.5173  -14.0803 H   0  0  0  0  0
    0.0697  -16.6450  -13.1904 H   0  0  0  0  0
   -0.0915  -16.7845  -14.9583 H   0  0  0  0  0
   -4.7728  -20.1436  -13.1347 H   0  0  0  0  0
   -3.1814  -22.1224  -11.7570 H   0  0  0  0  0
   -4.2122  -23.7255  -13.3006 H   0  0  0  0  0
   -4.8853  -22.3301  -14.2539 H   0  0  0  0  0
   -6.5914  -23.2879  -12.8506 H   0  0  0  0  0
   -6.1186  -21.6416  -12.2393 H   0  0  0  0  0
   -6.6622  -22.0134  -10.2840 H   0  0  0  0  0
   -3.1171  -21.7311  -15.1474 H   0  0  0  0  0
  1  2  1  0  0  0
  2  3  1  0  0  0
  2  5  1  0  0  0
  3  4  2  0  0  0
  3  7  1  0  0  0
  5  6  1  0  0  0
  7  8  1  0  0  0
  8  9  1  0  0  0
  8 11  1  0  0  0
  9 10  2  0  0  0
  9 15  1  0  0  0
 11 12  1  0  0  0
 12 13  1  0  0  0
 12 14  2  0  0  0
 15 16  1  0  0  0
 16 17  1  0  0  0
 16 19  1  0  0  0
 17 18  2  0  0  0
 17 24  1  0  0  0
 19 20  1  0  0  0
 20 21  1  0  0  0
 21 22  1  0  0  0
 21 23  2  0  0  0
 24 25  1  0  0  0
 25 26  1  0  0  0
 25 28  1  0  0  0
 26 27  2  0  0  0
 26 32  1  0  0  0
 28 29  1  0  0  0
 29 30  2  0  0  0
 29 31  1  0  0  0
 32 33  1  0  0  0
 33 34  1  0  0  0
 33 36  1  0  0  0
 34 35  2  0  0  0
 34 40  1  0  0  0
 36 37  1  0  0  0
 37 38  1  0  0  0
 37 39  1  0  0  0
 40 41  1  0  0  0
 41 42  1  0  0  0
 41 44  1  0  0  0
 42 43  2  0  0  0
 42 48  1  0  0  0
 44 45  1  0  0  0
 45 46  1  0  0  0
 45 47  1  0  0  0
 48 49  1  0  0  0
 49 50  1  0  0  0
 49 52  1  0  0  0
 50 51  2  0  0  0
 50 57  1  0  0  0
 52 53  1  0  0  0
 53 54  1  0  0  0
 54 55  2  0  0  0
 54 56  1  0  0  0
  1 58  1  0  0  0
  1 59  1  0  0  0
  1 60  1  0  0  0
  2 61  1  0  0  0
  5 62  1  0  0  0
  5 63  1  0  0  0
  6 64  1  0  0  0
  7 65  1  0  0  0
  8 66  1  0  0  0
 11 67  1  0  0  0
 11 68  1  0  0  0
 13 69  1  0  0  0
 15 70  1  0  0  0
 16 71  1  0  0  0
 19 72  1  0  0  0
 19 73  1  0  0  0
 20 74  1  0  0  0
 20 75  1  0  0  0
 22 76  1  0  0  0
 24 77  1  0  0  0
 25 78  1  0  0  0
 28 79  1  0  0  0
 28 80  1  0  0  0
 31 81  1  0  0  0
 32 82  1  0  0  0
 33 83  1  0  0  0
 36 84  1  0  0  0
 36 85  1  0  0  0
 37 86  1  0  0  0
 38 87  1  0  0  0
 38 88  1  0  0  0
 38 89  1  0  0  0
 39 90  1  0  0  0
 39 91  1  0  0  0
 39 92  1  0  0  0
 40 93  1  0  0  0
 41 94  1  0  0  0
 44 95  1  0  0  0
 44 96  1  0  0  0
 45 97  1  0  0  0
 46 98  1  0  0  0
 46 99  1  0  0  0
 46100  1  0  0  0
 47101  1  0  0  0
 47102  1  0  0  0
 47103  1  0  0  0
 48104  1  0  0  0
 49105  1  0  0  0
 52106  1  0  0  0
 52107  1  0  0  0
 53108  1  0  0  0
 53109  1  0  0  0
 56110  1  0  0  0
 57111  1  0  0  0
M  END
$$$$
