### 
### Created by X-TOOL on Mon Sep 10 21:13:01 2018
### 

@<TRIPOS>MOLECULE
3g2u_ligand
  106   105     1     0     0
SMALL
GAST_HUCK


@<TRIPOS>ATOM
      1 N         -12.1160   -6.5590   -7.1490 N.4       1 SER         0.2396
      2 CA        -11.4160   -6.4270   -5.8400 C.3       1 SER         0.0885
      3 C         -10.3950   -7.5500   -5.6630 C.2       1 SER         0.2291
      4 O          -9.6830   -7.5960   -4.6540 O.2       1 SER        -0.3906
      5 CB        -12.4290   -6.4320   -4.6860 C.3       1 SER         0.1041
      6 OG        -11.7880   -6.5220   -3.4210 O.3       1 SER        -0.3870
      7 N         -10.3560   -8.4720   -6.6250 N.am      1 ASP        -0.2594
      8 CA         -9.1740   -9.3140   -6.8490 C.3       1 ASP         0.1424
      9 C          -9.2710  -10.1750   -8.1110 C.2       1 ASP         0.2056
     10 O         -10.3510  -10.6410   -8.4830 O.2       1 ASP        -0.3943
     11 CB         -8.8990  -10.2070   -5.6340 C.3       1 ASP         0.0406
     12 CG         -7.4770  -10.7350   -5.6090 C.2       1 ASP         0.0393
     13 OD1        -6.6390  -10.2640   -6.4160 O.co2     1 ASP        -0.5688
     14 OD2        -7.1830  -11.5810   -4.7420 O.co2     1 ASP        -0.5688
     15 N          -8.1160  -10.4530   -8.7080 N.am      1 GLU        -0.2635
     16 CA         -8.0040  -11.4520   -9.7650 C.3       1 GLU         0.1325
     17 C          -8.3490  -12.8450   -9.2550 C.2       1 GLU         0.2041
     18 O          -8.2990  -13.1080   -8.0570 O.2       1 GLU        -0.3944
     19 CB         -6.5960  -11.4420  -10.3680 C.3       1 GLU        -0.0008
     20 CG         -6.4490  -10.5160  -11.5660 C.3       1 GLU         0.0044
     21 CD         -4.9980  -10.2210  -11.9110 C.2       1 GLU         0.0350
     22 OE1        -4.2360  -11.1730  -12.2280 O.co2     1 GLU        -0.5690
     23 OE2        -4.6260   -9.0250  -11.8760 O.co2     1 GLU        -0.5690
     24 N          -8.6560  -13.7470  -10.1790 N.am      1 ASP        -0.2622
     25 CA         -8.6380  -15.1710   -9.8850 C.3       1 ASP         0.1423
     26 C          -7.2100  -15.7100   -9.8270 C.2       1 ASP         0.2056
     27 O          -6.3110  -15.2110  -10.5070 O.2       1 ASP        -0.3943
     28 CB         -9.4610  -15.9570  -10.9170 C.3       1 ASP         0.0406
     29 CG        -10.9040  -15.4660  -11.0170 C.2       1 ASP         0.0393
     30 OD1       -11.4000  -15.3040  -12.1530 O.co2     1 ASP        -0.5688
     31 OD2       -11.5370  -15.2250   -9.9630 O.co2     1 ASP        -0.5688
     32 N          -7.0200  -16.7410   -9.0130 N.am      1 LEU        -0.2636
     33 CA         -5.7700  -17.4620   -8.9810 C.3       1 LEU         0.1312
     34 C          -5.4070  -17.9690  -10.3790 C.2       1 LEU         0.2039
     35 O          -6.1860  -18.6730  -11.0170 O.2       1 LEU        -0.3944
     36 CB         -5.8470  -18.6240   -7.9920 C.3       1 LEU        -0.0101
     37 CG         -4.6120  -19.5230   -7.9640 C.3       1 LEU        -0.0425
     38 CD1        -3.3380  -18.7140   -7.6780 C.3       1 LEU        -0.0625
     39 CD2        -4.7920  -20.6560   -6.9610 C.3       1 LEU        -0.0625
     40 N          -4.2160  -17.6010  -10.8390 N.am      1 LEU        -0.2637
     41 CA         -3.6920  -18.0700  -12.1090 C.3       1 LEU         0.1312
     42 C          -3.2250  -19.5120  -11.9820 C.2       1 LEU         0.2034
     43 O          -2.2640  -19.8010  -11.2750 O.2       1 LEU        -0.3944
     44 CB         -2.5340  -17.1690  -12.5570 C.3       1 LEU        -0.0101
     45 CG         -1.7870  -17.4930  -13.8510 C.3       1 LEU        -0.0425
     46 CD1        -2.7350  -17.4130  -15.0490 C.3       1 LEU        -0.0625
     47 CD2        -0.6140  -16.5420  -14.0330 C.3       1 LEU        -0.0625
     48 N          -3.9100  -20.4200  -12.6660 N.am      1 GLU        -0.2694
     49 CA         -3.4570  -21.8090  -12.7640 C.3       1 GLU         0.0959
     50 C          -2.1890  -21.9740  -13.6240 C.2       1 GLU         0.0602
     51 O          -1.0850  -22.1500  -13.0970 O.co2     1 GLU        -0.5666
     52 CB         -4.5860  -22.7020  -13.2740 C.3       1 GLU        -0.0064
     53 CG         -5.8220  -22.6820  -12.3720 C.3       1 GLU         0.0038
     54 CD         -5.5620  -23.2710  -10.9870 C.2       1 GLU         0.0350
     55 OE1        -4.8430  -24.2900  -10.8970 O.co2     1 GLU        -0.5690
     56 OE2        -6.1700  -22.7890  -10.0050 O.co2     1 GLU        -0.5690
     57 OXT        -2.2120  -21.8630  -14.8560 O.co2     1 GLU        -0.5666
     58 H1        -12.7848   -5.8115   -7.2492 H         1 SER         0.2016
     59 H2        -12.5947   -7.4453   -7.1862 H         1 SER         0.2016
     60 H3        -11.4421   -6.5094   -7.8969 H         1 SER         0.2016
     61 H4        -10.8806   -5.4662   -5.8277 H         1 SER         0.1122
     62 H5        -13.1015   -7.2941   -4.8064 H         1 SER         0.0640
     63 H6        -13.0150   -5.5018   -4.7227 H         1 SER         0.0640
     64 H7        -11.2837   -7.3260   -3.3793 H         1 SER         0.2099
     65 H8        -11.1563   -8.5940   -7.2121 H         1 ASP         0.1886
     66 H9         -8.3139   -8.6400   -6.9752 H         1 ASP         0.0819
     67 H10        -9.5916  -11.0611   -5.6603 H         1 ASP         0.0478
     68 H11        -9.0736   -9.6214   -4.7194 H         1 ASP         0.0478
     69 H12        -7.2946   -9.9595   -8.4221 H         1 GLU         0.1883
     70 H13        -8.7207  -11.1910  -10.5576 H         1 GLU         0.0801
     71 H14        -6.3481  -12.4649  -10.6876 H         1 GLU         0.0330
     72 H15        -5.8879  -11.1189   -9.5907 H         1 GLU         0.0330
     73 H16        -6.9561   -9.5664  -11.3400 H         1 GLU         0.0433
     74 H17        -6.9274  -10.9891  -12.4362 H         1 GLU         0.0433
     75 H18        -8.9052  -13.4405  -11.0977 H         1 ASP         0.1884
     76 H19        -9.0982  -15.3180   -8.8968 H         1 ASP         0.0819
     77 H20        -9.4695  -17.0178  -10.6263 H         1 ASP         0.0478
     78 H21        -8.9840  -15.8507  -11.9024 H         1 ASP         0.0478
     79 H22        -7.7621  -17.0256   -8.4062 H         1 LEU         0.1883
     80 H23        -4.9805  -16.7732   -8.6460 H         1 LEU         0.0800
     81 H24        -6.7157  -19.2438   -8.2589 H         1 LEU         0.0315
     82 H25        -5.9898  -18.2070   -6.9842 H         1 LEU         0.0315
     83 H26        -4.5027  -19.9736   -8.9615 H         1 LEU         0.0298
     84 H27        -2.4700  -19.3895   -7.6648 H         1 LEU         0.0232
     85 H28        -3.4308  -18.2171   -6.7010 H         1 LEU         0.0232
     86 H29        -3.2008  -17.9561   -8.4634 H         1 LEU         0.0232
     87 H30        -5.7117  -21.2116   -7.1966 H         1 LEU         0.0232
     88 H31        -4.8656  -20.2388   -5.9458 H         1 LEU         0.0232
     89 H32        -3.9288  -21.3355   -7.0166 H         1 LEU         0.0232
     90 H33        -3.6597  -16.9775  -10.2897 H         1 LEU         0.1883
     91 H34        -4.4911  -18.0222  -12.8634 H         1 LEU         0.0800
     92 H35        -1.7898  -17.1774  -11.7470 H         1 LEU         0.0315
     93 H36        -2.9428  -16.1539  -12.6689 H         1 LEU         0.0315
     94 H37        -1.3973  -18.5194  -13.7826 H         1 LEU         0.0298
     95 H38        -2.1822  -17.6485  -15.9704 H         1 LEU         0.0232
     96 H39        -3.1507  -16.3971  -15.1204 H         1 LEU         0.0232
     97 H40        -3.5537  -18.1358  -14.9177 H         1 LEU         0.0232
     98 H41         0.0549  -16.6142  -13.1628 H         1 LEU         0.0232
     99 H42        -0.9880  -15.5115  -14.1235 H         1 LEU         0.0232
    100 H43        -0.0605  -16.8126  -14.9443 H         1 LEU         0.0232
    101 H44        -4.7558  -20.1490  -13.1255 H         1 GLU         0.1875
    102 H45        -3.2030  -22.1412  -11.7466 H         1 GLU         0.0727
    103 H46        -4.2143  -23.7355  -13.3354 H         1 GLU         0.0323
    104 H47        -4.8790  -22.3575  -14.2767 H         1 GLU         0.0323
    105 H48        -6.6187  -23.2654  -12.8566 H         1 GLU         0.0432
    106 H49        -6.1517  -21.6394  -12.2528 H         1 GLU         0.0432
@<TRIPOS>BOND
     1    1    2 1  
     2    2    3 1  
     3    2    5 1  
     4    3    4 2  
     5    3    7 am 
     6    5    6 1  
     7    7    8 1  
     8    8    9 1  
     9    8   11 1  
    10    9   10 2  
    11    9   15 am 
    12   11   12 1  
    13   12   13 ar 
    14   12   14 ar 
    15   15   16 1  
    16   16   17 1  
    17   16   19 1  
    18   17   18 2  
    19   17   24 am 
    20   19   20 1  
    21   20   21 1  
    22   21   22 ar 
    23   21   23 ar 
    24   24   25 1  
    25   25   26 1  
    26   25   28 1  
    27   26   27 2  
    28   26   32 am 
    29   28   29 1  
    30   29   30 ar 
    31   29   31 ar 
    32   32   33 1  
    33   33   34 1  
    34   33   36 1  
    35   34   35 2  
    36   34   40 am 
    37   36   37 1  
    38   37   38 1  
    39   37   39 1  
    40   40   41 1  
    41   41   42 1  
    42   41   44 1  
    43   42   43 2  
    44   42   48 am 
    45   44   45 1  
    46   45   46 1  
    47   45   47 1  
    48   48   49 1  
    49   49   50 1  
    50   49   52 1  
    51   50   51 ar 
    52   50   57 ar 
    53   52   53 1  
    54   53   54 1  
    55   54   55 ar 
    56   54   56 ar 
    57    1   58 1  
    58    1   59 1  
    59    1   60 1  
    60    2   61 1  
    61    5   62 1  
    62    5   63 1  
    63    6   64 1  
    64    7   65 1  
    65    8   66 1  
    66   11   67 1  
    67   11   68 1  
    68   15   69 1  
    69   16   70 1  
    70   19   71 1  
    71   19   72 1  
    72   20   73 1  
    73   20   74 1  
    74   24   75 1  
    75   25   76 1  
    76   28   77 1  
    77   28   78 1  
    78   32   79 1  
    79   33   80 1  
    80   36   81 1  
    81   36   82 1  
    82   37   83 1  
    83   38   84 1  
    84   38   85 1  
    85   38   86 1  
    86   39   87 1  
    87   39   88 1  
    88   39   89 1  
    89   40   90 1  
    90   41   91 1  
    91   44   92 1  
    92   44   93 1  
    93   45   94 1  
    94   46   95 1  
    95   46   96 1  
    96   46   97 1  
    97   47   98 1  
    98   47   99 1  
    99   47  100 1  
   100   48  101 1  
   101   49  102 1  
   102   52  103 1  
   103   52  104 1  
   104   53  105 1  
   105   53  106 1  
@<TRIPOS>SUBSTRUCTURE
     1 SER         1

