5yjo_ligand
  -I-interpret- 

 64 67  0  0  0  0  0  0  0  0999 V2000
   18.8950   -1.8620  123.0830 C   0  0  0  0  0
   18.6990   -1.9600  121.7130 C   0  0  0  0  0
   17.5770   -1.3780  121.1310 C   0  0  0  0  0
   16.6490   -0.7040  121.9200 C   0  0  0  0  0
   16.8540   -0.6010  123.2950 C   0  0  0  0  0
   17.9730   -1.1880  123.8700 C   0  0  0  0  0
   20.8860   -3.0840  122.9520 C   0  0  0  0  0
   20.7450   -3.2020  121.5650 C   0  0  0  0  0
   19.6340   -2.6390  120.9420 C   0  0  0  0  0
   21.9760   -3.6040  123.6540 C   0  0  0  0  0
   22.7880   -4.5750  122.8330 C   0  0  0  0  0
   23.0190   -3.9550  121.4790 C   0  0  0  0  0
   21.6740   -3.8870  120.7830 C   0  0  0  0  0
   24.1250   -4.8010  123.5440 C   0  0  0  0  0
   15.9590    0.0650  124.1280 C   0  0  0  0  0
   15.1320    2.0980  125.2010 C   0  0  0  0  0
   15.7590    3.2800  125.9560 C   0  0  0  0  0
   17.7910    3.1690  124.4290 C   0  0  0  0  0
   17.0770    2.1800  123.5270 C   0  0  0  0  0
   16.4130    2.9310  122.3680 C   0  0  0  0  0
   16.8900    5.3040  125.1040 C   0  0  0  0  0
   14.9370    6.5200  124.8970 C   0  0  0  0  0
   15.4050    7.6900  124.0310 C   0  0  0  0  0
   14.3090    8.7500  123.9760 C   0  0  0  0  0
   19.9680   -2.4150  123.6620 N   0  0  0  0  0
   25.0760   -5.5240  122.6880 N   0  3  0  0  0
   16.0710    1.3970  124.2870 N   0  0  0  0  0
   16.8020    3.9700  125.1610 N   0  0  0  0  0
   15.1450   -0.5980  124.7680 O   0  0  0  0  0
   17.7860    5.8140  124.4310 O   0  0  0  0  0
   15.9940    6.0880  125.7650 O   0  0  0  0  0
   17.4243   -1.4501  120.0542 H   0  0  0  0  0
   15.7649   -0.2582  121.4641 H   0  0  0  0  0
   18.1280   -1.1188  124.9467 H   0  0  0  0  0
   19.4999   -2.7299  119.8641 H   0  0  0  0  0
   21.5905   -4.1399  124.5214 H   0  0  0  0  0
   22.6254   -2.7724  123.9275 H   0  0  0  0  0
   22.2744   -5.5294  122.7172 H   0  0  0  0  0
   23.7225   -4.5516  120.8982 H   0  0  0  0  0
   23.4497   -2.9589  121.5809 H   0  0  0  0  0
   21.7944   -3.3587  119.8372 H   0  0  0  0  0
   21.3128   -4.9019  120.6170 H   0  0  0  0  0
   23.9436   -5.3973  124.4382 H   0  0  0  0  0
   24.5529   -3.8294  123.7908 H   0  0  0  0  0
   14.3236    2.4979  124.5890 H   0  0  0  0  0
   14.8069    1.3736  125.9478 H   0  0  0  0  0
   16.2268    2.8918  126.8608 H   0  0  0  0  0
   14.9689    3.9993  126.1717 H   0  0  0  0  0
   18.4140    3.8273  123.8235 H   0  0  0  0  0
   18.4152    2.6266  125.1391 H   0  0  0  0  0
   17.8087    1.4781  123.1268 H   0  0  0  0  0
   15.6928    3.6462  122.7654 H   0  0  0  0  0
   17.1749    3.4604  121.7959 H   0  0  0  0  0
   15.9007    2.2187  121.7213 H   0  0  0  0  0
   14.6477    5.6921  124.2498 H   0  0  0  0  0
   14.0894    6.8422  125.5020 H   0  0  0  0  0
   15.6182    7.3343  123.0230 H   0  0  0  0  0
   16.3084    8.1225  124.4610 H   0  0  0  0  0
   13.4067    8.3158  123.5455 H   0  0  0  0  0
   14.0975    9.1048  124.9847 H   0  0  0  0  0
   14.6426    9.5841  123.3586 H   0  0  0  0  0
   25.9527   -5.6565  123.1922 H   0  0  0  0  0
   24.6848   -6.4326  122.4391 H   0  0  0  0  0
   25.2482   -4.9830  121.8406 H   0  0  0  0  0
  1  2  4  0  0  0
  6  1  4  0  0  0
  1 25  4  0  0  0
  3  2  4  0  0  0
  2  9  4  0  0  0
  4  3  4  0  0  0
  5  4  4  0  0  0
  5  6  4  0  0  0
 15  5  1  0  0  0
  7  8  4  0  0  0
  7 10  1  0  0  0
 25  7  4  0  0  0
  9  8  4  0  0  0
  8 13  1  0  0  0
 10 11  1  0  0  0
 11 12  1  0  0  0
 11 14  1  0  0  0
 13 12  1  0  0  0
 14 26  1  0  0  0
 27 15  1  0  0  0
 15 29  2  0  0  0
 17 16  1  0  0  0
 16 27  1  0  0  0
 28 17  1  0  0  0
 18 19  1  0  0  0
 28 18  1  0  0  0
 19 20  1  0  0  0
 19 27  1  0  0  0
 21 28  1  0  0  0
 21 30  2  0  0  0
 31 21  1  0  0  0
 22 23  1  0  0  0
 22 31  1  0  0  0
 23 24  1  0  0  0
  3 32  1  0  0  0
  4 33  1  0  0  0
  6 34  1  0  0  0
  9 35  1  0  0  0
 10 36  1  0  0  0
 10 37  1  0  0  0
 11 38  1  0  0  0
 12 39  1  0  0  0
 12 40  1  0  0  0
 13 41  1  0  0  0
 13 42  1  0  0  0
 14 43  1  0  0  0
 14 44  1  0  0  0
 16 45  1  0  0  0
 16 46  1  0  0  0
 17 47  1  0  0  0
 17 48  1  0  0  0
 18 49  1  0  0  0
 18 50  1  0  0  0
 19 51  1  0  0  0
 20 52  1  0  0  0
 20 53  1  0  0  0
 20 54  1  0  0  0
 22 55  1  0  0  0
 22 56  1  0  0  0
 23 57  1  0  0  0
 23 58  1  0  0  0
 24 59  1  0  0  0
 24 60  1  0  0  0
 24 61  1  0  0  0
 26 62  1  0  0  0
 26 63  1  0  0  0
 26 64  1  0  0  0
M  END
$$$$
