3itu_ligand
  -I-interpret- 

 29 30  0  0  0  0  0  0  0  0999 V2000
   10.0430   -6.4090   -6.2220 N   0  0  0  0  0
   10.5860   -6.8080   -7.4800 C   0  0  0  0  0
    9.8290   -6.3660   -8.5440 N   0  0  0  0  0
    8.7620   -5.7220   -7.9230 C   0  0  0  0  0
    8.9470   -5.7620   -6.5670 C   0  0  0  0  0
    8.0780   -5.2310   -5.6650 N   0  0  0  0  0
    6.9930   -4.6100   -6.0990 C   0  0  0  0  0
    6.7490   -4.4950   -7.4050 N   0  0  0  0  0
    7.6290   -5.0500   -8.3500 C   0  0  0  0  0
    7.3730   -4.9740   -9.5670 O   0  0  0  0  0
    6.2310   -4.1510   -5.2150 O   0  0  0  0  0
    5.5100   -3.7990   -7.8080 C   0  0  0  0  0
    8.3260   -5.3180   -4.2240 C   0  0  0  0  0
    9.3130   -4.2460   -3.7330 C   0  0  0  0  0
    8.9320   -2.7680   -3.9360 C   0  0  0  0  0
    9.5970   -4.5510   -2.2470 C   0  0  0  0  0
   11.4972   -7.3964   -7.5875 H   0  0  0  0  0
    4.6487   -4.3267   -7.3984 H   0  0  0  0  0
    5.5276   -2.7782   -7.4262 H   0  0  0  0  0
    5.4426   -3.7803   -8.8958 H   0  0  0  0  0
    8.7591   -6.2961   -4.0149 H   0  0  0  0  0
    7.3778   -5.1645   -3.7088 H   0  0  0  0  0
   10.1928   -4.3272   -4.3713 H   0  0  0  0  0
    8.8030   -2.5702   -5.0001 H   0  0  0  0  0
    8.0001   -2.5589   -3.4107 H   0  0  0  0  0
    9.7241   -2.1323   -3.5404 H   0  0  0  0  0
    8.6648   -4.5073   -1.6838 H   0  0  0  0  0
   10.0303   -5.5473   -2.1583 H   0  0  0  0  0
   10.2958   -3.8131   -1.8531 H   0  0  0  0  0
  1  2  4  0  0  0
  1  5  4  0  0  0
  2  3  4  0  0  0
  3  4  4  0  0  0
  4  5  4  0  0  0
  4  9  1  0  0  0
  5  6  1  0  0  0
  6  7  1  0  0  0
  6 13  1  0  0  0
  7  8  1  0  0  0
  7 11  2  0  0  0
  8  9  1  0  0  0
  8 12  1  0  0  0
  9 10  2  0  0  0
 13 14  1  0  0  0
 14 15  1  0  0  0
 14 16  1  0  0  0
  2 17  1  0  0  0
 12 18  1  0  0  0
 12 19  1  0  0  0
 12 20  1  0  0  0
 13 21  1  0  0  0
 13 22  1  0  0  0
 14 23  1  0  0  0
 15 24  1  0  0  0
 15 25  1  0  0  0
 15 26  1  0  0  0
 16 27  1  0  0  0
 16 28  1  0  0  0
 16 29  1  0  0  0
M  END
$$$$
