4mre_ligand
  -I-interpret- 

 19 19  0  0  0  0  0  0  0  0999 V2000
   12.4070   -5.0500    0.6870 C   0  0  0  0  0
   11.7010   -4.4870   -0.3910 C   0  0  0  0  0
   12.3080   -3.5770   -1.2700 C   0  0  0  0  0
   11.5980   -3.0100   -2.3350 C   0  0  0  0  0
   10.2430   -3.3430   -2.5600 C   0  0  0  0  0
    9.6450   -4.2510   -1.6690 C   0  0  0  0  0
    8.3510   -4.6140   -1.7990 N   0  0  0  0  0
   10.3610   -4.8130   -0.6150 C   0  0  0  0  0
    9.7410   -5.6790    0.2350 N   0  0  0  0  0
   13.2651   -5.6048    0.3076 H   0  0  0  0  0
   12.7505   -4.2554    1.3493 H   0  0  0  0  0
   11.7507   -5.7246    1.2368 H   0  0  0  0  0
   13.3532   -3.3062   -1.1206 H   0  0  0  0  0
   12.0962   -2.3032   -2.9986 H   0  0  0  0  0
    9.6841   -2.9130   -3.3911 H   0  0  0  0  0
    7.7865   -4.2276   -2.5556 H   0  0  0  0  0
    7.9380   -5.2746   -1.1406 H   0  0  0  0  0
   10.2548   -6.0785    1.0203 H   0  0  0  0  0
    8.7631   -5.9277    0.0859 H   0  0  0  0  0
  1  2  1  0  0  0
  2  3  4  0  0  0
  2  8  4  0  0  0
  3  4  4  0  0  0
  4  5  4  0  0  0
  5  6  4  0  0  0
  6  7  1  0  0  0
  6  8  4  0  0  0
  8  9  1  0  0  0
  1 10  1  0  0  0
  1 11  1  0  0  0
  1 12  1  0  0  0
  3 13  1  0  0  0
  4 14  1  0  0  0
  5 15  1  0  0  0
  7 16  1  0  0  0
  7 17  1  0  0  0
  9 18  1  0  0  0
  9 19  1  0  0  0
M  END
$$$$
