4pgb_ligand
  -I-interpret- 

135139  0  0  0  0  0  0  0  0999 V2000
  -12.9640   -2.7730   35.3080 N   0  3  0  0  0
  -14.2610   -2.0830   35.5370 C   0  0  0  0  0
  -14.1470   -0.6440   35.0510 C   0  0  0  0  0
  -13.7100    0.2410   35.7880 O   0  0  0  0  0
  -14.6330   -2.1360   37.0210 C   0  0  0  0  0
  -16.0600   -1.7660   37.3060 C   0  0  0  0  0
  -17.0490   -2.7420   37.3400 C   0  0  0  0  0
  -16.4170   -0.4470   37.5510 C   0  0  0  0  0
  -18.3660   -2.4090   37.6070 C   0  0  0  0  0
  -17.7330   -0.1070   37.8190 C   0  0  0  0  0
  -18.7090   -1.0890   37.8470 C   0  0  0  0  0
  -14.5360   -0.4250   33.7980 N   0  0  0  0  0
  -14.3950    0.8800   33.1610 C   0  0  0  0  0
  -15.2820    1.9240   33.8350 C   0  0  0  0  0
  -16.2790    1.5710   34.4660 O   0  0  0  0  0
  -14.7280    0.7860   31.6790 C   0  0  0  0  0
  -14.9220    3.2140   33.7090 N   0  0  0  0  0
  -15.7560    4.2470   34.3200 C   0  0  0  0  0
  -17.0980    4.3970   33.6050 C   0  0  0  0  0
  -17.1340    4.5290   32.3820 O   0  0  0  0  0
  -14.9140    5.5270   34.1710 C   0  0  0  0  0
  -13.5470    5.0770   33.7810 C   0  0  0  0  0
  -13.7440    3.7930   33.0430 C   0  0  0  0  0
  -18.1850    4.3520   34.3700 N   0  0  0  0  0
  -19.5250    4.6000   33.8440 C   0  0  0  0  0
  -19.9770    6.0020   34.2000 C   0  0  0  0  0
  -19.3390    6.6750   35.0100 O   0  0  0  0  0
  -21.0780    6.4400   33.5950 N   0  0  0  0  0
  -21.6370    7.7710   33.8430 C   0  0  0  0  0
  -20.5850    8.8740   33.7300 C   0  0  0  0  0
  -20.2450    9.5300   34.7180 O   0  0  0  0  0
  -22.3190    7.8240   35.2180 C   0  0  0  0  0
  -23.4670    6.8400   35.3450 C   0  0  0  0  0
  -23.6230    6.1850   36.3760 O   0  0  0  0  0
  -24.2780    6.7310   34.2990 N   0  0  0  0  0
  -20.0720    9.0600   32.5150 N   0  0  0  0  0
  -19.0670   10.0830   32.2380 C   0  0  0  0  0
  -19.7270   11.4670   32.2820 C   0  0  0  0  0
  -20.7590   11.6770   31.6450 O   0  0  0  0  0
  -18.4290    9.8440   30.8610 C   0  0  0  0  0
  -16.9350    9.8310   30.8790 C   0  0  0  0  0
  -16.1050   10.9090   30.9440 C   0  0  0  0  0
  -16.0880    8.6760   30.8180 C   0  0  0  0  0
  -14.7940   10.5000   30.9350 N   0  0  0  0  0
  -14.7560    9.1330   30.8590 C   0  0  0  0  0
  -16.3260    7.3010   30.7380 C   0  0  0  0  0
  -13.6680    8.2650   30.8190 C   0  0  0  0  0
  -15.2430    6.4400   30.6980 C   0  0  0  0  0
  -13.9310    6.9260   30.7400 C   0  0  0  0  0
  -19.1360   12.4190   33.0300 N   0  0  0  0  0
  -19.7700   13.7330   33.1020 C   0  0  0  0  0
  -19.6420   14.5140   31.8010 C   0  0  0  0  0
  -18.6090   14.4390   31.1370 O   0  0  0  0  0
  -19.0000   14.4300   34.2210 C   0  0  0  0  0
  -17.6550   13.8020   34.1960 C   0  0  0  0  0
  -17.8900   12.3700   33.8180 C   0  0  0  0  0
  -20.6910   15.2520   31.4500 N   0  0  0  0  0
  -20.7090   16.0350   30.2190 C   0  0  0  0  0
  -19.7760   17.2340   30.3290 C   0  0  0  0  0
  -19.6270   17.8150   31.4040 O   0  0  0  0  0
  -22.1240   16.4990   29.9110 C   0  0  0  0  0
  -19.1560   17.6000   29.2100 N   0  0  0  0  0
  -18.2180   18.7210   29.1750 C   0  0  0  0  0
  -18.9520   20.0540   29.3000 C   0  0  0  0  0
  -18.3740   21.0620   29.6990 O   0  0  0  0  0
  -17.4030   18.6990   27.8780 C   0  0  0  0  0
  -16.5450   17.4570   27.6170 C   0  0  0  0  0
  -15.9580   17.5110   26.2180 C   0  0  0  0  0
  -15.4380   17.3120   28.6500 C   0  0  0  0  0
  -20.1430   20.1580   29.0090 O   0  0  0  0  0
  -12.7280   -2.7305   34.3166 H   0  0  0  0  0
  -12.2346   -2.3126   35.8524 H   0  0  0  0  0
  -13.0428   -3.7476   35.5985 H   0  0  0  0  0
  -15.0522   -2.5842   34.9794 H   0  0  0  0  0
  -14.0019   -1.4136   37.5387 H   0  0  0  0  0
  -14.4930   -3.1647   37.3531 H   0  0  0  0  0
  -16.7843   -3.7829   37.1541 H   0  0  0  0  0
  -15.6530    0.3302   37.5323 H   0  0  0  0  0
  -19.1316   -3.1845   37.6283 H   0  0  0  0  0
  -18.0000    0.9328   38.0077 H   0  0  0  0  0
  -19.7450   -0.8235   38.0575 H   0  0  0  0  0
  -14.9455   -1.1930   33.2661 H   0  0  0  0  0
  -13.3575    1.1953   33.2718 H   0  0  0  0  0
  -14.0490    0.0811   31.1993 H   0  0  0  0  0
  -15.7552    0.4414   31.5599 H   0  0  0  0  0
  -14.6175    1.7685   31.2201 H   0  0  0  0  0
  -16.0079    4.0125   35.3542 H   0  0  0  0  0
  -14.8921    6.0955   35.1008 H   0  0  0  0  0
  -15.3390    6.1939   33.4208 H   0  0  0  0  0
  -12.9073    4.9420   34.6531 H   0  0  0  0  0
  -13.0437    5.8198   33.1622 H   0  0  0  0  0
  -13.8887    3.9361   31.9722 H   0  0  0  0  0
  -12.8707    3.1419   33.0822 H   0  0  0  0  0
  -18.0790    4.1362   35.3613 H   0  0  0  0  0
  -20.2179    3.8806   34.2803 H   0  0  0  0  0
  -19.5069    4.4961   32.7591 H   0  0  0  0  0
  -21.5512    5.8251   32.9328 H   0  0  0  0  0
  -22.3812    7.9524   33.0676 H   0  0  0  0  0
  -22.7238    8.8273   35.3507 H   0  0  0  0  0
  -21.5735    7.5652   35.9699 H   0  0  0  0  0
  -25.0669    6.0852   34.3304 H   0  0  0  0  0
  -24.1120    7.2931   33.4642 H   0  0  0  0  0
  -20.3927    8.4664   31.7501 H   0  0  0  0  0
  -18.2832   10.0314   32.9938 H   0  0  0  0  0
  -18.7379   10.6650   30.2140 H   0  0  0  0  0
  -18.7573    8.8629   30.5179 H   0  0  0  0  0
  -16.4339   11.9469   30.9957 H   0  0  0  0  0
  -17.3446    6.9143   30.7077 H   0  0  0  0  0
  -12.6447    8.6393   30.8495 H   0  0  0  0  0
  -15.4147    5.3656   30.6327 H   0  0  0  0  0
  -13.1004    6.2208   30.7090 H   0  0  0  0  0
  -20.8427   13.6597   33.2811 H   0  0  0  0  0
  -19.4882   14.3102   35.1882 H   0  0  0  0  0
  -18.9495   15.5085   34.0711 H   0  0  0  0  0
  -17.1573   13.8840   35.1623 H   0  0  0  0  0
  -16.9944   14.2998   33.4861 H   0  0  0  0  0
  -17.0580   11.9453   33.2562 H   0  0  0  0  0
  -17.9721   11.7176   34.6873 H   0  0  0  0  0
  -21.5082   15.2713   32.0601 H   0  0  0  0  0
  -20.3599   15.4005   29.4043 H   0  0  0  0  0
  -22.7718   15.6306   29.7912 H   0  0  0  0  0
  -22.4894   17.1160   30.7319 H   0  0  0  0  0
  -22.1215   17.0818   28.9899 H   0  0  0  0  0
  -19.3407   17.0828   28.3505 H   0  0  0  0  0
  -17.5419   18.6157   30.0235 H   0  0  0  0  0
  -16.7050   19.5330   27.9509 H   0  0  0  0  0
  -18.1316   18.7330   27.0680 H   0  0  0  0  0
  -17.1904   16.5827   27.7009 H   0  0  0  0  0
  -16.7661   17.5475   25.4874 H   0  0  0  0  0
  -15.3373   18.4016   26.1199 H   0  0  0  0  0
  -15.3506   16.6225   26.0457 H   0  0  0  0  0
  -14.7926   18.1897   28.6147 H   0  0  0  0  0
  -15.8787   17.2233   29.6430 H   0  0  0  0  0
  -14.8522   16.4195   28.4300 H   0  0  0  0  0
  -20.4746   19.3069   28.7137 H   0  0  0  0  0
  1  2  1  0  0  0
  2  3  1  0  0  0
  2  5  1  0  0  0
  3  4  2  0  0  0
  3 12  1  0  0  0
  5  6  1  0  0  0
  6  7  4  0  0  0
  6  8  4  0  0  0
  7  9  4  0  0  0
  8 10  4  0  0  0
  9 11  4  0  0  0
 10 11  4  0  0  0
 12 13  1  0  0  0
 13 14  1  0  0  0
 13 16  1  0  0  0
 14 15  2  0  0  0
 14 17  1  0  0  0
 17 18  1  0  0  0
 17 23  1  0  0  0
 18 19  1  0  0  0
 18 21  1  0  0  0
 19 20  2  0  0  0
 19 24  1  0  0  0
 21 22  1  0  0  0
 22 23  1  0  0  0
 24 25  1  0  0  0
 25 26  1  0  0  0
 26 27  2  0  0  0
 26 28  1  0  0  0
 28 29  1  0  0  0
 29 30  1  0  0  0
 29 32  1  0  0  0
 30 31  2  0  0  0
 30 36  1  0  0  0
 32 33  1  0  0  0
 33 34  2  0  0  0
 33 35  1  0  0  0
 36 37  1  0  0  0
 37 38  1  0  0  0
 37 40  1  0  0  0
 38 39  2  0  0  0
 38 50  1  0  0  0
 40 41  1  0  0  0
 41 42  4  0  0  0
 41 43  4  0  0  0
 42 44  4  0  0  0
 43 45  4  0  0  0
 43 46  4  0  0  0
 44 45  4  0  0  0
 45 47  4  0  0  0
 46 48  4  0  0  0
 47 49  4  0  0  0
 48 49  4  0  0  0
 50 51  1  0  0  0
 50 56  1  0  0  0
 51 52  1  0  0  0
 51 54  1  0  0  0
 52 53  2  0  0  0
 52 57  1  0  0  0
 54 55  1  0  0  0
 55 56  1  0  0  0
 57 58  1  0  0  0
 58 59  1  0  0  0
 58 61  1  0  0  0
 59 60  2  0  0  0
 59 62  1  0  0  0
 62 63  1  0  0  0
 63 64  1  0  0  0
 63 66  1  0  0  0
 64 65  2  0  0  0
 64 70  1  0  0  0
 66 67  1  0  0  0
 67 68  1  0  0  0
 67 69  1  0  0  0
  1 71  1  0  0  0
  1 72  1  0  0  0
  1 73  1  0  0  0
  2 74  1  0  0  0
  5 75  1  0  0  0
  5 76  1  0  0  0
  7 77  1  0  0  0
  8 78  1  0  0  0
  9 79  1  0  0  0
 10 80  1  0  0  0
 11 81  1  0  0  0
 12 82  1  0  0  0
 13 83  1  0  0  0
 16 84  1  0  0  0
 16 85  1  0  0  0
 16 86  1  0  0  0
 18 87  1  0  0  0
 21 88  1  0  0  0
 21 89  1  0  0  0
 22 90  1  0  0  0
 22 91  1  0  0  0
 23 92  1  0  0  0
 23 93  1  0  0  0
 24 94  1  0  0  0
 25 95  1  0  0  0
 25 96  1  0  0  0
 28 97  1  0  0  0
 29 98  1  0  0  0
 32 99  1  0  0  0
 32100  1  0  0  0
 35101  1  0  0  0
 35102  1  0  0  0
 36103  1  0  0  0
 37104  1  0  0  0
 40105  1  0  0  0
 40106  1  0  0  0
 42107  1  0  0  0
 46108  1  0  0  0
 47109  1  0  0  0
 48110  1  0  0  0
 49111  1  0  0  0
 51112  1  0  0  0
 54113  1  0  0  0
 54114  1  0  0  0
 55115  1  0  0  0
 55116  1  0  0  0
 56117  1  0  0  0
 56118  1  0  0  0
 57119  1  0  0  0
 58120  1  0  0  0
 61121  1  0  0  0
 61122  1  0  0  0
 61123  1  0  0  0
 62124  1  0  0  0
 63125  1  0  0  0
 66126  1  0  0  0
 66127  1  0  0  0
 67128  1  0  0  0
 68129  1  0  0  0
 68130  1  0  0  0
 68131  1  0  0  0
 69132  1  0  0  0
 69133  1  0  0  0
 69134  1  0  0  0
 70135  1  0  0  0
M  END
$$$$
