### 
### Created by X-TOOL on Mon Sep 10 21:13:25 2018
### 

@<TRIPOS>MOLECULE
4pgb_ligand
  135   139     1     0     0
SMALL
GAST_HUCK


@<TRIPOS>ATOM
      1 N         -12.9640   -2.7730   35.3080 N.4       1 PHE         0.2394
      2 CA        -14.2610   -2.0830   35.5370 C.3       1 PHE         0.0744
      3 C         -14.1470   -0.6440   35.0510 C.2       1 PHE         0.2288
      4 O         -13.7100    0.2410   35.7880 O.2       1 PHE        -0.3905
      5 CB        -14.6330   -2.1360   37.0210 C.3       1 PHE         0.0416
      6 CG        -16.0600   -1.7660   37.3060 C.ar      1 PHE        -0.0353
      7 CD1       -17.0490   -2.7420   37.3400 C.ar      1 PHE        -0.0600
      8 CD2       -16.4170   -0.4470   37.5510 C.ar      1 PHE        -0.0600
      9 CE1       -18.3660   -2.4090   37.6070 C.ar      1 PHE        -0.0686
     10 CE2       -17.7330   -0.1070   37.8190 C.ar      1 PHE        -0.0686
     11 CZ        -18.7090   -1.0890   37.8470 C.ar      1 PHE        -0.0687
     12 N         -14.5360   -0.4250   33.7980 N.am      1 ALA        -0.2611
     13 CA        -14.3950    0.8800   33.1610 C.3       1 ALA         0.1285
     14 C         -15.2820    1.9240   33.8350 C.2       1 ALA         0.2061
     15 O         -16.2790    1.5710   34.4660 O.2       1 ALA        -0.3942
     16 CB        -14.7280    0.7860   31.6790 C.3       1 ALA        -0.0244
     17 N         -14.9220    3.2140   33.7090 N.am      1 PRO        -0.2498
     18 CA        -15.7560    4.2470   34.3200 C.3       1 PRO         0.1338
     19 C         -17.0980    4.3970   33.6050 C.2       1 PRO         0.2039
     20 O         -17.1340    4.5290   32.3820 O.2       1 PRO        -0.3944
     21 CB        -14.9140    5.5270   34.1710 C.3       1 PRO        -0.0104
     22 CG        -13.5470    5.0770   33.7810 C.3       1 PRO        -0.0281
     23 CD        -13.7440    3.7930   33.0430 C.3       1 PRO         0.0369
     24 N         -18.1850    4.3520   34.3700 N.am      1 GLY        -0.2664
     25 CA        -19.5250    4.6000   33.8440 C.3       1 GLY         0.1201
     26 C         -19.9770    6.0020   34.2000 C.2       1 GLY         0.2009
     27 O         -19.3390    6.6750   35.0100 O.2       1 GLY        -0.3947
     28 N         -21.0780    6.4400   33.5950 N.am      1 ASN        -0.2618
     29 CA        -21.6370    7.7710   33.8430 C.3       1 ASN         0.1476
     30 C         -20.5850    8.8740   33.7300 C.2       1 ASN         0.2063
     31 O         -20.2450    9.5300   34.7180 O.2       1 ASN        -0.3942
     32 CB        -22.3190    7.8240   35.2180 C.3       1 ASN         0.0773
     33 CG        -23.4670    6.8400   35.3450 C.2       1 ASN         0.1780
     34 OD1       -23.6230    6.1850   36.3760 O.2       1 ASN        -0.3970
     35 ND2       -24.2780    6.7310   34.2990 N.am      1 ASN        -0.3007
     36 N         -20.0720    9.0600   32.5150 N.am      1 TRP        -0.2625
     37 CA        -19.0670   10.0830   32.2380 C.3       1 TRP         0.1354
     38 C         -19.7270   11.4670   32.2820 C.2       1 TRP         0.2077
     39 O         -20.7590   11.6770   31.6450 O.2       1 TRP        -0.3940
     40 CB        -18.4290    9.8440   30.8610 C.3       1 TRP         0.0042
     41 CG        -16.9350    9.8310   30.8790 C.2       1 TRP        -0.0418
     42 CD1       -16.1050   10.9090   30.9440 C.2       1 TRP         0.0167
     43 CD2       -16.0880    8.6760   30.8180 C.ar      1 TRP        -0.0214
     44 NE1       -14.7940   10.5000   30.9350 N.pl3     1 TRP        -0.2890
     45 CE2       -14.7560    9.1330   30.8590 C.ar      1 TRP         0.0603
     46 CE3       -16.3260    7.3010   30.7380 C.ar      1 TRP        -0.0747
     47 CZ2       -13.6680    8.2650   30.8190 C.ar      1 TRP        -0.0443
     48 CZ3       -15.2430    6.4400   30.6980 C.ar      1 TRP        -0.0792
     49 CH2       -13.9310    6.9260   30.7400 C.ar      1 TRP        -0.0768
     50 N         -19.1360   12.4190   33.0300 N.am      1 PRO        -0.2497
     51 CA        -19.7700   13.7330   33.1020 C.3       1 PRO         0.1338
     52 C         -19.6420   14.5140   31.8010 C.2       1 PRO         0.2041
     53 O         -18.6090   14.4390   31.1370 O.2       1 PRO        -0.3944
     54 CB        -19.0000   14.4300   34.2210 C.3       1 PRO        -0.0104
     55 CG        -17.6550   13.8020   34.1960 C.3       1 PRO        -0.0281
     56 CD        -17.8900   12.3700   33.8180 C.3       1 PRO         0.0369
     57 N         -20.6910   15.2520   31.4500 N.am      1 ALA        -0.2640
     58 CA        -20.7090   16.0350   30.2190 C.3       1 ALA         0.1282
     59 C         -19.7760   17.2340   30.3290 C.2       1 ALA         0.2031
     60 O         -19.6270   17.8150   31.4040 O.2       1 ALA        -0.3944
     61 CB        -22.1240   16.4990   29.9110 C.3       1 ALA        -0.0244
     62 N         -19.1560   17.6000   29.2100 N.am      1 LEU        -0.2695
     63 CA        -18.2180   18.7210   29.1750 C.3       1 LEU         0.0946
     64 C         -18.9520   20.0540   29.3000 C.2       1 LEU         0.0601
     65 O         -18.3740   21.0620   29.6990 O.co2     1 LEU        -0.5666
     66 CB        -17.4030   18.6990   27.8780 C.3       1 LEU        -0.0156
     67 CG        -16.5450   17.4570   27.6170 C.3       1 LEU        -0.0431
     68 CD1       -15.9580   17.5110   26.2180 C.3       1 LEU        -0.0625
     69 CD2       -15.4380   17.3120   28.6500 C.3       1 LEU        -0.0625
     70 OXT       -20.1430   20.1580   29.0090 O.co2     1 LEU        -0.5666
     71 H1        -13.0300   -3.7269   35.6269 H         1 PHE         0.2017
     72 H2        -12.2359   -2.2979   35.8181 H         1 PHE         0.2017
     73 H3        -12.7468   -2.7621   34.3238 H         1 PHE         0.2017
     74 H4        -15.0462   -2.5928   34.9595 H         1 PHE         0.1122
     75 H5        -13.9794   -1.4395   37.5666 H         1 PHE         0.0507
     76 H6        -14.4620   -3.1601   37.3842 H         1 PHE         0.0507
     77 H7        -16.7858   -3.7772   37.1551 H         1 PHE         0.0557
     78 H8        -15.6572    0.3259   37.5324 H         1 PHE         0.0557
     79 H9        -19.1274   -3.1803   37.6282 H         1 PHE         0.0599
     80 H10       -17.9986    0.9271   38.0067 H         1 PHE         0.0599
     81 H11       -19.7393   -0.8250   38.0563 H         1 PHE         0.0559
     82 H12       -14.9374   -1.1780   33.2766 H         1 ALA         0.1884
     83 H13       -13.3476    1.2006   33.2623 H         1 ALA         0.0797
     84 H14       -14.6168    1.7770   31.2147 H         1 ALA         0.0277
     85 H15       -15.7645    0.4383   31.5574 H         1 ALA         0.0277
     86 H16       -14.0434    0.0749   31.1937 H         1 ALA         0.0277
     87 H17       -15.9363    4.0195   35.3810 H         1 PRO         0.0802
     88 H18       -14.8786    6.0743   35.1245 H         1 PRO         0.0313
     89 H19       -15.3396    6.1758   33.3914 H         1 PRO         0.0313
     90 H20       -12.9261    4.9153   34.6745 H         1 PRO         0.0287
     91 H21       -13.0673    5.8239   33.1314 H         1 PRO         0.0287
     92 H22       -13.9410    3.9750   31.9762 H         1 PRO         0.0524
     93 H23       -12.8671    3.1371   33.1473 H         1 PRO         0.0524
     94 H24       -18.0811    4.1404   35.3418 H         1 GLY         0.1881
     95 H25       -20.2259    3.8715   34.2775 H         1 GLY         0.0763
     96 H26       -19.5117    4.4897   32.7496 H         1 GLY         0.0763
     97 H27       -21.5419    5.8372   32.9458 H         1 ASN         0.1885
     98 H28       -22.4024    7.9591   33.0757 H         1 ASN         0.0826
     99 H29       -22.7083    8.8403   35.3780 H         1 ASN         0.0551
    100 H30       -21.5708    7.5922   35.9903 H         1 ASN         0.0551
    101 H31       -25.0508    6.0971   34.3294 H         1 ASN         0.1814
    102 H32       -24.1159    7.2829   33.4810 H         1 ASN         0.1814
    103 H33       -20.3864    8.4780   31.7650 H         1 TRP         0.1884
    104 H34       -18.2825   10.0338   33.0075 H         1 TRP         0.0815
    105 H35       -18.7600   10.6440   30.1825 H         1 TRP         0.0397
    106 H36       -18.7790    8.8728   30.4811 H         1 TRP         0.0397
    107 H37       -16.4336   11.9459   30.9957 H         1 TRP         0.0795
    108 H38       -13.9729   11.1204   30.9784 H         1 TRP         0.2216
    109 H39       -17.3390    6.9164   30.7079 H         1 TRP         0.0540
    110 H40       -12.6504    8.6373   30.8494 H         1 TRP         0.0541
    111 H41       -15.4137    5.3715   30.6331 H         1 TRP         0.0510
    112 H42       -13.1050    6.2247   30.7092 H         1 TRP         0.0530
    113 H43       -20.8349   13.6341   33.3595 H         1 PRO         0.0802
    114 H44       -19.4890   14.2624   35.1920 H         1 PRO         0.0313
    115 H45       -18.9278   15.5106   34.0284 H         1 PRO         0.0313
    116 H46       -17.1823   13.8656   35.1872 H         1 PRO         0.0287
    117 H47       -17.0135   14.2961   33.4514 H         1 PRO         0.0287
    118 H48       -17.0575   11.9820   33.2127 H         1 PRO         0.0524
    119 H49       -18.0158   11.7432   34.7131 H         1 PRO         0.0524
    120 H50       -21.4922   15.2709   32.0481 H         1 ALA         0.1883
    121 H51       -20.3614   15.3962   29.3937 H         1 ALA         0.0797
    122 H52       -22.1228   17.0874   28.9816 H         1 ALA         0.0277
    123 H53       -22.4940   17.1219   30.7387 H         1 ALA         0.0277
    124 H54       -22.7788   15.6235   29.7898 H         1 ALA         0.0277
    125 H55       -19.3371   17.0929   28.3673 H         1 LEU         0.1875
    126 H56       -17.5274   18.6215   30.0253 H         1 LEU         0.0726
    127 H57       -16.7307   19.5695   27.8937 H         1 LEU         0.0308
    128 H58       -18.1094   18.7963   27.0404 H         1 LEU         0.0308
    129 H59       -17.1945   16.5720   27.6865 H         1 LEU         0.0297
    130 H60       -15.3447   16.6148   26.0429 H         1 LEU         0.0232
    131 H61       -15.3313   18.4094   26.1177 H         1 LEU         0.0232
    132 H62       -16.7726   17.5478   25.4797 H         1 LEU         0.0232
    133 H63       -15.8789   17.2744   29.6571 H         1 LEU         0.0232
    134 H64       -14.7563   18.1724   28.5802 H         1 LEU         0.0232
    135 H65       -14.8783   16.3843   28.4599 H         1 LEU         0.0232
@<TRIPOS>BOND
     1    1    2 1  
     2    2    3 1  
     3    2    5 1  
     4    3    4 2  
     5    3   12 am 
     6    5    6 1  
     7    6    7 ar 
     8    6    8 ar 
     9    7    9 ar 
    10    8   10 ar 
    11    9   11 ar 
    12   10   11 ar 
    13   12   13 1  
    14   13   14 1  
    15   13   16 1  
    16   14   15 2  
    17   14   17 am 
    18   17   18 1  
    19   17   23 1  
    20   18   19 1  
    21   18   21 1  
    22   19   20 2  
    23   19   24 am 
    24   21   22 1  
    25   22   23 1  
    26   24   25 1  
    27   25   26 1  
    28   26   27 2  
    29   26   28 am 
    30   28   29 1  
    31   29   30 1  
    32   29   32 1  
    33   30   31 2  
    34   30   36 am 
    35   32   33 1  
    36   33   34 2  
    37   33   35 am 
    38   36   37 1  
    39   37   38 1  
    40   37   40 1  
    41   38   39 2  
    42   38   50 am 
    43   40   41 1  
    44   41   42 2  
    45   41   43 1  
    46   42   44 1  
    47   43   45 ar 
    48   43   46 ar 
    49   44   45 1  
    50   45   47 ar 
    51   46   48 ar 
    52   47   49 ar 
    53   48   49 ar 
    54   50   51 1  
    55   50   56 1  
    56   51   52 1  
    57   51   54 1  
    58   52   53 2  
    59   52   57 am 
    60   54   55 1  
    61   55   56 1  
    62   57   58 1  
    63   58   59 1  
    64   58   61 1  
    65   59   60 2  
    66   59   62 am 
    67   62   63 1  
    68   63   64 1  
    69   63   66 1  
    70   64   65 ar 
    71   64   70 ar 
    72   66   67 1  
    73   67   68 1  
    74   67   69 1  
    75    1   71 1  
    76    1   72 1  
    77    1   73 1  
    78    2   74 1  
    79    5   75 1  
    80    5   76 1  
    81    7   77 1  
    82    8   78 1  
    83    9   79 1  
    84   10   80 1  
    85   11   81 1  
    86   12   82 1  
    87   13   83 1  
    88   16   84 1  
    89   16   85 1  
    90   16   86 1  
    91   18   87 1  
    92   21   88 1  
    93   21   89 1  
    94   22   90 1  
    95   22   91 1  
    96   23   92 1  
    97   23   93 1  
    98   24   94 1  
    99   25   95 1  
   100   25   96 1  
   101   28   97 1  
   102   29   98 1  
   103   32   99 1  
   104   32  100 1  
   105   35  101 1  
   106   35  102 1  
   107   36  103 1  
   108   37  104 1  
   109   40  105 1  
   110   40  106 1  
   111   42  107 1  
   112   44  108 1  
   113   46  109 1  
   114   47  110 1  
   115   48  111 1  
   116   49  112 1  
   117   51  113 1  
   118   54  114 1  
   119   54  115 1  
   120   55  116 1  
   121   55  117 1  
   122   56  118 1  
   123   56  119 1  
   124   57  120 1  
   125   58  121 1  
   126   61  122 1  
   127   61  123 1  
   128   61  124 1  
   129   62  125 1  
   130   63  126 1  
   131   66  127 1  
   132   66  128 1  
   133   67  129 1  
   134   68  130 1  
   135   68  131 1  
   136   68  132 1  
   137   69  133 1  
   138   69  134 1  
   139   69  135 1  
@<TRIPOS>SUBSTRUCTURE
     1 PHE         1

