4xk9_ligand
  -I-interpret- 

113120  0  0  0  0  0  0  0  0999 V2000
   64.4370   -5.6010   25.5190 C   0  0  0  0  0
   64.9850   -6.5800   24.8190 C   0  0  0  0  0
   72.2060   -5.5210   20.6020 C   0  0  0  0  0
   65.8260   -6.3650   23.6210 C   0  0  0  0  0
   66.8210   -4.9650   21.7530 C   0  0  0  0  0
   66.2730   -7.4560   22.9880 C   0  0  0  0  0
   68.0320   -8.6820   21.7200 C   0  0  0  0  0
   68.6960  -10.3300   20.2360 C   0  0  0  0  0
   69.9900  -10.9880   19.7600 C   0  0  0  0  0
   71.2980  -10.3630   20.2430 C   0  0  0  0  0
   71.2150   -6.8240   23.3320 C   0  0  0  0  0
   76.4270   -8.4050   18.6110 O   0  0  0  0  0
   75.3780   -8.4150   17.6360 C   0  0  0  0  0
   75.9630   -8.5050   16.2180 C   0  0  0  0  0
   74.5950   -7.1160   17.8250 C   0  0  0  0  0
   73.2670   -7.0910   17.0670 C   0  0  0  0  0
   72.4720   -8.3900   17.2200 C   0  0  0  0  0
   73.3190   -9.5350   17.0930 O   0  0  0  0  0
   74.4550   -9.5840   17.9620 C   0  0  0  0  0
   74.0240   -9.5070   19.3130 O   0  0  0  0  0
   75.0910  -10.9680   17.8650 C   0  0  0  0  0
   74.6160  -11.7270   19.0960 C   0  0  0  0  0
   73.6990  -10.7720   19.8550 C   0  0  0  0  0
   72.3260  -11.0650   19.5320 O   0  0  0  0  0
   73.9290  -10.8140   21.3580 C   0  0  0  0  0
   72.8800   -9.9980   22.0990 C   0  0  0  0  0
   71.4880  -10.5130   21.7460 C   0  0  0  0  0
   68.3150  -10.9220   21.4630 O   0  0  0  0  0
   68.7620   -8.9220   20.5060 O   0  0  0  0  0
   67.5880  -10.6360   19.2370 C   0  0  0  0  0
   66.2210  -10.1390   19.7030 C   0  0  0  0  0
   65.0780  -10.7920   18.9330 C   0  0  0  0  0
   66.0370  -10.2860   21.2130 C   0  0  0  0  0
   65.5970  -11.6070   21.5100 O   0  0  0  0  0
   71.3680   -8.5090   16.1600 C   0  0  0  0  0
   70.3410   -7.3990   16.2610 C   0  0  0  0  0
   70.0900   -6.6750   15.1890 C   0  0  0  0  0
   69.6600   -7.1870   17.5990 C   0  0  0  0  0
   68.4240   -6.2970   17.5740 C   0  0  0  0  0
   67.6640   -6.3920   18.8930 C   0  0  0  0  0
   68.3270   -5.7830   20.1220 C   0  0  0  0  0
   69.2540   -4.9570   19.8930 N   0  0  0  0  0
   70.1200   -4.1620   20.7530 C   0  0  0  0  0
   71.0670   -5.0830   21.5220 C   0  0  0  0  0
   70.3800   -6.2820   22.1690 C   0  0  0  0  0
   68.9540   -5.9440   22.6250 C   0  0  0  0  0
   67.8520   -6.0740   21.5480 C   0  0  0  0  0
   66.1580   -4.9730   23.1260 C   0  0  0  0  0
   67.1150   -7.4310   21.7180 C   0  0  0  0  0
   67.3440  -10.0300   21.9710 C   0  0  0  0  0
   64.5950   -4.5642   25.2222 H   0  0  0  0  0
   63.8273   -5.8309   26.3928 H   0  0  0  0  0
   64.8067   -7.6051   25.1436 H   0  0  0  0  0
   71.7945   -6.0541   19.7449 H   0  0  0  0  0
   72.7513   -4.6424   20.2574 H   0  0  0  0  0
   72.8817   -6.1778   21.1498 H   0  0  0  0  0
   66.0335   -5.1179   21.0150 H   0  0  0  0  0
   67.3470   -4.0153   21.6557 H   0  0  0  0  0
   66.0176   -8.4283   23.4093 H   0  0  0  0  0
   68.6775   -8.3915   22.5489 H   0  0  0  0  0
   69.9941  -10.8900   18.6744 H   0  0  0  0  0
   69.9760  -12.0013   20.1614 H   0  0  0  0  0
   71.3132   -9.2895   20.0544 H   0  0  0  0  0
   72.1920   -7.1352   22.9621 H   0  0  0  0  0
   71.3409   -6.0432   24.0821 H   0  0  0  0  0
   70.7046   -7.6782   23.7770 H   0  0  0  0  0
   76.0449   -8.3485   19.4899 H   0  0  0  0  0
   76.6076   -7.6449   16.0370 H   0  0  0  0  0
   76.5441   -9.4224   16.1236 H   0  0  0  0  0
   75.1509   -8.5114   15.4910 H   0  0  0  0  0
   75.2093   -6.3030   17.4381 H   0  0  0  0  0
   74.3688   -7.0205   18.8870 H   0  0  0  0  0
   73.4895   -6.9586   16.0082 H   0  0  0  0  0
   72.6641   -6.2805   17.4766 H   0  0  0  0  0
   72.0278   -8.3565   18.2148 H   0  0  0  0  0
   76.1786  -10.9042   17.8325 H   0  0  0  0  0
   74.7977  -11.4767   16.9467 H   0  0  0  0  0
   75.4572  -12.0399   19.7145 H   0  0  0  0  0
   74.0896  -12.6397   18.8169 H   0  0  0  0  0
   74.9115  -10.3929   21.5712 H   0  0  0  0  0
   73.8628  -11.8498   21.6910 H   0  0  0  0  0
   72.9634   -8.9509   21.8079 H   0  0  0  0  0
   73.0397  -10.0926   23.1731 H   0  0  0  0  0
   71.3889  -11.5592   22.0355 H   0  0  0  0  0
   70.7286   -9.9422   22.2804 H   0  0  0  0  0
   67.5297  -11.7184   19.1228 H   0  0  0  0  0
   67.8289  -10.1273   18.3036 H   0  0  0  0  0
   66.1895   -9.0726   19.4796 H   0  0  0  0  0
   65.1788  -10.5630   17.8721 H   0  0  0  0  0
   65.1141  -11.8717   19.0780 H   0  0  0  0  0
   64.1270  -10.4063   19.3005 H   0  0  0  0  0
   65.2996   -9.5482   21.5292 H   0  0  0  0  0
   65.4815  -11.6989   22.4586 H   0  0  0  0  0
   70.8536   -9.4572   16.3164 H   0  0  0  0  0
   71.8371   -8.4436   15.1783 H   0  0  0  0  0
   70.6164   -6.8806   14.2570 H   0  0  0  0  0
   69.3559   -5.8705   15.2343 H   0  0  0  0  0
   70.3869   -6.6897   18.2412 H   0  0  0  0  0
   69.3280   -8.1688   17.9366 H   0  0  0  0  0
   67.7699   -6.6252   16.7662 H   0  0  0  0  0
   68.7368   -5.2641   17.4213 H   0  0  0  0  0
   67.5690   -7.4571   19.1044 H   0  0  0  0  0
   66.7415   -5.8306   18.7448 H   0  0  0  0  0
   69.5099   -3.5993   21.4595 H   0  0  0  0  0
   70.7028   -3.4731   20.1416 H   0  0  0  0  0
   71.4650   -4.5068   22.3573 H   0  0  0  0  0
   70.3003   -7.0621   21.4119 H   0  0  0  0  0
   68.9679   -4.8962   22.9251 H   0  0  0  0  0
   68.7042   -6.6601   23.4079 H   0  0  0  0  0
   66.8588   -4.5296   23.8334 H   0  0  0  0  0
   65.2222   -4.4201   23.0438 H   0  0  0  0  0
   66.4865   -7.4929   20.8296 H   0  0  0  0  0
   67.0531  -10.1127   23.0182 H   0  0  0  0  0
  2  1  2  0  0  0
  4  2  1  0  0  0
 44  3  1  0  0  0
  4  6  2  0  0  0
 48  4  1  0  0  0
 47  5  1  0  0  0
  5 48  1  0  0  0
  6 49  1  0  0  0
  7 29  1  0  0  0
 49  7  1  0  0  0
  7 50  1  0  0  0
  8  9  1  0  0  0
 28  8  1  0  0  0
 29  8  1  0  0  0
  8 30  1  0  0  0
  9 10  1  0  0  0
 10 24  1  0  0  0
 10 27  1  0  0  0
 45 11  1  0  0  0
 13 12  1  0  0  0
 13 14  1  0  0  0
 15 13  1  0  0  0
 19 13  1  0  0  0
 16 15  1  0  0  0
 17 16  1  0  0  0
 17 18  1  0  0  0
 35 17  1  0  0  0
 18 19  1  0  0  0
 19 20  1  0  0  0
 19 21  1  0  0  0
 20 23  1  0  0  0
 21 22  1  0  0  0
 22 23  1  0  0  0
 23 24  1  0  0  0
 23 25  1  0  0  0
 25 26  1  0  0  0
 27 26  1  0  0  0
 50 28  1  0  0  0
 31 30  1  0  0  0
 31 32  1  0  0  0
 33 31  1  0  0  0
 33 34  1  0  0  0
 50 33  1  0  0  0
 36 35  1  0  0  0
 36 37  2  0  0  0
 38 36  1  0  0  0
 39 38  1  0  0  0
 40 39  1  0  0  0
 41 40  1  0  0  0
 42 41  2  0  0  0
 41 47  1  0  0  0
 43 42  1  0  0  0
 44 43  1  0  0  0
 44 45  1  0  0  0
 45 46  1  0  0  0
 46 47  1  0  0  0
 47 49  1  0  0  0
  1 51  1  0  0  0
  1 52  1  0  0  0
  2 53  1  0  0  0
  3 54  1  0  0  0
  3 55  1  0  0  0
  3 56  1  0  0  0
  5 57  1  0  0  0
  5 58  1  0  0  0
  6 59  1  0  0  0
  7 60  1  0  0  0
  9 61  1  0  0  0
  9 62  1  0  0  0
 10 63  1  0  0  0
 11 64  1  0  0  0
 11 65  1  0  0  0
 11 66  1  0  0  0
 12 67  1  0  0  0
 14 68  1  0  0  0
 14 69  1  0  0  0
 14 70  1  0  0  0
 15 71  1  0  0  0
 15 72  1  0  0  0
 16 73  1  0  0  0
 16 74  1  0  0  0
 17 75  1  0  0  0
 21 76  1  0  0  0
 21 77  1  0  0  0
 22 78  1  0  0  0
 22 79  1  0  0  0
 25 80  1  0  0  0
 25 81  1  0  0  0
 26 82  1  0  0  0
 26 83  1  0  0  0
 27 84  1  0  0  0
 27 85  1  0  0  0
 30 86  1  0  0  0
 30 87  1  0  0  0
 31 88  1  0  0  0
 32 89  1  0  0  0
 32 90  1  0  0  0
 32 91  1  0  0  0
 33 92  1  0  0  0
 34 93  1  0  0  0
 35 94  1  0  0  0
 35 95  1  0  0  0
 37 96  1  0  0  0
 37 97  1  0  0  0
 38 98  1  0  0  0
 38 99  1  0  0  0
 39100  1  0  0  0
 39101  1  0  0  0
 40102  1  0  0  0
 40103  1  0  0  0
 43104  1  0  0  0
 43105  1  0  0  0
 44106  1  0  0  0
 45107  1  0  0  0
 46108  1  0  0  0
 46109  1  0  0  0
 48110  1  0  0  0
 48111  1  0  0  0
 49112  1  0  0  0
 50113  1  0  0  0
M  END
$$$$
