1aq7_ligand
  -I-interpret- 

 91 93  0  0  0  0  0  0  0  0999 V2000
   11.5750   14.6890   12.1690 C   0  0  0  0  0
   12.9620   14.6010   11.5010 C   0  0  0  0  0
   13.9330   15.6110   11.7460 C   0  0  0  0  0
   13.6520   16.7070   12.6200 C   0  0  0  0  0
   12.3740   16.8710   13.2400 C   0  0  0  0  0
   11.3160   15.9390   13.0700 C   0  0  0  0  0
   14.7950   17.6910   12.9580 C   0  0  0  0  0
   15.2150   18.5120   11.7800 C   0  0  0  0  0
   16.5350   19.2400   12.0350 C   0  0  0  0  0
   14.1830   19.4170   11.6090 O   0  0  0  0  0
   17.3550   18.8140   12.8620 O   0  0  0  0  0
   16.7080   20.3510   11.3210 N   0  0  0  0  0
   18.0870   20.7870   11.1980 C   0  0  0  0  0
   18.2050   22.3420   11.2020 C   0  0  0  0  0
   19.3450   22.9340   10.3930 C   0  0  0  0  0
   16.9390   23.1500   11.3070 C   0  0  0  0  0
   19.1760   24.3770    9.8970 C   0  0  0  0  0
   18.8040   20.0140   10.0580 C   0  0  0  0  0
   18.2080   19.6580    9.0360 O   0  0  0  0  0
   20.1080   19.7640   10.2930 N   0  0  0  0  0
   20.8920   20.0840   11.5050 C   0  0  0  0  0
   22.3560   20.2330   10.9820 C   0  0  0  0  0
   22.3950   19.2430    9.7860 C   0  0  0  0  0
   20.9720   19.1490    9.2620 C   0  0  0  0  0
   20.7810   18.9380   12.5420 C   0  0  0  0  0
   21.9030   18.9810   13.5970 C   0  0  0  0  0
   23.2430   18.7970   12.8690 C   0  0  0  0  0
   23.4750   20.0080   11.9760 C   0  0  0  0  0
   21.8500   20.1940   14.3890 O   0  0  0  0  0
   22.6060   20.5130   15.7520 S   0  0  0  0  0
   23.8750   20.9440   15.3450 O   0  0  0  0  0
   22.9770   19.2080   16.5050 O   0  0  0  0  0
   21.7650   21.3400   16.5750 O   0  0  0  0  0
   20.5070   17.6910    9.0040 C   0  0  0  0  0
   20.0270   16.9380    9.8730 O   0  0  0  0  0
   20.6860   17.3780    7.7190 N   0  0  0  0  0
   20.1850   16.1050    7.1600 C   0  0  0  0  0
   19.1140   16.2860    6.0920 C   0  0  0  0  0
   17.8100   16.8870    6.5690 C   0  0  0  0  0
   16.9070   17.1060    5.3550 C   0  0  0  0  0
   15.5430   17.3860    5.6720 N   0  0  0  0  0
   14.6770   17.5670    4.6780 C   0  0  0  0  0
   15.0840   17.5040    3.4110 N   0  0  0  0  0
   13.3940   17.8360    4.9570 N   0  0  0  0  0
   10.7520   13.8120   11.9520 O   0  0  0  0  0
   13.1981   13.7657   10.8418 H   0  0  0  0  0
   14.9066   15.5485   11.2598 H   0  0  0  0  0
   12.2052   17.7459   13.8679 H   0  0  0  0  0
   10.3513   16.0913   13.5540 H   0  0  0  0  0
   15.6556   17.1064   13.2832 H   0  0  0  0  0
   14.4345   18.3714   13.7295 H   0  0  0  0  0
   15.3885   17.8947   10.8985 H   0  0  0  0  0
   14.3796   19.9875   10.8623 H   0  0  0  0  0
   15.9317   20.8562   10.8938 H   0  0  0  0  0
   18.6544   20.5134   12.0875 H   0  0  0  0  0
   18.5665   22.4959   12.2187 H   0  0  0  0  0
   19.4225   22.3194    9.4961 H   0  0  0  0  0
   20.2061   22.9491   11.0612 H   0  0  0  0  0
   16.2904   22.9181   10.4623 H   0  0  0  0  0
   16.4280   22.9031   12.2376 H   0  0  0  0  0
   17.1853   24.2118   11.2969 H   0  0  0  0  0
   18.2983   24.4382    9.2536 H   0  0  0  0  0
   19.0485   25.0411   10.7519 H   0  0  0  0  0
   20.0617   24.6726    9.3346 H   0  0  0  0  0
   20.5415   20.9830   12.0120 H   0  0  0  0  0
   22.5598   21.2715   10.7210 H   0  0  0  0  0
   22.7626   18.2656   10.0986 H   0  0  0  0  0
   23.0757   19.5930    9.0100 H   0  0  0  0  0
   20.9139   19.6567    8.2992 H   0  0  0  0  0
   20.8613   17.9923   12.0060 H   0  0  0  0  0
   19.8288   19.0471   13.0611 H   0  0  0  0  0
   21.7767   18.1717   14.3162 H   0  0  0  0  0
   24.0521   18.7077   13.5939 H   0  0  0  0  0
   23.2187   17.8887   12.2669 H   0  0  0  0  0
   23.5312   20.8876   12.6173 H   0  0  0  0  0
   24.3907   19.8334   11.4111 H   0  0  0  0  0
   23.5377   18.6655   15.9457 H   0  0  0  0  0
   21.1789   18.0311    7.1100 H   0  0  0  0  0
   19.7371   15.5426    7.9793 H   0  0  0  0  0
   21.0297   15.5989    6.6926 H   0  0  0  0  0
   18.8774   15.2895    5.7190 H   0  0  0  0  0
   19.5237   16.9790    5.3572 H   0  0  0  0  0
   17.9982   17.8366    7.0700 H   0  0  0  0  0
   17.3262   16.2143    7.2772 H   0  0  0  0  0
   16.9165   16.1800    4.7800 H   0  0  0  0  0
   17.2947   17.9744    4.8224 H   0  0  0  0  0
   15.2379   17.4462    6.6434 H   0  0  0  0  0
   16.0639   17.3162    3.1988 H   0  0  0  0  0
   12.7293   17.9925    4.1993 H   0  0  0  0  0
   13.0823   17.8843    5.9270 H   0  0  0  0  0
   11.1366   13.1501   11.3727 H   0  0  0  0  0
  1 45  1  0  0  0
  1  6  4  0  0  0
  1  2  4  0  0  0
  2  3  4  0  0  0
  3  4  4  0  0  0
  4  7  1  0  0  0
  4  5  4  0  0  0
  5  6  4  0  0  0
  7  8  1  0  0  0
  8 10  1  0  0  0
  8  9  1  0  0  0
  9 12  1  0  0  0
  9 11  2  0  0  0
 12 13  1  0  0  0
 13 18  1  0  0  0
 13 14  1  0  0  0
 14 16  1  0  0  0
 14 15  1  0  0  0
 15 17  1  0  0  0
 18 20  1  0  0  0
 18 19  2  0  0  0
 20 24  1  0  0  0
 20 21  1  0  0  0
 21 25  1  0  0  0
 21 22  1  0  0  0
 22 28  1  0  0  0
 22 23  1  0  0  0
 23 24  1  0  0  0
 24 34  1  0  0  0
 34 36  1  0  0  0
 34 35  2  0  0  0
 36 37  1  0  0  0
 37 38  1  0  0  0
 38 39  1  0  0  0
 39 40  1  0  0  0
 40 41  1  0  0  0
 41 42  1  0  0  0
 42 44  1  0  0  0
 42 43  2  0  0  0
 28 27  1  0  0  0
 27 26  1  0  0  0
 26 29  1  0  0  0
 26 25  1  0  0  0
 29 30  1  0  0  0
 30 33  2  0  0  0
 30 32  1  0  0  0
 30 31  2  0  0  0
  2 46  1  0  0  0
  3 47  1  0  0  0
  5 48  1  0  0  0
  6 49  1  0  0  0
  7 50  1  0  0  0
  7 51  1  0  0  0
  8 52  1  0  0  0
 10 53  1  0  0  0
 12 54  1  0  0  0
 13 55  1  0  0  0
 14 56  1  0  0  0
 15 57  1  0  0  0
 15 58  1  0  0  0
 16 59  1  0  0  0
 16 60  1  0  0  0
 16 61  1  0  0  0
 17 62  1  0  0  0
 17 63  1  0  0  0
 17 64  1  0  0  0
 21 65  1  0  0  0
 22 66  1  0  0  0
 23 67  1  0  0  0
 23 68  1  0  0  0
 24 69  1  0  0  0
 25 70  1  0  0  0
 25 71  1  0  0  0
 26 72  1  0  0  0
 27 73  1  0  0  0
 27 74  1  0  0  0
 28 75  1  0  0  0
 28 76  1  0  0  0
 32 77  1  0  0  0
 36 78  1  0  0  0
 37 79  1  0  0  0
 37 80  1  0  0  0
 38 81  1  0  0  0
 38 82  1  0  0  0
 39 83  1  0  0  0
 39 84  1  0  0  0
 40 85  1  0  0  0
 40 86  1  0  0  0
 41 87  1  0  0  0
 43 88  1  0  0  0
 44 89  1  0  0  0
 44 90  1  0  0  0
 45 91  1  0  0  0
M  END
$$$$
