4i9i_ligand
  -I-interpret- 

 55 58  0  0  0  0  0  0  0  0999 V2000
   35.7040   25.8820   18.2710 N   0  0  0  0  0
   35.9180   25.5960   16.9930 C   0  0  0  0  0
   36.6710   24.6830   16.6820 O   0  0  0  0  0
   35.2460   26.4510   16.0480 C   0  0  0  0  0
   35.4240   26.2140   14.6570 C   0  0  0  0  0
   34.7440   27.1060   13.7530 C   0  0  0  0  0
   33.9280   28.1850   14.2250 C   0  0  0  0  0
   33.7420   28.4270   15.6280 C   0  0  0  0  0
   34.4210   27.5310   16.5290 C   0  0  0  0  0
   34.2940   27.7070   17.8590 N   0  0  0  0  0
   34.9230   26.8960   18.7210 C   0  0  0  0  0
   34.7570   27.1120   20.2110 C   0  0  0  0  0
   33.2680   27.1630   20.4880 C   0  0  0  0  0
   32.7050   25.8360   20.9710 C   0  0  0  0  0
   32.1820   25.0610   20.1730 O   0  0  0  0  0
   32.8290   25.6060   22.3310 N   0  0  0  0  0
   32.6250   24.4490   23.0110 C   0  0  0  0  0
   33.2020   24.3870   24.3220 C   0  0  0  0  0
   32.9980   23.1710   25.0880 C   0  0  0  0  0
   31.8610   23.3570   22.4370 C   0  0  0  0  0
   31.6520   22.1590   23.1730 C   0  0  0  0  0
   32.2210   22.0950   24.4810 C   0  0  0  0  0
   31.9160   20.8600   25.2130 C   0  0  0  0  0
   31.4480   19.8620   24.6760 O   0  0  0  0  0
   32.1530   20.8820   26.5510 N   0  0  0  0  0
   32.1590   19.8290   27.4520 C   0  0  0  0  0
   31.7480   18.4780   27.1670 C   0  0  0  0  0
   31.8160   17.4890   28.2420 C   0  0  0  0  0
   32.2820   17.8220   29.5650 C   0  0  0  0  0
   32.6950   19.1690   29.8600 C   0  0  0  0  0
   32.6170   20.1480   28.7750 C   0  0  0  0  0
   32.9160   21.4880   28.7470 O   0  0  0  0  0
   33.0190   22.2070   29.9700 C   0  0  0  0  0
   36.1616   25.2947   18.9682 H   0  0  0  0  0
   36.0455   25.3962   14.2922 H   0  0  0  0  0
   34.8534   26.9557   12.6790 H   0  0  0  0  0
   33.4372   28.8370   13.5025 H   0  0  0  0  0
   33.1203   29.2450   15.9920 H   0  0  0  0  0
   35.2392   28.0386   20.5225 H   0  0  0  0  0
   35.2263   26.3042   20.7725 H   0  0  0  0  0
   32.7660   27.4153   19.5540 H   0  0  0  0  0
   33.1027   27.8988   21.2750 H   0  0  0  0  0
   33.1096   26.4090   22.8939 H   0  0  0  0  0
   33.7727   25.2220   24.7284 H   0  0  0  0  0
   33.4140   23.0644   26.0898 H   0  0  0  0  0
   31.4445   23.4560   21.4346 H   0  0  0  0  0
   31.0832   21.3270   22.7577 H   0  0  0  0  0
   32.3543   21.8003   26.9467 H   0  0  0  0  0
   31.3949   18.1997   26.1740 H   0  0  0  0  0
   31.5037   16.4652   28.0360 H   0  0  0  0  0
   32.3215   17.0561   30.3396 H   0  0  0  0  0
   33.0514   19.4485   30.8514 H   0  0  0  0  0
   32.0694   22.1536   30.5025 H   0  0  0  0  0
   33.8060   21.7678   30.5830 H   0  0  0  0  0
   33.2602   23.2487   29.7584 H   0  0  0  0  0
  1  2  1  0  0  0
  1 11  1  0  0  0
  2  3  2  0  0  0
  2  4  1  0  0  0
  4  5  4  0  0  0
  4  9  4  0  0  0
  5  6  4  0  0  0
  6  7  4  0  0  0
  7  8  4  0  0  0
  8  9  4  0  0  0
  9 10  1  0  0  0
 10 11  2  0  0  0
 11 12  1  0  0  0
 12 13  1  0  0  0
 13 14  1  0  0  0
 14 15  2  0  0  0
 14 16  1  0  0  0
 16 17  1  0  0  0
 17 18  4  0  0  0
 17 20  4  0  0  0
 18 19  4  0  0  0
 19 22  4  0  0  0
 20 21  4  0  0  0
 21 22  4  0  0  0
 22 23  1  0  0  0
 23 24  2  0  0  0
 23 25  1  0  0  0
 25 26  1  0  0  0
 26 27  4  0  0  0
 26 31  4  0  0  0
 27 28  4  0  0  0
 28 29  4  0  0  0
 29 30  4  0  0  0
 30 31  4  0  0  0
 31 32  1  0  0  0
 32 33  1  0  0  0
  1 34  1  0  0  0
  5 35  1  0  0  0
  6 36  1  0  0  0
  7 37  1  0  0  0
  8 38  1  0  0  0
 12 39  1  0  0  0
 12 40  1  0  0  0
 13 41  1  0  0  0
 13 42  1  0  0  0
 16 43  1  0  0  0
 18 44  1  0  0  0
 19 45  1  0  0  0
 20 46  1  0  0  0
 21 47  1  0  0  0
 25 48  1  0  0  0
 27 49  1  0  0  0
 28 50  1  0  0  0
 29 51  1  0  0  0
 30 52  1  0  0  0
 33 53  1  0  0  0
 33 54  1  0  0  0
 33 55  1  0  0  0
M  END
$$$$
