6exi_ligand
  -I-interpret- 

 32 34  0  0  0  0  0  0  0  0999 V2000
  -13.1710   64.7330   22.1520 O   0  0  0  0  0
  -13.9790   64.1560   21.1410 C   0  0  0  0  0
  -14.2060   65.0990   19.9680 C   0  0  0  0  0
  -15.2140   66.0810   20.3040 O   0  0  0  0  0
  -13.0140   65.8920   19.4500 C   0  0  0  0  0
  -13.2140   66.1370   18.0610 O   0  0  0  0  0
  -13.1310   67.2180   20.2020 C   0  0  0  0  0
  -12.5760   68.3370   19.5460 O   0  0  0  0  0
  -14.6540   67.3840   20.3420 C   0  0  0  0  0
  -15.0350   67.9460   21.6410 N   0  0  0  0  0
  -14.5730   67.4690   22.7770 C   0  0  0  0  0
  -15.1540   68.1430   23.8450 N   0  0  0  0  0
  -16.0010   69.0770   23.3120 C   0  0  0  0  0
  -16.8390   70.0570   23.8850 C   0  0  0  0  0
  -16.8910   70.2180   25.2940 N   0  0  0  0  0
  -17.5810   70.8380   23.0930 N   0  0  0  0  0
  -17.5150   70.7130   21.7470 C   0  0  0  0  0
  -16.7470   69.8100   21.1500 N   0  0  0  0  0
  -15.9650   68.9720   21.9000 C   0  0  0  0  0
  -13.0568   64.1030   22.8673 H   0  0  0  0  0
  -14.9499   63.9231   21.5783 H   0  0  0  0  0
  -13.4671   63.2697   20.7661 H   0  0  0  0  0
  -14.4874   64.4054   19.1756 H   0  0  0  0  0
  -12.0540   65.3942   19.5872 H   0  0  0  0  0
  -13.1427   65.3105   17.5779 H   0  0  0  0  0
  -12.5700   67.1816   21.1359 H   0  0  0  0  0
  -11.6265   68.2208   19.4653 H   0  0  0  0  0
  -15.0000   68.0473   19.5492 H   0  0  0  0  0
  -13.8430   66.6646   22.8672 H   0  0  0  0  0
  -16.3213   69.6241   25.8966 H   0  0  0  0  0
  -17.4981   70.9276   25.7042 H   0  0  0  0  0
  -18.1161   71.3800   21.1290 H   0  0  0  0  0
  1  2  1  0  0  0
  2  3  1  0  0  0
  3  4  1  0  0  0
  3  5  1  0  0  0
  4  9  1  0  0  0
  5  6  1  0  0  0
  5  7  1  0  0  0
  7  8  1  0  0  0
  7  9  1  0  0  0
  9 10  1  0  0  0
 10 11  4  0  0  0
 10 19  4  0  0  0
 11 12  4  0  0  0
 12 13  4  0  0  0
 13 14  4  0  0  0
 13 19  4  0  0  0
 14 15  1  0  0  0
 14 16  4  0  0  0
 16 17  4  0  0  0
 17 18  4  0  0  0
 18 19  4  0  0  0
  1 20  1  0  0  0
  2 21  1  0  0  0
  2 22  1  0  0  0
  3 23  1  0  0  0
  5 24  1  0  0  0
  6 25  1  0  0  0
  7 26  1  0  0  0
  8 27  1  0  0  0
  9 28  1  0  0  0
 11 29  1  0  0  0
 15 30  1  0  0  0
 15 31  1  0  0  0
 17 32  1  0  0  0
M  END
$$$$
