6ior_ligand
  -I-interpret- 

 18 17  0  0  0  0  0  0  0  0999 V2000
   97.5200   31.6170   36.9420 N   0  3  0  0  0
   97.6950   32.8890   37.6370 C   0  0  0  0  0
   97.0320   32.8570   39.0260 C   0  0  0  0  0
   96.2230   31.9640   39.2980 O   0  0  0  0  0
   97.1360   34.0410   36.7860 C   0  0  0  0  0
   95.6670   33.8360   36.4200 C   0  0  0  0  0
   94.8860   33.3450   37.2330 O   0  0  0  0  0
   95.2860   34.2010   35.1920 N   0  0  0  0  0
   97.2980   33.7010   39.8910 O   0  0  0  0  0
   97.8947   30.8624   37.5170 H   0  0  0  0  0
   96.5268   31.4568   36.7736 H   0  0  0  0  0
   98.0167   31.6463   36.0516 H   0  0  0  0  0
   98.7619   33.0556   37.7855 H   0  0  0  0  0
   97.7106   34.0862   35.8609 H   0  0  0  0  0
   97.2131   34.9588   37.3689 H   0  0  0  0  0
   94.3167   34.0756   34.9004 H   0  0  0  0  0
   95.9646   34.6050   34.5465 H   0  0  0  0  0
   97.9360   34.3268   39.5404 H   0  0  0  0  0
  1  2  1  0  0  0
  2  3  1  0  0  0
  2  5  1  0  0  0
  3  4  2  0  0  0
  3  9  1  0  0  0
  5  6  1  0  0  0
  6  7  2  0  0  0
  6  8  1  0  0  0
  1 10  1  0  0  0
  1 11  1  0  0  0
  1 12  1  0  0  0
  2 13  1  0  0  0
  5 14  1  0  0  0
  5 15  1  0  0  0
  8 16  1  0  0  0
  8 17  1  0  0  0
  9 18  1  0  0  0
M  END
$$$$
