4izm_ligand
  -I-interpret- 

 17 16  0  0  0  0  0  0  0  0999 V2000
    7.3050   -6.8600    6.7190 N   0  3  0  0  0
    7.3290   -8.1590    7.4500 C   0  0  0  0  0
    8.1570   -8.0810    8.7310 C   0  0  0  0  0
    8.0290   -8.9200    9.6280 O   0  0  0  0  0
    7.8550   -9.2740    6.5440 C   0  0  0  0  0
    6.8340   -9.7180    5.5190 C   0  0  0  0  0
    6.8760   -9.2090    4.3810 O   0  0  0  0  0
    5.9630  -10.5460    5.8590 O   0  0  0  0  0
    8.9650   -7.1690    8.9110 O   0  0  0  0  0
    6.9522   -6.1297    7.3375 H   0  0  0  0  0
    8.2501   -6.6239    6.4166 H   0  0  0  0  0
    6.6963   -6.9408    5.9045 H   0  0  0  0  0
    6.3028   -8.3875    7.7376 H   0  0  0  0  0
    7.3743   -9.5709    9.3648 H   0  0  0  0  0
    8.0962  -10.1318    7.1718 H   0  0  0  0  0
    8.7239   -8.8908    6.0090 H   0  0  0  0  0
    6.1120  -10.8097    6.7700 H   0  0  0  0  0
  1  2  1  0  0  0
  2  3  1  0  0  0
  2  5  1  0  0  0
  3  4  1  0  0  0
  3  9  2  0  0  0
  5  6  1  0  0  0
  6  7  2  0  0  0
  6  8  1  0  0  0
  1 10  1  0  0  0
  1 11  1  0  0  0
  1 12  1  0  0  0
  2 13  1  0  0  0
  4 14  1  0  0  0
  5 15  1  0  0  0
  5 16  1  0  0  0
  8 17  1  0  0  0
M  END
$$$$
