5nvf_ligand
  -I-interpret- 

 36 39  0  0  0  0  0  0  0  0999 V2000
    5.7030   39.9600    6.2360 C   0  0  0  0  0
    5.4730   40.2950    4.8890 C   0  0  0  0  0
    5.7230   39.3240    3.9180 C   0  0  0  0  0
    6.2070   38.0720    4.2790 C   0  0  0  0  0
    6.4150   37.7610    5.6400 N   0  0  0  0  0
    6.2070   38.7010    6.5840 C   0  0  0  0  0
    6.3830   38.3640    7.9510 C   0  0  0  0  0
    5.9530   37.1260    8.4220 C   0  0  0  0  0
    6.0580   36.7470    9.7600 C   0  0  0  0  0
    6.8730   39.2650    8.8890 C   0  0  0  0  0
    6.9770   38.9040   10.2460 C   0  0  0  0  0
    6.6000   37.6160   10.7090 C   0  0  0  0  0
    6.6200   37.2740   12.0780 C   0  0  0  0  0
    5.7890   36.3170   12.5540 N   0  0  0  0  0
    5.7430   36.0290   13.8670 C   0  0  0  0  0
    4.8810   35.0030   14.2510 C   0  0  0  0  0
    4.7690   34.6730   15.5910 C   0  0  0  0  0
    5.5020   35.3890   16.5630 C   0  0  0  0  0
    6.3570   36.4130   16.1700 C   0  0  0  0  0
    6.4660   36.7450   14.8260 C   0  0  0  0  0
    7.3490   37.7340   14.3600 C   0  0  0  0  0
    8.0960   38.4060   15.0910 O   0  0  0  0  0
    7.3670   38.0020   12.9840 N   0  0  0  0  0
    5.4864   40.6886    7.0172 H   0  0  0  0  0
    5.1099   41.2846    4.6116 H   0  0  0  0  0
    5.5371   39.5494    2.8679 H   0  0  0  0  0
    6.4260   37.3302    3.5109 H   0  0  0  0  0
    5.5152   36.4224    7.7139 H   0  0  0  0  0
    5.7127   35.7603   10.0687 H   0  0  0  0  0
    7.1799   40.2613    8.5709 H   0  0  0  0  0
    7.3575   39.6337   10.9608 H   0  0  0  0  0
    4.2997   34.4648   13.5023 H   0  0  0  0  0
    4.1130   33.8580   15.8967 H   0  0  0  0  0
    5.3978   35.1395   17.6189 H   0  0  0  0  0
    6.9403   36.9538   16.9153 H   0  0  0  0  0
    7.9530   38.7623   12.6391 H   0  0  0  0  0
  1  2  4  0  0  0
  1  6  4  0  0  0
  2  3  4  0  0  0
  3  4  4  0  0  0
  4  5  4  0  0  0
  5  6  4  0  0  0
  6  7  1  0  0  0
  7  8  4  0  0  0
  7 10  4  0  0  0
  8  9  4  0  0  0
  9 12  4  0  0  0
 10 11  4  0  0  0
 11 12  4  0  0  0
 12 13  1  0  0  0
 13 14  2  0  0  0
 13 23  1  0  0  0
 14 15  1  0  0  0
 15 16  4  0  0  0
 15 20  4  0  0  0
 16 17  4  0  0  0
 17 18  4  0  0  0
 18 19  4  0  0  0
 19 20  4  0  0  0
 20 21  1  0  0  0
 21 22  2  0  0  0
 21 23  1  0  0  0
  1 24  1  0  0  0
  2 25  1  0  0  0
  3 26  1  0  0  0
  4 27  1  0  0  0
  8 28  1  0  0  0
  9 29  1  0  0  0
 10 30  1  0  0  0
 11 31  1  0  0  0
 16 32  1  0  0  0
 17 33  1  0  0  0
 18 34  1  0  0  0
 19 35  1  0  0  0
 23 36  1  0  0  0
M  END
$$$$
