2rfy_ligand
  -I-interpret- 

 45 46  0  0  0  0  0  0  0  0999 V2000
   -0.2090   -5.2640   75.8990 C   0  0  0  0  0
    0.8220   -4.2910   75.3180 C   0  0  0  0  0
    0.8520   -4.3480   73.7900 C   0  0  0  0  0
    0.8400   -5.7940   73.2910 C   0  0  0  0  0
   -0.2460   -6.6040   74.0040 C   0  0  0  0  0
   -0.1760   -8.0640   73.5450 C   0  0  0  0  0
    0.4730   -2.9840   75.7780 O   0  0  0  0  0
    2.0350   -3.7060   73.2970 O   0  0  0  0  0
    0.6350   -5.8390   71.8820 O   0  0  0  0  0
    0.0730   -6.5790   75.4090 O   0  0  0  0  0
   -1.2630   -8.7740   74.1510 O   0  0  0  0  0
   -1.6000   -7.2850   80.3020 C   0  0  0  0  0
   -1.5520   -8.2030   79.0760 C   0  0  0  0  0
   -0.9050   -7.4370   77.9260 C   0  0  0  0  0
   -1.2290   -5.9660   77.8750 C   0  0  0  0  0
   -1.7380   -5.2870   79.1170 C   0  0  0  0  0
   -2.7170   -4.1740   78.6980 C   0  0  0  0  0
   -1.9960   -7.9400   81.4930 O   0  0  0  0  0
   -0.7600   -9.3560   79.3920 O   0  0  0  0  0
   -1.1560   -8.0500   76.6570 O   0  0  0  0  0
   -0.1240   -5.2470   77.3300 O   0  0  0  0  0
   -2.4590   -6.1850   79.9770 O   0  0  0  0  0
   -3.1570   -4.4220   77.3630 O   0  0  0  0  0
   -1.2149   -4.9698   75.5996 H   0  0  0  0  0
    1.8241   -4.5616   75.6507 H   0  0  0  0  0
   -0.0372   -3.8352   73.4233 H   0  0  0  0  0
    1.8105   -6.2355   73.5173 H   0  0  0  0  0
   -1.2330   -6.1930   73.7920 H   0  0  0  0  0
    0.7744   -8.5064   73.8435 H   0  0  0  0  0
   -0.2497   -8.1202   72.4589 H   0  0  0  0  0
    0.4616   -2.9763   76.7379 H   0  0  0  0  0
    2.0553   -2.7964   73.6032 H   0  0  0  0  0
    1.3200   -5.3289   71.4437 H   0  0  0  0  0
   -1.2367   -9.6932   73.8752 H   0  0  0  0  0
   -0.5916   -6.9352   80.5228 H   0  0  0  0  0
   -2.5561   -8.5187   78.7926 H   0  0  0  0  0
    0.1613   -7.4969   78.1441 H   0  0  0  0  0
   -2.1077   -5.9382   77.2307 H   0  0  0  0  0
   -0.8727   -4.9039   79.6579 H   0  0  0  0  0
   -2.2172   -3.2066   78.7470 H   0  0  0  0  0
   -3.5736   -4.1644   79.3720 H   0  0  0  0  0
   -2.0041   -7.3089   82.2164 H   0  0  0  0  0
   -0.7244   -9.9373   78.6288 H   0  0  0  0  0
   -0.7320   -7.5366   75.9654 H   0  0  0  0  0
   -3.7679   -3.7316   77.0952 H   0  0  0  0  0
  1  2  1  0  0  0
  1 10  1  0  0  0
 21  1  1  0  0  0
  2  3  1  0  0  0
  2  7  1  0  0  0
  3  4  1  0  0  0
  3  8  1  0  0  0
  5  4  1  0  0  0
  4  9  1  0  0  0
  5  6  1  0  0  0
 10  5  1  0  0  0
  6 11  1  0  0  0
 13 12  1  0  0  0
 12 18  1  0  0  0
 12 22  1  0  0  0
 14 13  1  0  0  0
 13 19  1  0  0  0
 15 14  1  0  0  0
 14 20  1  0  0  0
 15 16  1  0  0  0
 15 21  1  0  0  0
 16 17  1  0  0  0
 16 22  1  0  0  0
 17 23  1  0  0  0
  1 24  1  0  0  0
  2 25  1  0  0  0
  3 26  1  0  0  0
  4 27  1  0  0  0
  5 28  1  0  0  0
  6 29  1  0  0  0
  6 30  1  0  0  0
  7 31  1  0  0  0
  8 32  1  0  0  0
  9 33  1  0  0  0
 11 34  1  0  0  0
 12 35  1  0  0  0
 13 36  1  0  0  0
 14 37  1  0  0  0
 15 38  1  0  0  0
 16 39  1  0  0  0
 17 40  1  0  0  0
 17 41  1  0  0  0
 18 42  1  0  0  0
 19 43  1  0  0  0
 20 44  1  0  0  0
 23 45  1  0  0  0
M  END
$$$$
