5t2l_ligand
  -I-interpret- 

 49 53  0  0  0  0  0  0  0  0999 V2000
   45.7860   -2.0630   18.7930 C   0  0  0  0  0
   44.7700   -2.0680   19.7220 C   0  0  0  0  0
   47.0690   -2.3920   19.1870 C   0  0  0  0  0
   41.4040   -4.4100   25.8620 C   0  0  0  0  0
   42.5270   -8.4020   23.3370 C   0  0  0  0  0
   46.3400   -2.7670   21.4570 C   0  0  0  0  0
   42.4860   -4.8070   25.1040 C   0  0  0  0  0
   41.4550  -10.2330   23.9590 C   0  0  0  0  0
   41.5780   -6.8940   24.9840 C   0  0  0  0  0
   40.4940   -6.5040   25.7560 C   0  0  0  0  0
   43.5700   -3.9080   24.7410 C   0  0  0  0  0
   45.3270   -3.2160   23.7630 C   0  0  0  0  0
   40.9680  -11.5930   24.0330 C   0  0  0  0  0
   46.5950   -3.1600   22.8740 C   0  0  0  0  0
   45.1770   -0.8250   24.6450 C   0  0  0  0  0
   41.0520   -9.2640   24.7960 N   0  0  0  0  0
   43.6410   -2.6230   25.1160 N   0  0  0  0  0
   41.7080   -8.1600   24.4070 N   0  0  0  0  0
   40.0570  -11.8330   25.0270 N   0  0  0  0  0
   45.0680   -2.4130   21.0270 C   0  0  0  0  0
   47.3360   -2.7390   20.4950 C   0  0  0  0  0
   42.3910   -9.7300   23.0270 C   0  0  0  0  0
   47.6200   -4.2370   23.1180 C   0  0  0  0  0
   47.9000   -2.8360   23.5570 C   0  0  0  0  0
   40.4120   -5.2440   26.2070 N   0  0  0  0  0
   42.5760   -6.0650   24.6520 N   0  0  0  0  0
   44.6010   -4.3020   23.9190 N   0  0  0  0  0
   44.7580   -2.2080   24.4960 N   0  0  0  0  0
   39.4530   -7.3750   26.0790 N   0  0  0  0  0
   41.3290  -12.4520   23.2490 O   0  0  0  0  0
   45.5801   -1.8016   17.7550 H   0  0  0  0  0
   43.7519   -1.8054   19.4345 H   0  0  0  0  0
   47.8781   -2.3771   18.4568 H   0  0  0  0  0
   41.3531   -3.3734   26.1950 H   0  0  0  0  0
   43.1644   -7.6780   22.8294 H   0  0  0  0  0
   46.1803   -0.7944   25.0700 H   0  0  0  0  0
   45.1796   -0.3403   23.6687 H   0  0  0  0  0
   44.4844   -0.3062   25.3077 H   0  0  0  0  0
   39.6512  -12.7628   25.1333 H   0  0  0  0  0
   39.7843  -11.0820   25.6610 H   0  0  0  0  0
   44.2601   -2.4068   21.7587 H   0  0  0  0  0
   48.3562   -2.9976   20.7786 H   0  0  0  0  0
   42.8959  -10.2799   22.2328 H   0  0  0  0  0
   48.1167   -5.0306   22.5598 H   0  0  0  0  0
   47.6606   -5.2443   23.5326 H   0  0  0  0  0
   48.2460   -2.3147   24.4496 H   0  0  0  0  0
   48.7014   -2.1014   23.4782 H   0  0  0  0  0
   39.4717   -8.3384   25.7444 H   0  0  0  0  0
   38.6733   -7.0484   26.6498 H   0  0  0  0  0
  2  1  4  0  0  0
  3  1  4  0  0  0
 20  2  4  0  0  0
 21  3  4  0  0  0
  7  4  4  0  0  0
  4 25  4  0  0  0
 18  5  4  0  0  0
  5 22  4  0  0  0
 14  6  1  0  0  0
  6 20  4  0  0  0
  6 21  4  0  0  0
 11  7  1  0  0  0
  7 26  4  0  0  0
  8 13  1  0  0  0
  8 16  4  0  0  0
 22  8  4  0  0  0
  9 10  4  0  0  0
  9 18  1  0  0  0
 26  9  4  0  0  0
 25 10  4  0  0  0
 10 29  1  0  0  0
 11 17  4  0  0  0
 27 11  4  0  0  0
 12 14  1  0  0  0
 12 27  4  0  0  0
 12 28  4  0  0  0
 13 19  1  0  0  0
 13 30  2  0  0  0
 14 23  1  0  0  0
 14 24  1  0  0  0
 28 15  1  0  0  0
 16 18  4  0  0  0
 17 28  4  0  0  0
 23 24  1  0  0  0
  1 31  1  0  0  0
  2 32  1  0  0  0
  3 33  1  0  0  0
  4 34  1  0  0  0
  5 35  1  0  0  0
 15 36  1  0  0  0
 15 37  1  0  0  0
 15 38  1  0  0  0
 19 39  1  0  0  0
 19 40  1  0  0  0
 20 41  1  0  0  0
 21 42  1  0  0  0
 22 43  1  0  0  0
 23 44  1  0  0  0
 23 45  1  0  0  0
 24 46  1  0  0  0
 24 47  1  0  0  0
 29 48  1  0  0  0
 29 49  1  0  0  0
M  END
$$$$
