6n7a_ligand
  -I-interpret- 

 45 48  0  0  0  0  0  0  0  0999 V2000
    5.4570  -28.6570   23.1010 C   0  0  0  0  0
    3.5210  -20.7580   20.8190 C   0  0  0  0  0
    5.3220  -27.3060   22.7810 C   0  0  0  0  0
    4.1640  -26.9240   22.0530 C   0  0  0  0  0
    5.7120  -22.0120   22.0340 C   0  0  0  0  0
    6.4210  -26.3610   23.1680 C   0  0  0  0  0
    7.1150  -24.0000   23.0090 C   0  0  0  0  0
    8.3500  -24.0120   23.5990 C   0  0  0  0  0
    6.8760  -22.6470   22.6800 C   0  0  0  0  0
    5.0650  -20.9380   22.6600 C   0  0  0  0  0
    3.9980  -20.3250   22.0370 C   0  0  0  0  0
    4.5780  -29.6160   22.7580 N   0  0  0  0  0
    3.7420  -25.7180   21.6090 N   0  0  0  0  0
    3.4980  -29.2600   22.0560 C   0  0  0  0  0
    6.2410  -25.0620   22.7690 N   0  0  0  0  0
    3.1860  -19.0190   22.8470 Cl  0  0  0  0  0
    4.1510  -21.8170   20.1840 C   0  0  0  0  0
    5.2460  -22.4330   20.7780 C   0  0  0  0  0
    5.9540  -23.4550   20.2070 O   0  0  0  0  0
    5.6120  -23.8460   18.8630 C   0  0  0  0  0
    7.9060  -21.8800   23.0420 N   0  0  0  0  0
    8.7870  -22.7450   23.6000 N   0  0  0  0  0
   10.0550  -22.2430   24.1260 C   0  0  0  0  0
    7.4350  -26.7430   23.7600 O   0  0  0  0  0
    3.2390  -27.9420   21.6950 C   0  0  0  0  0
    2.1940  -27.2470   20.9830 C   0  0  0  0  0
    2.5630  -25.9580   20.9710 N   0  0  0  0  0
    1.7670  -24.8460   20.4510 C   0  0  0  0  0
    6.3373  -28.9571   23.6694 H   0  0  0  0  0
    2.6588  -20.2738   20.3604 H   0  0  0  0  0
    8.8757  -24.8824   23.9916 H   0  0  0  0  0
    5.4036  -20.5885   23.6353 H   0  0  0  0  0
    2.7918  -30.0335   21.7542 H   0  0  0  0  0
    5.3894  -24.8517   22.2484 H   0  0  0  0  0
    3.7872  -22.1669   19.2179 H   0  0  0  0  0
    4.5717  -24.1701   18.8338 H   0  0  0  0  0
    5.7483  -22.9970   18.1932 H   0  0  0  0  0
    6.2582  -24.6657   18.5489 H   0  0  0  0  0
   10.1182  -22.4647   25.1914 H   0  0  0  0  0
   10.8805  -22.7263   23.6034 H   0  0  0  0  0
   10.1086  -21.1650   23.9741 H   0  0  0  0  0
    1.2936  -27.6792   20.5465 H   0  0  0  0  0
    1.4906  -24.1838   21.2715 H   0  0  0  0  0
    2.3536  -24.2927   19.7176 H   0  0  0  0  0
    0.8658  -25.2360   19.9778 H   0  0  0  0  0
  3  1  4  0  0  0
  1 12  4  0  0  0
 11  2  4  0  0  0
  2 17  4  0  0  0
  3  4  4  0  0  0
  6  3  1  0  0  0
  4 13  4  0  0  0
  4 25  4  0  0  0
  5  9  1  0  0  0
 10  5  4  0  0  0
  5 18  4  0  0  0
 15  6  1  0  0  0
  6 24  2  0  0  0
  7  8  4  0  0  0
  9  7  4  0  0  0
  7 15  1  0  0  0
  8 22  4  0  0  0
  9 21  4  0  0  0
 10 11  4  0  0  0
 11 16  1  0  0  0
 12 14  4  0  0  0
 13 27  4  0  0  0
 14 25  4  0  0  0
 17 18  4  0  0  0
 18 19  1  0  0  0
 19 20  1  0  0  0
 21 22  4  0  0  0
 22 23  1  0  0  0
 25 26  4  0  0  0
 26 27  4  0  0  0
 27 28  1  0  0  0
  1 29  1  0  0  0
  2 30  1  0  0  0
  8 31  1  0  0  0
 10 32  1  0  0  0
 14 33  1  0  0  0
 15 34  1  0  0  0
 17 35  1  0  0  0
 20 36  1  0  0  0
 20 37  1  0  0  0
 20 38  1  0  0  0
 23 39  1  0  0  0
 23 40  1  0  0  0
 23 41  1  0  0  0
 26 42  1  0  0  0
 28 43  1  0  0  0
 28 44  1  0  0  0
 28 45  1  0  0  0
M  END
$$$$
