4okg_ligand
  -I-interpret- 

 72 77  0  0  0  0  0  0  0  0999 V2000
   -5.1200    6.5220   30.9160 C   0  0  0  0  0
   -4.8000    7.8910   30.4870 N   0  3  0  0  0
   -4.7070    8.0160   29.0160 C   0  0  0  0  0
   -4.4910    9.4990   28.6570 C   0  0  0  0  0
   -3.3150   10.0450   29.3740 N   0  3  0  0  0
   -3.4230    9.8980   30.8470 C   0  0  0  0  0
   -3.6130    8.4130   31.2090 C   0  0  0  0  0
   -3.0170   11.4410   29.0010 C   0  0  0  0  0
   -1.9760   11.5180   27.8990 C   0  0  0  0  0
   -2.2950   11.1710   26.5820 C   0  0  0  0  0
   -1.3230   11.3220   25.5830 C   0  0  0  0  0
   -0.0570   11.8020   25.9250 C   0  0  0  0  0
    0.1870   12.1300   27.2670 C   0  0  0  0  0
   -0.7650   11.9700   28.1870 N   0  0  0  0  0
    0.9820   11.8940   24.9500 C   0  0  0  0  0
    1.8310   11.9700   24.1400 C   0  0  0  0  0
    2.8510   12.0590   23.1390 C   0  0  0  0  0
    4.1860   12.3100   23.5280 C   0  0  0  0  0
    5.1820   12.3950   22.5690 C   0  0  0  0  0
    4.8920   12.1190   21.2140 C   0  0  0  0  0
    3.5660   11.7980   20.8410 C   0  0  0  0  0
    2.5500   11.7600   21.7880 C   0  0  0  0  0
    5.9670   12.2090   20.1790 C   0  0  0  0  0
    5.7270   13.0360   19.0740 C   0  0  0  0  0
    6.7060   13.2020   18.0720 C   0  0  0  0  0
    7.8810   12.4430   18.1550 C   0  0  0  0  0
    8.1120   11.6930   19.2260 N   0  0  0  0  0
    7.2100   11.5080   20.2080 C   0  0  0  0  0
    7.5100   10.5200   21.1680 N   0  0  0  0  0
    6.7070    9.4660   21.4560 C   0  0  0  0  0
    7.2570    8.6820   22.3380 N   0  0  0  0  0
    8.4990    9.1540   22.6360 C   0  0  0  0  0
    8.6810   10.3390   21.8870 C   0  0  0  0  0
    9.8820   11.0420   21.9750 C   0  0  0  0  0
   10.8850   10.6020   22.8280 C   0  0  0  0  0
   10.7000    9.4440   23.5830 C   0  0  0  0  0
    9.5240    8.7130   23.4860 C   0  0  0  0  0
    6.3480   13.9050   16.8220 C   0  0  0  0  0
    5.2230   13.7190   16.3650 O   0  0  0  0  0
    7.2170   14.5950   16.0600 N   0  0  0  0  0
    6.7110   15.0860   14.8240 O   0  0  0  0  0
   -4.2710    5.8702   30.7098 H   0  0  0  0  0
   -5.3316    6.5178   31.9852 H   0  0  0  0  0
   -5.9938    6.1664   30.3700 H   0  0  0  0  0
   -5.5819    8.4913   30.7490 H   0  0  0  0  0
   -5.6263    7.6543   28.5555 H   0  0  0  0  0
   -3.8719    7.4208   28.6465 H   0  0  0  0  0
   -5.3758   10.0648   28.9488 H   0  0  0  0  0
   -4.3186    9.5804   27.5838 H   0  0  0  0  0
   -2.5250    9.4759   29.0700 H   0  0  0  0  0
   -4.2796   10.4692   31.2049 H   0  0  0  0  0
   -2.5113   10.2697   31.3146 H   0  0  0  0  0
   -2.7274    7.8469   30.9203 H   0  0  0  0  0
   -3.7613    8.3116   32.2841 H   0  0  0  0  0
   -2.6261   11.9550   29.8791 H   0  0  0  0  0
   -3.9353   11.9031   28.6387 H   0  0  0  0  0
   -3.2856   10.7885   26.3358 H   0  0  0  0  0
   -1.5534   11.0670   24.5486 H   0  0  0  0  0
    1.1623   12.5186   27.5600 H   0  0  0  0  0
    4.4320   12.4367   24.5823 H   0  0  0  0  0
    6.1939   12.6760   22.8610 H   0  0  0  0  0
    3.3384   11.5778   19.7980 H   0  0  0  0  0
    1.5323   11.5028   21.4942 H   0  0  0  0  0
    4.7734   13.5569   18.9875 H   0  0  0  0  0
    8.6051   12.4683   17.3406 H   0  0  0  0  0
    5.7281    9.2970   21.0073 H   0  0  0  0  0
   10.0335   11.9381   21.3733 H   0  0  0  0  0
   11.8170   11.1615   22.9077 H   0  0  0  0  0
   11.4882    9.1090   24.2572 H   0  0  0  0  0
    9.3975    7.8001   24.0679 H   0  0  0  0  0
    8.1811   14.7563   16.3513 H   0  0  0  0  0
    7.4056   15.5600   14.3608 H   0  0  0  0  0
  1  2  1  0  0  0
  2  3  1  0  0  0
  2  7  1  0  0  0
  3  4  1  0  0  0
  4  5  1  0  0  0
  5  6  1  0  0  0
  5  8  1  0  0  0
  6  7  1  0  0  0
  8  9  1  0  0  0
  9 10  4  0  0  0
  9 14  4  0  0  0
 10 11  4  0  0  0
 11 12  4  0  0  0
 12 13  4  0  0  0
 12 15  1  0  0  0
 13 14  4  0  0  0
 15 16  3  0  0  0
 16 17  1  0  0  0
 17 18  4  0  0  0
 17 22  4  0  0  0
 18 19  4  0  0  0
 19 20  4  0  0  0
 20 21  4  0  0  0
 20 23  1  0  0  0
 21 22  4  0  0  0
 23 24  4  0  0  0
 23 28  4  0  0  0
 24 25  4  0  0  0
 25 26  4  0  0  0
 25 38  1  0  0  0
 26 27  4  0  0  0
 27 28  4  0  0  0
 28 29  1  0  0  0
 29 30  4  0  0  0
 29 33  4  0  0  0
 30 31  4  0  0  0
 31 32  4  0  0  0
 32 33  4  0  0  0
 32 37  4  0  0  0
 33 34  4  0  0  0
 34 35  4  0  0  0
 35 36  4  0  0  0
 36 37  4  0  0  0
 38 39  2  0  0  0
 38 40  1  0  0  0
 40 41  1  0  0  0
  1 42  1  0  0  0
  1 43  1  0  0  0
  1 44  1  0  0  0
  2 45  1  0  0  0
  3 46  1  0  0  0
  3 47  1  0  0  0
  4 48  1  0  0  0
  4 49  1  0  0  0
  5 50  1  0  0  0
  6 51  1  0  0  0
  6 52  1  0  0  0
  7 53  1  0  0  0
  7 54  1  0  0  0
  8 55  1  0  0  0
  8 56  1  0  0  0
 10 57  1  0  0  0
 11 58  1  0  0  0
 13 59  1  0  0  0
 18 60  1  0  0  0
 19 61  1  0  0  0
 21 62  1  0  0  0
 22 63  1  0  0  0
 24 64  1  0  0  0
 26 65  1  0  0  0
 30 66  1  0  0  0
 34 67  1  0  0  0
 35 68  1  0  0  0
 36 69  1  0  0  0
 37 70  1  0  0  0
 40 71  1  0  0  0
 41 72  1  0  0  0
M  END
$$$$
