### 
### Created by X-TOOL on Fri Nov 18 12:33:41 2016
### 

@<TRIPOS>MOLECULE
1d6s_ligand
   40    40     1     0     0
SMALL
GAST_HUCK


@<TRIPOS>ATOM
      1 N          40.4640   25.0370   17.6250 N.2       1 PLP        -0.3235
      2 CA         41.6220   24.2900   18.2040 C.3       1 PLP         0.0698
      3 C          42.9050   24.4680   17.3360 C.2       1 PLP         0.0493
      4 O          43.8440   23.6440   17.4600 O.co2     1 PLP        -0.5678
      5 CB         41.2680   22.7990   18.3530 C.3       1 PLP        -0.0189
      6 CG         41.1220   22.0630   17.0250 C.3       1 PLP        -0.0040
      7 SD         40.4850   20.3820   17.1820 S.3       1 PLP        -0.1640
      8 CE         40.1290   20.0040   15.4460 C.3       1 PLP        -0.0181
      9 OXT        42.9990   25.4450   16.5540 O.co2     1 PLP        -0.5678
     10 N1         35.8800   26.2890   15.9320 N.ar      1 PLP        -0.3082
     11 C2         37.1410   26.6340   15.5110 C.ar      1 PLP         0.0567
     12 C2A        37.3360   27.3530   14.1880 C.3       1 PLP        -0.0186
     13 C3         38.2330   26.2780   16.2510 C.ar      1 PLP         0.1344
     14 O3         39.4740   26.6940   15.8500 O.3       1 PLP        -0.3217
     15 C4         38.0720   25.5390   17.4200 C.ar      1 PLP         0.0603
     16 C4A        39.3040   25.0280   18.1910 C.2       1 PLP         0.0190
     17 C5         36.8060   25.1890   17.8340 C.ar      1 PLP         0.0196
     18 C6         35.7160   25.5730   17.0960 C.ar      1 PLP         0.0031
     19 C5A        36.6150   24.2650   19.0140 C.3       1 PLP         0.1176
     20 O4P        36.6570   24.9630   20.2560 O.3       1 PLP        -0.2621
     21 P          37.0930   24.1340   21.5490 P.3       1 PLP         0.2042
     22 O1P        36.8510   24.9160   22.7760 O.co2     1 PLP        -0.5536
     23 O2P        36.0340   22.9220   21.5210 O.co2     1 PLP        -0.5536
     24 O3P        38.4330   23.5630   21.2790 O.co2     1 PLP        -0.5536
     25 H1         41.8280   24.6980   19.2045 H         1 PLP         0.0596
     26 H2         40.3158   22.7218   18.8982 H         1 PLP         0.0302
     27 H3         42.0639   22.3104   18.9341 H         1 PLP         0.0302
     28 H4         42.1111   22.0145   16.5461 H         1 PLP         0.0378
     29 H5         40.4331   22.6354   16.3865 H         1 PLP         0.0378
     30 H6         39.7221   18.9850   15.3686 H         1 PLP         0.0340
     31 H7         41.0559   20.0743   14.8579 H         1 PLP         0.0340
     32 H8         39.3928   20.7232   15.0576 H         1 PLP         0.0340
     33 H9         38.4078   27.5417   14.0277 H         1 PLP         0.0386
     34 H10        36.7941   28.3101   14.2074 H         1 PLP         0.0386
     35 H11        36.9475   26.7282   13.3703 H         1 PLP         0.0386
     36 H12        40.1273   26.3709   16.4593 H         1 PLP         0.2533
     37 H13        39.1965   24.6603   19.2104 H         1 PLP         0.1084
     38 H14        34.7190   25.3111   17.4314 H         1 PLP         0.0658
     39 H15        37.4141   23.5091   19.0052 H         1 PLP         0.0800
     40 H16        35.6385   23.7674   18.9201 H         1 PLP         0.0800
@<TRIPOS>BOND
     1    1    2 1  
     2   16    1 2  
     3    2    3 1  
     4    2    5 1  
     5    3    4 ar 
     6    3    9 ar 
     7    5    6 1  
     8    6    7 1  
     9    7    8 1  
    10   11   10 ar 
    11   10   18 ar 
    12   11   12 1  
    13   13   11 ar 
    14   13   14 1  
    15   15   13 ar 
    16   15   16 1  
    17   15   17 ar 
    18   17   18 ar 
    19   17   19 1  
    20   19   20 1  
    21   20   21 1  
    22   21   22 ar 
    23   21   23 ar 
    24   21   24 ar 
    25    2   25 1  
    26    5   26 1  
    27    5   27 1  
    28    6   28 1  
    29    6   29 1  
    30    8   30 1  
    31    8   31 1  
    32    8   32 1  
    33   12   33 1  
    34   12   34 1  
    35   12   35 1  
    36   14   36 1  
    37   16   37 1  
    38   18   38 1  
    39   19   39 1  
    40   19   40 1  
@<TRIPOS>SUBSTRUCTURE
     1 PLP         1

