1d6s_ligand
  -I-interpret- 

 43 43  0  0  0  0  0  0  0  0999 V2000
   40.4640   25.0370   17.6250 N   0  0  0  0  0
   41.6220   24.2900   18.2040 C   0  0  0  0  0
   42.9050   24.4680   17.3360 C   0  0  0  0  0
   43.8440   23.6440   17.4600 O   0  0  0  0  0
   41.2680   22.7990   18.3530 C   0  0  0  0  0
   41.1220   22.0630   17.0250 C   0  0  0  0  0
   40.4850   20.3820   17.1820 S   0  0  0  0  0
   40.1290   20.0040   15.4460 C   0  0  0  0  0
   42.9990   25.4450   16.5540 O   0  0  0  0  0
   35.8800   26.2890   15.9320 N   0  0  0  0  0
   37.1410   26.6340   15.5110 C   0  0  0  0  0
   37.3360   27.3530   14.1880 C   0  0  0  0  0
   38.2330   26.2780   16.2510 C   0  0  0  0  0
   39.4740   26.6940   15.8500 O   0  0  0  0  0
   38.0720   25.5390   17.4200 C   0  0  0  0  0
   39.3040   25.0280   18.1910 C   0  0  0  0  0
   36.8060   25.1890   17.8340 C   0  0  0  0  0
   35.7160   25.5730   17.0960 C   0  0  0  0  0
   36.6150   24.2650   19.0140 C   0  0  0  0  0
   36.6570   24.9630   20.2560 O   0  0  0  0  0
   37.0930   24.1340   21.5490 P   0  0  0  0  0
   36.8510   24.9160   22.7760 O   0  0  0  0  0
   36.0340   22.9220   21.5210 O   0  0  0  0  0
   38.4330   23.5630   21.2790 O   0  0  0  0  0
   41.8337   24.7027   19.1904 H   0  0  0  0  0
   43.5948   22.9699   18.0965 H   0  0  0  0  0
   40.3057   22.7435   18.8620 H   0  0  0  0  0
   42.0840   22.3249   18.8985 H   0  0  0  0  0
   42.1164   21.9916   16.5844 H   0  0  0  0  0
   40.4080   22.6238   16.4218 H   0  0  0  0  0
   39.3995   20.7173   15.0624 H   0  0  0  0  0
   41.0482   20.0741   14.8643 H   0  0  0  0  0
   39.7259   18.9941   15.3707 H   0  0  0  0  0
   36.9506   26.7329   13.3787 H   0  0  0  0  0
   36.7986   28.3011   14.2085 H   0  0  0  0  0
   38.3983   27.5394   14.0304 H   0  0  0  0  0
   40.1342   26.3675   16.4658 H   0  0  0  0  0
   39.1964   24.6600   19.2113 H   0  0  0  0  0
   34.7135   25.3096   17.4332 H   0  0  0  0  0
   37.4242   23.5347   19.0076 H   0  0  0  0  0
   35.6359   23.7949   18.9219 H   0  0  0  0  0
   36.1715   22.3966   20.7294 H   0  0  0  0  0
   38.4151   23.0880   20.4449 H   0  0  0  0  0
  1  2  1  0  0  0
 16  1  2  0  0  0
  2  3  1  0  0  0
  2  5  1  0  0  0
  3  4  1  0  0  0
  3  9  2  0  0  0
  5  6  1  0  0  0
  6  7  1  0  0  0
  7  8  1  0  0  0
 11 10  4  0  0  0
 10 18  4  0  0  0
 11 12  1  0  0  0
 13 11  4  0  0  0
 13 14  1  0  0  0
 15 13  4  0  0  0
 15 16  1  0  0  0
 15 17  4  0  0  0
 17 18  4  0  0  0
 17 19  1  0  0  0
 19 20  1  0  0  0
 20 21  1  0  0  0
 21 22  2  0  0  0
 21 23  1  0  0  0
 21 24  1  0  0  0
  2 25  1  0  0  0
  4 26  1  0  0  0
  5 27  1  0  0  0
  5 28  1  0  0  0
  6 29  1  0  0  0
  6 30  1  0  0  0
  8 31  1  0  0  0
  8 32  1  0  0  0
  8 33  1  0  0  0
 12 34  1  0  0  0
 12 35  1  0  0  0
 12 36  1  0  0  0
 14 37  1  0  0  0
 16 38  1  0  0  0
 18 39  1  0  0  0
 19 40  1  0  0  0
 19 41  1  0  0  0
 23 42  1  0  0  0
 24 43  1  0  0  0
M  END
$$$$
