4inh_ligand
  -I-interpret- 

 71 71  0  0  0  0  0  0  0  0999 V2000
   -7.5330   62.7740   88.4050 C   0  0  0  0  0
   -7.4780   62.7450   89.6390 O   0  0  0  0  0
   -6.6690   63.5560   87.7020 O   0  0  0  0  0
   -5.5370   64.0810   88.4060 C   0  0  0  0  0
   -4.3660   63.6200   87.7790 C   0  0  0  0  0
   -3.1830   63.2990   88.4430 C   0  0  0  0  0
   -2.0870   62.8340   87.7120 C   0  0  0  0  0
   -2.1620   62.6780   86.3290 C   0  0  0  0  0
   -3.3480   62.9860   85.6740 C   0  0  0  0  0
   -4.4370   63.4460   86.4020 C   0  0  0  0  0
   -8.5590   62.2870   87.7110 N   0  0  0  0  0
   -9.5730   61.4320   88.3180 C   0  0  0  0  0
   -9.5240   60.0890   87.5740 C   0  0  0  0  0
   -9.2360   60.0740   86.3720 O   0  0  0  0  0
  -10.9340   62.0810   88.0870 C   0  0  0  0  0
   -9.6220   58.9480   88.1170 N   0  0  0  0  0
   -9.6240   57.6180   87.4740 C   0  0  0  0  0
  -10.7890   57.6640   86.5050 C   0  0  0  0  0
  -11.8650   58.2040   86.7720 O   0  0  0  0  0
   -9.9770   56.5470   88.4950 C   0  0  0  0  0
   -8.8940   56.4510   89.5720 C   0  0  0  0  0
   -9.2480   55.5170   90.6820 C   0  0  0  0  0
   -7.6070   55.9240   88.9330 C   0  0  0  0  0
  -12.2410   55.5580   84.1310 C   0  0  0  0  0
  -11.2780   60.1690   82.2880 C   0  0  0  0  0
  -11.3270   59.3030   83.5450 C   0  0  0  0  0
  -10.5770   56.9980   85.4660 N   0  0  0  0  0
  -10.9200   59.7260   81.1870 O   0  0  0  0  0
  -11.7590   61.3970   82.4730 N   0  0  0  0  0
  -12.1490   61.8050   83.8360 C   0  0  0  0  0
  -11.7770   62.3450   81.3490 C   0  0  0  0  0
  -11.6670   56.9680   84.4650 C   0  0  0  0  0
  -11.4340   57.7970   83.1930 C   0  0  0  0  0
  -12.4280   54.6810   85.0161 O   0  0  0  0  0
  -12.5279   55.2858   82.9347 O   0  0  0  0  0
   -5.5581   63.7482   89.4437 H   0  0  0  0  0
   -5.5624   65.1706   88.3899 H   0  0  0  0  0
   -3.1136   63.4101   89.5251 H   0  0  0  0  0
   -1.1600   62.5897   88.2307 H   0  0  0  0  0
   -1.2998   62.3183   85.7675 H   0  0  0  0  0
   -3.4231   62.8670   84.5931 H   0  0  0  0  0
   -5.3674   63.6755   85.8826 H   0  0  0  0  0
   -8.6389   62.5196   86.7211 H   0  0  0  0  0
   -9.4053   61.2926   89.3860 H   0  0  0  0  0
  -10.9472   63.0685   88.5483 H   0  0  0  0  0
  -11.1125   62.1765   87.0160 H   0  0  0  0  0
  -11.7114   61.4601   88.5322 H   0  0  0  0  0
   -9.7114   58.9481   89.1331 H   0  0  0  0  0
   -8.6568   57.3987   87.0217 H   0  0  0  0  0
  -10.0550   55.5862   87.9862 H   0  0  0  0  0
  -10.9233   56.8088   88.9683 H   0  0  0  0  0
   -8.7795   57.4516   89.9889 H   0  0  0  0  0
  -10.1634   55.8590   91.1648 H   0  0  0  0  0
   -9.4007   54.5161   90.2782 H   0  0  0  0  0
   -8.4373   55.4965   91.4104 H   0  0  0  0  0
   -7.7921   54.9383   88.5060 H   0  0  0  0  0
   -7.2868   56.6077   88.1468 H   0  0  0  0  0
   -6.8287   55.8520   89.6927 H   0  0  0  0  0
  -12.2056   59.5854   84.1250 H   0  0  0  0  0
  -10.4082   59.4613   84.1096 H   0  0  0  0  0
   -9.6984   56.5017   85.3171 H   0  0  0  0  0
  -12.9324   61.1416   84.2023 H   0  0  0  0  0
  -11.2823   61.7439   84.4941 H   0  0  0  0  0
  -12.5194   62.8299   83.8151 H   0  0  0  0  0
  -10.7589   62.5055   80.9944 H   0  0  0  0  0
  -12.3844   61.9371   80.5410 H   0  0  0  0  0
  -12.2010   63.2926   81.6813 H   0  0  0  0  0
  -12.4504   57.4875   85.0168 H   0  0  0  0  0
  -10.5050   57.4744   82.7229 H   0  0  0  0  0
  -12.2729   57.6490   82.5130 H   0  0  0  0  0
  -12.3334   56.0445   82.3796 H   0  0  0  0  0
  1  2  2  0  0  0
  1  3  1  0  0  0
 11  1  1  0  0  0
  3  4  1  0  0  0
  4  5  1  0  0  0
  5  6  4  0  0  0
  5 10  4  0  0  0
  6  7  4  0  0  0
  7  8  4  0  0  0
  9  8  4  0  0  0
 10  9  4  0  0  0
 12 11  1  0  0  0
 13 12  1  0  0  0
 12 15  1  0  0  0
 13 14  2  0  0  0
 16 13  1  0  0  0
 17 16  1  0  0  0
 18 17  1  0  0  0
 17 20  1  0  0  0
 18 19  2  0  0  0
 27 18  1  0  0  0
 20 21  1  0  0  0
 21 22  1  0  0  0
 21 23  1  0  0  0
 32 24  1  0  0  0
 24 34  2  0  0  0
 26 25  1  0  0  0
 25 28  2  0  0  0
 25 29  1  0  0  0
 33 26  1  0  0  0
 32 27  1  0  0  0
 29 30  1  0  0  0
 29 31  1  0  0  0
 32 33  1  0  0  0
 24 35  1  0  0  0
  4 36  1  0  0  0
  4 37  1  0  0  0
  6 38  1  0  0  0
  7 39  1  0  0  0
  8 40  1  0  0  0
  9 41  1  0  0  0
 10 42  1  0  0  0
 11 43  1  0  0  0
 12 44  1  0  0  0
 15 45  1  0  0  0
 15 46  1  0  0  0
 15 47  1  0  0  0
 16 48  1  0  0  0
 17 49  1  0  0  0
 20 50  1  0  0  0
 20 51  1  0  0  0
 21 52  1  0  0  0
 22 53  1  0  0  0
 22 54  1  0  0  0
 22 55  1  0  0  0
 23 56  1  0  0  0
 23 57  1  0  0  0
 23 58  1  0  0  0
 26 59  1  0  0  0
 26 60  1  0  0  0
 27 61  1  0  0  0
 30 62  1  0  0  0
 30 63  1  0  0  0
 30 64  1  0  0  0
 31 65  1  0  0  0
 31 66  1  0  0  0
 31 67  1  0  0  0
 32 68  1  0  0  0
 33 69  1  0  0  0
 33 70  1  0  0  0
 35 71  1  0  0  0
M  END
$$$$
