6s57_ligand
  -I-interpret- 

 58 60  0  0  0  0  0  0  0  0999 V2000
  -22.7140   46.8850    8.4410 C   0  0  0  0  0
  -24.5450   48.5300    8.0040 C   0  0  0  0  0
  -24.7810   49.8810    7.3520 C   0  0  0  0  0
  -29.4980   49.7570    7.4790 C   0  0  0  0  0
  -28.9160   51.8500    6.1720 C   0  0  0  0  0
  -20.8160   43.2400    9.8220 C   0  0  0  0  0
  -21.5110   44.4960    9.3660 C   0  0  0  0  0
  -20.8230   45.4090    8.5680 C   0  0  0  0  0
  -21.4020   46.5780    8.1080 C   0  0  0  0  0
  -23.2640   48.0940    7.9420 N   0  0  0  0  0
  -25.4630   47.9170    8.5410 O   0  0  0  0  0
  -26.1420   50.3680    7.5120 N   0  0  0  0  0
  -26.5780   51.1530    8.5740 C   0  0  0  0  0
  -25.8880   51.5360    9.5100 O   0  0  0  0  0
  -27.8950   51.4060    8.3780 N   0  0  0  0  0
  -28.4150   50.7890    7.1550 C   0  0  0  0  0
  -27.1620   50.1060    6.6250 C   0  0  0  0  0
  -27.0630   49.4440    5.6080 O   0  0  0  0  0
  -23.4320   45.9910    9.2280 C   0  0  0  0  0
  -22.8420   44.8200    9.6870 C   0  0  0  0  0
  -23.8370   43.7450   10.6920 S   0  0  0  0  0
  -23.1340   43.5220   11.9160 O   0  0  0  0  0
  -24.2140   42.6320    9.8810 O   0  0  0  0  0
  -25.2140   44.5320   11.0810 N   0  0  0  0  0
  -25.1640   45.5180   12.1800 C   0  0  0  0  0
  -26.4420   46.3030   12.4070 C   0  0  0  0  0
  -27.6680   45.4610   12.6900 C   0  0  0  0  0
  -28.4030   44.9760   11.4690 C   0  0  0  0  0
  -27.5990   44.0990   10.5340 C   0  0  0  0  0
  -26.2800   44.6580   10.0670 C   0  0  0  0  0
  -24.5954   49.7679    6.2839 H   0  0  0  0  0
  -24.1160   50.5988    7.8322 H   0  0  0  0  0
  -29.0766   48.9768    8.1130 H   0  0  0  0  0
  -30.3201   50.2466    8.0011 H   0  0  0  0  0
  -29.8658   49.3152    6.5529 H   0  0  0  0  0
  -29.7143   52.4274    6.6383 H   0  0  0  0  0
  -28.0936   52.5139    5.9056 H   0  0  0  0  0
  -29.2957   51.3616    5.2746 H   0  0  0  0  0
  -20.5090   42.6598    8.9518 H   0  0  0  0  0
  -19.9383   43.5055   10.4114 H   0  0  0  0  0
  -21.4995   42.6490   10.4317 H   0  0  0  0  0
  -19.7897   45.1935    8.2963 H   0  0  0  0  0
  -20.8263   47.2600    7.4823 H   0  0  0  0  0
  -22.6070   48.7183    7.4740 H   0  0  0  0  0
  -28.4632   51.9659    9.0137 H   0  0  0  0  0
  -24.4676   46.2112    9.4872 H   0  0  0  0  0
  -24.3958   46.2437   11.9129 H   0  0  0  0  0
  -24.9770   44.9557   13.0949 H   0  0  0  0  0
  -26.6423   46.8513   11.4865 H   0  0  0  0  0
  -26.2773   46.9250   13.2869 H   0  0  0  0  0
  -28.3620   46.0925   13.2447 H   0  0  0  0  0
  -27.3245   44.5745   13.2231 H   0  0  0  0  0
  -28.6824   45.8632   10.9007 H   0  0  0  0  0
  -29.2349   44.3694   11.8267 H   0  0  0  0  0
  -28.2082   43.9690    9.6396 H   0  0  0  0  0
  -27.3648   43.1929   11.0928 H   0  0  0  0  0
  -25.9715   44.0944    9.1865 H   0  0  0  0  0
  -26.4212   45.7190    9.8611 H   0  0  0  0  0
  1  9  4  0  0  0
 10  1  1  0  0  0
  1 19  4  0  0  0
  3  2  1  0  0  0
  2 10  1  0  0  0
  2 11  2  0  0  0
 12  3  1  0  0  0
 16  4  1  0  0  0
 16  5  1  0  0  0
  7  6  1  0  0  0
  8  7  4  0  0  0
  7 20  4  0  0  0
  9  8  4  0  0  0
 13 12  1  0  0  0
 12 17  1  0  0  0
 13 14  2  0  0  0
 15 13  1  0  0  0
 15 16  1  0  0  0
 16 17  1  0  0  0
 17 18  2  0  0  0
 19 20  4  0  0  0
 20 21  1  0  0  0
 21 22  2  0  0  0
 21 23  2  0  0  0
 21 24  1  0  0  0
 24 25  1  0  0  0
 24 30  1  0  0  0
 25 26  1  0  0  0
 26 27  1  0  0  0
 27 28  1  0  0  0
 28 29  1  0  0  0
 29 30  1  0  0  0
  3 31  1  0  0  0
  3 32  1  0  0  0
  4 33  1  0  0  0
  4 34  1  0  0  0
  4 35  1  0  0  0
  5 36  1  0  0  0
  5 37  1  0  0  0
  5 38  1  0  0  0
  6 39  1  0  0  0
  6 40  1  0  0  0
  6 41  1  0  0  0
  8 42  1  0  0  0
  9 43  1  0  0  0
 10 44  1  0  0  0
 15 45  1  0  0  0
 19 46  1  0  0  0
 25 47  1  0  0  0
 25 48  1  0  0  0
 26 49  1  0  0  0
 26 50  1  0  0  0
 27 51  1  0  0  0
 27 52  1  0  0  0
 28 53  1  0  0  0
 28 54  1  0  0  0
 29 55  1  0  0  0
 29 56  1  0  0  0
 30 57  1  0  0  0
 30 58  1  0  0  0
M  END
$$$$
