2c8y_ligand
  -I-interpret- 

 49 51  0  0  0  0  0  0  0  0999 V2000
    7.8290   21.3060   51.8100 N   0  3  0  0  0
    6.5520   20.7070   51.4020 C   0  0  0  0  0
    5.5980   21.8240   51.0070 C   0  0  0  0  0
    4.1400   21.4720   51.1780 C   0  0  0  0  0
    3.2480   21.7580   50.1590 C   0  0  0  0  0
    1.9090   21.4360   50.3080 C   0  0  0  0  0
    1.4470   20.8490   51.4720 C   0  0  0  0  0
    2.3350   20.5700   52.4840 C   0  0  0  0  0
    3.6700   20.8980   52.3560 C   0  0  0  0  0
    6.8550   19.8610   50.1830 C   0  0  0  0  0
    7.2100   20.6720   49.0570 O   0  0  0  0  0
    5.5920   19.1030   49.8010 C   0  0  0  0  0
    6.0100   18.1070   48.8150 N   0  0  0  0  0
    4.8770   17.0970   48.1920 S   0  0  0  0  0
    5.5170   16.4420   47.1000 O   0  0  0  0  0
    4.3790   16.4480   49.3550 O   0  0  0  0  0
    3.5760   18.0140   47.4150 C   0  0  0  0  0
    3.8680   18.6480   46.1920 C   0  0  0  0  0
    2.9430   19.3900   45.4940 C   0  0  0  0  0
    1.6450   19.5130   46.0280 C   0  0  0  0  0
    0.6610   20.2400   45.3460 C   0  0  0  0  0
   -0.5900   20.3330   45.8960 C   0  0  0  0  0
   -0.9090   19.7170   47.1070 C   0  0  0  0  0
    0.0310   18.9980   47.7880 C   0  0  0  0  0
    1.3310   18.8720   47.2810 C   0  0  0  0  0
    2.3210   18.1160   47.9720 C   0  0  0  0  0
    7.6816   21.8903   52.6330 H   0  0  0  0  0
    8.4949   20.5659   52.0319 H   0  0  0  0  0
    8.1945   21.8765   51.0476 H   0  0  0  0  0
    6.1032   20.1152   52.1998 H   0  0  0  0  0
    5.7599   22.0297   49.9489 H   0  0  0  0  0
    5.8052   22.6729   51.6586 H   0  0  0  0  0
    3.5977   22.2346   49.2432 H   0  0  0  0  0
    1.2110   21.6478   49.4981 H   0  0  0  0  0
    0.3896   20.6100   51.5859 H   0  0  0  0  0
    1.9822   20.0860   53.3947 H   0  0  0  0  0
    4.3579   20.7070   53.1796 H   0  0  0  0  0
    7.6837   19.1970   50.4290 H   0  0  0  0  0
    8.0063   21.1683   49.2599 H   0  0  0  0  0
    4.8350   19.7727   49.3928 H   0  0  0  0  0
    5.1327   18.6327   50.6705 H   0  0  0  0  0
    6.9845   18.0417   48.5211 H   0  0  0  0  0
    4.8719   18.5464   45.7797 H   0  0  0  0  0
    3.2077   19.8703   44.5520 H   0  0  0  0  0
    0.8866   20.7228   44.3952 H   0  0  0  0  0
   -1.3576   20.9039   45.3734 H   0  0  0  0  0
   -1.9165   19.8106   47.5124 H   0  0  0  0  0
   -0.2315   18.5193   48.7314 H   0  0  0  0  0
    2.0903   17.6295   48.9198 H   0  0  0  0  0
  1  2  1  0  0  0
  2  3  1  0  0  0
  2 10  1  0  0  0
  3  4  1  0  0  0
  4  5  4  0  0  0
  4  9  4  0  0  0
  5  6  4  0  0  0
  6  7  4  0  0  0
  7  8  4  0  0  0
  8  9  4  0  0  0
 10 11  1  0  0  0
 10 12  1  0  0  0
 12 13  1  0  0  0
 13 14  1  0  0  0
 14 15  2  0  0  0
 14 16  2  0  0  0
 14 17  1  0  0  0
 17 18  4  0  0  0
 17 26  4  0  0  0
 18 19  4  0  0  0
 19 20  4  0  0  0
 20 21  4  0  0  0
 20 25  4  0  0  0
 21 22  4  0  0  0
 22 23  4  0  0  0
 23 24  4  0  0  0
 24 25  4  0  0  0
 25 26  4  0  0  0
  1 27  1  0  0  0
  1 28  1  0  0  0
  1 29  1  0  0  0
  2 30  1  0  0  0
  3 31  1  0  0  0
  3 32  1  0  0  0
  5 33  1  0  0  0
  6 34  1  0  0  0
  7 35  1  0  0  0
  8 36  1  0  0  0
  9 37  1  0  0  0
 10 38  1  0  0  0
 11 39  1  0  0  0
 12 40  1  0  0  0
 12 41  1  0  0  0
 13 42  1  0  0  0
 18 43  1  0  0  0
 19 44  1  0  0  0
 21 45  1  0  0  0
 22 46  1  0  0  0
 23 47  1  0  0  0
 24 48  1  0  0  0
 26 49  1  0  0  0
M  END
$$$$
