3b24_ligand
  -I-interpret- 

 21 21  0  0  0  0  0  0  0  0999 V2000
   33.1270   37.9480   51.7240 C   0  0  0  0  0
   32.4970   36.7920   52.5120 C   0  0  0  0  0
   33.6450   35.3630   52.4470 S   0  0  0  0  0
   33.2200   34.6180   50.9370 C   0  0  0  0  0
   34.2160   34.1190   50.2040 N   0  0  0  0  0
   31.9440   34.5230   50.5140 N   0  0  0  0  0
   31.6740   33.9270   49.3430 C   0  0  0  0  0
   30.2030   33.7930   48.8770 C   0  0  0  0  0
   32.6890   33.4320   48.5990 N   0  0  0  0  0
   33.9650   33.5690   49.0140 C   0  0  0  0  0
   34.9910   33.1870   48.2730 N   0  0  0  0  0
   34.0835   38.2139   52.1739 H   0  0  0  0  0
   33.2836   37.6388   50.6906 H   0  0  0  0  0
   32.4599   38.8096   51.7497 H   0  0  0  0  0
   31.5356   36.5209   52.0759 H   0  0  0  0  0
   32.3287   37.0911   53.5465 H   0  0  0  0  0
   29.6424   33.2128   49.6100 H   0  0  0  0  0
   29.7614   34.7850   48.7823 H   0  0  0  0  0
   30.1736   33.2872   47.9119 H   0  0  0  0  0
   35.9432   33.3157   48.6152 H   0  0  0  0  0
   34.8304   32.7635   47.3591 H   0  0  0  0  0
  1  2  1  0  0  0
  2  3  1  0  0  0
  3  4  1  0  0  0
  4  5  4  0  0  0
  4  6  4  0  0  0
  5 10  4  0  0  0
  6  7  4  0  0  0
  7  8  1  0  0  0
  7  9  4  0  0  0
  9 10  4  0  0  0
 10 11  1  0  0  0
  1 12  1  0  0  0
  1 13  1  0  0  0
  1 14  1  0  0  0
  2 15  1  0  0  0
  2 16  1  0  0  0
  8 17  1  0  0  0
  8 18  1  0  0  0
  8 19  1  0  0  0
 11 20  1  0  0  0
 11 21  1  0  0  0
M  END
$$$$
