1o0m_ligand
  -I-interpret- 

 34 35  0  0  0  0  0  0  0  0999 V2000
   39.7830    2.7300   22.6050 O   0  0  0  0  0
   40.3140    1.4790   23.0840 C   0  0  0  0  0
   39.1940    0.5690   23.5380 C   0  0  0  0  0
   38.4190    1.2290   24.5710 O   0  0  0  0  0
   37.0470    0.8860   24.4360 C   0  0  0  0  0
   36.2880    2.1300   24.2150 N   0  0  0  0  0
   36.7540    3.1130   23.3700 C   0  0  0  0  0
   36.1120    4.2700   23.1800 C   0  0  0  0  0
   34.8870    4.5230   23.8700 C   0  0  0  0  0
   34.2240    5.5580   23.8050 O   0  0  0  0  0
   34.4630    3.4950   24.6880 N   0  0  0  0  0
   35.0910    2.2930   24.9000 C   0  0  0  0  0
   34.6200    1.4400   25.6360 O   0  0  0  0  0
   36.9510   -0.1680   23.3260 C   0  0  0  0  0
   37.0610   -1.4360   23.9550 O   0  0  0  0  0
   36.4750   -2.7590   23.2470 P   0  0  0  0  0
   37.2300   -2.9470   21.9400 O   0  0  0  0  0
   36.7570   -3.8760   24.2380 O   0  0  0  0  0
   34.9830   -2.5350   23.0430 O   0  0  0  0  0
   38.1700    0.1940   22.4790 C   0  0  0  0  0
   38.6490   -0.8970   21.6990 O   0  0  0  0  0
   40.5052    3.2952   22.3212 H   0  0  0  0  0
   40.9762    1.6745   23.9274 H   0  0  0  0  0
   40.8604    0.9929   22.2758 H   0  0  0  0  0
   39.7155   -0.3341   23.8552 H   0  0  0  0  0
   36.6048    0.4324   25.3230 H   0  0  0  0  0
   37.6866    2.9399   22.8330 H   0  0  0  0  0
   36.5218    5.0178   22.5010 H   0  0  0  0  0
   33.5876    3.6450   25.1896 H   0  0  0  0  0
   36.0387   -0.1982   22.7303 H   0  0  0  0  0
   37.0237   -2.2221   21.3454 H   0  0  0  0  0
   34.8507   -1.8237   22.4121 H   0  0  0  0  0
   37.9507    0.9759   21.7519 H   0  0  0  0  0
   39.4118   -0.6140   21.1894 H   0  0  0  0  0
  1  2  1  0  0  0
  2  3  1  0  0  0
  3  4  1  0  0  0
  3 20  1  0  0  0
  4  5  1  0  0  0
  5  6  1  0  0  0
  5 14  1  0  0  0
  6  7  1  0  0  0
  6 12  1  0  0  0
  7  8  2  0  0  0
  8  9  1  0  0  0
  9 10  2  0  0  0
  9 11  1  0  0  0
 11 12  1  0  0  0
 12 13  2  0  0  0
 14 15  1  0  0  0
 14 20  1  0  0  0
 15 16  1  0  0  0
 16 17  1  0  0  0
 16 18  2  0  0  0
 16 19  1  0  0  0
 20 21  1  0  0  0
  1 22  1  0  0  0
  2 23  1  0  0  0
  2 24  1  0  0  0
  3 25  1  0  0  0
  5 26  1  0  0  0
  7 27  1  0  0  0
  8 28  1  0  0  0
 11 29  1  0  0  0
 14 30  1  0  0  0
 17 31  1  0  0  0
 19 32  1  0  0  0
 20 33  1  0  0  0
 21 34  1  0  0  0
M  END
$$$$
