2uup_ligand
  -I-interpret- 

 53 55  0  0  0  0  0  0  0  0999 V2000
  -10.6970    1.6870  -22.5910 N   0  0  0  0  0
  -11.8280    1.4560  -22.4440 C   0  0  0  0  0
  -13.0960    1.4150  -22.2830 C   0  0  0  0  0
  -13.5040    1.1500  -20.9910 C   0  0  0  0  0
  -14.8430    1.1120  -20.6920 C   0  0  0  0  0
  -14.0370    1.6330  -23.3070 C   0  0  0  0  0
  -15.4040    1.5780  -23.0130 C   0  0  0  0  0
  -15.7690    1.2990  -21.6930 C   0  0  0  0  0
  -17.1660    1.2960  -21.1720 C   0  0  0  0  0
  -18.0820    0.4510  -21.7780 O   0  0  0  0  0
  -18.7980   -0.2900  -20.8750 C   0  0  0  0  0
  -18.7920   -0.1240  -19.4660 C   0  0  0  0  0
  -19.5730   -0.9960  -18.6660 C   0  0  0  0  0
  -19.5260   -1.2750  -21.4680 C   0  0  0  0  0
  -20.2770   -2.1100  -20.6910 C   0  0  0  0  0
  -20.3280   -1.9980  -19.3020 C   0  0  0  0  0
  -21.1300   -2.9060  -18.6090 C   0  0  0  0  0
  -20.9630   -3.0590  -21.4080 C   0  0  0  0  0
  -21.7400   -3.9400  -20.7210 C   0  0  0  0  0
  -21.8300   -3.8810  -19.3500 C   0  0  0  0  0
  -22.8060   -4.9850  -18.7290 S   0  0  0  0  0
  -22.4680   -5.3570  -17.3410 O   0  0  0  0  0
  -22.8200   -6.1180  -19.6730 O   0  0  0  0  0
  -24.2830   -4.3120  -18.6650 N   0  0  0  0  0
  -25.0410   -4.1410  -19.9040 C   0  0  0  0  0
  -25.6660   -5.4470  -20.3740 C   0  0  0  0  0
  -25.6800   -5.7220  -21.5820 O   0  0  0  0  0
  -26.1720   -6.2240  -19.5470 O   0  0  0  0  0
  -26.1390   -3.0710  -19.7110 C   0  0  0  0  0
  -26.7980   -2.7480  -21.0460 C   0  0  0  0  0
  -27.7430   -1.5740  -20.9390 C   0  0  0  0  0
  -28.5510   -1.4010  -21.8760 O   0  0  0  0  0
  -27.7050   -0.8340  -19.9300 O   0  0  0  0  0
  -12.7646    0.9714  -20.2103 H   0  0  0  0  0
  -15.1712    0.9348  -19.6678 H   0  0  0  0  0
  -13.7028    1.8434  -24.3229 H   0  0  0  0  0
  -16.1557    1.7464  -23.7842 H   0  0  0  0  0
  -17.5424    2.3041  -21.3454 H   0  0  0  0  0
  -17.0904    0.9503  -20.1410 H   0  0  0  0  0
  -18.1952    0.6630  -19.0049 H   0  0  0  0  0
  -19.5880   -0.8921  -17.5811 H   0  0  0  0  0
  -19.5099   -1.3962  -22.5511 H   0  0  0  0  0
  -21.2133   -2.8628  -17.5230 H   0  0  0  0  0
  -20.8875   -3.1053  -22.4944 H   0  0  0  0  0
  -22.2983   -4.7023  -21.2644 H   0  0  0  0  0
  -24.6765   -4.0127  -17.7728 H   0  0  0  0  0
  -24.3418   -3.8134  -20.6733 H   0  0  0  0  0
  -26.0739   -5.8587  -18.6647 H   0  0  0  0  0
  -25.6875   -2.1648  -19.3071 H   0  0  0  0  0
  -26.8935   -3.4535  -19.0236 H   0  0  0  0  0
  -27.3704   -3.6194  -21.3641 H   0  0  0  0  0
  -26.0153   -2.4925  -21.7603 H   0  0  0  0  0
  -27.0160   -1.1402  -19.3357 H   0  0  0  0  0
  1  2  3  0  0  0
  2  3  1  0  0  0
  3  4  4  0  0  0
  3  6  4  0  0  0
  4  5  4  0  0  0
  5  8  4  0  0  0
  6  7  4  0  0  0
  7  8  4  0  0  0
  8  9  1  0  0  0
  9 10  1  0  0  0
 10 11  1  0  0  0
 11 12  4  0  0  0
 11 14  4  0  0  0
 12 13  4  0  0  0
 13 16  4  0  0  0
 14 15  4  0  0  0
 15 16  4  0  0  0
 15 18  4  0  0  0
 16 17  4  0  0  0
 17 20  4  0  0  0
 18 19  4  0  0  0
 19 20  4  0  0  0
 20 21  1  0  0  0
 21 22  2  0  0  0
 21 23  2  0  0  0
 21 24  1  0  0  0
 24 25  1  0  0  0
 25 26  1  0  0  0
 25 29  1  0  0  0
 26 27  2  0  0  0
 26 28  1  0  0  0
 29 30  1  0  0  0
 30 31  1  0  0  0
 31 32  2  0  0  0
 31 33  1  0  0  0
  4 34  1  0  0  0
  5 35  1  0  0  0
  6 36  1  0  0  0
  7 37  1  0  0  0
  9 38  1  0  0  0
  9 39  1  0  0  0
 12 40  1  0  0  0
 13 41  1  0  0  0
 14 42  1  0  0  0
 17 43  1  0  0  0
 18 44  1  0  0  0
 19 45  1  0  0  0
 24 46  1  0  0  0
 25 47  1  0  0  0
 28 48  1  0  0  0
 29 49  1  0  0  0
 29 50  1  0  0  0
 30 51  1  0  0  0
 30 52  1  0  0  0
 33 53  1  0  0  0
M  END
$$$$
