### 
### Created by X-TOOL on Mon Sep 10 21:13:10 2018
### 

@<TRIPOS>MOLECULE
4e3b_ligand
  139   141     1     0     0
SMALL
GAST_HUCK


@<TRIPOS>ATOM
      1 N          -5.2820   18.1630   44.5300 N.4       1 SER         0.2396
      2 CA         -5.9890   18.7800   45.6500 C.3       1 SER         0.0885
      3 C          -5.1280   19.8480   46.3160 C.2       1 SER         0.2290
      4 O          -5.4970   21.0190   46.3800 O.2       1 SER        -0.3906
      5 CB         -6.4000   17.7110   46.6680 C.3       1 SER         0.1041
      6 OG         -7.1500   18.2720   47.7330 O.3       1 SER        -0.3870
      7 N          -3.9730   19.4270   46.8110 N.am      1 ARG        -0.2609
      8 CA         -3.0110   20.3340   47.4200 C.3       1 ARG         0.1312
      9 C          -1.8580   20.5750   46.4460 C.2       1 ARG         0.2040
     10 O          -0.8110   21.1020   46.8150 O.2       1 ARG        -0.3944
     11 CB         -2.4740   19.7540   48.7290 C.3       1 ARG        -0.0092
     12 CG         -3.1690   18.4730   49.1930 C.3       1 ARG        -0.0156
     13 CD         -2.6420   17.2350   48.4650 C.3       1 ARG         0.0627
     14 NE         -3.2460   17.0500   47.1470 N.pl3     1 ARG        -0.2723
     15 CZ         -2.6330   16.4770   46.1160 C.cat     1 ARG         0.2882
     16 NH1        -3.2630   16.3490   44.9540 N.pl3     1 ARG        -0.2849
     17 NH2        -1.3870   16.0380   46.2450 N.pl3     1 ARG        -0.2849
     18 N          -2.0600   20.1730   45.1970 N.am      1 TRP        -0.2627
     19 CA         -1.0420   20.3280   44.1680 C.3       1 TRP         0.1354
     20 C          -1.7360   20.5200   42.8290 C.2       1 TRP         0.2077
     21 O          -2.0160   19.5530   42.1260 O.2       1 TRP        -0.3940
     22 CB         -0.1390   19.1000   44.1210 C.3       1 TRP         0.0042
     23 CG          1.2050   19.3480   43.4960 C.2       1 TRP        -0.0418
     24 CD1         2.1820   20.1630   43.9740 C.2       1 TRP         0.0167
     25 CD2         1.7240   18.7540   42.2920 C.ar      1 TRP        -0.0214
     26 NE1         3.2870   20.1150   43.1480 N.pl3     1 TRP        -0.2890
     27 CE2         3.0300   19.2570   42.1140 C.ar      1 TRP         0.0603
     28 CE3         1.2210   17.8380   41.3600 C.ar      1 TRP        -0.0747
     29 CZ2         3.8320   18.8940   41.0240 C.ar      1 TRP        -0.0443
     30 CZ3         2.0230   17.4760   40.2790 C.ar      1 TRP        -0.0792
     31 CH2         3.3150   17.9990   40.1280 C.ar      1 TRP        -0.0768
     32 N          -2.0230   21.7740   42.4850 N.am      1 PRO        -0.2497
     33 CA         -2.7780   22.0530   41.2620 C.3       1 PRO         0.1338
     34 C          -1.9870   21.7080   40.0030 C.2       1 PRO         0.2042
     35 O          -0.7530   21.8000   39.9700 O.2       1 PRO        -0.3944
     36 CB         -3.0040   23.5640   41.3380 C.3       1 PRO        -0.0104
     37 CG         -1.8460   24.0680   42.1190 C.3       1 PRO        -0.0281
     38 CD         -1.5710   23.0070   43.1500 C.3       1 PRO         0.0369
     39 N          -2.7120   21.3040   38.9700 N.am      1 THR        -0.2613
     40 CA         -2.1300   21.1870   37.6420 C.3       1 THR         0.1565
     41 C          -2.8960   22.0750   36.6790 C.2       1 THR         0.2065
     42 O          -4.0660   22.4120   36.9140 O.2       1 THR        -0.3943
     43 CB         -2.0650   19.7310   37.1430 C.3       1 THR         0.0924
     44 OG1        -3.3850   19.2160   36.9380 O.3       1 THR        -0.3874
     45 CG2        -1.3090   18.8540   38.1340 C.3       1 THR        -0.0346
     46 N          -2.2330   22.4750   35.6020 N.am      1 SER        -0.2615
     47 CA         -2.8430   23.3490   34.6140 C.3       1 SER         0.1539
     48 C          -2.7460   22.7430   33.2330 C.2       1 SER         0.2062
     49 O          -1.6890   22.2410   32.8320 O.2       1 SER        -0.3943
     50 CB         -2.1690   24.7190   34.6090 C.3       1 SER         0.0843
     51 OG         -2.3430   25.3720   35.8460 O.3       1 SER        -0.3903
     52 N          -3.8500   22.8250   32.4930 N.am      1 ILE        -0.2634
     53 CA         -3.9120   22.3530   31.1110 C.3       1 ILE         0.1335
     54 C          -3.4510   23.4420   30.1570 C.2       1 ILE         0.2036
     55 O          -3.9220   24.5800   30.2300 O.2       1 ILE        -0.3944
     56 CB         -5.3600   21.9570   30.7410 C.3       1 ILE        -0.0037
     57 CG1        -5.8390   20.8190   31.6510 C.3       1 ILE        -0.0491
     58 CG2        -5.4220   21.5870   29.2770 C.3       1 ILE        -0.0582
     59 CD1        -7.3700   20.6330   31.6690 C.3       1 ILE        -0.0648
     60 N          -2.5160   23.0940   29.2710 N.am      1 LEU        -0.2695
     61 CA         -1.9090   24.0530   28.3530 C.3       1 LEU         0.0946
     62 C          -2.0720   23.5940   26.9230 C.2       1 LEU         0.0601
     63 O          -2.1490   22.3920   26.6370 O.co2     1 LEU        -0.5666
     64 CB         -0.4050   24.1610   28.6180 C.3       1 LEU        -0.0156
     65 CG          0.0860   24.2730   30.0530 C.3       1 LEU        -0.0431
     66 CD1         1.6230   24.2230   30.0660 C.3       1 LEU        -0.0625
     67 CD2        -0.4160   25.5500   30.7030 C.3       1 LEU        -0.0625
     68 OXT        -2.0920   24.4420   26.0270 O.co2     1 LEU        -0.5666
     69 H1         -5.8699   17.4620   44.1068 H         1 SER         0.2016
     70 H2         -4.4337   17.7330   44.8640 H         1 SER         0.2016
     71 H3         -5.0548   18.8682   43.8466 H         1 SER         0.2016
     72 H4         -6.8993   19.2613   45.2631 H         1 SER         0.1122
     73 H5         -5.4944   17.2397   47.0775 H         1 SER         0.0640
     74 H6         -7.0120   16.9505   46.1611 H         1 SER         0.0640
     75 H7         -7.3894   17.5866   48.3457 H         1 SER         0.2099
     76 H8         -3.7547   18.4522   46.7645 H         1 ARG         0.1884
     77 H9         -3.5084   21.2916   47.6336 H         1 ARG         0.0800
     78 H10        -2.5949   20.5135   49.5154 H         1 ARG         0.0313
     79 H11        -1.4049   19.5338   48.5931 H         1 ARG         0.0313
     80 H12        -4.2480   18.5652   49.0000 H         1 ARG         0.0301
     81 H13        -2.9989   18.3485   50.2726 H         1 ARG         0.0301
     82 H14        -2.8594   16.3481   49.0783 H         1 ARG         0.0689
     83 H15        -1.5538   17.3374   48.3411 H         1 ARG         0.0689
     84 H16        -4.2098   17.3856   47.0079 H         1 ARG         0.2642
     85 H17        -2.7866   15.9048   44.1561 H         1 ARG         0.2615
     86 H18        -4.2280   16.6939   44.8506 H         1 ARG         0.2615
     87 H19        -0.8969   16.1365   47.1456 H         1 ARG         0.2615
     88 H20        -0.9102   15.5989   45.4445 H         1 ARG         0.2615
     89 H21        -2.9349   19.7525   44.9566 H         1 TRP         0.1884
     90 H22        -0.4297   21.2139   44.3923 H         1 TRP         0.0815
     91 H23        -0.6502   18.3177   43.5408 H         1 TRP         0.0397
     92 H24         0.0192   18.7483   45.1512 H         1 TRP         0.0397
     93 H25         2.1044   20.7662   44.8773 H         1 TRP         0.0795
     94 H26         4.1623   20.6397   43.2875 H         1 TRP         0.2216
     95 H27         0.2281   17.4189   41.4768 H         1 TRP         0.0540
     96 H28         4.8258   19.3073   40.8954 H         1 TRP         0.0541
     97 H29         1.6413   16.7782   39.5425 H         1 TRP         0.0510
     98 H30         3.9176   17.6872   39.2825 H         1 TRP         0.0530
     99 H31        -3.7320   21.5054   41.2573 H         1 PRO         0.0802
    100 H32        -3.9495   23.7915   41.8520 H         1 PRO         0.0313
    101 H33        -3.0179   24.0073   40.3314 H         1 PRO         0.0313
    102 H34        -2.0953   25.0226   42.6054 H         1 PRO         0.0287
    103 H35        -0.9717   24.2066   41.4660 H         1 PRO         0.0287
    104 H36        -0.4985   22.9568   43.3892 H         1 PRO         0.0524
    105 H37        -2.1438   23.1925   44.0706 H         1 PRO         0.0524
    106 H38        -3.6761   21.0756   39.1058 H         1 THR         0.1884
    107 H39        -1.0963   21.5590   37.6963 H         1 THR         0.0826
    108 H40        -1.5289   19.7152   36.1826 H         1 THR         0.0639
    109 H41        -3.8647   19.2422   37.7575 H         1 THR         0.2101
    110 H42        -1.2752   17.8209   37.7578 H         1 THR         0.0257
    111 H43        -1.8223   18.8733   39.1067 H         1 THR         0.0257
    112 H44        -0.2838   19.2347   38.2528 H         1 THR         0.0257
    113 H45        -1.2910   22.1679   35.4667 H         1 SER         0.1884
    114 H46        -3.9048   23.4779   34.8710 H         1 SER         0.0823
    115 H47        -2.6113   25.3346   33.8119 H         1 SER         0.0606
    116 H48        -1.0933   24.5900   34.4185 H         1 SER         0.0606
    117 H49        -1.9592   24.8456   36.5375 H         1 SER         0.2097
    118 H50        -4.6708   23.2262   32.8997 H         1 ILE         0.1883
    119 H51        -3.2570   21.4757   31.0044 H         1 ILE         0.0803
    120 H52        -6.0158   22.8249   30.9043 H         1 ILE         0.0345
    121 H53        -5.5043   21.0321   32.6769 H         1 ILE         0.0267
    122 H54        -5.3807   19.8815   31.3031 H         1 ILE         0.0267
    123 H55        -5.0694   22.4336   28.6696 H         1 ILE         0.0235
    124 H56        -6.4599   21.3465   29.0032 H         1 ILE         0.0235
    125 H57        -4.7819   20.7117   29.0926 H         1 ILE         0.0235
    126 H58        -7.6305   19.8023   32.3413 H         1 ILE         0.0230
    127 H59        -7.7239   20.4067   30.6524 H         1 ILE         0.0230
    128 H60        -7.8475   21.5573   32.0262 H         1 ILE         0.0230
    129 H61        -2.2197   22.1396   29.2345 H         1 LEU         0.1875
    130 H62        -2.3854   25.0353   28.4876 H         1 LEU         0.0726
    131 H63        -0.0473   25.0541   28.0846 H         1 LEU         0.0308
    132 H64         0.0633   23.2641   28.1865 H         1 LEU         0.0308
    133 H65        -0.3006   23.4171   30.6258 H         1 LEU         0.0297
    134 H66         1.9837   24.3037   31.1020 H         1 LEU         0.0232
    135 H67         2.0221   25.0589   29.4727 H         1 LEU         0.0232
    136 H68         1.9626   23.2707   29.6327 H         1 LEU         0.0232
    137 H69        -1.5157   25.5641   30.6824 H         1 LEU         0.0232
    138 H70        -0.0279   26.4192   30.1518 H         1 LEU         0.0232
    139 H71        -0.0682   25.5919   31.7457 H         1 LEU         0.0232
@<TRIPOS>BOND
     1    1    2 1  
     2    2    3 1  
     3    2    5 1  
     4    3    4 2  
     5    3    7 am 
     6    5    6 1  
     7    7    8 1  
     8    8    9 1  
     9    8   11 1  
    10    9   10 2  
    11    9   18 am 
    12   11   12 1  
    13   12   13 1  
    14   13   14 1  
    15   14   15 ar 
    16   15   16 ar 
    17   15   17 ar 
    18   18   19 1  
    19   19   20 1  
    20   19   22 1  
    21   20   21 2  
    22   20   32 am 
    23   22   23 1  
    24   23   24 2  
    25   23   25 1  
    26   24   26 1  
    27   25   27 ar 
    28   25   28 ar 
    29   26   27 1  
    30   27   29 ar 
    31   28   30 ar 
    32   29   31 ar 
    33   30   31 ar 
    34   32   33 1  
    35   32   38 1  
    36   33   34 1  
    37   33   36 1  
    38   34   35 2  
    39   34   39 am 
    40   36   37 1  
    41   37   38 1  
    42   39   40 1  
    43   40   41 1  
    44   40   43 1  
    45   41   42 2  
    46   41   46 am 
    47   43   44 1  
    48   43   45 1  
    49   46   47 1  
    50   47   48 1  
    51   47   50 1  
    52   48   49 2  
    53   48   52 am 
    54   50   51 1  
    55   52   53 1  
    56   53   54 1  
    57   53   56 1  
    58   54   55 2  
    59   54   60 am 
    60   56   57 1  
    61   56   58 1  
    62   57   59 1  
    63   60   61 1  
    64   61   62 1  
    65   61   64 1  
    66   62   63 ar 
    67   62   68 ar 
    68   64   65 1  
    69   65   66 1  
    70   65   67 1  
    71    1   69 1  
    72    1   70 1  
    73    1   71 1  
    74    2   72 1  
    75    5   73 1  
    76    5   74 1  
    77    6   75 1  
    78    7   76 1  
    79    8   77 1  
    80   11   78 1  
    81   11   79 1  
    82   12   80 1  
    83   12   81 1  
    84   13   82 1  
    85   13   83 1  
    86   14   84 1  
    87   16   85 1  
    88   16   86 1  
    89   17   87 1  
    90   17   88 1  
    91   18   89 1  
    92   19   90 1  
    93   22   91 1  
    94   22   92 1  
    95   24   93 1  
    96   26   94 1  
    97   28   95 1  
    98   29   96 1  
    99   30   97 1  
   100   31   98 1  
   101   33   99 1  
   102   36  100 1  
   103   36  101 1  
   104   37  102 1  
   105   37  103 1  
   106   38  104 1  
   107   38  105 1  
   108   39  106 1  
   109   40  107 1  
   110   43  108 1  
   111   44  109 1  
   112   45  110 1  
   113   45  111 1  
   114   45  112 1  
   115   46  113 1  
   116   47  114 1  
   117   50  115 1  
   118   50  116 1  
   119   51  117 1  
   120   52  118 1  
   121   53  119 1  
   122   56  120 1  
   123   57  121 1  
   124   57  122 1  
   125   58  123 1  
   126   58  124 1  
   127   58  125 1  
   128   59  126 1  
   129   59  127 1  
   130   59  128 1  
   131   60  129 1  
   132   61  130 1  
   133   64  131 1  
   134   64  132 1  
   135   65  133 1  
   136   66  134 1  
   137   66  135 1  
   138   66  136 1  
   139   67  137 1  
   140   67  138 1  
   141   67  139 1  
@<TRIPOS>SUBSTRUCTURE
     1 SER         1

