4e3b_ligand
  -I-interpret- 

138140  0  0  0  0  0  0  0  0999 V2000
   -5.2820   18.1630   44.5300 N   0  3  0  0  0
   -5.9890   18.7800   45.6500 C   0  0  0  0  0
   -5.1280   19.8480   46.3160 C   0  0  0  0  0
   -5.4970   21.0190   46.3800 O   0  0  0  0  0
   -6.4000   17.7110   46.6680 C   0  0  0  0  0
   -7.1500   18.2720   47.7330 O   0  0  0  0  0
   -3.9730   19.4270   46.8110 N   0  0  0  0  0
   -3.0110   20.3340   47.4200 C   0  0  0  0  0
   -1.8580   20.5750   46.4460 C   0  0  0  0  0
   -0.8110   21.1020   46.8150 O   0  0  0  0  0
   -2.4740   19.7540   48.7290 C   0  0  0  0  0
   -3.1690   18.4730   49.1930 C   0  0  0  0  0
   -2.6420   17.2350   48.4650 C   0  0  0  0  0
   -3.2460   17.0500   47.1470 N   0  0  0  0  0
   -2.6330   16.4770   46.1160 C   0  0  0  0  0
   -3.2630   16.3490   44.9540 N   0  0  0  0  0
   -1.3870   16.0380   46.2450 N   0  0  0  0  0
   -2.0600   20.1730   45.1970 N   0  0  0  0  0
   -1.0420   20.3280   44.1680 C   0  0  0  0  0
   -1.7360   20.5200   42.8290 C   0  0  0  0  0
   -2.0160   19.5530   42.1260 O   0  0  0  0  0
   -0.1390   19.1000   44.1210 C   0  0  0  0  0
    1.2050   19.3480   43.4960 C   0  0  0  0  0
    2.1820   20.1630   43.9740 C   0  0  0  0  0
    1.7240   18.7540   42.2920 C   0  0  0  0  0
    3.2870   20.1150   43.1480 N   0  0  0  0  0
    3.0300   19.2570   42.1140 C   0  0  0  0  0
    1.2210   17.8380   41.3600 C   0  0  0  0  0
    3.8320   18.8940   41.0240 C   0  0  0  0  0
    2.0230   17.4760   40.2790 C   0  0  0  0  0
    3.3150   17.9990   40.1280 C   0  0  0  0  0
   -2.0230   21.7740   42.4850 N   0  0  0  0  0
   -2.7780   22.0530   41.2620 C   0  0  0  0  0
   -1.9870   21.7080   40.0030 C   0  0  0  0  0
   -0.7530   21.8000   39.9700 O   0  0  0  0  0
   -3.0040   23.5640   41.3380 C   0  0  0  0  0
   -1.8460   24.0680   42.1190 C   0  0  0  0  0
   -1.5710   23.0070   43.1500 C   0  0  0  0  0
   -2.7120   21.3040   38.9700 N   0  0  0  0  0
   -2.1300   21.1870   37.6420 C   0  0  0  0  0
   -2.8960   22.0750   36.6790 C   0  0  0  0  0
   -4.0660   22.4120   36.9140 O   0  0  0  0  0
   -2.0650   19.7310   37.1430 C   0  0  0  0  0
   -3.3850   19.2160   36.9380 O   0  0  0  0  0
   -1.3090   18.8540   38.1340 C   0  0  0  0  0
   -2.2330   22.4750   35.6020 N   0  0  0  0  0
   -2.8430   23.3490   34.6140 C   0  0  0  0  0
   -2.7460   22.7430   33.2330 C   0  0  0  0  0
   -1.6890   22.2410   32.8320 O   0  0  0  0  0
   -2.1690   24.7190   34.6090 C   0  0  0  0  0
   -2.3430   25.3720   35.8460 O   0  0  0  0  0
   -3.8500   22.8250   32.4930 N   0  0  0  0  0
   -3.9120   22.3530   31.1110 C   0  0  0  0  0
   -3.4510   23.4420   30.1570 C   0  0  0  0  0
   -3.9220   24.5800   30.2300 O   0  0  0  0  0
   -5.3600   21.9570   30.7410 C   0  0  0  0  0
   -5.8390   20.8190   31.6510 C   0  0  0  0  0
   -5.4220   21.5870   29.2770 C   0  0  0  0  0
   -7.3700   20.6330   31.6690 C   0  0  0  0  0
   -2.5160   23.0940   29.2710 N   0  0  0  0  0
   -1.9090   24.0530   28.3530 C   0  0  0  0  0
   -2.0720   23.5940   26.9230 C   0  0  0  0  0
   -2.1490   22.3920   26.6370 O   0  0  0  0  0
   -0.4050   24.1610   28.6180 C   0  0  0  0  0
    0.0860   24.2730   30.0530 C   0  0  0  0  0
    1.6230   24.2230   30.0660 C   0  0  0  0  0
   -0.4160   25.5500   30.7030 C   0  0  0  0  0
   -2.0920   24.4420   26.0270 O   0  0  0  0  0
   -5.0140   18.8839   43.8600 H   0  0  0  0  0
   -4.4465   17.6908   44.8755 H   0  0  0  0  0
   -5.8937   17.4851   44.0753 H   0  0  0  0  0
   -6.8871   19.2629   45.2649 H   0  0  0  0  0
   -5.4972   17.2602   47.0802 H   0  0  0  0  0
   -7.0187   16.9702   46.1615 H   0  0  0  0  0
   -7.3919   17.5794   48.3522 H   0  0  0  0  0
   -3.7503   18.4327   46.7636 H   0  0  0  0  0
   -3.5080   21.2781   47.6431 H   0  0  0  0  0
   -2.6430   20.5043   49.5014 H   0  0  0  0  0
   -1.4270   19.5032   48.5590 H   0  0  0  0  0
   -4.2333   18.5667   48.9769 H   0  0  0  0  0
   -2.9755   18.3485   50.2584 H   0  0  0  0  0
   -2.8893   16.3626   49.0699 H   0  0  0  0  0
   -1.5688   17.3632   48.3243 H   0  0  0  0  0
   -4.2004   17.3823   47.0093 H   0  0  0  0  0
   -2.7894   15.9139   44.1623 H   0  0  0  0  0
   -4.2205   16.6858   44.8532 H   0  0  0  0  0
   -0.8998   16.1403   47.1353 H   0  0  0  0  0
   -2.9523   19.7441   44.9518 H   0  0  0  0  0
   -0.4203   21.1944   44.3938 H   0  0  0  0  0
   -0.6447   18.3518   43.5105 H   0  0  0  0  0
    0.0373   18.7906   45.1512 H   0  0  0  0  0
    2.1043   20.7668   44.8782 H   0  0  0  0  0
    0.2226   17.4166   41.4775 H   0  0  0  0  0
    4.8313   19.3096   40.8947 H   0  0  0  0  0
    1.6392   16.7743   39.5384 H   0  0  0  0  0
    3.9209   17.6855   39.2779 H   0  0  0  0  0
   -3.6927   21.4634   41.1999 H   0  0  0  0  0
   -3.9558   23.8140   41.8068 H   0  0  0  0  0
   -3.0633   24.0207   40.3501 H   0  0  0  0  0
   -2.0625   25.0308   42.5818 H   0  0  0  0  0
   -0.9786   24.2437   41.4827 H   0  0  0  0  0
   -0.5227   22.9673   43.4461 H   0  0  0  0  0
   -2.0854   23.1911   44.0932 H   0  0  0  0  0
   -3.6953   21.0710   39.1085 H   0  0  0  0  0
   -1.0944   21.5226   37.6967 H   0  0  0  0  0
   -1.5300   19.7196   36.1934 H   0  0  0  0  0
   -3.3289   18.3093   36.6276 H   0  0  0  0  0
   -0.2934   19.2323   38.2508 H   0  0  0  0  0
   -1.8186   18.8741   39.0973 H   0  0  0  0  0
   -1.2762   17.8307   37.7601 H   0  0  0  0  0
   -1.2722   22.1617   35.4640 H   0  0  0  0  0
   -3.8925   23.4682   34.8831 H   0  0  0  0  0
   -2.6202   25.3279   33.8256 H   0  0  0  0  0
   -1.1020   24.5832   34.4323 H   0  0  0  0  0
   -1.9113   26.2290   35.8177 H   0  0  0  0  0
   -4.6872   23.2342   32.9078 H   0  0  0  0  0
   -3.2579   21.4854   31.0243 H   0  0  0  0  0
   -6.0329   22.8000   30.8980 H   0  0  0  0  0
   -5.5311   21.0659   32.6671 H   0  0  0  0  0
   -5.4053   19.8949   31.2689 H   0  0  0  0  0
   -5.1127   22.4409   28.6743 H   0  0  0  0  0
   -4.7548   20.7462   29.0875 H   0  0  0  0  0
   -6.4431   21.3080   29.0170 H   0  0  0  0  0
   -7.8419   21.5495   32.0231 H   0  0  0  0  0
   -7.7194   20.4089   30.6611 H   0  0  0  0  0
   -7.6269   19.8096   32.3355 H   0  0  0  0  0
   -2.2138   22.1205   29.2337 H   0  0  0  0  0
   -2.4031   25.0120   28.5088 H   0  0  0  0  0
   -2.1195   21.8701   27.4422 H   0  0  0  0  0
   -0.1034   25.0955   28.1448 H   0  0  0  0  0
    0.0123   23.2232   28.2514 H   0  0  0  0  0
   -0.3078   23.4364   30.6302 H   0  0  0  0  0
    1.9582   23.2790   29.6363 H   0  0  0  0  0
    2.0172   25.0517   29.4778 H   0  0  0  0  0
    1.9792   24.3030   31.0931 H   0  0  0  0  0
   -0.0519   26.4098   30.1407 H   0  0  0  0  0
   -1.5060   25.5508   30.7053 H   0  0  0  0  0
   -0.0492   25.6029   31.7281 H   0  0  0  0  0
  1  2  1  0  0  0
  2  3  1  0  0  0
  2  5  1  0  0  0
  3  4  2  0  0  0
  3  7  1  0  0  0
  5  6  1  0  0  0
  7  8  1  0  0  0
  8  9  1  0  0  0
  8 11  1  0  0  0
  9 10  2  0  0  0
  9 18  1  0  0  0
 11 12  1  0  0  0
 12 13  1  0  0  0
 13 14  1  0  0  0
 14 15  1  0  0  0
 15 16  1  0  0  0
 15 17  2  0  0  0
 18 19  1  0  0  0
 19 20  1  0  0  0
 19 22  1  0  0  0
 20 21  2  0  0  0
 20 32  1  0  0  0
 22 23  1  0  0  0
 23 24  4  0  0  0
 23 25  4  0  0  0
 24 26  4  0  0  0
 25 27  4  0  0  0
 25 28  4  0  0  0
 26 27  4  0  0  0
 27 29  4  0  0  0
 28 30  4  0  0  0
 29 31  4  0  0  0
 30 31  4  0  0  0
 32 33  1  0  0  0
 32 38  1  0  0  0
 33 34  1  0  0  0
 33 36  1  0  0  0
 34 35  2  0  0  0
 34 39  1  0  0  0
 36 37  1  0  0  0
 37 38  1  0  0  0
 39 40  1  0  0  0
 40 41  1  0  0  0
 40 43  1  0  0  0
 41 42  2  0  0  0
 41 46  1  0  0  0
 43 44  1  0  0  0
 43 45  1  0  0  0
 46 47  1  0  0  0
 47 48  1  0  0  0
 47 50  1  0  0  0
 48 49  2  0  0  0
 48 52  1  0  0  0
 50 51  1  0  0  0
 52 53  1  0  0  0
 53 54  1  0  0  0
 53 56  1  0  0  0
 54 55  2  0  0  0
 54 60  1  0  0  0
 56 57  1  0  0  0
 56 58  1  0  0  0
 57 59  1  0  0  0
 60 61  1  0  0  0
 61 62  1  0  0  0
 61 64  1  0  0  0
 62 63  1  0  0  0
 62 68  2  0  0  0
 64 65  1  0  0  0
 65 66  1  0  0  0
 65 67  1  0  0  0
  1 69  1  0  0  0
  1 70  1  0  0  0
  1 71  1  0  0  0
  2 72  1  0  0  0
  5 73  1  0  0  0
  5 74  1  0  0  0
  6 75  1  0  0  0
  7 76  1  0  0  0
  8 77  1  0  0  0
 11 78  1  0  0  0
 11 79  1  0  0  0
 12 80  1  0  0  0
 12 81  1  0  0  0
 13 82  1  0  0  0
 13 83  1  0  0  0
 14 84  1  0  0  0
 16 85  1  0  0  0
 16 86  1  0  0  0
 17 87  1  0  0  0
 18 88  1  0  0  0
 19 89  1  0  0  0
 22 90  1  0  0  0
 22 91  1  0  0  0
 24 92  1  0  0  0
 28 93  1  0  0  0
 29 94  1  0  0  0
 30 95  1  0  0  0
 31 96  1  0  0  0
 33 97  1  0  0  0
 36 98  1  0  0  0
 36 99  1  0  0  0
 37100  1  0  0  0
 37101  1  0  0  0
 38102  1  0  0  0
 38103  1  0  0  0
 39104  1  0  0  0
 40105  1  0  0  0
 43106  1  0  0  0
 44107  1  0  0  0
 45108  1  0  0  0
 45109  1  0  0  0
 45110  1  0  0  0
 46111  1  0  0  0
 47112  1  0  0  0
 50113  1  0  0  0
 50114  1  0  0  0
 51115  1  0  0  0
 52116  1  0  0  0
 53117  1  0  0  0
 56118  1  0  0  0
 57119  1  0  0  0
 57120  1  0  0  0
 58121  1  0  0  0
 58122  1  0  0  0
 58123  1  0  0  0
 59124  1  0  0  0
 59125  1  0  0  0
 59126  1  0  0  0
 60127  1  0  0  0
 61128  1  0  0  0
 63129  1  0  0  0
 64130  1  0  0  0
 64131  1  0  0  0
 65132  1  0  0  0
 66133  1  0  0  0
 66134  1  0  0  0
 66135  1  0  0  0
 67136  1  0  0  0
 67137  1  0  0  0
 67138  1  0  0  0
M  END
$$$$
