6bkw_ligand
  -I-interpret- 

 60 64  0  0  0  0  0  0  0  0999 V2000
   42.5550  -17.9360   10.8650 C   0  0  0  0  0
   43.1090  -18.1220    9.6670 C   0  0  0  0  0
   42.7970  -14.8300    8.0390 C   0  0  0  0  0
   41.2710  -18.8190   14.9050 N   0  0  0  0  0
   42.1770  -15.6430   10.2550 C   0  0  0  0  0
   43.6550  -19.4420    9.2080 C   0  0  0  0  0
   41.6390  -18.4750   13.6120 N   0  0  0  0  0
   43.5300  -19.8760    7.8740 C   0  0  0  0  0
   44.0180  -21.0990    7.4570 C   0  0  0  0  0
   44.8860  -21.6230    5.2690 C   0  0  0  0  0
   44.7180  -22.0140    3.8360 C   0  0  0  0  0
   41.4840  -16.4030   12.4090 N   0  0  0  0  0
   43.6310  -22.3130    3.2150 C   0  0  0  0  0
   43.8080  -22.5640    1.9590 C   0  0  0  0  0
   45.0960  -22.5170    1.5980 C   0  0  0  0  0
   43.1970  -17.1330    8.7620 N   0  0  0  0  0
   41.5490  -20.2250   15.2960 C   0  0  0  0  0
   45.6070  -22.7880    0.1960 C   0  0  0  0  0
   44.5650  -23.5050   -0.6440 C   0  0  0  0  0
   43.2080  -22.8340   -0.5040 C   0  0  0  0  0
   42.7200  -22.8810    0.9390 C   0  0  0  0  0
   41.3170  -17.1720   13.5440 C   0  0  0  0  0
   44.6480  -21.8930    8.3830 C   0  0  0  0  0
   44.7890  -21.4880    9.7010 C   0  0  0  0  0
   44.2960  -20.2590   10.1230 C   0  0  0  0  0
   40.7480  -16.6960   14.7140 C   0  0  0  0  0
   40.7410  -17.7930   15.5510 C   0  0  0  0  0
   40.1650  -17.6410   16.9360 C   0  0  0  0  0
   42.0830  -16.7540   11.2190 C   0  0  0  0  0
   42.9230  -19.1190    6.9470 F   0  0  0  0  0
   45.1380  -23.0990    8.0240 F   0  0  0  0  0
   42.7050  -15.8720    9.0620 N   0  0  0  0  0
   43.8520  -21.4860    6.1030 N   0  0  0  0  0
   41.7230  -14.5040   10.5560 O   0  0  0  0  0
   46.0140  -21.4030    5.7120 O   0  0  0  0  0
   46.0970  -22.0870    2.8610 S   0  0  0  0  0
   42.4905  -18.7711   11.5625 H   0  0  0  0  0
   43.8433  -14.6689    7.7794 H   0  0  0  0  0
   42.2454  -15.1432    7.1526 H   0  0  0  0  0
   42.3706  -13.9044    8.4256 H   0  0  0  0  0
   42.6559  -22.3509    3.7007 H   0  0  0  0  0
   43.6260  -17.3099    7.8537 H   0  0  0  0  0
   41.0082  -20.8992   14.6319 H   0  0  0  0  0
   42.6191  -20.4175   15.2185 H   0  0  0  0  0
   41.2230  -20.3863   16.3235 H   0  0  0  0  0
   46.4911  -23.4216    0.2661 H   0  0  0  0  0
   45.8381  -21.8344   -0.2787 H   0  0  0  0  0
   44.4851  -24.5367   -0.3015 H   0  0  0  0  0
   44.8698  -23.4691   -1.6899 H   0  0  0  0  0
   42.4909  -23.3621   -1.1324 H   0  0  0  0  0
   43.3012  -21.7912   -0.8072 H   0  0  0  0  0
   41.9404  -22.1267    1.0461 H   0  0  0  0  0
   42.3727  -23.8955    1.1347 H   0  0  0  0  0
   45.2921  -22.1406   10.4145 H   0  0  0  0  0
   44.4125  -19.9431   11.1597 H   0  0  0  0  0
   40.3891  -15.6886   14.9246 H   0  0  0  0  0
   39.3205  -18.3201   17.0535 H   0  0  0  0  0
   40.9303  -17.8796   17.6746 H   0  0  0  0  0
   39.8292  -16.6137   17.0777 H   0  0  0  0  0
   42.9106  -21.6659    5.7540 H   0  0  0  0  0
  1  2  2  0  0  0
 29  1  1  0  0  0
  2  6  1  0  0  0
  2 16  1  0  0  0
 32  3  1  0  0  0
  7  4  4  0  0  0
  4 17  1  0  0  0
  4 27  4  0  0  0
 29  5  1  0  0  0
  5 32  1  0  0  0
  5 34  2  0  0  0
  6  8  4  0  0  0
  6 25  4  0  0  0
 22  7  4  0  0  0
  8  9  4  0  0  0
  8 30  1  0  0  0
  9 23  4  0  0  0
  9 33  1  0  0  0
 10 11  1  0  0  0
 33 10  1  0  0  0
 10 35  2  0  0  0
 11 13  4  0  0  0
 11 36  4  0  0  0
 12 22  1  0  0  0
 12 29  2  0  0  0
 13 14  4  0  0  0
 14 15  4  0  0  0
 14 21  1  0  0  0
 15 18  1  0  0  0
 15 36  4  0  0  0
 16 32  1  0  0  0
 18 19  1  0  0  0
 19 20  1  0  0  0
 20 21  1  0  0  0
 22 26  4  0  0  0
 23 24  4  0  0  0
 23 31  1  0  0  0
 24 25  4  0  0  0
 26 27  4  0  0  0
 27 28  1  0  0  0
  1 37  1  0  0  0
  3 38  1  0  0  0
  3 39  1  0  0  0
  3 40  1  0  0  0
 13 41  1  0  0  0
 16 42  1  0  0  0
 17 43  1  0  0  0
 17 44  1  0  0  0
 17 45  1  0  0  0
 18 46  1  0  0  0
 18 47  1  0  0  0
 19 48  1  0  0  0
 19 49  1  0  0  0
 20 50  1  0  0  0
 20 51  1  0  0  0
 21 52  1  0  0  0
 21 53  1  0  0  0
 24 54  1  0  0  0
 25 55  1  0  0  0
 26 56  1  0  0  0
 28 57  1  0  0  0
 28 58  1  0  0  0
 28 59  1  0  0  0
 33 60  1  0  0  0
M  END
$$$$
