2c4f_ligand
  -I-interpret- 

 77 79  0  0  0  0  0  0  0  0999 V2000
   29.6120    7.3760   13.8900 C   0  0  0  0  0
   28.8860    8.4860   13.3660 C   0  0  0  0  0
   28.8890    8.7630   11.9820 C   0  0  0  0  0
   29.6210    7.9390   11.1040 C   0  0  0  0  0
   30.3540    6.8330   11.6060 C   0  0  0  0  0
   30.3450    6.5540   12.9920 C   0  0  0  0  0
   29.6020    7.0890   15.3360 C   0  0  0  0  0
   30.2890    6.0190   15.8100 N   0  0  0  0  0
   28.9270    7.8630   16.1920 N   0  0  0  0  0
   31.8540    6.5290    9.7510 C   0  0  0  0  0
   33.0290    7.3200    9.9750 C   0  0  0  0  0
   31.3860    6.2720    8.5040 N   0  0  0  0  0
   33.7540    7.8660    8.8610 C   0  0  0  0  0
   31.1110    5.9690   10.8000 O   0  0  0  0  0
   33.2210    7.5600    7.5730 C   0  0  0  0  0
   32.0640    6.7820    7.4350 C   0  0  0  0  0
   34.9150    8.6590    8.9930 N   0  0  0  0  0
   31.6580    6.5870    6.1180 O   0  0  0  0  0
   33.4430    7.5470   11.2430 F   0  0  0  0  0
   33.7990    8.0120    6.4460 F   0  0  0  0  0
   30.5040    5.8680    5.8120 C   0  0  0  0  0
   29.1640    6.3460    6.0660 C   0  0  0  0  0
   28.0690    5.5240    5.6930 C   0  0  0  0  0
   28.2820    4.2470    5.0770 C   0  0  0  0  0
   29.6110    3.8010    4.8450 C   0  0  0  0  0
   30.7120    4.6120    5.2110 C   0  0  0  0  0
   28.8980    7.6710    6.6990 C   0  0  0  0  0
   27.7760    7.7720    7.4540 O   0  0  0  0  0
   29.6420    8.5960    6.5840 O   0  0  0  0  0
   27.1610    3.3600    4.6600 C   0  0  0  0  0
   34.8640   10.0630    8.3770 C   0  0  0  0  0
   36.0810    8.0020    9.7040 C   0  0  0  0  0
   36.1830   10.6330    7.8180 C   0  0  0  0  0
   34.1830   11.0540    9.3340 C   0  0  0  0  0
   37.0650    7.4110    8.6860 C   0  0  0  0  0
   36.7890    8.9140   10.7420 C   0  0  0  0  0
   27.3300    2.2650    4.1320 O   0  0  0  0  0
   25.9280    3.8400    4.8990 N   0  0  0  0  0
   25.1320    4.3430    3.7770 C   0  0  0  0  0
   23.6330    4.5200    4.1010 C   0  0  0  0  0
   23.2270    4.1350    5.5310 C   0  0  0  0  0
   22.8140    3.7230    3.0820 C   0  0  0  0  0
   28.3220    9.1282   14.0424 H   0  0  0  0  0
   28.3266    9.6120   11.5934 H   0  0  0  0  0
   29.6240    8.1522   10.0351 H   0  0  0  0  0
   30.9052    5.7010   13.3751 H   0  0  0  0  0
   30.2864    5.8131   16.8090 H   0  0  0  0  0
   30.8080    5.4207   15.1673 H   0  0  0  0  0
   28.9324    7.6463   17.1887 H   0  0  0  0  0
   27.0514    5.8684    5.8775 H   0  0  0  0  0
   29.7837    2.8291    4.3827 H   0  0  0  0  0
   31.7275    4.2617    5.0263 H   0  0  0  0  0
   27.3011    6.9379    7.4327 H   0  0  0  0  0
   34.2598    9.9283    7.4798 H   0  0  0  0  0
   35.6617    7.1894   10.2973 H   0  0  0  0  0
   36.9204   10.6912    8.6186 H   0  0  0  0  0
   36.5535    9.9800    7.0279 H   0  0  0  0  0
   36.0043   11.6294    7.4137 H   0  0  0  0  0
   33.1650   10.7209    9.5359 H   0  0  0  0  0
   34.7438   11.0992   10.2676 H   0  0  0  0  0
   34.1589   12.0423    8.8749 H   0  0  0  0  0
   36.5529    6.6646    8.0787 H   0  0  0  0  0
   37.4430    8.2065    8.0439 H   0  0  0  0  0
   37.8957    6.9435    9.2147 H   0  0  0  0  0
   37.1778    9.8000   10.2400 H   0  0  0  0  0
   36.0739    9.2134   11.5082 H   0  0  0  0  0
   37.6106    8.3667   11.2040 H   0  0  0  0  0
   25.5526    3.8537    5.8473 H   0  0  0  0  0
   25.2051    3.6096    2.9739 H   0  0  0  0  0
   25.5250    5.3257    3.5164 H   0  0  0  0  0
   23.4260    5.5880    4.0337 H   0  0  0  0  0
   23.4621    3.0848    5.7038 H   0  0  0  0  0
   23.7754    4.7531    6.2419 H   0  0  0  0  0
   22.1564    4.2948    5.6588 H   0  0  0  0  0
   23.0233    4.0948    2.0790 H   0  0  0  0  0
   23.0853    2.6691    3.1442 H   0  0  0  0  0
   21.7524    3.8397    3.2999 H   0  0  0  0  0
  1  2  4  0  0  0
  6  1  4  0  0  0
  1  7  1  0  0  0
  3  2  4  0  0  0
  4  3  4  0  0  0
  5  4  4  0  0  0
  5  6  4  0  0  0
 14  5  1  0  0  0
  7  8  1  0  0  0
  7  9  2  0  0  0
 10 11  4  0  0  0
 10 12  4  0  0  0
 10 14  1  0  0  0
 11 13  4  0  0  0
 11 19  1  0  0  0
 12 16  4  0  0  0
 13 15  4  0  0  0
 13 17  1  0  0  0
 15 16  4  0  0  0
 15 20  1  0  0  0
 16 18  1  0  0  0
 17 31  1  0  0  0
 17 32  1  0  0  0
 18 21  1  0  0  0
 21 22  4  0  0  0
 21 26  4  0  0  0
 22 23  4  0  0  0
 22 27  1  0  0  0
 23 24  4  0  0  0
 24 25  4  0  0  0
 24 30  1  0  0  0
 25 26  4  0  0  0
 27 28  1  0  0  0
 27 29  2  0  0  0
 30 37  2  0  0  0
 30 38  1  0  0  0
 31 33  1  0  0  0
 31 34  1  0  0  0
 32 35  1  0  0  0
 32 36  1  0  0  0
 38 39  1  0  0  0
 39 40  1  0  0  0
 40 41  1  0  0  0
 40 42  1  0  0  0
  2 43  1  0  0  0
  3 44  1  0  0  0
  4 45  1  0  0  0
  6 46  1  0  0  0
  8 47  1  0  0  0
  8 48  1  0  0  0
  9 49  1  0  0  0
 23 50  1  0  0  0
 25 51  1  0  0  0
 26 52  1  0  0  0
 28 53  1  0  0  0
 31 54  1  0  0  0
 32 55  1  0  0  0
 33 56  1  0  0  0
 33 57  1  0  0  0
 33 58  1  0  0  0
 34 59  1  0  0  0
 34 60  1  0  0  0
 34 61  1  0  0  0
 35 62  1  0  0  0
 35 63  1  0  0  0
 35 64  1  0  0  0
 36 65  1  0  0  0
 36 66  1  0  0  0
 36 67  1  0  0  0
 38 68  1  0  0  0
 39 69  1  0  0  0
 39 70  1  0  0  0
 40 71  1  0  0  0
 41 72  1  0  0  0
 41 73  1  0  0  0
 41 74  1  0  0  0
 42 75  1  0  0  0
 42 76  1  0  0  0
 42 77  1  0  0  0
M  END
$$$$
