5ylj_ligand
  -I-interpret- 

 50 52  0  0  0  0  0  0  0  0999 V2000
   16.3990  220.6900   48.4430 C   0  0  0  0  0
   17.0600  220.1810   47.3210 O   0  0  0  0  0
   17.3870  221.0800   46.2810 C   0  0  0  0  0
   17.8850  222.3510   46.5250 C   0  0  0  0  0
   18.2170  223.2420   45.4110 C   0  0  0  0  0
   18.0490  222.7750   44.1020 C   0  0  0  0  0
   18.3780  223.6640   42.8330 C   0  0  0  0  0
   18.8420  224.9940   42.8450 C   0  0  0  0  0
   19.0570  225.6900   41.4740 C   0  0  0  0  0
   19.8870  226.6080   41.3620 O   0  0  0  0  0
   18.2600  225.2510   40.2860 C   0  0  0  0  0
   18.8900  225.0810   39.0340 C   0  0  0  0  0
   18.1380  224.6540   37.9070 C   0  0  0  0  0
   16.7570  224.3880   38.0290 C   0  0  0  0  0
   16.0310  223.9520   36.8940 O   0  0  0  0  0
   16.1790  222.5530   36.6510 C   0  0  0  0  0
   16.0940  224.5500   39.3200 C   0  0  0  0  0
   14.6500  224.2870   39.5030 C   0  0  0  0  0
   13.9480  224.8810   40.6510 C   0  0  0  0  0
   14.7570  225.6090   41.7500 C   0  0  0  0  0
   14.1650  225.4750   43.1230 C   0  0  0  0  0
   14.8130  227.1290   41.6270 C   0  0  0  0  0
   16.1760  225.1480   41.7670 O   0  0  0  0  0
   16.8380  224.9750   40.4050 C   0  0  0  0  0
   17.5320  221.4600   43.8510 C   0  0  0  0  0
   17.2100  220.6130   44.9220 C   0  0  0  0  0
   17.0182  221.4547   48.9120 H   0  0  0  0  0
   15.4491  221.1277   48.1360 H   0  0  0  0  0
   16.2162  219.8830   49.1526 H   0  0  0  0  0
   18.0301  222.6887   47.5512 H   0  0  0  0  0
   18.5879  224.2498   45.5976 H   0  0  0  0  0
   18.2313  223.2023   41.8566 H   0  0  0  0  0
   19.0425  225.5147   43.7813 H   0  0  0  0  0
   19.9572  225.2781   38.9318 H   0  0  0  0  0
   18.6302  224.5310   36.9423 H   0  0  0  0  0
   17.2315  222.3239   36.4838 H   0  0  0  0  0
   15.8172  221.9952   37.5147 H   0  0  0  0  0
   15.6010  222.2755   35.7695 H   0  0  0  0  0
   14.5819  223.2109   39.6625 H   0  0  0  0  0
   14.1742  224.7291   38.6276 H   0  0  0  0  0
   13.4900  224.0340   41.1618 H   0  0  0  0  0
   13.3156  225.6551   40.2164 H   0  0  0  0  0
   13.1595  225.8959   43.1264 H   0  0  0  0  0
   14.1199  224.4208   43.3965 H   0  0  0  0  0
   14.7872  226.0113   43.8395 H   0  0  0  0  0
   15.2731  227.3986   40.6763 H   0  0  0  0  0
   13.8017  227.5332   41.6703 H   0  0  0  0  0
   15.4041  227.5370   42.4468 H   0  0  0  0  0
   17.3892  221.1185   42.8258 H   0  0  0  0  0
   16.8289  219.6096   44.7322 H   0  0  0  0  0
  1  2  1  0  0  0
  2  3  1  0  0  0
  3  4  4  0  0  0
  3 26  4  0  0  0
  4  5  4  0  0  0
  5  6  4  0  0  0
  6  7  1  0  0  0
  6 25  4  0  0  0
  7  8  2  0  0  0
  8  9  1  0  0  0
  9 10  2  0  0  0
  9 11  1  0  0  0
 11 12  4  0  0  0
 11 24  4  0  0  0
 12 13  4  0  0  0
 13 14  4  0  0  0
 14 15  1  0  0  0
 14 17  4  0  0  0
 15 16  1  0  0  0
 17 18  1  0  0  0
 17 24  4  0  0  0
 18 19  1  0  0  0
 19 20  1  0  0  0
 20 21  1  0  0  0
 20 22  1  0  0  0
 20 23  1  0  0  0
 23 24  1  0  0  0
 25 26  4  0  0  0
  1 27  1  0  0  0
  1 28  1  0  0  0
  1 29  1  0  0  0
  4 30  1  0  0  0
  5 31  1  0  0  0
  7 32  1  0  0  0
  8 33  1  0  0  0
 12 34  1  0  0  0
 13 35  1  0  0  0
 16 36  1  0  0  0
 16 37  1  0  0  0
 16 38  1  0  0  0
 18 39  1  0  0  0
 18 40  1  0  0  0
 19 41  1  0  0  0
 19 42  1  0  0  0
 21 43  1  0  0  0
 21 44  1  0  0  0
 21 45  1  0  0  0
 22 46  1  0  0  0
 22 47  1  0  0  0
 22 48  1  0  0  0
 25 49  1  0  0  0
 26 50  1  0  0  0
M  END
$$$$
