4res_ligand
  -I-interpret- 

 64 68  0  0  0  0  0  0  0  0999 V2000
    8.6860   21.0360   -0.8970 C   0  0  0  0  0
    7.1680   20.9330   -1.0390 C   0  0  0  0  0
    6.6670   19.5150   -1.2010 C   0  0  0  0  0
    6.8530   18.9660   -2.5880 C   0  0  0  0  0
    6.3020   19.8460   -3.7150 C   0  0  0  0  0
    6.4430   19.1810   -5.1240 C   0  0  0  0  0
    7.9090   18.8290   -5.3730 C   0  0  0  0  0
    5.6650   17.8350   -5.1250 C   0  0  0  0  0
    4.1520   17.9660   -5.0680 C   0  0  0  0  0
    3.7120   18.7460   -6.2850 C   0  0  0  0  0
    4.1460   18.0100   -7.4060 O   0  0  0  0  0
    4.3750   20.1430   -6.2870 C   0  0  0  0  0
    5.9220   20.1070   -6.2520 C   0  0  0  0  0
    6.5420   21.5060   -6.1370 C   0  0  0  0  0
    6.4760   22.1540   -4.7590 C   0  0  0  0  0
    6.9580   21.2360   -3.6270 C   0  0  0  0  0
    6.7190   21.8720   -2.2080 C   0  0  0  0  0
    7.4690   23.0560   -2.1670 O   0  0  0  0  0
    5.2680   22.1900   -1.8620 C   0  0  0  0  0
    5.1290   22.0330   -0.3390 C   0  0  0  0  0
    6.4420   21.4370    0.2200 C   0  0  0  0  0
    7.2540   22.3180    1.1590 C   0  0  0  0  0
    7.5160   23.7100    0.8900 C   0  0  0  0  0
    8.2360   24.4600    1.7410 C   0  0  0  0  0
    8.7720   23.8950    2.9690 C   0  0  0  0  0
    9.4320   24.4380    3.8320 O   0  0  0  0  0
    8.5050   22.5670    3.2050 O   0  0  0  0  0
    7.7810   21.8480    2.3280 C   0  0  0  0  0
    9.1587   20.7259   -1.8289 H   0  0  0  0  0
    8.9597   22.0674   -0.6749 H   0  0  0  0  0
    9.0186   20.3879   -0.0862 H   0  0  0  0  0
    5.5972   19.5204   -0.9923 H   0  0  0  0  0
    7.2409   18.8858   -0.5207 H   0  0  0  0  0
    6.3053   18.0245   -2.6288 H   0  0  0  0  0
    7.9275   18.8835   -2.7512 H   0  0  0  0  0
    5.2266   19.9645   -3.5824 H   0  0  0  0  0
    8.2632   18.1711   -4.5794 H   0  0  0  0  0
    8.0018   18.3235   -6.3342 H   0  0  0  0  0
    8.5041   19.7422   -5.3823 H   0  0  0  0  0
    5.9678   17.2965   -4.2270 H   0  0  0  0  0
    5.9019   17.3359   -6.0646 H   0  0  0  0  0
    3.8502   18.4827   -4.1569 H   0  0  0  0  0
    3.6861   16.9806   -5.0603 H   0  0  0  0  0
    2.6313   18.8879   -6.2943 H   0  0  0  0  0
    3.8877   18.4692   -8.2085 H   0  0  0  0  0
    4.0435   20.6590   -5.3859 H   0  0  0  0  0
    4.0844   20.6370   -7.2141 H   0  0  0  0  0
    6.2399   19.6932   -7.2090 H   0  0  0  0  0
    5.9713   22.1500   -6.8060 H   0  0  0  0  0
    7.6003   21.3923   -6.3717 H   0  0  0  0  0
    5.4322   22.3977   -4.5612 H   0  0  0  0  0
    7.1304   23.0256   -4.7751 H   0  0  0  0  0
    8.0336   21.1161   -3.7565 H   0  0  0  0  0
    7.3512   23.4787   -1.3132 H   0  0  0  0  0
    4.5887   21.5163   -2.3843 H   0  0  0  0  0
    5.0088   23.2023   -2.1722 H   0  0  0  0  0
    4.2945   21.3703   -0.1098 H   0  0  0  0  0
    4.9395   23.0045    0.1176 H   0  0  0  0  0
    6.2447   20.6341    0.9303 H   0  0  0  0  0
    7.1227   24.1622   -0.0205 H   0  0  0  0  0
    7.5326   25.2186    2.0844 H   0  0  0  0  0
    9.1217   24.7334    1.1675 H   0  0  0  0  0
    8.5104   21.1201    1.9728 H   0  0  0  0  0
    6.8856   21.6183    2.9057 H   0  0  0  0  0
  1  2  1  0  0  0
  2  3  1  0  0  0
  2 17  1  0  0  0
  2 21  1  0  0  0
  3  4  1  0  0  0
  4  5  1  0  0  0
  5  6  1  0  0  0
  5 16  1  0  0  0
  6  7  1  0  0  0
  6  8  1  0  0  0
  6 13  1  0  0  0
  8  9  1  0  0  0
  9 10  1  0  0  0
 10 11  1  0  0  0
 10 12  1  0  0  0
 12 13  1  0  0  0
 13 14  1  0  0  0
 14 15  1  0  0  0
 15 16  1  0  0  0
 16 17  1  0  0  0
 17 18  1  0  0  0
 17 19  1  0  0  0
 19 20  1  0  0  0
 20 21  1  0  0  0
 21 22  1  0  0  0
 22 23  2  0  0  0
 22 28  1  0  0  0
 23 24  1  0  0  0
 24 25  1  0  0  0
 25 26  2  0  0  0
 25 27  1  0  0  0
 27 28  1  0  0  0
  1 29  1  0  0  0
  1 30  1  0  0  0
  1 31  1  0  0  0
  3 32  1  0  0  0
  3 33  1  0  0  0
  4 34  1  0  0  0
  4 35  1  0  0  0
  5 36  1  0  0  0
  7 37  1  0  0  0
  7 38  1  0  0  0
  7 39  1  0  0  0
  8 40  1  0  0  0
  8 41  1  0  0  0
  9 42  1  0  0  0
  9 43  1  0  0  0
 10 44  1  0  0  0
 11 45  1  0  0  0
 12 46  1  0  0  0
 12 47  1  0  0  0
 13 48  1  0  0  0
 14 49  1  0  0  0
 14 50  1  0  0  0
 15 51  1  0  0  0
 15 52  1  0  0  0
 16 53  1  0  0  0
 18 54  1  0  0  0
 19 55  1  0  0  0
 19 56  1  0  0  0
 20 57  1  0  0  0
 20 58  1  0  0  0
 21 59  1  0  0  0
 23 60  1  0  0  0
 24 61  1  0  0  0
 24 62  1  0  0  0
 28 63  1  0  0  0
 28 64  1  0  0  0
M  END
$$$$
