5e8w_ligand
  -I-interpret- 

 62 69  0  0  0  0  0  0  0  0999 V2000
    1.0780    8.8460    7.6060 O   0  0  0  0  0
    0.4080    7.7120    7.0570 C   0  0  0  0  0
    0.1930    6.5830    8.0550 C   0  0  0  0  0
    0.8610    6.9450    9.3920 C   0  0  0  0  0
    2.3110    7.3410    9.1340 C   0  0  0  0  0
    2.2640    8.7150    8.3950 C   0  0  0  0  0
    2.1040    9.8950    9.3340 C   0  0  0  0  0
    3.4180    8.8230    7.4800 N   0  0  0  0  0
    3.3710    8.3910    6.1580 C   0  0  0  0  0
    2.3310    7.7870    5.3980 C   0  0  0  0  0
    2.5530    7.4300    4.0420 C   0  0  0  0  0
    3.8210    7.6660    3.4860 C   0  0  0  0  0
    4.8280    8.2560    4.2350 C   0  0  0  0  0
    4.6230    8.6240    5.5590 C   0  0  0  0  0
    5.4720    9.2110    6.5610 C   0  0  0  0  0
    4.7140    9.3060    7.7420 C   0  0  0  0  0
    5.3000    9.7240    8.9380 C   0  0  0  0  0
    6.6410   10.0800    8.9270 C   0  0  0  0  0
    7.3820   10.0310    7.7580 C   0  0  0  0  0
    6.8090    9.5950    6.5800 C   0  0  0  0  0
    6.0640    8.3820    3.4040 C   0  0  0  0  0
    5.6330    7.7710    2.1570 N   0  0  0  0  0
    4.3440    7.3740    2.1570 C   0  0  0  0  0
    3.7500    6.8990    1.1980 O   0  0  0  0  0
    1.3180    6.8340    3.5730 C   0  0  0  0  0
    0.4190    6.8400    4.6650 C   0  0  0  0  0
   -0.8690    6.3410    4.5360 C   0  0  0  0  0
   -1.2610    5.8350    3.2980 C   0  0  0  0  0
   -0.4020    5.8550    2.2080 C   0  0  0  0  0
    0.8780    6.3410    2.3360 C   0  0  0  0  0
    1.0340    7.4280    5.7780 N   0  0  0  0  0
    2.8910    6.2760    8.3540 O   0  0  0  0  0
    4.2810    6.0140    8.5570 C   0  0  0  0  0
    0.7920    5.9320   10.4450 N   0  3  0  0  0
    1.1230    6.4410   11.8020 C   0  0  0  0  0
   -0.6411    7.9090    6.8366 H   0  0  0  0  0
    0.6341    5.6655    7.6656 H   0  0  0  0  0
   -0.8756    6.4355    8.2114 H   0  0  0  0  0
    0.2775    7.7760    9.7884 H   0  0  0  0  0
    2.9227    7.4657   10.0275 H   0  0  0  0  0
    2.9964    9.9889    9.9528 H   0  0  0  0  0
    1.9671   10.8057    8.7509 H   0  0  0  0  0
    1.2339    9.7355    9.9709 H   0  0  0  0  0
    4.7180    9.7696    9.8585 H   0  0  0  0  0
    7.1184   10.4030    9.8521 H   0  0  0  0  0
    8.4274   10.3395    7.7681 H   0  0  0  0  0
    7.4028    9.5517    5.6670 H   0  0  0  0  0
    6.9392    7.9056    3.8457 H   0  0  0  0  0
    6.4132    9.4084    3.2912 H   0  0  0  0  0
    6.2505    7.6531    1.3537 H   0  0  0  0  0
   -1.5570    6.3446    5.3815 H   0  0  0  0  0
   -2.2607    5.4158    3.1837 H   0  0  0  0  0
   -0.7448    5.4825    1.2427 H   0  0  0  0  0
    1.5495    6.3431    1.4774 H   0  0  0  0  0
    4.8570    6.9068    8.3138 H   0  0  0  0  0
    4.4500    5.7437    9.5993 H   0  0  0  0  0
    4.5925    5.1923    7.9121 H   0  0  0  0  0
    1.4790    5.2134   10.2170 H   0  0  0  0  0
   -0.1702    5.5950   10.4762 H   0  0  0  0  0
    2.1390    6.8357   11.8028 H   0  0  0  0  0
    0.4241    7.2326   12.0722 H   0  0  0  0  0
    1.0477    5.6266   12.5225 H   0  0  0  0  0
  1  2  1  0  0  0
  1  6  1  0  0  0
  2  3  1  0  0  0
  2 31  1  0  0  0
  3  4  1  0  0  0
  4  5  1  0  0  0
  4 34  1  0  0  0
  5  6  1  0  0  0
  5 32  1  0  0  0
  6  7  1  0  0  0
  6  8  1  0  0  0
  8  9  4  0  0  0
  8 16  4  0  0  0
  9 10  4  0  0  0
  9 14  4  0  0  0
 10 11  4  0  0  0
 10 31  4  0  0  0
 11 12  4  0  0  0
 11 25  4  0  0  0
 12 13  4  0  0  0
 12 23  1  0  0  0
 13 14  4  0  0  0
 13 21  1  0  0  0
 14 15  4  0  0  0
 15 16  4  0  0  0
 15 20  4  0  0  0
 16 17  4  0  0  0
 17 18  4  0  0  0
 18 19  4  0  0  0
 19 20  4  0  0  0
 21 22  1  0  0  0
 22 23  1  0  0  0
 23 24  2  0  0  0
 25 26  4  0  0  0
 25 30  4  0  0  0
 26 27  4  0  0  0
 26 31  4  0  0  0
 27 28  4  0  0  0
 28 29  4  0  0  0
 29 30  4  0  0  0
 32 33  1  0  0  0
 34 35  1  0  0  0
  2 36  1  0  0  0
  3 37  1  0  0  0
  3 38  1  0  0  0
  4 39  1  0  0  0
  5 40  1  0  0  0
  7 41  1  0  0  0
  7 42  1  0  0  0
  7 43  1  0  0  0
 17 44  1  0  0  0
 18 45  1  0  0  0
 19 46  1  0  0  0
 20 47  1  0  0  0
 21 48  1  0  0  0
 21 49  1  0  0  0
 22 50  1  0  0  0
 27 51  1  0  0  0
 28 52  1  0  0  0
 29 53  1  0  0  0
 30 54  1  0  0  0
 33 55  1  0  0  0
 33 56  1  0  0  0
 33 57  1  0  0  0
 34 58  1  0  0  0
 34 59  1  0  0  0
 35 60  1  0  0  0
 35 61  1  0  0  0
 35 62  1  0  0  0
M  END
$$$$
