4cix_ligand
  -I-interpret- 

 39 40  0  0  0  0  0  0  0  0999 V2000
    6.4620  -31.1470  -46.5600 C   0  0  0  0  0
    5.1520  -31.6220  -46.4710 C   0  0  0  0  0
    4.1440  -31.0020  -47.2070 C   0  0  0  0  0
    4.4340  -29.9150  -48.0350 C   0  0  0  0  0
    5.7430  -29.4430  -48.1270 C   0  0  0  0  0
    6.7650  -30.0560  -47.3890 C   0  0  0  0  0
    8.0810  -29.5880  -47.4840 C   0  0  0  0  0
    8.2600  -28.3370  -46.6250 C   0  0  0  0  0
    9.3680  -27.5560  -47.1310 O   0  0  0  0  0
    8.4180  -28.7170  -45.2780 C   0  0  0  0  0
    7.2700  -28.7030  -44.4830 C   0  0  0  0  0
    7.2200  -29.0660  -43.1350 C   0  0  0  0  0
    6.0870  -29.8820  -42.9560 C   0  0  0  0  0
    6.2420  -31.1100  -42.7890 O   0  0  0  0  0
    4.9810  -29.3180  -43.0050 O   0  0  0  0  0
    7.0540  -27.8900  -42.3490 O   0  0  0  0  0
    8.4640  -29.7960  -42.6720 C   0  0  0  0  0
    9.6810  -29.0590  -43.2390 C   0  0  0  0  0
   10.9080  -29.6970  -42.7860 O   0  0  0  0  0
    9.6620  -29.1260  -44.7650 C   0  0  0  0  0
   10.7200  -28.2780  -45.2190 O   0  0  0  0  0
    7.2530  -31.6259  -45.9829 H   0  0  0  0  0
    4.9193  -32.4723  -45.8300 H   0  0  0  0  0
    3.1200  -31.3686  -47.1359 H   0  0  0  0  0
    3.6392  -29.4370  -48.6077 H   0  0  0  0  0
    5.9718  -28.5960  -48.7738 H   0  0  0  0  0
    8.2975  -29.3409  -48.5233 H   0  0  0  0  0
    8.7615  -30.3631  -47.1314 H   0  0  0  0  0
    7.3770  -27.7001  -46.6767 H   0  0  0  0  0
    9.4782  -26.7709  -46.5897 H   0  0  0  0  0
    6.3391  -28.3835  -44.9515 H   0  0  0  0  0
    7.1797  -31.3155  -42.7855 H   0  0  0  0  0
    7.0185  -28.1297  -41.4201 H   0  0  0  0  0
    8.4495  -30.8274  -43.0243 H   0  0  0  0  0
    8.5075  -29.8144  -41.5830 H   0  0  0  0  0
    9.6422  -28.0244  -42.8981 H   0  0  0  0  0
   11.6636  -29.2275  -43.1469 H   0  0  0  0  0
    9.8076  -30.1483  -45.1140 H   0  0  0  0  0
   11.5530  -28.5832  -44.8522 H   0  0  0  0  0
  1  2  4  0  0  0
  1  6  4  0  0  0
  2  3  4  0  0  0
  3  4  4  0  0  0
  4  5  4  0  0  0
  5  6  4  0  0  0
  6  7  1  0  0  0
  7  8  1  0  0  0
  8  9  1  0  0  0
  8 10  1  0  0  0
 10 11  2  0  0  0
 10 20  1  0  0  0
 11 12  1  0  0  0
 12 13  1  0  0  0
 12 16  1  0  0  0
 12 17  1  0  0  0
 13 14  1  0  0  0
 13 15  2  0  0  0
 17 18  1  0  0  0
 18 19  1  0  0  0
 18 20  1  0  0  0
 20 21  1  0  0  0
  1 22  1  0  0  0
  2 23  1  0  0  0
  3 24  1  0  0  0
  4 25  1  0  0  0
  5 26  1  0  0  0
  7 27  1  0  0  0
  7 28  1  0  0  0
  8 29  1  0  0  0
  9 30  1  0  0  0
 11 31  1  0  0  0
 14 32  1  0  0  0
 16 33  1  0  0  0
 17 34  1  0  0  0
 17 35  1  0  0  0
 18 36  1  0  0  0
 19 37  1  0  0  0
 20 38  1  0  0  0
 21 39  1  0  0  0
M  END
$$$$
