4m8x_ligand
  -I-interpret- 

 98101  0  0  0  0  0  0  0  0999 V2000
  -11.8560   52.4580    2.3110 N   0  0  0  0  0
  -13.6770   51.0180   -1.3990 C   0  0  0  0  0
  -14.8720   47.1440    2.0770 O   0  0  0  0  0
  -11.9460   52.5510    3.8020 C   0  0  0  0  0
  -11.5400   51.1580    4.3600 C   0  0  0  0  0
  -12.4270   50.0510    3.7580 C   0  0  0  0  0
  -11.8690   48.9900    3.0260 C   0  0  0  0  0
  -12.6790   48.0050    2.4670 C   0  0  0  0  0
  -14.0620   48.0880    2.6330 C   0  0  0  0  0
  -15.8510   47.8390    1.2980 C   0  0  0  0  0
  -16.7000   46.6300    0.2050 P   0  0  0  0  0
  -18.3270   46.8040    0.2770 O   0  0  0  0  0
  -19.2180   46.0680    1.1400 C   0  0  0  0  0
  -20.0970   47.0590    1.9530 C   0  0  0  0  0
  -16.2170   47.1060   -1.2700 O   0  0  0  0  0
  -16.0840   45.1440    0.4050 O   0  0  0  0  0
  -14.8430   44.8110   -0.2450 C   0  0  0  0  0
  -14.5700   43.3070   -0.1260 C   0  0  0  0  0
  -14.6230   49.1480    3.3460 C   0  0  0  0  0
  -13.8080   50.1210    3.9220 C   0  0  0  0  0
  -10.9190   53.5740    4.2660 C   0  0  0  0  0
   -9.6880   52.8540    4.2210 O   0  0  0  0  0
  -11.1290   54.1590    5.6940 C   0  0  0  0  0
  -12.3620   54.9880    5.8710 N   0  0  0  0  0
  -12.8770   55.4390    4.5510 C   0  0  0  0  0
  -12.6640   56.9360    4.3050 C   0  0  0  0  0
  -11.1730   57.2400    4.1880 C   0  0  0  0  0
  -13.3080   57.7640    5.4160 C   0  0  0  0  0
  -13.5380   54.1110    6.7670 S   0  0  0  0  0
  -14.9370   54.4790    6.3460 O   0  0  0  0  0
  -13.3500   52.6050    6.6820 O   0  0  0  0  0
  -13.3090   54.4190    8.5190 C   0  0  0  0  0
  -12.3940   53.6360    9.2430 C   0  0  0  0  0
  -12.1990   53.8870   10.6000 C   0  0  0  0  0
  -12.9280   54.9050   11.2370 C   0  0  0  0  0
  -12.7680   55.1630   12.5720 O   0  0  0  0  0
  -12.9760   56.5490   12.8540 C   0  0  0  0  0
  -13.8340   55.6670   10.5190 C   0  0  0  0  0
  -14.0270   55.4290    9.1580 C   0  0  0  0  0
  -12.7530   52.8580    1.3860 C   0  0  0  0  0
  -13.8750   53.3640    1.5960 O   0  0  0  0  0
  -12.3540   52.6030    0.0880 O   0  0  0  0  0
  -13.4380   52.4530   -0.8740 C   0  0  0  0  0
  -12.9470   53.1280   -2.1360 C   0  0  0  0  0
  -12.0450   52.1520   -2.7240 O   0  0  0  0  0
  -12.5930   50.8150   -2.4570 C   0  0  0  0  0
  -11.5900   49.9510   -1.8310 O   0  0  0  0  0
  -12.2750   49.0990   -0.8820 C   0  0  0  0  0
  -13.4500   49.9020   -0.3650 C   0  0  0  0  0
  -11.0025   52.0358    1.9453 H   0  0  0  0  0
  -14.7142   50.9467   -1.7265 H   0  0  0  0  0
  -12.9436   52.8375    4.1350 H   0  0  0  0  0
  -11.6665   51.1614    5.4426 H   0  0  0  0  0
  -10.5014   50.9609    4.0944 H   0  0  0  0  0
  -10.7883   48.9371    2.8939 H   0  0  0  0  0
  -12.2386   47.1800    1.9071 H   0  0  0  0  0
  -15.3672   48.6075    0.6951 H   0  0  0  0  0
  -16.5768   48.3169    1.9559 H   0  0  0  0  0
  -18.6327   45.4568    1.8270 H   0  0  0  0  0
  -19.8602   45.4280    0.5350 H   0  0  0  0  0
  -19.4553   47.7002    2.5573 H   0  0  0  0  0
  -20.6817   47.6713    1.2665 H   0  0  0  0  0
  -20.7682   46.4980    2.6033 H   0  0  0  0  0
  -14.0315   45.3599    0.2328 H   0  0  0  0  0
  -14.9092   45.0793   -1.2994 H   0  0  0  0  0
  -14.5068   43.0327    0.9270 H   0  0  0  0  0
  -15.3810   42.7533   -0.5990 H   0  0  0  0  0
  -13.6288   43.0695   -0.6218 H   0  0  0  0  0
  -15.7056   49.2156    3.4533 H   0  0  0  0  0
  -14.2500   50.9336    4.4986 H   0  0  0  0  0
  -10.9775   54.4554    3.6273 H   0  0  0  0  0
   -9.5609   52.4945    3.3400 H   0  0  0  0  0
  -10.2811   54.8153    5.8900 H   0  0  0  0  0
  -11.2257   53.3082    6.3685 H   0  0  0  0  0
  -13.9500   55.2485    4.5306 H   0  0  0  0  0
  -12.3330   54.8949    3.7789 H   0  0  0  0  0
  -13.1460   57.2092    3.3663 H   0  0  0  0  0
  -10.6714   56.9533    5.1123 H   0  0  0  0  0
  -10.7528   56.6762    3.3552 H   0  0  0  0  0
  -11.0336   58.3068    4.0133 H   0  0  0  0  0
  -14.3784   57.5604    5.4452 H   0  0  0  0  0
  -12.8598   57.4967    6.3729 H   0  0  0  0  0
  -13.1436   58.8235    5.2196 H   0  0  0  0  0
  -11.8409   52.8383    8.7471 H   0  0  0  0  0
  -11.4813   53.2938   11.1667 H   0  0  0  0  0
  -12.2557   57.1446   12.2933 H   0  0  0  0  0
  -13.9877   56.8301   12.5616 H   0  0  0  0  0
  -12.8426   56.7253   13.9213 H   0  0  0  0  0
  -14.3979   56.4549   11.0184 H   0  0  0  0  0
  -14.7387   56.0323    8.5945 H   0  0  0  0  0
  -14.3318   52.8234   -0.3720 H   0  0  0  0  0
  -12.4539   54.0786   -1.9328 H   0  0  0  0  0
  -13.7629   53.3957   -2.8073 H   0  0  0  0  0
  -12.9389   50.3657   -3.3879 H   0  0  0  0  0
  -11.6120   48.8043   -0.0685 H   0  0  0  0  0
  -12.6079   48.1741   -1.3531 H   0  0  0  0  0
  -14.3374   49.2797   -0.2498 H   0  0  0  0  0
  -13.2475   50.3115    0.6246 H   0  0  0  0  0
  1  4  1  0  0  0
 40  1  1  0  0  0
 43  2  1  0  0  0
  2 46  1  0  0  0
  2 49  1  0  0  0
  9  3  1  0  0  0
  3 10  1  0  0  0
  4  5  1  0  0  0
  4 21  1  0  0  0
  5  6  1  0  0  0
  6  7  4  0  0  0
  6 20  4  0  0  0
  7  8  4  0  0  0
  8  9  4  0  0  0
 19  9  4  0  0  0
 10 11  1  0  0  0
 11 12  1  0  0  0
 11 15  2  0  0  0
 11 16  1  0  0  0
 12 13  1  0  0  0
 13 14  1  0  0  0
 16 17  1  0  0  0
 17 18  1  0  0  0
 20 19  4  0  0  0
 21 22  1  0  0  0
 21 23  1  0  0  0
 23 24  1  0  0  0
 24 25  1  0  0  0
 24 29  1  0  0  0
 25 26  1  0  0  0
 26 27  1  0  0  0
 26 28  1  0  0  0
 29 30  2  0  0  0
 29 31  2  0  0  0
 29 32  1  0  0  0
 32 33  4  0  0  0
 32 39  4  0  0  0
 33 34  4  0  0  0
 34 35  4  0  0  0
 35 36  1  0  0  0
 38 35  4  0  0  0
 36 37  1  0  0  0
 39 38  4  0  0  0
 40 41  2  0  0  0
 42 40  1  0  0  0
 42 43  1  0  0  0
 43 44  1  0  0  0
 44 45  1  0  0  0
 45 46  1  0  0  0
 46 47  1  0  0  0
 47 48  1  0  0  0
 48 49  1  0  0  0
  1 50  1  0  0  0
  2 51  1  0  0  0
  4 52  1  0  0  0
  5 53  1  0  0  0
  5 54  1  0  0  0
  7 55  1  0  0  0
  8 56  1  0  0  0
 10 57  1  0  0  0
 10 58  1  0  0  0
 13 59  1  0  0  0
 13 60  1  0  0  0
 14 61  1  0  0  0
 14 62  1  0  0  0
 14 63  1  0  0  0
 17 64  1  0  0  0
 17 65  1  0  0  0
 18 66  1  0  0  0
 18 67  1  0  0  0
 18 68  1  0  0  0
 19 69  1  0  0  0
 20 70  1  0  0  0
 21 71  1  0  0  0
 22 72  1  0  0  0
 23 73  1  0  0  0
 23 74  1  0  0  0
 25 75  1  0  0  0
 25 76  1  0  0  0
 26 77  1  0  0  0
 27 78  1  0  0  0
 27 79  1  0  0  0
 27 80  1  0  0  0
 28 81  1  0  0  0
 28 82  1  0  0  0
 28 83  1  0  0  0
 33 84  1  0  0  0
 34 85  1  0  0  0
 37 86  1  0  0  0
 37 87  1  0  0  0
 37 88  1  0  0  0
 38 89  1  0  0  0
 39 90  1  0  0  0
 43 91  1  0  0  0
 44 92  1  0  0  0
 44 93  1  0  0  0
 46 94  1  0  0  0
 48 95  1  0  0  0
 48 96  1  0  0  0
 49 97  1  0  0  0
 49 98  1  0  0  0
M  END
$$$$
