4l70_ligand
  -I-interpret- 

 46 48  0  0  0  0  0  0  0  0999 V2000
   24.4440   -1.8340   12.1930 C   0  0  0  0  0
   25.2160   -0.8850   11.5130 C   0  0  0  0  0
   25.3290    0.4160   12.0180 C   0  0  0  0  0
   24.6490    0.7250   13.1950 C   0  0  0  0  0
   23.8700   -0.1950   13.8640 C   0  0  0  0  0
   23.7560   -1.4930   13.3760 C   0  0  0  0  0
   22.9680   -2.4100   14.0820 C   0  0  0  0  0
   23.9200   -3.2750   14.8780 C   0  0  0  0  0
   23.0590   -3.8970   15.9860 C   0  0  0  0  0
   22.0560   -3.1830   13.1660 N   0  0  0  0  0
   20.7100   -3.0340   13.2300 C   0  0  0  0  0
   20.1470   -2.2500   13.9990 O   0  0  0  0  0
   19.8540   -3.8980   12.2940 C   0  0  0  0  0
   19.0970   -4.8820   13.2050 C   0  0  0  0  0
   18.1780   -5.6900   12.5020 C   0  0  0  0  0
   18.5300   -6.9310   12.1520 N   0  0  0  0  0
   17.6920   -7.7280   11.4730 C   0  0  0  0  0
   18.1190   -9.0160   11.2150 C   0  0  0  0  0
   17.2730   -9.9090   10.5240 C   0  0  0  0  0
   16.0010   -9.4740   10.1490 C   0  0  0  0  0
   15.5850   -8.1520   10.4370 C   0  0  0  0  0
   16.4070   -7.2950   11.1170 C   0  0  0  0  0
   15.9820   -5.9860   11.4540 C   0  0  0  0  0
   14.8460   -5.5160   11.1700 O   0  0  0  0  0
   16.9150   -5.2060   12.1570 N   0  0  0  0  0
   24.3736   -2.8495   11.8033 H   0  0  0  0  0
   25.7289   -1.1586   10.5909 H   0  0  0  0  0
   25.9315    1.1659   11.5054 H   0  0  0  0  0
   24.7365    1.7324   13.6019 H   0  0  0  0  0
   23.3442    0.0941   14.7740 H   0  0  0  0  0
   22.2836   -1.9082   14.7660 H   0  0  0  0  0
   24.7473   -2.6949   15.2868 H   0  0  0  0  0
   24.3901   -4.0367   14.2560 H   0  0  0  0  0
   22.6277   -3.1043   16.5974 H   0  0  0  0  0
   22.2599   -4.4860   15.5359 H   0  0  0  0  0
   23.6801   -4.5408   16.6088 H   0  0  0  0  0
   22.4575   -3.8291   12.4865 H   0  0  0  0  0
   20.4714   -4.4259   11.5672 H   0  0  0  0  0
   19.1645   -3.2872   11.7112 H   0  0  0  0  0
   18.5349   -4.2957   13.9319 H   0  0  0  0  0
   19.8331   -5.5407   13.6659 H   0  0  0  0  0
   19.1059   -9.3413   11.5440 H   0  0  0  0  0
   17.6065  -10.9194   10.2875 H   0  0  0  0  0
   15.3250  -10.1552    9.6321 H   0  0  0  0  0
   14.6005   -7.8134   10.1140 H   0  0  0  0  0
   16.6613   -4.2548   12.4241 H   0  0  0  0  0
  1  2  4  0  0  0
  1  6  4  0  0  0
  2  3  4  0  0  0
  3  4  4  0  0  0
  4  5  4  0  0  0
  5  6  4  0  0  0
  6  7  1  0  0  0
  7  8  1  0  0  0
  7 10  1  0  0  0
  8  9  1  0  0  0
 10 11  1  0  0  0
 11 12  2  0  0  0
 11 13  1  0  0  0
 13 14  1  0  0  0
 14 15  1  0  0  0
 15 16  2  0  0  0
 15 25  1  0  0  0
 16 17  1  0  0  0
 17 18  4  0  0  0
 17 22  4  0  0  0
 18 19  4  0  0  0
 19 20  4  0  0  0
 20 21  4  0  0  0
 21 22  4  0  0  0
 22 23  1  0  0  0
 23 24  2  0  0  0
 23 25  1  0  0  0
  1 26  1  0  0  0
  2 27  1  0  0  0
  3 28  1  0  0  0
  4 29  1  0  0  0
  5 30  1  0  0  0
  7 31  1  0  0  0
  8 32  1  0  0  0
  8 33  1  0  0  0
  9 34  1  0  0  0
  9 35  1  0  0  0
  9 36  1  0  0  0
 10 37  1  0  0  0
 13 38  1  0  0  0
 13 39  1  0  0  0
 14 40  1  0  0  0
 14 41  1  0  0  0
 18 42  1  0  0  0
 19 43  1  0  0  0
 20 44  1  0  0  0
 21 45  1  0  0  0
 25 46  1  0  0  0
M  END
$$$$
