3wvm_ligand
  -I-interpret- 

 56 55  0  0  0  0  0  0  0  0999 V2000
    5.8020  -16.5780   -1.5630 C   0  0  0  0  0
    6.8590  -15.9210   -1.4970 O   0  0  0  0  0
    4.7810  -16.3510   -0.8460 O   0  0  0  0  0
    5.6830  -17.6950   -2.5740 C   0  0  0  0  0
    6.9570  -18.0980   -3.2800 C   0  0  0  0  0
    6.7950  -19.2040   -4.2910 C   0  0  0  0  0
    8.1130  -19.6940   -4.8260 C   0  0  0  0  0
    8.0210  -20.6320   -6.0410 C   0  0  0  0  0
    7.1100  -21.8260   -5.8630 C   0  0  0  0  0
    7.5580  -22.8080   -4.7830 C   0  0  0  0  0
    6.5040  -23.8460   -4.5350 C   0  0  0  0  0
    6.8610  -25.0090   -3.6460 C   0  0  0  0  0
    7.4210  -24.6230   -2.3470 C   0  0  0  0  0
    6.6000  -23.5870   -1.5450 C   0  0  0  0  0
    7.0560  -23.4450   -0.1130 C   0  0  0  0  0
    6.3870  -22.3600    0.6600 C   0  0  0  0  0
    6.5790  -20.9580    0.1070 C   0  0  0  0  0
    8.0420  -20.5480   -0.1650 C   0  0  0  0  0
    8.9420  -20.5470    1.1090 C   0  0  0  0  0
   10.3910  -20.2580    0.7490 C   0  0  0  0  0
    4.0893  -16.9785   -1.0683 H   0  0  0  0  0
    5.0083  -17.3320   -3.3493 H   0  0  0  0  0
    5.3530  -18.5730   -2.0187 H   0  0  0  0  0
    7.6407  -18.4657   -2.5148 H   0  0  0  0  0
    7.3093  -17.2211   -3.8232 H   0  0  0  0  0
    6.2173  -18.8121   -5.1281 H   0  0  0  0  0
    6.3007  -20.0407   -3.7974 H   0  0  0  0  0
    8.5819  -20.2657   -4.0251 H   0  0  0  0  0
    8.6642  -18.8124   -5.1533 H   0  0  0  0  0
    9.0235  -21.0250   -6.2104 H   0  0  0  0  0
    7.6099  -20.0434   -6.8611 H   0  0  0  0  0
    7.1079  -22.3696   -6.8078 H   0  0  0  0  0
    6.1357  -21.4419   -5.5609 H   0  0  0  0  0
    7.7329  -22.2575   -3.8587 H   0  0  0  0  0
    8.4688  -23.3052   -5.1166 H   0  0  0  0  0
    6.2877  -24.2807   -5.5109 H   0  0  0  0  0
    5.6961  -23.3243   -4.0220 H   0  0  0  0  0
    7.6240  -25.5886   -4.1656 H   0  0  0  0  0
    5.9400  -25.5576   -3.4489 H   0  0  0  0  0
    8.3864  -24.1603   -2.5519 H   0  0  0  0  0
    7.4507  -25.5291   -1.7418 H   0  0  0  0  0
    5.5646  -23.9273   -1.5293 H   0  0  0  0  0
    6.7273  -22.6188   -2.0293 H   0  0  0  0  0
    8.1173  -23.1986   -0.1449 H   0  0  0  0  0
    6.8131  -24.3822    0.3877 H   0  0  0  0  0
    6.8300  -22.3667    1.6559 H   0  0  0  0  0
    5.3171  -22.5658    0.6260 H   0  0  0  0  0
    6.1986  -20.2707    0.8626 H   0  0  0  0  0
    6.0641  -20.9290   -0.8533 H   0  0  0  0  0
    8.0276  -19.5298   -0.5539 H   0  0  0  0  0
    8.4607  -21.2773   -0.8585 H   0  0  0  0  0
    8.8865  -21.5292    1.5784 H   0  0  0  0  0
    8.5879  -19.7712    1.7879 H   0  0  0  0  0
   10.7535  -21.0241    0.0636 H   0  0  0  0  0
   10.4574  -19.2805    0.2714 H   0  0  0  0  0
   10.9971  -20.2630    1.6550 H   0  0  0  0  0
  1  2  2  0  0  0
  1  3  1  0  0  0
  1  4  1  0  0  0
  4  5  1  0  0  0
  5  6  1  0  0  0
  6  7  1  0  0  0
  7  8  1  0  0  0
  8  9  1  0  0  0
  9 10  1  0  0  0
 10 11  1  0  0  0
 11 12  1  0  0  0
 12 13  1  0  0  0
 13 14  1  0  0  0
 14 15  1  0  0  0
 15 16  1  0  0  0
 16 17  1  0  0  0
 17 18  1  0  0  0
 18 19  1  0  0  0
 19 20  1  0  0  0
  3 21  1  0  0  0
  4 22  1  0  0  0
  4 23  1  0  0  0
  5 24  1  0  0  0
  5 25  1  0  0  0
  6 26  1  0  0  0
  6 27  1  0  0  0
  7 28  1  0  0  0
  7 29  1  0  0  0
  8 30  1  0  0  0
  8 31  1  0  0  0
  9 32  1  0  0  0
  9 33  1  0  0  0
 10 34  1  0  0  0
 10 35  1  0  0  0
 11 36  1  0  0  0
 11 37  1  0  0  0
 12 38  1  0  0  0
 12 39  1  0  0  0
 13 40  1  0  0  0
 13 41  1  0  0  0
 14 42  1  0  0  0
 14 43  1  0  0  0
 15 44  1  0  0  0
 15 45  1  0  0  0
 16 46  1  0  0  0
 16 47  1  0  0  0
 17 48  1  0  0  0
 17 49  1  0  0  0
 18 50  1  0  0  0
 18 51  1  0  0  0
 19 52  1  0  0  0
 19 53  1  0  0  0
 20 54  1  0  0  0
 20 55  1  0  0  0
 20 56  1  0  0  0
M  END
$$$$
