5wzu_ligand
  -I-interpret- 

 48 50  0  0  0  0  0  0  0  0999 V2000
   18.8330   14.1100   11.6160 O   0  0  0  0  0
   18.4730   15.2710   11.9690 C   0  0  0  0  0
   19.1780   16.0710   12.6460 O   0  0  0  0  0
   17.0550   15.7160   11.5360 C   0  0  0  0  0
   16.5780   16.6730   12.5380 O   0  0  0  0  0
   16.1320   17.9480   12.2440 C   0  0  0  0  0
   16.8330   18.6950   11.2790 C   0  0  0  0  0
   16.4100   19.9750   10.9760 C   0  0  0  0  0
   15.3160   20.4760   11.6760 C   0  0  0  0  0
   14.6550   19.7510   12.6080 C   0  0  0  0  0
   15.0390   18.4750   12.9180 C   0  0  0  0  0
   14.1700   18.0730   13.9050 C   0  0  0  0  0
   14.1330   16.8890   14.5720 C   0  0  0  0  0
   13.1220   16.1920   14.6800 O   0  0  0  0  0
   15.4240   16.4100   15.2560 C   0  0  0  0  0
   16.4480   17.0800   15.2430 O   0  0  0  0  0
   15.3770   15.2130   15.8010 N   0  0  0  0  0
   13.3080   19.0590   14.1300 C   0  0  0  0  0
   12.1680   18.9840   15.1560 C   0  0  0  0  0
   13.5860   20.1050   13.3390 N   0  0  0  0  0
   12.8900   21.4880   13.2090 C   0  0  0  0  0
   12.0980   21.6020   12.0030 C   0  0  0  0  0
   11.3410   20.4670   11.6560 C   0  0  0  0  0
   10.5410   20.4270   10.5210 C   0  0  0  0  0
   10.4530   21.5260    9.6870 C   0  0  0  0  0
   11.1740   22.6650    9.9860 C   0  0  0  0  0
   12.0070   22.7460   11.1260 C   0  0  0  0  0
   12.7000   23.9840   11.3110 C   0  0  0  0  0
   12.5970   24.8880   10.1890 F   0  0  0  0  0
   14.0160   23.7810   11.4650 F   0  0  0  0  0
   12.1400   24.6230   12.4380 F   0  0  0  0  0
   18.1282   13.6972   11.1115 H   0  0  0  0  0
   16.3851   14.8584   11.4740 H   0  0  0  0  0
   17.0812   16.1751   10.5478 H   0  0  0  0  0
   17.7006   18.2682   10.7758 H   0  0  0  0  0
   16.9149   20.5712   10.2160 H   0  0  0  0  0
   14.9790   21.4910   11.4654 H   0  0  0  0  0
   16.2120   14.8153   16.2311 H   0  0  0  0  0
   14.5056   14.6830   15.7933 H   0  0  0  0  0
   11.5032   18.1593   14.8990 H   0  0  0  0  0
   12.5853   18.8199   16.1495 H   0  0  0  0  0
   11.6091   19.9197   15.1453 H   0  0  0  0  0
   13.6666   22.2520   13.1735 H   0  0  0  0  0
   12.2216   21.6083   14.0616 H   0  0  0  0  0
   11.3841   19.5889   12.3004 H   0  0  0  0  0
    9.9789   19.5230   10.2865 H   0  0  0  0  0
    9.8196   21.4937    8.8005 H   0  0  0  0  0
   11.0989   23.5274    9.3236 H   0  0  0  0  0
  1  2  1  0  0  0
  2  3  2  0  0  0
  2  4  1  0  0  0
  4  5  1  0  0  0
  5  6  1  0  0  0
  6  7  4  0  0  0
  6 11  4  0  0  0
  7  8  4  0  0  0
  8  9  4  0  0  0
  9 10  4  0  0  0
 10 11  4  0  0  0
 10 20  4  0  0  0
 11 12  4  0  0  0
 12 13  1  0  0  0
 12 18  4  0  0  0
 13 14  2  0  0  0
 13 15  1  0  0  0
 15 16  2  0  0  0
 15 17  1  0  0  0
 18 19  1  0  0  0
 18 20  4  0  0  0
 20 21  1  0  0  0
 21 22  1  0  0  0
 22 23  4  0  0  0
 22 27  4  0  0  0
 23 24  4  0  0  0
 24 25  4  0  0  0
 25 26  4  0  0  0
 26 27  4  0  0  0
 27 28  1  0  0  0
 28 29  1  0  0  0
 28 30  1  0  0  0
 28 31  1  0  0  0
  1 32  1  0  0  0
  4 33  1  0  0  0
  4 34  1  0  0  0
  7 35  1  0  0  0
  8 36  1  0  0  0
  9 37  1  0  0  0
 17 38  1  0  0  0
 17 39  1  0  0  0
 19 40  1  0  0  0
 19 41  1  0  0  0
 19 42  1  0  0  0
 21 43  1  0  0  0
 21 44  1  0  0  0
 23 45  1  0  0  0
 24 46  1  0  0  0
 25 47  1  0  0  0
 26 48  1  0  0  0
M  END
$$$$
