3ouh_ligand
  -I-interpret- 

 24 26  0  0  0  0  0  0  0  0999 V2000
   44.7850   23.7520    3.5830 F   0  0  0  0  0
   45.8300   21.8910    1.9010 Cl  0  0  0  0  0
   36.5810   17.4900    4.3380 C   0  0  0  0  0
   38.6490   20.2010    5.7740 N   0  0  0  0  0
   35.4490   17.4850    4.9480 O   0  0  0  0  0
   37.6330   18.4570    4.7430 C   0  0  0  0  0
   39.4710   19.5230    4.8950 N   0  0  0  0  0
   36.8330   16.7780    3.3160 O   0  0  0  0  0
   37.5050   19.4690    5.7010 C   0  0  0  0  0
   40.8560   21.2810    4.9400 N   0  0  0  0  0
   38.8920   18.5630    4.2060 C   0  0  0  0  0
   41.4230   19.5050    3.6370 N   0  0  0  0  0
   40.6210   20.0150    4.5810 C   0  0  0  0  0
   42.0200   21.5290    4.2910 C   0  0  0  0  0
   42.8320   22.6360    4.3220 C   0  0  0  0  0
   43.9650   22.6790    3.5770 C   0  0  0  0  0
   44.3050   21.6270    2.8040 C   0  0  0  0  0
   43.5260   20.4790    2.7410 C   0  0  0  0  0
   42.3690   20.4370    3.4860 C   0  0  0  0  0
   35.4829   18.0954    5.6881 H   0  0  0  0  0
   36.6141   19.6457    6.3037 H   0  0  0  0  0
   39.3180   17.9805    3.3891 H   0  0  0  0  0
   42.5644   23.4861    4.9496 H   0  0  0  0  0
   43.8224   19.6345    2.1189 H   0  0  0  0  0
 16  1  1  0  0  0
 17  2  1  0  0  0
  3  5  1  0  0  0
  6  3  1  0  0  0
  3  8  2  0  0  0
  7  4  4  0  0  0
  4  9  4  0  0  0
  6  9  4  0  0  0
 11  6  4  0  0  0
  7 11  4  0  0  0
 13  7  1  0  0  0
 10 13  4  0  0  0
 14 10  4  0  0  0
 12 13  4  0  0  0
 19 12  4  0  0  0
 15 14  4  0  0  0
 14 19  4  0  0  0
 16 15  4  0  0  0
 16 17  4  0  0  0
 17 18  4  0  0  0
 18 19  4  0  0  0
  5 20  1  0  0  0
  9 21  1  0  0  0
 11 22  1  0  0  0
 15 23  1  0  0  0
 18 24  1  0  0  0
M  END
$$$$
