6b95_ligand
  -I-interpret- 

 31 32  0  0  0  0  0  0  0  0999 V2000
  142.1970   28.2190  -11.4220 C   0  0  0  0  0
  142.1500   29.4670   -9.3660 C   0  0  0  0  0
  138.0110   30.9450   -7.1910 C   0  0  0  0  0
  135.7580   30.0390   -7.9680 C   0  0  0  0  0
  138.7270   31.7750   -6.3430 C   0  0  0  0  0
  140.1120   31.8380   -6.4340 C   0  0  0  0  0
  140.7710   31.0890   -7.4020 C   0  0  0  0  0
  140.0540   30.2710   -8.2600 C   0  0  0  0  0
  140.7690   29.4880   -9.3780 C   0  0  0  0  0
  140.1050   28.9100  -10.4670 C   0  0  0  0  0
  140.8130   28.2620  -11.4690 C   0  0  0  0  0
  142.8520   28.8250  -10.3740 C   0  0  0  0  0
  138.6800   30.2300   -8.1490 C   0  0  0  0  0
  134.2420   30.0970   -7.8810 C   0  0  0  0  0
  138.7470   28.9080  -10.5940 F   0  0  0  0  0
  142.9290   27.5860  -12.3920 F   0  0  0  0  0
  136.5590   30.9020   -7.1150 N   0  0  0  0  0
  138.0300   32.5290   -5.3860 O   0  0  0  0  0
  136.2420   29.2850   -8.7350 O   0  0  0  0  0
  133.7080   31.0460   -6.4200 S   0  0  0  0  0
  142.6916   29.9588   -8.5580 H   0  0  0  0  0
  140.6783   32.4708   -5.7506 H   0  0  0  0  0
  141.8563   31.1455   -7.4863 H   0  0  0  0  0
  140.2805   27.7869  -12.2929 H   0  0  0  0  0
  143.9410   28.7996  -10.3362 H   0  0  0  0  0
  138.1106   29.6115   -8.8428 H   0  0  0  0  0
  133.8573   29.0806   -7.7977 H   0  0  0  0  0
  133.8588   30.5873   -8.7759 H   0  0  0  0  0
  136.0850   31.4997   -6.4379 H   0  0  0  0  0
  138.6533   33.0515   -4.8760 H   0  0  0  0  0
  132.3791   31.0767   -6.3747 H   0  0  0  0  0
  1 11  4  0  0  0
 12  1  4  0  0  0
  1 16  1  0  0  0
  9  2  4  0  0  0
  2 12  4  0  0  0
  5  3  4  0  0  0
  3 13  4  0  0  0
  3 17  1  0  0  0
  4 14  1  0  0  0
 17  4  1  0  0  0
  4 19  2  0  0  0
  6  5  4  0  0  0
  5 18  1  0  0  0
  7  6  4  0  0  0
  8  7  4  0  0  0
  8  9  1  0  0  0
  8 13  4  0  0  0
  9 10  4  0  0  0
 10 11  4  0  0  0
 10 15  1  0  0  0
 14 20  1  0  0  0
  2 21  1  0  0  0
  6 22  1  0  0  0
  7 23  1  0  0  0
 11 24  1  0  0  0
 12 25  1  0  0  0
 13 26  1  0  0  0
 14 27  1  0  0  0
 14 28  1  0  0  0
 17 29  1  0  0  0
 18 30  1  0  0  0
 20 31  1  0  0  0
M  END
$$$$
