1avp_ligand
  -I-interpret- 

196196  0  0  0  0  0  0  0  0999 V2000
   -4.9480   63.2280   39.2840 N   0  3  0  0  0
   -5.1580   62.3770   38.1120 C   0  0  0  0  0
   -4.9090   60.9280   38.4450 C   0  0  0  0  0
   -4.7970   60.5810   39.6160 O   0  0  0  0  0
   -4.8280   60.0800   37.4260 N   0  0  0  0  0
   -4.5920   58.6630   37.6480 C   0  0  0  0  0
   -3.3880   58.1600   36.8730 C   0  0  0  0  0
   -3.0090   58.7210   35.8440 O   0  0  0  0  0
   -5.8200   57.7920   37.2530 C   0  0  0  0  0
   -7.0490   58.2460   37.9990 C   0  0  0  0  0
   -6.0720   57.8600   35.7660 C   0  0  0  0  0
   -2.7550   57.1270   37.4020 N   0  0  0  0  0
   -1.6280   56.5320   36.7280 C   0  0  0  0  0
   -2.2180   55.5780   35.7080 C   0  0  0  0  0
   -3.2950   55.0060   35.9180 O   0  0  0  0  0
   -0.7380   55.7990   37.7140 C   0  0  0  0  0
    0.0740   56.7270   38.5680 C   0  0  0  0  0
    0.9110   57.6660   37.7300 C   0  0  0  0  0
    1.9840   57.2950   37.2450 O   0  0  0  0  0
    0.4080   58.8870   37.5260 N   0  0  0  0  0
   -1.5340   55.4240   34.5870 N   0  0  0  0  0
   -2.0190   54.5590   33.5290 C   0  0  0  0  0
   -0.9650   53.5410   33.1080 C   0  0  0  0  0
    0.1700   53.5820   33.5660 O   0  0  0  0  0
   -2.4820   55.4020   32.3400 C   0  0  0  0  0
   -1.4660   56.3020   31.9310 O   0  0  0  0  0
   -1.3540   52.6340   32.2270 N   0  0  0  0  0
   -0.4760   51.5860   31.7410 C   0  0  0  0  0
   -0.5760   51.5660   30.2140 C   0  0  0  0  0
   -1.6820   51.5120   29.6700 O   0  0  0  0  0
   -0.9670   50.2630   32.3270 C   0  0  0  0  0
   -0.5420   48.9140   31.7720 C   0  0  0  0  0
    0.9160   48.6500   32.1030 C   0  0  0  0  0
   -1.4420   47.8480   32.3850 C   0  0  0  0  0
    0.5630   51.6760   29.5330 N   0  0  0  0  0
    0.6060   51.6540   28.0710 C   0  0  0  0  0
    1.0560   50.2840   27.5670 C   0  0  0  0  0
    2.0780   49.7740   28.0150 O   0  0  0  0  0
    1.5810   52.7000   27.5330 C   0  0  0  0  0
    1.3280   54.1210   27.9740 C   0  0  0  0  0
    1.9570   55.0880   26.9790 C   0  0  0  0  0
    1.8250   56.5350   27.4280 C   0  0  0  0  0
    2.6770   56.8600   28.6210 N   0  3  0  0  0
    0.3010   49.7120   26.6290 N   0  0  0  0  0
    0.6110   48.4130   26.0250 C   0  0  0  0  0
    0.4760   48.5470   24.5120 C   0  0  0  0  0
   -0.4880   49.1280   24.0220 O   0  0  0  0  0
   -0.3940   47.3350   26.4420 C   0  0  0  0  0
   -0.4710   46.9030   27.9060 C   0  0  0  0  0
   -1.6660   45.9430   27.9960 C   0  0  0  0  0
   -2.0040   45.4300   29.3320 N   0  0  0  0  0
   -3.2520   45.2870   29.7910 C   0  0  0  0  0
   -4.2960   45.6380   29.0370 N   0  0  0  0  0
   -3.4600   44.7250   30.9790 N   0  0  0  0  0
    1.4330   48.0100   23.7710 N   0  0  0  0  0
    1.3680   48.0370   22.3160 C   0  0  0  0  0
    0.4930   46.8460   21.9430 C   0  0  0  0  0
    0.5720   45.7990   22.5700 O   0  0  0  0  0
    2.7580   47.8370   21.7240 C   0  0  0  0  0
    3.1860   48.8930   20.7090 C   0  0  0  0  0
    2.3480   48.8540   19.4420 C   0  0  0  0  0
    3.1660   49.1420   18.2590 N   0  0  0  0  0
    4.0040   48.2750   17.6920 C   0  0  0  0  0
    4.1540   47.0570   18.2000 N   0  0  0  0  0
    4.6610   48.6110   16.5860 N   0  0  0  0  0
   -0.3500   46.9970   20.9370 N   0  0  0  0  0
   -1.2210   45.9040   20.5200 C   0  0  0  0  0
   -1.2890   45.9210   19.0060 C   0  0  0  0  0
   -1.7070   46.9130   18.4010 O   0  0  0  0  0
   -2.6380   46.0810   21.1080 C   0  0  0  0  0
   -2.7370   46.0580   22.6330 C   0  0  0  0  0
   -2.3580   44.7070   23.2180 C   0  0  0  0  0
   -3.4020   43.7030   23.0150 N   0  0  0  0  0
   -3.3230   42.6970   22.1470 C   0  0  0  0  0
   -2.2420   42.5540   21.3860 N   0  0  0  0  0
   -4.3210   41.8290   22.0450 N   0  0  0  0  0
   -0.7940   44.8590   18.3920 N   0  0  0  0  0
   -0.8120   44.7480   16.9450 C   0  0  0  0  0
   -1.6950   43.5550   16.6280 C   0  0  0  0  0
   -1.7050   42.5620   17.3540 O   0  0  0  0  0
    0.5960   44.5340   16.4110 C   0  0  0  0  0
    1.6630   46.0070   16.5660 S   0  0  0  0  0
   -2.4870   43.6870   15.5800 N   0  0  0  0  0
   -3.4140   42.6410   15.2060 C   0  0  0  0  0
   -3.2790   42.3000   13.7370 C   0  0  0  0  0
   -4.0950   41.4560   13.2780 O   0  0  0  0  0
   -4.8660   43.0560   15.5410 C   0  0  0  0  0
   -5.1010   43.3700   16.9940 C   0  0  0  0  0
   -4.7240   44.6040   17.5330 C   0  0  0  0  0
   -5.6700   42.4280   17.8350 C   0  0  0  0  0
   -4.9070   44.8690   18.9040 C   0  0  0  0  0
   -5.8550   42.6820   19.1860 C   0  0  0  0  0
   -5.4680   43.8990   19.7230 C   0  0  0  0  0
   -2.3720   42.8650   13.0640 O   0  0  0  0  0
   -5.1226   64.2008   39.0320 H   0  0  0  0  0
   -5.5894   62.9473   40.0258 H   0  0  0  0  0
   -3.9862   63.1269   39.6082 H   0  0  0  0  0
   -4.4620   62.6807   37.3300 H   0  0  0  0  0
   -6.1904   62.4872   37.7803 H   0  0  0  0  0
   -4.9330   60.4284   36.4731 H   0  0  0  0  0
   -4.4077   58.5652   38.7179 H   0  0  0  0  0
   -5.5998   56.7591   37.5225 H   0  0  0  0  0
   -7.2840   59.2728   37.7187 H   0  0  0  0  0
   -7.8873   57.5975   37.7443 H   0  0  0  0  0
   -6.8611   58.1947   39.0715 H   0  0  0  0  0
   -6.9101   57.2115   35.5108 H   0  0  0  0  0
   -6.3068   58.8867   35.4851 H   0  0  0  0  0
   -5.1805   57.5308   35.2323 H   0  0  0  0  0
   -3.0670   56.7472   38.2958 H   0  0  0  0  0
   -1.0001   57.2840   36.2501 H   0  0  0  0  0
   -0.0458   55.1809   37.1423 H   0  0  0  0  0
   -1.3809   55.2161   38.3735 H   0  0  0  0  0
    0.7430   56.1287   39.1866 H   0  0  0  0  0
   -0.6085   57.3225   39.1744 H   0  0  0  0  0
    0.9151   59.5575   36.9483 H   0  0  0  0  0
   -0.4830   59.1485   37.9479 H   0  0  0  0  0
   -0.6518   55.9212   34.4646 H   0  0  0  0  0
   -2.8697   53.9942   33.9102 H   0  0  0  0  0
   -3.3593   55.9761   32.6381 H   0  0  0  0  0
   -2.7160   54.7367   31.5089 H   0  0  0  0  0
   -1.7792   56.8189   31.1852 H   0  0  0  0  0
   -2.3105   52.6730   31.8749 H   0  0  0  0  0
    0.5613   51.7498   32.0331 H   0  0  0  0  0
   -2.0400   50.2865   32.1364 H   0  0  0  0  0
   -0.5492   50.2635   33.3337 H   0  0  0  0  0
   -0.6411   48.8981   30.6866 H   0  0  0  0  0
    1.5348   49.4307   31.6606 H   0  0  0  0  0
    1.0474   48.6500   33.1851 H   0  0  0  0  0
    1.2089   47.6805   31.7001 H   0  0  0  0  0
   -1.3321   47.8612   33.4694 H   0  0  0  0  0
   -2.4792   48.0544   32.1212 H   0  0  0  0  0
   -1.1562   46.8686   32.0014 H   0  0  0  0  0
    1.4366   51.7793   30.0492 H   0  0  0  0  0
   -0.4012   51.8739   27.7171 H   0  0  0  0  0
    1.4752   52.6906   26.4482 H   0  0  0  0  0
    2.5652   52.4293   27.9155 H   0  0  0  0  0
    1.7696   54.2776   28.9581 H   0  0  0  0  0
    0.2536   54.2988   28.0203 H   0  0  0  0  0
    1.4406   54.9790   26.0253 H   0  0  0  0  0
    3.0181   54.8518   26.8990 H   0  0  0  0  0
    0.7848   56.7020   27.7078 H   0  0  0  0  0
    2.1521   57.1692   26.6040 H   0  0  0  0  0
    2.5464   57.8395   28.8739 H   0  0  0  0  0
    2.4041   56.2661   29.4041 H   0  0  0  0  0
    3.6572   56.6943   28.3926 H   0  0  0  0  0
   -0.5358   50.2038   26.3154 H   0  0  0  0  0
    1.6129   48.1298   26.3476 H   0  0  0  0  0
   -0.0778   46.4401   25.9060 H   0  0  0  0  0
   -1.3705   47.7708   26.2307 H   0  0  0  0  0
   -0.6004   47.7605   28.5664 H   0  0  0  0  0
    0.4517   46.4189   28.2258 H   0  0  0  0  0
   -1.3957   45.0714   27.3999 H   0  0  0  0  0
   -2.5341   46.5134   27.6656 H   0  0  0  0  0
   -1.2361   45.1658   29.9492 H   0  0  0  0  0
   -5.2453   45.4749   29.3726 H   0  0  0  0  0
   -4.1445   46.0693   28.1252 H   0  0  0  0  0
   -2.6687   44.4045   31.5371 H   0  0  0  0  0
    2.2312   47.5689   24.2279 H   0  0  0  0  0
    0.9786   48.9846   21.9439 H   0  0  0  0  0
    2.7408   46.8831   21.1968 H   0  0  0  0  0
    3.4637   47.8935   22.5528 H   0  0  0  0  0
    4.2219   48.6951   20.4337 H   0  0  0  0  0
    3.0569   49.8731   21.1681 H   0  0  0  0  0
    1.5659   49.6094   19.5176 H   0  0  0  0  0
    1.9212   47.8566   19.3366 H   0  0  0  0  0
    3.0880   50.0695   17.8418 H   0  0  0  0  0
    3.6263   46.7813   19.0282 H   0  0  0  0  0
    5.2758   47.9350   16.1328 H   0  0  0  0  0
    4.5502   49.5448   16.1908 H   0  0  0  0  0
   -0.3923   47.8898   20.4455 H   0  0  0  0  0
   -0.8249   44.9546   20.8804 H   0  0  0  0  0
   -3.2262   45.2361   20.7499 H   0  0  0  0  0
   -2.9793   47.0673   20.7935 H   0  0  0  0  0
   -3.7713   46.2660   22.9070 H   0  0  0  0  0
   -2.0451   46.8023   23.0271 H   0  0  0  0  0
   -2.2120   44.8315   24.2910 H   0  0  0  0  0
   -1.4542   44.3620   22.7158 H   0  0  0  0  0
   -4.2494   43.7790   23.5776 H   0  0  0  0  0
   -2.1818   41.7785   20.7261 H   0  0  0  0  0
   -1.4730   43.2198   21.4621 H   0  0  0  0  0
   -5.1489   41.9325   22.6317 H   0  0  0  0  0
   -0.3917   44.1032   18.9464 H   0  0  0  0  0
   -1.1927   45.6564   16.4781 H   0  0  0  0  0
    0.5125   44.2994   15.3498 H   0  0  0  0  0
    1.0515   43.7357   16.9969 H   0  0  0  0  0
    2.8691   45.7323   16.0773 H   0  0  0  0  0
   -2.4446   44.5413   15.0243 H   0  0  0  0  0
   -3.1708   41.7487   15.7828 H   0  0  0  0  0
   -5.5073   42.2119   15.2876 H   0  0  0  0  0
   -5.0776   43.9651   14.9782 H   0  0  0  0  0
   -4.2857   45.3656   16.8880 H   0  0  0  0  0
   -5.9792   41.4660   17.4262 H   0  0  0  0  0
   -4.6094   45.8315   19.3200 H   0  0  0  0  0
   -6.3054   41.9232   19.8259 H   0  0  0  0  0
   -5.6038   44.0944   20.7867 H   0  0  0  0  0
   -1.8810   43.4645   13.6307 H   0  0  0  0  0
  1  2  1  0  0  0
  2  3  1  0  0  0
  3  4  2  0  0  0
  3  5  1  0  0  0
  5  6  1  0  0  0
  6  7  1  0  0  0
  6  9  1  0  0  0
  7  8  2  0  0  0
  7 12  1  0  0  0
  9 10  1  0  0  0
  9 11  1  0  0  0
 12 13  1  0  0  0
 13 14  1  0  0  0
 13 16  1  0  0  0
 14 15  2  0  0  0
 14 21  1  0  0  0
 16 17  1  0  0  0
 17 18  1  0  0  0
 18 19  2  0  0  0
 18 20  1  0  0  0
 21 22  1  0  0  0
 22 23  1  0  0  0
 22 25  1  0  0  0
 23 24  2  0  0  0
 23 27  1  0  0  0
 25 26  1  0  0  0
 27 28  1  0  0  0
 28 29  1  0  0  0
 28 31  1  0  0  0
 29 30  2  0  0  0
 29 35  1  0  0  0
 31 32  1  0  0  0
 32 33  1  0  0  0
 32 34  1  0  0  0
 35 36  1  0  0  0
 36 37  1  0  0  0
 36 39  1  0  0  0
 37 38  2  0  0  0
 37 44  1  0  0  0
 39 40  1  0  0  0
 40 41  1  0  0  0
 41 42  1  0  0  0
 42 43  1  0  0  0
 44 45  1  0  0  0
 45 46  1  0  0  0
 45 48  1  0  0  0
 46 47  2  0  0  0
 46 55  1  0  0  0
 48 49  1  0  0  0
 49 50  1  0  0  0
 50 51  1  0  0  0
 51 52  1  0  0  0
 52 53  1  0  0  0
 52 54  2  0  0  0
 55 56  1  0  0  0
 56 57  1  0  0  0
 56 59  1  0  0  0
 57 58  2  0  0  0
 57 66  1  0  0  0
 59 60  1  0  0  0
 60 61  1  0  0  0
 61 62  1  0  0  0
 62 63  1  0  0  0
 63 64  2  0  0  0
 63 65  1  0  0  0
 66 67  1  0  0  0
 67 68  1  0  0  0
 67 70  1  0  0  0
 68 69  2  0  0  0
 68 77  1  0  0  0
 70 71  1  0  0  0
 71 72  1  0  0  0
 72 73  1  0  0  0
 73 74  1  0  0  0
 74 75  1  0  0  0
 74 76  2  0  0  0
 77 78  1  0  0  0
 78 79  1  0  0  0
 78 81  1  0  0  0
 79 80  2  0  0  0
 79 83  1  0  0  0
 81 82  1  0  0  0
 83 84  1  0  0  0
 84 85  1  0  0  0
 84 87  1  0  0  0
 85 86  2  0  0  0
 85 94  1  0  0  0
 87 88  1  0  0  0
 88 89  4  0  0  0
 88 90  4  0  0  0
 89 91  4  0  0  0
 90 92  4  0  0  0
 91 93  4  0  0  0
 92 93  4  0  0  0
  1 95  1  0  0  0
  1 96  1  0  0  0
  1 97  1  0  0  0
  2 98  1  0  0  0
  2 99  1  0  0  0
  5100  1  0  0  0
  6101  1  0  0  0
  9102  1  0  0  0
 10103  1  0  0  0
 10104  1  0  0  0
 10105  1  0  0  0
 11106  1  0  0  0
 11107  1  0  0  0
 11108  1  0  0  0
 12109  1  0  0  0
 13110  1  0  0  0
 16111  1  0  0  0
 16112  1  0  0  0
 17113  1  0  0  0
 17114  1  0  0  0
 20115  1  0  0  0
 20116  1  0  0  0
 21117  1  0  0  0
 22118  1  0  0  0
 25119  1  0  0  0
 25120  1  0  0  0
 26121  1  0  0  0
 27122  1  0  0  0
 28123  1  0  0  0
 31124  1  0  0  0
 31125  1  0  0  0
 32126  1  0  0  0
 33127  1  0  0  0
 33128  1  0  0  0
 33129  1  0  0  0
 34130  1  0  0  0
 34131  1  0  0  0
 34132  1  0  0  0
 35133  1  0  0  0
 36134  1  0  0  0
 39135  1  0  0  0
 39136  1  0  0  0
 40137  1  0  0  0
 40138  1  0  0  0
 41139  1  0  0  0
 41140  1  0  0  0
 42141  1  0  0  0
 42142  1  0  0  0
 43143  1  0  0  0
 43144  1  0  0  0
 43145  1  0  0  0
 44146  1  0  0  0
 45147  1  0  0  0
 48148  1  0  0  0
 48149  1  0  0  0
 49150  1  0  0  0
 49151  1  0  0  0
 50152  1  0  0  0
 50153  1  0  0  0
 51154  1  0  0  0
 53155  1  0  0  0
 53156  1  0  0  0
 54157  1  0  0  0
 55158  1  0  0  0
 56159  1  0  0  0
 59160  1  0  0  0
 59161  1  0  0  0
 60162  1  0  0  0
 60163  1  0  0  0
 61164  1  0  0  0
 61165  1  0  0  0
 62166  1  0  0  0
 64167  1  0  0  0
 65168  1  0  0  0
 65169  1  0  0  0
 66170  1  0  0  0
 67171  1  0  0  0
 70172  1  0  0  0
 70173  1  0  0  0
 71174  1  0  0  0
 71175  1  0  0  0
 72176  1  0  0  0
 72177  1  0  0  0
 73178  1  0  0  0
 75179  1  0  0  0
 75180  1  0  0  0
 76181  1  0  0  0
 77182  1  0  0  0
 78183  1  0  0  0
 81184  1  0  0  0
 81185  1  0  0  0
 82186  1  0  0  0
 83187  1  0  0  0
 84188  1  0  0  0
 87189  1  0  0  0
 87190  1  0  0  0
 89191  1  0  0  0
 90192  1  0  0  0
 91193  1  0  0  0
 92194  1  0  0  0
 93195  1  0  0  0
 94196  1  0  0  0
M  END
$$$$
