6csp_ligand
  -I-interpret- 

 21 21  0  0  0  0  0  0  0  0999 V2000
   29.9740   -3.1730   -7.8440 C   0  0  0  0  0
   27.7300   -2.8540   -6.8550 C   0  0  0  0  0
   28.5670   -3.5750   -7.8590 C   0  0  0  0  0
   28.0850   -4.4740   -8.7570 C   0  0  0  0  0
   29.0080   -5.1600   -9.7080 C   0  0  0  0  0
   30.1550   -4.2770  -10.1430 C   0  0  0  0  0
   30.8850   -3.7050   -8.9340 C   0  0  0  0  0
   26.4150   -2.8130   -7.1150 N   0  0  0  0  0
   28.1570   -2.2850   -5.8310 O   0  0  0  0  0
   25.5960   -2.1270   -6.2360 O   0  0  0  0  0
   30.3766   -3.5727   -6.9133 H   0  0  0  0  0
   29.9648   -2.0916   -7.9803 H   0  0  0  0  0
   27.0180   -4.6953   -8.7828 H   0  0  0  0  0
   28.4359   -5.4288  -10.5960 H   0  0  0  0  0
   29.4271   -6.0291   -9.2009 H   0  0  0  0  0
   29.7592   -3.4533  -10.7371 H   0  0  0  0  0
   30.8558   -4.8731  -10.7275 H   0  0  0  0  0
   31.4648   -4.5180   -8.4970 H   0  0  0  0  0
   31.4820   -2.8651   -9.2894 H   0  0  0  0  0
   26.0292   -3.2750   -7.9384 H   0  0  0  0  0
   24.6872   -2.1782   -6.5410 H   0  0  0  0  0
  1  3  1  0  0  0
  1  7  1  0  0  0
  3  2  1  0  0  0
  2  8  1  0  0  0
  2  9  2  0  0  0
  3  4  2  0  0  0
  4  5  1  0  0  0
  5  6  1  0  0  0
  6  7  1  0  0  0
  8 10  1  0  0  0
  1 11  1  0  0  0
  1 12  1  0  0  0
  4 13  1  0  0  0
  5 14  1  0  0  0
  5 15  1  0  0  0
  6 16  1  0  0  0
  6 17  1  0  0  0
  7 18  1  0  0  0
  7 19  1  0  0  0
  8 20  1  0  0  0
 10 21  1  0  0  0
M  END
$$$$
