4wz8_ligand
  -I-interpret- 

 53 57  0  0  0  0  0  0  0  0999 V2000
    7.0530  -11.4000  -15.6710 C   0  0  0  0  0
    5.7000  -11.4610  -15.4120 C   0  0  0  0  0
    7.0460   -8.9700  -15.8670 C   0  0  0  0  0
    4.6470   -8.0680  -15.5100 C   0  0  0  0  0
   10.3020   -6.7800  -22.2560 C   0  0  0  0  0
    5.6870   -9.0250  -15.6170 C   0  0  0  0  0
    7.6910  -10.1960  -15.8980 C   0  0  0  0  0
   10.5450   -8.0790  -21.7620 C   0  0  0  0  0
    5.0640  -10.2390  -15.4000 C   0  0  0  0  0
   10.1680   -8.9280  -22.7740 C   0  0  0  0  0
   10.2340  -10.3590  -22.6740 C   0  0  0  0  0
    9.1410  -10.2600  -16.1550 C   0  0  0  0  0
   11.0590   -8.5310  -20.4560 C   0  0  0  0  0
   10.8050  -10.8610  -21.3640 C   0  0  0  0  0
   11.3340  -10.5260  -18.9910 C   0  0  0  0  0
    9.0560  -10.0050  -19.8170 C   0  0  0  0  0
   11.0350   -9.8310  -17.6610 C   0  0  0  0  0
    8.7240   -9.3960  -18.4670 C   0  0  0  0  0
   10.5510   -9.9540  -20.1570 C   0  0  0  0  0
    9.9810   -7.9730  -26.2640 C   0  0  0  0  0
    7.7300   -8.2140  -25.2140 C   0  0  0  0  0
    9.2020   -8.5380  -25.0900 C   0  0  0  0  0
    3.4670   -8.6310  -15.2410 N   0  0  0  0  0
    9.8070   -6.8010  -23.5000 N   0  0  0  0  0
    3.7470   -9.9400  -15.1780 N   0  0  0  0  0
    9.7230   -8.1160  -23.7910 N   0  0  0  0  0
    9.6070   -9.8300  -17.3960 N   0  0  0  0  0
    9.8520  -11.1420  -23.5360 O   0  0  0  0  0
    9.8330  -10.6900  -15.2460 O   0  0  0  0  0
    7.6323  -12.3229  -15.6972 H   0  0  0  0  0
    5.1763  -12.3997  -15.2314 H   0  0  0  0  0
    7.5723   -8.0292  -16.0282 H   0  0  0  0  0
    4.7940   -6.9950  -15.6333 H   0  0  0  0  0
   10.4944   -5.8674  -21.6918 H   0  0  0  0  0
   10.7088   -7.8532  -19.6776 H   0  0  0  0  0
   12.1487   -8.5360  -20.4806 H   0  0  0  0  0
   11.8859  -10.9174  -21.4931 H   0  0  0  0  0
   10.3159  -11.8116  -21.1515 H   0  0  0  0  0
   11.0504  -11.5732  -18.8862 H   0  0  0  0  0
   12.3934  -10.3850  -19.2052 H   0  0  0  0  0
    8.5265   -9.4296  -20.5763 H   0  0  0  0  0
    8.7617  -11.0540  -19.7856 H   0  0  0  0  0
   11.3856   -8.8003  -17.7139 H   0  0  0  0  0
   11.5431  -10.3674  -16.8596 H   0  0  0  0  0
    7.7146   -9.7138  -18.2058 H   0  0  0  0  0
    8.8332   -8.3156  -18.5614 H   0  0  0  0  0
    9.6031   -8.4048  -27.1907 H   0  0  0  0  0
    9.8607   -6.8900  -26.2908 H   0  0  0  0  0
   11.0366   -8.2199  -26.1505 H   0  0  0  0  0
    7.5979   -7.1322  -25.2353 H   0  0  0  0  0
    7.3403   -8.6471  -26.1352 H   0  0  0  0  0
    7.1946   -8.6300  -24.3606 H   0  0  0  0  0
    9.3302   -9.6196  -25.1311 H   0  0  0  0  0
  1  2  4  0  0  0
  7  1  4  0  0  0
  2  9  4  0  0  0
  3  6  4  0  0  0
  7  3  4  0  0  0
  6  4  4  0  0  0
  4 23  4  0  0  0
  8  5  4  0  0  0
  5 24  4  0  0  0
  6  9  4  0  0  0
 12  7  1  0  0  0
 10  8  4  0  0  0
  8 13  1  0  0  0
  9 25  4  0  0  0
 10 11  1  0  0  0
 26 10  4  0  0  0
 11 14  1  0  0  0
 11 28  2  0  0  0
 27 12  1  0  0  0
 12 29  2  0  0  0
 13 19  1  0  0  0
 14 19  1  0  0  0
 15 17  1  0  0  0
 19 15  1  0  0  0
 16 18  1  0  0  0
 19 16  1  0  0  0
 17 27  1  0  0  0
 18 27  1  0  0  0
 22 20  1  0  0  0
 22 21  1  0  0  0
 22 26  1  0  0  0
 23 25  4  0  0  0
 24 26  4  0  0  0
  1 30  1  0  0  0
  2 31  1  0  0  0
  3 32  1  0  0  0
  4 33  1  0  0  0
  5 34  1  0  0  0
 13 35  1  0  0  0
 13 36  1  0  0  0
 14 37  1  0  0  0
 14 38  1  0  0  0
 15 39  1  0  0  0
 15 40  1  0  0  0
 16 41  1  0  0  0
 16 42  1  0  0  0
 17 43  1  0  0  0
 17 44  1  0  0  0
 18 45  1  0  0  0
 18 46  1  0  0  0
 20 47  1  0  0  0
 20 48  1  0  0  0
 20 49  1  0  0  0
 21 50  1  0  0  0
 21 51  1  0  0  0
 21 52  1  0  0  0
 22 53  1  0  0  0
M  END
$$$$
