5vt1_ligand
  -I-interpret- 

 41 43  0  0  0  0  0  0  0  0999 V2000
   23.6630   56.8260   27.7510 C   0  0  0  0  0
   31.3530   49.4460   31.4110 C   0  0  0  0  0
   22.6130   57.2410   26.9450 C   0  0  0  0  0
   21.9640   56.3480   26.0910 C   0  0  0  0  0
   29.3510   51.3600   30.9920 C   0  0  0  0  0
   20.8230   56.8090   25.2280 C   0  0  0  0  0
   25.9220   54.0250   28.6250 C   0  0  0  0  0
   27.5890   52.6400   29.7620 C   0  0  0  0  0
   26.7130   53.7410   29.7650 C   0  0  0  0  0
   30.2050   50.9760   29.9440 C   0  0  0  0  0
   31.1820   50.0220   30.1560 C   0  0  0  0  0
   25.1220   55.1320   28.6120 N   0  0  0  0  0
   25.9210   53.2700   27.5240 N   0  0  0  0  0
   24.0560   55.4960   27.7420 C   0  0  0  0  0
   27.5430   51.6780   28.8520 N   0  0  0  0  0
   22.3710   55.0160   26.0980 C   0  0  0  0  0
   23.4030   54.5910   26.9150 C   0  0  0  0  0
   22.2260   58.5430   27.0000 O   0  0  0  0  0
   26.8520   51.9040   27.4250 S   0  0  0  0  0
   26.5760   54.4130   30.8120 O   0  0  0  0  0
   28.3660   52.3790   30.8270 N   0  0  0  0  0
   30.5370   49.8620   32.4570 C   0  0  0  0  0
   29.5350   50.7900   32.2540 C   0  0  0  0  0
   32.4230   48.4330   31.6700 C   0  0  0  0  0
   32.4870   47.8910   32.7810 O   0  0  0  0  0
   33.2960   48.1660   30.7080 N   0  0  0  0  0
   24.1779   57.5435   28.3899 H   0  0  0  0  0
   20.0217   57.1907   25.8607 H   0  0  0  0  0
   21.1693   57.5991   24.5617 H   0  0  0  0  0
   20.4535   55.9703   24.6380 H   0  0  0  0  0
   30.0963   51.4324   28.9602 H   0  0  0  0  0
   31.8258   49.7173   29.3309 H   0  0  0  0  0
   25.3215   55.8100   29.3475 H   0  0  0  0  0
   21.8687   54.2978   25.4499 H   0  0  0  0  0
   23.7045   53.5435   26.9099 H   0  0  0  0  0
   21.4952   58.6843   26.3938 H   0  0  0  0  0
   28.2331   52.9951   31.6290 H   0  0  0  0  0
   30.6908   49.4487   33.4538 H   0  0  0  0  0
   28.8858   51.0786   33.0807 H   0  0  0  0  0
   34.0479   47.4968   30.8730 H   0  0  0  0  0
   33.2156   48.6299   29.8032 H   0  0  0  0  0
  1  3  4  0  0  0
 14  1  4  0  0  0
 11  2  4  0  0  0
  2 22  4  0  0  0
  2 24  1  0  0  0
  3  4  4  0  0  0
  3 18  1  0  0  0
  4  6  1  0  0  0
  4 16  4  0  0  0
  5 10  4  0  0  0
 21  5  1  0  0  0
  5 23  4  0  0  0
  7  9  1  0  0  0
 12  7  1  0  0  0
  7 13  2  0  0  0
  9  8  1  0  0  0
  8 15  2  0  0  0
  8 21  1  0  0  0
  9 20  2  0  0  0
 10 11  4  0  0  0
 12 14  1  0  0  0
 13 19  1  0  0  0
 14 17  4  0  0  0
 15 19  1  0  0  0
 16 17  4  0  0  0
 22 23  4  0  0  0
 24 25  2  0  0  0
 24 26  1  0  0  0
  1 27  1  0  0  0
  6 28  1  0  0  0
  6 29  1  0  0  0
  6 30  1  0  0  0
 10 31  1  0  0  0
 11 32  1  0  0  0
 12 33  1  0  0  0
 16 34  1  0  0  0
 17 35  1  0  0  0
 18 36  1  0  0  0
 21 37  1  0  0  0
 22 38  1  0  0  0
 23 39  1  0  0  0
 26 40  1  0  0  0
 26 41  1  0  0  0
M  END
$$$$
