3va4_ligand
  -I-interpret- 

134134  0  0  0  0  0  0  0  0999 V2000
   20.2430   14.6770   -6.7810 N   0  3  0  0  0
   19.7290   14.7750   -5.3770 C   0  0  0  0  0
   18.4590   15.7250   -5.3500 C   0  0  0  0  0
   18.4530   16.7570   -6.0520 O   0  0  0  0  0
   20.9060   15.2230   -4.4230 C   0  0  0  0  0
   20.4670   15.3470   -2.9450 C   0  0  0  0  0
   22.1670   14.2960   -4.5370 C   0  0  0  0  0
   17.3650   15.3660   -4.6300 N   0  0  0  0  0
   16.2220   16.3190   -4.4110 C   0  0  0  0  0
   16.3310   16.9140   -3.0580 C   0  0  0  0  0
   17.1940   16.4990   -2.2780 O   0  0  0  0  0
   14.8480   15.6390   -4.4660 C   0  0  0  0  0
   14.9480   14.4650   -5.2090 O   0  0  0  0  0
   15.4240   17.8630   -2.7450 N   0  0  0  0  0
   15.5110   18.5460   -1.4970 C   0  0  0  0  0
   14.6160   19.7970   -1.6130 C   0  0  0  0  0
   14.7640   20.6780   -0.4030 C   0  0  0  0  0
   14.9940   20.5020   -2.8120 O   0  0  0  0  0
   13.9410   20.7030   -3.9700 P   0  0  0  0  0
   13.5150   19.2440   -4.3400 O   0  0  0  0  0
   12.7580   21.4560   -3.4970 O   0  0  0  0  0
   14.7770   21.3220   -5.0540 O   0  0  0  0  0
   15.1190   17.6490   -0.4020 C   0  0  0  0  0
   14.1540   16.8550   -0.5630 O   0  0  0  0  0
   15.8250   17.7820    0.7510 N   0  0  0  0  0
   15.4980   17.0020    1.9530 C   0  0  0  0  0
   14.4010   17.6740    2.7300 C   0  0  0  0  0
   14.5330   18.8630    3.1090 O   0  0  0  0  0
   16.7740   16.7680    2.8220 C   0  0  0  0  0
   16.4780   16.3370    4.2330 C   0  0  0  0  0
   17.7290   16.3520    5.0920 C   0  0  0  0  0
   17.7490   16.9590    6.1840 O   0  0  0  0  0
   18.8080   15.6880    4.6000 N   0  0  0  0  0
   13.2840   16.9690    2.9340 N   0  0  0  0  0
   12.2360   17.5110    3.8110 C   0  0  0  0  0
   12.6320   17.6140    5.2710 C   0  0  0  0  0
   13.2900   16.7060    5.8020 O   0  0  0  0  0
   10.9690   16.6360    3.7100 C   0  0  0  0  0
    9.7400   17.1780    4.4360 C   0  0  0  0  0
    8.5790   16.1870    4.3920 C   0  0  0  0  0
    8.6200   15.2110    3.5860 O   0  0  0  0  0
    7.6790   16.3400    5.2270 O   0  0  0  0  0
   12.2040   18.6880    5.9260 N   0  0  0  0  0
   12.4500   18.8520    7.3260 C   0  0  0  0  0
   11.2790   18.2210    8.0670 C   0  0  0  0  0
   10.1010   18.4890    7.7290 O   0  0  0  0  0
   12.4760   20.3190    7.7460 C   0  0  0  0  0
   13.7580   20.9910    7.2080 C   0  0  0  0  0
   13.6450   22.5270    7.4870 C   0  0  0  0  0
   15.0460   20.4640    7.8230 C   0  0  0  0  0
   11.5810   17.4230    9.0760 N   0  0  0  0  0
   10.4990   16.8480    9.8540 C   0  0  0  0  0
   10.7370   17.1690   11.3170 C   0  0  0  0  0
   10.6480   18.3400   11.7120 O   0  0  0  0  0
   10.3180   15.3290    9.6300 C   0  0  0  0  0
   10.7740   14.7010    8.3030 C   0  0  0  0  0
    9.8460   14.4110    7.2600 C   0  0  0  0  0
   12.1310   14.3130    8.1220 C   0  0  0  0  0
   10.2650   13.8000    6.0570 C   0  0  0  0  0
   12.5730   13.7100    6.9350 C   0  0  0  0  0
   11.6500   13.4440    5.8970 C   0  0  0  0  0
   12.1180   12.8000    4.7230 O   0  0  0  0  0
   11.0220   16.1290   12.1130 N   0  0  0  0  0
   11.3620   16.2540   13.5470 C   0  0  0  0  0
   12.7350   15.6480   13.6820 C   0  0  0  0  0
   13.2150   15.0230   12.7310 O   0  0  0  0  0
   10.3640   15.5060   14.4720 C   0  0  0  0  0
    9.2060   16.2850   14.7700 O   0  0  0  0  0
   13.3550   15.7880   14.7410 O   0  0  0  0  0
   19.4854   14.3879   -7.3997 H   0  0  0  0  0
   20.5966   15.5869   -7.0766 H   0  0  0  0  0
   20.9957   13.9897   -6.8190 H   0  0  0  0  0
   19.3893   13.8091   -5.0032 H   0  0  0  0  0
   21.1877   16.2164   -4.7721 H   0  0  0  0  0
   20.2208   14.3589   -2.5563 H   0  0  0  0  0
   21.2806   15.7764   -2.3605 H   0  0  0  0  0
   19.5913   15.9928   -2.8804 H   0  0  0  0  0
   22.9842   14.7232   -3.9558 H   0  0  0  0  0
   21.9244   13.3057   -4.1517 H   0  0  0  0  0
   22.4653   14.2174   -5.5824 H   0  0  0  0  0
   17.3173   14.4294   -4.2288 H   0  0  0  0  0
   16.2900   17.0570   -5.2103 H   0  0  0  0  0
   14.1268   16.3085   -4.9347 H   0  0  0  0  0
   14.5147   15.4050   -3.4549 H   0  0  0  0  0
   14.0896   14.0367   -5.2455 H   0  0  0  0  0
   14.6769   18.0913   -3.4009 H   0  0  0  0  0
   16.5295   18.8588   -1.2668 H   0  0  0  0  0
   13.5678   19.5030   -1.6663 H   0  0  0  0  0
   14.4743   20.1210    0.4880 H   0  0  0  0  0
   15.8023   20.9969   -0.3121 H   0  0  0  0  0
   14.1222   21.5524   -0.5111 H   0  0  0  0  0
   14.2826   18.7558   -4.6468 H   0  0  0  0  0
   15.5072   20.7364   -5.2672 H   0  0  0  0  0
   16.6029   18.4409    0.7834 H   0  0  0  0  0
   15.1311   16.0213    1.6501 H   0  0  0  0  0
   17.3077   17.7168    2.8774 H   0  0  0  0  0
   17.3454   15.9681    2.3512 H   0  0  0  0  0
   16.0874   15.3197    4.2089 H   0  0  0  0  0
   15.7557   17.0314    4.6622 H   0  0  0  0  0
   19.6808   15.6715    5.1276 H   0  0  0  0  0
   18.7450   15.2062    3.7032 H   0  0  0  0  0
   13.1596   16.0618    2.4846 H   0  0  0  0  0
   12.0569   18.5269    3.4588 H   0  0  0  0  0
   11.2114   15.6817    4.1777 H   0  0  0  0  0
   10.7090   16.5853    2.6527 H   0  0  0  0  0
    9.4264   18.0981    3.9428 H   0  0  0  0  0
   10.0049   17.3522    5.4789 H   0  0  0  0  0
    9.3988   15.2890    3.0302 H   0  0  0  0  0
   11.6899   19.4098    5.4208 H   0  0  0  0  0
   13.4158   18.4002    7.5524 H   0  0  0  0  0
   12.4631   20.3839    8.8340 H   0  0  0  0  0
   11.6026   20.8275    7.3377 H   0  0  0  0  0
   13.8218   20.7627    6.1441 H   0  0  0  0  0
   12.7667   22.9238    6.9779 H   0  0  0  0  0
   13.5510   22.6941    8.5600 H   0  0  0  0  0
   14.5389   23.0290    7.1167 H   0  0  0  0  0
   15.0267   20.6287    8.9003 H   0  0  0  0  0
   15.1346   19.3970    7.6188 H   0  0  0  0  0
   15.8962   20.9901    7.3889 H   0  0  0  0  0
   12.5535   17.2156    9.3032 H   0  0  0  0  0
    9.5637   17.2942    9.5161 H   0  0  0  0  0
    9.2397   15.1719    9.6547 H   0  0  0  0  0
   10.9454   14.8605   10.3882 H   0  0  0  0  0
    8.7945   14.6653    7.3932 H   0  0  0  0  0
   12.8454   14.4888    8.9263 H   0  0  0  0  0
    9.5483   13.6008    5.2603 H   0  0  0  0  0
   13.6239   13.4475    6.8132 H   0  0  0  0  0
   13.0622   12.6441    4.7996 H   0  0  0  0  0
   11.0033   15.1944   11.7050 H   0  0  0  0  0
   11.3204   17.2991   13.8538 H   0  0  0  0  0
   10.8737   15.2886   15.4106 H   0  0  0  0  0
   10.0382   14.6034   13.9551 H   0  0  0  0  0
    8.6219   15.7820   15.3421 H   0  0  0  0  0
   12.8238   16.2987   15.3564 H   0  0  0  0  0
  1  2  1  0  0  0
  2  3  1  0  0  0
  2  5  1  0  0  0
  3  4  2  0  0  0
  3  8  1  0  0  0
  5  6  1  0  0  0
  5  7  1  0  0  0
  8  9  1  0  0  0
  9 10  1  0  0  0
  9 12  1  0  0  0
 10 11  2  0  0  0
 10 14  1  0  0  0
 12 13  1  0  0  0
 14 15  1  0  0  0
 15 16  1  0  0  0
 15 23  1  0  0  0
 16 17  1  0  0  0
 16 18  1  0  0  0
 18 19  1  0  0  0
 19 20  1  0  0  0
 19 21  2  0  0  0
 19 22  1  0  0  0
 23 24  2  0  0  0
 23 25  1  0  0  0
 25 26  1  0  0  0
 26 27  1  0  0  0
 26 29  1  0  0  0
 27 28  2  0  0  0
 27 34  1  0  0  0
 29 30  1  0  0  0
 30 31  1  0  0  0
 31 32  2  0  0  0
 31 33  1  0  0  0
 34 35  1  0  0  0
 35 36  1  0  0  0
 35 38  1  0  0  0
 36 37  2  0  0  0
 36 43  1  0  0  0
 38 39  1  0  0  0
 39 40  1  0  0  0
 40 41  1  0  0  0
 40 42  2  0  0  0
 43 44  1  0  0  0
 44 45  1  0  0  0
 44 47  1  0  0  0
 45 46  2  0  0  0
 45 51  1  0  0  0
 47 48  1  0  0  0
 48 49  1  0  0  0
 48 50  1  0  0  0
 51 52  1  0  0  0
 52 53  1  0  0  0
 52 55  1  0  0  0
 53 54  2  0  0  0
 53 63  1  0  0  0
 55 56  1  0  0  0
 56 57  4  0  0  0
 56 58  4  0  0  0
 57 59  4  0  0  0
 58 60  4  0  0  0
 59 61  4  0  0  0
 60 61  4  0  0  0
 61 62  1  0  0  0
 63 64  1  0  0  0
 64 65  1  0  0  0
 64 67  1  0  0  0
 65 66  2  0  0  0
 65 69  1  0  0  0
 67 68  1  0  0  0
  1 70  1  0  0  0
  1 71  1  0  0  0
  1 72  1  0  0  0
  2 73  1  0  0  0
  5 74  1  0  0  0
  6 75  1  0  0  0
  6 76  1  0  0  0
  6 77  1  0  0  0
  7 78  1  0  0  0
  7 79  1  0  0  0
  7 80  1  0  0  0
  8 81  1  0  0  0
  9 82  1  0  0  0
 12 83  1  0  0  0
 12 84  1  0  0  0
 13 85  1  0  0  0
 14 86  1  0  0  0
 15 87  1  0  0  0
 16 88  1  0  0  0
 17 89  1  0  0  0
 17 90  1  0  0  0
 17 91  1  0  0  0
 20 92  1  0  0  0
 22 93  1  0  0  0
 25 94  1  0  0  0
 26 95  1  0  0  0
 29 96  1  0  0  0
 29 97  1  0  0  0
 30 98  1  0  0  0
 30 99  1  0  0  0
 33100  1  0  0  0
 33101  1  0  0  0
 34102  1  0  0  0
 35103  1  0  0  0
 38104  1  0  0  0
 38105  1  0  0  0
 39106  1  0  0  0
 39107  1  0  0  0
 41108  1  0  0  0
 43109  1  0  0  0
 44110  1  0  0  0
 47111  1  0  0  0
 47112  1  0  0  0
 48113  1  0  0  0
 49114  1  0  0  0
 49115  1  0  0  0
 49116  1  0  0  0
 50117  1  0  0  0
 50118  1  0  0  0
 50119  1  0  0  0
 51120  1  0  0  0
 52121  1  0  0  0
 55122  1  0  0  0
 55123  1  0  0  0
 57124  1  0  0  0
 58125  1  0  0  0
 59126  1  0  0  0
 60127  1  0  0  0
 62128  1  0  0  0
 63129  1  0  0  0
 64130  1  0  0  0
 67131  1  0  0  0
 67132  1  0  0  0
 68133  1  0  0  0
 69134  1  0  0  0
M  END
$$$$
