### 
### Created by X-TOOL on Mon Sep 10 21:13:08 2018
### 

@<TRIPOS>MOLECULE
3va4_ligand
  130   130     1     0     0
SMALL
GAST_HUCK


@<TRIPOS>ATOM
      1 N          20.2430   14.6770   -6.7810 N.4       1 VAL         0.2381
      2 CA         19.7290   14.7750   -5.3770 C.3       1 VAL         0.0673
      3 C          18.4590   15.7250   -5.3500 C.2       1 VAL         0.2270
      4 O          18.4530   16.7570   -6.0520 O.2       1 VAL        -0.3907
      5 CB         20.9060   15.2230   -4.4230 C.3       1 VAL         0.0139
      6 CG1        20.4670   15.3470   -2.9450 C.3       1 VAL        -0.0553
      7 CG2        22.1670   14.2960   -4.5370 C.3       1 VAL        -0.0553
      8 N          17.3650   15.3660   -4.6300 N.am      1 SER        -0.2588
      9 CA         16.2220   16.3190   -4.4110 C.3       1 SER         0.1540
     10 C          16.3310   16.9140   -3.0580 C.2       1 SER         0.2063
     11 O          17.1940   16.4990   -2.2780 O.2       1 SER        -0.3943
     12 CB         14.8480   15.6390   -4.4660 C.3       1 SER         0.0843
     13 OG         14.9480   14.4650   -5.2090 O.3       1 SER        -0.3903
     14 N          15.4240   17.8630   -2.7450 N.am      1 TPO        -0.2610
     15 CA         15.5110   18.5460   -1.4970 C.3       1 TPO         0.1612
     16 CB         14.6160   19.7970   -1.6130 C.3       1 TPO         0.1262
     17 CG2        14.7640   20.6780   -0.4030 C.3       1 TPO        -0.0298
     18 OG1        14.9940   20.5020   -2.8120 O.3       1 TPO        -0.2685
     19 P          13.9410   20.7030   -3.9700 P.3       1 TPO         0.2014
     20 O1P        13.5150   19.2440   -4.3400 O.co2     1 TPO        -0.5537
     21 O2P        12.7580   21.4560   -3.4970 O.co2     1 TPO        -0.5537
     22 O3P        14.7770   21.3220   -5.0540 O.co2     1 TPO        -0.5537
     23 C          15.1190   17.6490   -0.4020 C.2       1 TPO         0.2068
     24 O          14.1540   16.8550   -0.5630 O.2       1 TPO        -0.3943
     25 N          15.8250   17.7820    0.7510 N.am      1 GLN        -0.2635
     26 CA         15.4980   17.0020    1.9530 C.3       1 GLN         0.1330
     27 C          14.4010   17.6740    2.7300 C.2       1 GLN         0.2040
     28 O          14.5330   18.8630    3.1090 O.2       1 GLN        -0.3944
     29 CB         16.7740   16.7680    2.8220 C.3       1 GLN         0.0045
     30 CG         16.4780   16.3370    4.2330 C.3       1 GLN         0.0412
     31 CD         17.7290   16.3520    5.0920 C.2       1 GLN         0.1737
     32 OE1        17.7490   16.9590    6.1840 O.2       1 GLN        -0.3973
     33 NE2        18.8080   15.6880    4.6000 N.am      1 GLN        -0.3009
     34 N          13.2840   16.9690    2.9340 N.am      1 GLU        -0.2636
     35 CA         12.2360   17.5110    3.8110 C.3       1 GLU         0.1325
     36 C          12.6320   17.6140    5.2710 C.2       1 GLU         0.2040
     37 O          13.2900   16.7060    5.8020 O.2       1 GLU        -0.3944
     38 CB         10.9690   16.6360    3.7100 C.3       1 GLU        -0.0008
     39 CG          9.7400   17.1780    4.4360 C.3       1 GLU         0.0044
     40 CD          8.5790   16.1870    4.3920 C.2       1 GLU         0.0350
     41 OE1         8.6200   15.2110    3.5860 O.co2     1 GLU        -0.5690
     42 OE2         7.6790   16.3400    5.2270 O.co2     1 GLU        -0.5690
     43 N          12.2040   18.6880    5.9260 N.am      1 LEU        -0.2637
     44 CA         12.4500   18.8520    7.3260 C.3       1 LEU         0.1312
     45 C          11.2790   18.2210    8.0670 C.2       1 LEU         0.2040
     46 O          10.1010   18.4890    7.7290 O.2       1 LEU        -0.3944
     47 CB         12.4760   20.3190    7.7460 C.3       1 LEU        -0.0101
     48 CG         13.7580   20.9910    7.2080 C.3       1 LEU        -0.0425
     49 CD1        13.6450   22.5270    7.4870 C.3       1 LEU        -0.0625
     50 CD2        15.0460   20.4640    7.8230 C.3       1 LEU        -0.0625
     51 N          11.5810   17.4230    9.0760 N.am      1 TYR        -0.2621
     52 CA         10.4990   16.8480    9.8540 C.3       1 TYR         0.1390
     53 C          10.7370   17.1690   11.3170 C.2       1 TYR         0.2053
     54 O          10.6480   18.3400   11.7120 O.2       1 TYR        -0.3942
     55 CB         10.3180   15.3290    9.6300 C.3       1 TYR         0.0163
     56 CG         10.7740   14.7010    8.3030 C.ar      1 TYR        -0.0493
     57 CD1         9.8460   14.4110    7.2600 C.ar      1 TYR        -0.0685
     58 CD2        12.1310   14.3130    8.1220 C.ar      1 TYR        -0.0685
     59 CE1        10.2650   13.8000    6.0570 C.ar      1 TYR        -0.0398
     60 CE2        12.5730   13.7100    6.9350 C.ar      1 TYR        -0.0398
     61 CZ         11.6500   13.4440    5.8970 C.ar      1 TYR         0.0805
     62 OH         12.1180   12.8000    4.7230 O.3       1 TYR        -0.3376
     63 N          11.0220   16.1290   12.1130 N.am      1 SER        -0.2671
     64 CA         11.3620   16.2540   13.5470 C.3       1 SER         0.1173
     65 C          12.7350   15.6480   13.6820 C.2       1 SER         0.0623
     66 O          13.2150   15.0230   12.7310 O.co2     1 SER        -0.5665
     67 CB         10.3640   15.5060   14.4720 C.3       1 SER         0.0789
     68 OG          9.2060   16.2850   14.7700 O.3       1 SER        -0.3910
     69 OXT        13.3550   15.7880   14.7410 O.co2     1 SER        -0.5665
     70 H1         19.4951   14.3913   -7.3934 H         1 VAL         0.2015
     71 H2         20.9870   13.9980   -6.8199 H         1 VAL         0.2015
     72 H3         20.5927   15.5757   -7.0743 H         1 VAL         0.2015
     73 H4         19.4020   13.7761   -5.0527 H         1 VAL         0.1101
     74 H5         21.2123   16.2264   -4.7536 H         1 VAL         0.0376
     75 H6         21.3253   15.6605   -2.3327 H         1 VAL         0.0236
     76 H7         20.0987   14.3736   -2.5890 H         1 VAL         0.0236
     77 H8         19.6649   16.0952   -2.8622 H         1 VAL         0.0236
     78 H9         22.4690   14.2159   -5.5917 H         1 VAL         0.0236
     79 H10        21.9234   13.2962   -4.1485 H         1 VAL         0.0236
     80 H11        22.9925   14.7261   -3.9509 H         1 VAL         0.0236
     81 H12        17.3182   14.4478   -4.2367 H         1 SER         0.1885
     82 H13        16.2689   17.1077   -5.1764 H         1 SER         0.0823
     83 H14        14.1217   16.3146   -4.9415 H         1 SER         0.0606
     84 H15        14.5139   15.4012   -3.4453 H         1 SER         0.0606
     85 H16        14.0986   14.0411   -5.2451 H         1 SER         0.2097
     86 H17        14.6916   18.0868   -3.3880 H         1 TPO         0.1884
     87 H18        16.5492   18.8659   -1.3243 H         1 TPO         0.0830
     88 H19        13.5645   19.4839   -1.6931 H         1 TPO         0.0695
     89 H20        14.1167   21.5608   -0.5109 H         1 TPO         0.0260
     90 H21        15.8115   21.0006   -0.3102 H         1 TPO         0.0260
     91 H22        14.4719   20.1170    0.4970 H         1 TPO         0.0260
     92 H23        16.5877   18.4280    0.7827 H         1 GLN         0.1883
     93 H24        15.1272   16.0178    1.6307 H         1 GLN         0.0801
     94 H25        17.3453   17.7073    2.8591 H         1 GLN         0.0337
     95 H26        17.3823   15.9876    2.3416 H         1 GLN         0.0337
     96 H27        16.0677   15.3165    4.2166 H         1 GLN         0.0504
     97 H28        15.7369   17.0233    4.6686 H         1 GLN         0.0504
     98 H29        19.6606   15.6633    5.1219 H         1 GLN         0.1814
     99 H30        18.7493   15.2241    3.7161 H         1 GLN         0.1814
    100 H31        13.1621   16.0796    2.4934 H         1 GLU         0.1883
    101 H32        11.9960   18.5237    3.4550 H         1 GLU         0.0801
    102 H33        11.2043   15.6479    4.1321 H         1 GLU         0.0330
    103 H34        10.7144   16.5288    2.6453 H         1 GLU         0.0330
    104 H35         9.4266   18.1166    3.9556 H         1 GLU         0.0433
    105 H36        10.0029   17.3735    5.4861 H         1 GLU         0.0433
    106 H37        11.7000   19.3956    5.4307 H         1 LEU         0.1883
    107 H38        13.3986   18.3657    7.5972 H         1 LEU         0.0800
    108 H39        12.4614   20.3855    8.8439 H         1 LEU         0.0315
    109 H40        11.5941   20.8326    7.3357 H         1 LEU         0.0315
    110 H41        13.8062   20.8216    6.1222 H         1 LEU         0.0298
    111 H42        14.5466   23.0347    7.1137 H         1 LEU         0.0232
    112 H43        13.5501   22.6970    8.5696 H         1 LEU         0.0232
    113 H44        12.7589   22.9287    6.9737 H         1 LEU         0.0232
    114 H45        15.1298   19.3844    7.6294 H         1 LEU         0.0232
    115 H46        15.0337   20.6420    8.9084 H         1 LEU         0.0232
    116 H47        15.9057   20.9845    7.3758 H         1 LEU         0.0232
    117 H48        12.5344   17.2196    9.2988 H         1 TYR         0.1885
    118 H49         9.5640   17.3366    9.5424 H         1 TYR         0.0821
    119 H50         9.2437   15.1160    9.7325 H         1 TYR         0.0453
    120 H51        10.8712   14.8189   10.4323 H         1 TYR         0.0453
    121 H52         8.8003   14.6639    7.3925 H         1 TYR         0.0530
    122 H53        12.8414   14.4879    8.9218 H         1 TYR         0.0530
    123 H54         9.5522   13.6019    5.2647 H         1 TYR         0.0525
    124 H55        13.6181   13.4489    6.8138 H         1 TYR         0.0525
    125 H56        11.3958   12.6860    4.1163 H         1 TYR         0.2458
    126 H57        11.0036   15.2127   11.7130 H         1 SER         0.1876
    127 H58        11.3827   17.3161   13.8324 H         1 SER         0.0749
    128 H59        10.8744   15.2581   15.4143 H         1 SER         0.0599
    129 H60        10.0465   14.5791   13.9720 H         1 SER         0.0599
    130 H61         8.6279   15.7872   15.3362 H         1 SER         0.2096
@<TRIPOS>BOND
     1    1    2 1  
     2    2    3 1  
     3    2    5 1  
     4    3    4 2  
     5    3    8 am 
     6    5    6 1  
     7    5    7 1  
     8    8    9 1  
     9    9   10 1  
    10    9   12 1  
    11   10   11 2  
    12   10   14 am 
    13   12   13 1  
    14   14   15 1  
    15   15   16 1  
    16   15   23 1  
    17   16   17 1  
    18   16   18 1  
    19   18   19 1  
    20   19   20 ar 
    21   19   21 ar 
    22   19   22 ar 
    23   23   24 2  
    24   23   25 am 
    25   25   26 1  
    26   26   27 1  
    27   26   29 1  
    28   27   28 2  
    29   27   34 am 
    30   29   30 1  
    31   30   31 1  
    32   31   32 2  
    33   31   33 am 
    34   34   35 1  
    35   35   36 1  
    36   35   38 1  
    37   36   37 2  
    38   36   43 am 
    39   38   39 1  
    40   39   40 1  
    41   40   41 ar 
    42   40   42 ar 
    43   43   44 1  
    44   44   45 1  
    45   44   47 1  
    46   45   46 2  
    47   45   51 am 
    48   47   48 1  
    49   48   49 1  
    50   48   50 1  
    51   51   52 1  
    52   52   53 1  
    53   52   55 1  
    54   53   54 2  
    55   53   63 am 
    56   55   56 1  
    57   56   57 ar 
    58   56   58 ar 
    59   57   59 ar 
    60   58   60 ar 
    61   59   61 ar 
    62   60   61 ar 
    63   61   62 1  
    64   63   64 1  
    65   64   65 1  
    66   64   67 1  
    67   65   66 ar 
    68   65   69 ar 
    69   67   68 1  
    70    1   70 1  
    71    1   71 1  
    72    1   72 1  
    73    2   73 1  
    74    5   74 1  
    75    6   75 1  
    76    6   76 1  
    77    6   77 1  
    78    7   78 1  
    79    7   79 1  
    80    7   80 1  
    81    8   81 1  
    82    9   82 1  
    83   12   83 1  
    84   12   84 1  
    85   13   85 1  
    86   14   86 1  
    87   15   87 1  
    88   16   88 1  
    89   17   89 1  
    90   17   90 1  
    91   17   91 1  
    92   25   92 1  
    93   26   93 1  
    94   29   94 1  
    95   29   95 1  
    96   30   96 1  
    97   30   97 1  
    98   33   98 1  
    99   33   99 1  
   100   34  100 1  
   101   35  101 1  
   102   38  102 1  
   103   38  103 1  
   104   39  104 1  
   105   39  105 1  
   106   43  106 1  
   107   44  107 1  
   108   47  108 1  
   109   47  109 1  
   110   48  110 1  
   111   49  111 1  
   112   49  112 1  
   113   49  113 1  
   114   50  114 1  
   115   50  115 1  
   116   50  116 1  
   117   51  117 1  
   118   52  118 1  
   119   55  119 1  
   120   55  120 1  
   121   57  121 1  
   122   58  122 1  
   123   59  123 1  
   124   60  124 1  
   125   62  125 1  
   126   63  126 1  
   127   64  127 1  
   128   67  128 1  
   129   67  129 1  
   130   68  130 1  
@<TRIPOS>SUBSTRUCTURE
     1 VAL         1

