1e6q_ligand
  -I-interpret- 

 24 25  0  0  0  0  0  0  0  0999 V2000
   47.2990  119.6880   52.4890 C   0  0  0  0  0
   47.9890  119.0190   53.7220 C   0  0  0  0  0
   48.3800  120.1170   54.6950 C   0  0  0  0  0
   48.7990  121.3860   53.8640 C   0  0  0  0  0
   47.4990  122.0130   53.2580 C   0  0  0  0  0
   47.5630  123.3470   52.5210 C   0  0  0  0  0
   47.0410  121.0280   52.3800 N   0  3  0  0  0
   46.4490  121.2260   51.1460 N   0  0  0  0  0
   46.3030  119.9280   50.5630 N   0  0  0  0  0
   46.8560  119.1080   51.3610 N   0  0  0  0  0
   47.2650  117.9570   54.4010 O   0  0  0  0  0
   49.4810  119.5720   55.4220 O   0  0  0  0  0
   49.3720  122.3640   54.7470 O   0  0  0  0  0
   48.4570  123.1810   51.3730 O   0  0  0  0  0
   48.8509  118.4875   53.3185 H   0  0  0  0  0
   47.5811  120.4228   55.3706 H   0  0  0  0  0
   49.5136  121.1046   53.0905 H   0  0  0  0  0
   46.8645  122.2824   54.1024 H   0  0  0  0  0
   47.9377  124.1277   53.1830 H   0  0  0  0  0
   46.5686  123.6431   52.1869 H   0  0  0  0  0
   47.0290  117.2760   53.7669 H   0  0  0  0  0
   49.1879  118.8021   55.9149 H   0  0  0  0  0
   50.1745  122.0100   55.1373 H   0  0  0  0  0
   48.5144  124.0093   50.8911 H   0  0  0  0  0
  1  2  1  0  0  0
  1  7  4  0  0  0
  1 10  4  0  0  0
  2  3  1  0  0  0
  2 11  1  0  0  0
  3  4  1  0  0  0
  3 12  1  0  0  0
  4  5  1  0  0  0
  4 13  1  0  0  0
  5  6  1  0  0  0
  5  7  1  0  0  0
  6 14  1  0  0  0
  7  8  4  0  0  0
  8  9  4  0  0  0
  9 10  4  0  0  0
  2 15  1  0  0  0
  3 16  1  0  0  0
  4 17  1  0  0  0
  5 18  1  0  0  0
  6 19  1  0  0  0
  6 20  1  0  0  0
 11 21  1  0  0  0
 12 22  1  0  0  0
 13 23  1  0  0  0
 14 24  1  0  0  0
M  END
$$$$
