2w8y_ligand
  -I-interpret- 

 67 71  0  0  0  0  0  0  0  0999 V2000
   13.5700    7.3990    2.9280 O   0  0  0  0  0
   13.0500    6.7680    3.8260 C   0  0  0  0  0
   11.5590    6.8400    3.9510 C   0  0  0  0  0
   13.8510    6.0290    4.7120 C   0  0  0  0  0
   13.3270    5.4180    5.7940 C   0  0  0  0  0
   14.2400    4.5480    6.6190 C   0  0  0  0  0
   11.9040    5.5750    6.1810 C   0  0  0  0  0
   10.9900    6.4020    5.2970 C   0  0  0  0  0
   11.4250    5.0620    7.3410 C   0  0  0  0  0
    9.9510    5.2980    7.7360 C   0  0  0  0  0
    8.9960    4.3080    7.0470 C   0  0  0  0  0
    9.4150    3.3370    6.1400 C   0  0  0  0  0
    8.5020    2.4920    5.5140 C   0  0  0  0  0
    7.1330    2.5810    5.7760 C   0  0  0  0  0
    6.2080    1.7330    5.1350 N   0  0  0  0  0
    6.5760    0.4340    4.5630 C   0  0  0  0  0
    4.9060    2.2840    4.7370 C   0  0  0  0  0
    6.7050    3.5560    6.6660 C   0  0  0  0  0
    7.6300    4.4050    7.2770 C   0  0  0  0  0
    9.7350    5.4050    9.2750 C   0  0  0  0  0
   10.4890    4.3300   10.0310 C   0  0  0  0  0
   10.0060    2.9410    9.5910 C   0  0  0  0  0
   10.5030    4.4320   11.5660 C   0  0  0  0  0
   10.7170    5.7960   12.0840 C   0  0  0  0  0
   10.9420    6.8570   12.5160 C   0  0  0  0  0
   11.2490    8.1660   13.1150 C   0  0  0  0  0
    9.3380    3.8990   12.1630 O   0  0  0  0  0
   11.7210    3.5760   11.9630 C   0  0  0  0  0
   12.6580    3.5960   10.7300 C   0  0  0  0  0
   11.9900    4.5410    9.7220 C   0  0  0  0  0
   12.3190    4.2570    8.2550 C   0  0  0  0  0
   13.7880    4.5820    8.0740 C   0  0  0  0  0
   11.1520    6.1571    3.2053 H   0  0  0  0  0
   11.2876    7.8882    3.8260 H   0  0  0  0  0
   14.9210    5.9475    4.5206 H   0  0  0  0  0
   15.2624    4.9188    6.5455 H   0  0  0  0  0
   14.2013    3.5236    6.2485 H   0  0  0  0  0
   10.1335    5.7671    5.0705 H   0  0  0  0  0
   10.7832    7.3183    5.8500 H   0  0  0  0  0
    9.6868    6.2830    7.3512 H   0  0  0  0  0
   10.4771    3.2368    5.9162 H   0  0  0  0  0
    8.8630    1.7464    4.8055 H   0  0  0  0  0
    7.3324    0.5792    3.7917 H   0  0  0  0  0
    6.9749   -0.2076    5.3487 H   0  0  0  0  0
    5.6933   -0.0318    4.1249 H   0  0  0  0  0
    4.3820    2.6490    5.6204 H   0  0  0  0  0
    5.0592    3.1063    4.0382 H   0  0  0  0  0
    4.3139    1.5041    4.2582 H   0  0  0  0  0
    5.6430    3.6594    6.8889 H   0  0  0  0  0
    7.2662    5.1726    7.9600 H   0  0  0  0  0
    8.6713    5.2822    9.4789 H   0  0  0  0  0
   10.1051    6.3760    9.6041 H   0  0  0  0  0
    8.9403    2.8457    9.7988 H   0  0  0  0  0
   10.1815    2.8184    8.5222 H   0  0  0  0  0
   10.5545    2.1760   10.1406 H   0  0  0  0  0
   10.6916    8.2783   14.0449 H   0  0  0  0  0
   12.3176    8.2284   13.3207 H   0  0  0  0  0
   10.9644    8.9572   12.4214 H   0  0  0  0  0
    9.3992    3.9881   13.1169 H   0  0  0  0  0
   11.4272    2.5598   12.2258 H   0  0  0  0  0
   12.2170    3.9726   12.8489 H   0  0  0  0  0
   12.7911    2.5975   10.3135 H   0  0  0  0  0
   13.6588    3.9374   10.9946 H   0  0  0  0  0
   12.3402    5.5671    9.8339 H   0  0  0  0  0
   12.1373    3.2147    7.9931 H   0  0  0  0  0
   13.9488    5.5943    8.4447 H   0  0  0  0  0
   14.3605    3.8277    8.6138 H   0  0  0  0  0
  1  2  2  0  0  0
  2  3  1  0  0  0
  2  4  1  0  0  0
  3  8  1  0  0  0
  4  5  2  0  0  0
  5  6  1  0  0  0
  5  7  1  0  0  0
  6 32  1  0  0  0
  7  8  1  0  0  0
  7  9  2  0  0  0
  9 10  1  0  0  0
  9 31  1  0  0  0
 10 11  1  0  0  0
 10 20  1  0  0  0
 11 12  4  0  0  0
 11 19  4  0  0  0
 12 13  4  0  0  0
 13 14  4  0  0  0
 14 15  1  0  0  0
 14 18  4  0  0  0
 15 16  1  0  0  0
 15 17  1  0  0  0
 18 19  4  0  0  0
 20 21  1  0  0  0
 21 22  1  0  0  0
 21 23  1  0  0  0
 21 30  1  0  0  0
 23 24  1  0  0  0
 23 27  1  0  0  0
 23 28  1  0  0  0
 24 25  3  0  0  0
 25 26  1  0  0  0
 28 29  1  0  0  0
 29 30  1  0  0  0
 30 31  1  0  0  0
 31 32  1  0  0  0
  3 33  1  0  0  0
  3 34  1  0  0  0
  4 35  1  0  0  0
  6 36  1  0  0  0
  6 37  1  0  0  0
  8 38  1  0  0  0
  8 39  1  0  0  0
 10 40  1  0  0  0
 12 41  1  0  0  0
 13 42  1  0  0  0
 16 43  1  0  0  0
 16 44  1  0  0  0
 16 45  1  0  0  0
 17 46  1  0  0  0
 17 47  1  0  0  0
 17 48  1  0  0  0
 18 49  1  0  0  0
 19 50  1  0  0  0
 20 51  1  0  0  0
 20 52  1  0  0  0
 22 53  1  0  0  0
 22 54  1  0  0  0
 22 55  1  0  0  0
 26 56  1  0  0  0
 26 57  1  0  0  0
 26 58  1  0  0  0
 27 59  1  0  0  0
 28 60  1  0  0  0
 28 61  1  0  0  0
 29 62  1  0  0  0
 29 63  1  0  0  0
 30 64  1  0  0  0
 31 65  1  0  0  0
 32 66  1  0  0  0
 32 67  1  0  0  0
M  END
$$$$
