1xp6_ligand
  -I-interpret- 

 66 70  0  0  0  0  0  0  0  0999 V2000
   31.0270   -0.1900   28.7830 C   0  0  0  0  0
   31.2250   -1.6340   28.2420 C   0  0  0  0  0
   30.0210   -2.3830   28.5070 O   0  0  0  0  0
   28.8010   -1.9190   28.0510 C   0  0  0  0  0
   27.8900   -2.9280   27.7530 C   0  0  0  0  0
   26.6110   -2.6360   27.2660 C   0  0  0  0  0
   26.2660   -1.2640   27.1360 C   0  0  0  0  0
   25.0400   -0.9700   26.6450 O   0  0  0  0  0
   27.1900   -0.2550   27.4600 C   0  0  0  0  0
   28.4850   -0.5530   27.8910 C   0  0  0  0  0
   29.5020    0.5530   28.1750 S   0  0  0  0  0
   32.3330    0.5290   28.4880 C   0  0  0  0  0
   32.5040    1.3730   27.3770 C   0  0  0  0  0
   33.7600    1.9730   27.2170 C   0  0  0  0  0
   34.7850    1.7270   28.1480 C   0  0  0  0  0
   36.0150    2.2430   27.9460 O   0  0  0  0  0
   34.5960    0.9020   29.2720 C   0  0  0  0  0
   33.3440    0.2940   29.4330 C   0  0  0  0  0
   31.5760   -1.8410   26.7630 C   0  0  0  0  0
   32.4990   -2.8610   26.4620 C   0  0  0  0  0
   32.8860   -3.1410   25.1300 C   0  0  0  0  0
   32.3380   -2.4080   24.0670 C   0  0  0  0  0
   31.4570   -1.3750   24.3620 C   0  0  0  0  0
   31.0550   -1.1170   25.6860 C   0  0  0  0  0
   32.7200   -2.6100   22.7790 O   0  0  0  0  0
   33.3950   -3.8340   22.4390 C   0  0  0  0  0
   33.7950   -3.9440   20.9580 C   0  0  0  0  0
   32.6910   -4.0790   19.9940 N   0  3  0  0  0
   33.3300   -4.1290   18.6540 C   0  0  0  0  0
   32.2840   -3.5570   17.6700 C   0  0  0  0  0
   31.8080   -4.6130   16.6500 C   0  0  0  0  0
   31.0980   -3.1780   18.5790 C   0  0  0  0  0
   30.3090   -1.9930   18.0100 C   0  0  0  0  0
   31.7990   -2.9000   19.9220 C   0  0  0  0  0
   30.8553   -0.1370   29.8581 H   0  0  0  0  0
   32.1185   -1.9687   28.7689 H   0  0  0  0  0
   28.1790   -3.9683   27.9022 H   0  0  0  0  0
   25.9101   -3.4266   26.9981 H   0  0  0  0  0
   24.9317   -0.0169   26.6075 H   0  0  0  0  0
   26.8876    0.7885   27.3725 H   0  0  0  0  0
   31.6940    1.5530   26.6701 H   0  0  0  0  0
   33.9432    2.6323   26.3686 H   0  0  0  0  0
   36.5923    1.9831   28.6677 H   0  0  0  0  0
   35.3970    0.7412   29.9935 H   0  0  0  0  0
   33.1563   -0.3573   30.2866 H   0  0  0  0  0
   32.9256   -3.4490   27.2746 H   0  0  0  0  0
   33.6122   -3.9287   24.9294 H   0  0  0  0  0
   31.0705   -0.7536   23.5542 H   0  0  0  0  0
   30.3204   -0.3345   25.8763 H   0  0  0  0  0
   32.7035   -4.6506   22.6465 H   0  0  0  0  0
   34.3145   -3.8669   23.0234 H   0  0  0  0  0
   34.3883   -4.8541   20.8701 H   0  0  0  0  0
   34.3027   -3.0119   20.7102 H   0  0  0  0  0
   32.1419   -4.8913   20.2752 H   0  0  0  0  0
   33.6126   -5.1471   18.3862 H   0  0  0  0  0
   34.2538   -3.5509   18.6324 H   0  0  0  0  0
   32.6945   -2.7295   17.0913 H   0  0  0  0  0
   32.6609   -4.9677   16.0714 H   0  0  0  0  0
   31.3539   -5.4499   17.1805 H   0  0  0  0  0
   31.0742   -4.1645   15.9803 H   0  0  0  0  0
   30.3290   -3.9445   18.6752 H   0  0  0  0  0
   30.9670   -1.1284   17.9226 H   0  0  0  0  0
   29.9198   -2.2560   17.0264 H   0  0  0  0  0
   29.4812   -1.7550   18.6779 H   0  0  0  0  0
   32.3147   -1.9410   19.9713 H   0  0  0  0  0
   31.1226   -2.7941   20.7701 H   0  0  0  0  0
  1  2  1  0  0  0
  1 11  1  0  0  0
  1 12  1  0  0  0
  2  3  1  0  0  0
  2 19  1  0  0  0
  3  4  1  0  0  0
  4  5  4  0  0  0
  4 10  4  0  0  0
  5  6  4  0  0  0
  6  7  4  0  0  0
  7  8  1  0  0  0
  7  9  4  0  0  0
  9 10  4  0  0  0
 10 11  1  0  0  0
 12 13  4  0  0  0
 12 18  4  0  0  0
 13 14  4  0  0  0
 14 15  4  0  0  0
 15 16  1  0  0  0
 15 17  4  0  0  0
 17 18  4  0  0  0
 19 20  4  0  0  0
 19 24  4  0  0  0
 20 21  4  0  0  0
 21 22  4  0  0  0
 22 23  4  0  0  0
 22 25  1  0  0  0
 23 24  4  0  0  0
 25 26  1  0  0  0
 26 27  1  0  0  0
 27 28  1  0  0  0
 28 29  1  0  0  0
 28 34  1  0  0  0
 29 30  1  0  0  0
 30 31  1  0  0  0
 30 32  1  0  0  0
 32 33  1  0  0  0
 32 34  1  0  0  0
  1 35  1  0  0  0
  2 36  1  0  0  0
  5 37  1  0  0  0
  6 38  1  0  0  0
  8 39  1  0  0  0
  9 40  1  0  0  0
 13 41  1  0  0  0
 14 42  1  0  0  0
 16 43  1  0  0  0
 17 44  1  0  0  0
 18 45  1  0  0  0
 20 46  1  0  0  0
 21 47  1  0  0  0
 23 48  1  0  0  0
 24 49  1  0  0  0
 26 50  1  0  0  0
 26 51  1  0  0  0
 27 52  1  0  0  0
 27 53  1  0  0  0
 28 54  1  0  0  0
 29 55  1  0  0  0
 29 56  1  0  0  0
 30 57  1  0  0  0
 31 58  1  0  0  0
 31 59  1  0  0  0
 31 60  1  0  0  0
 32 61  1  0  0  0
 33 62  1  0  0  0
 33 63  1  0  0  0
 33 64  1  0  0  0
 34 65  1  0  0  0
 34 66  1  0  0  0
M  END
$$$$
