### 
### Created by X-TOOL on Mon Aug  2 16:10:44 2021
### 

@<TRIPOS>MOLECULE
6fvm_ligand
  101   102     1     0     0
SMALL
GAST_HUCK


@<TRIPOS>ATOM
      1 C          15.6150  -13.7390  -17.7240 C.2       1 ACE         0.1751
      2 O          15.2200  -13.4210  -18.8100 O.2       1 ACE        -0.3972
      3 CH3        16.6010  -14.8890  -17.5770 C.3       1 ACE         0.0258
      4 N          15.2530  -13.1300  -16.5950 N.am      1 ACE        -0.2657
      5 CA         14.3090  -12.0160  -16.5360 C.3       1 ACE         0.1329
      6 C          14.7290  -10.8510  -17.4180 C.2       1 ACE         0.2040
      7 O          15.8420  -10.3430  -17.2840 O.2       1 ACE        -0.3944
      8 CB         14.1660  -11.5080  -15.1020 C.3       1 ACE         0.0045
      9 CG         13.1520  -10.4070  -15.0000 C.3       1 ACE         0.0412
     10 CD         11.7730  -10.8850  -15.4320 C.2       1 ACE         0.1737
     11 OE1        11.2900  -11.9220  -14.9730 O.2       1 ACE        -0.3973
     12 NE2        11.1600  -10.1550  -16.3710 N.am      1 ACE        -0.3009
     13 N          13.8190  -10.4040  -18.2840 N.am      1 ACE        -0.2637
     14 CA         14.0860   -9.2800  -19.2010 C.3       1 ACE         0.1312
     15 C          13.6260   -7.9820  -18.4670 C.2       1 ACE         0.2040
     16 O          12.8400   -7.9860  -17.5310 O.2       1 ACE        -0.3944
     17 CB         13.2240   -9.2660  -20.4680 C.3       1 ACE        -0.0096
     18 CG         13.7520  -10.0670  -21.6590 C.3       1 ACE        -0.0368
     19 CD2        15.2280  -10.4320  -21.5630 C.3       1 ACE        -0.0500
     20 CE2        15.7210  -11.1200  -22.8320 C.3       1 ACE        -0.0528
     21 CZ         14.8990  -12.3610  -23.1410 C.3       1 ACE        -0.0530
     22 CE1        13.4170  -12.0350  -23.2170 C.3       1 ACE        -0.0528
     23 CD1        12.9410  -11.3250  -21.9500 C.3       1 ACE        -0.0500
     24 N          14.1200   -6.8430  -18.9480 N.am      1 ACE        -0.2622
     25 CA         13.7010   -5.5570  -18.3790 C.3       1 ACE         0.1423
     26 C          12.5320   -4.9310  -19.1130 C.2       1 ACE         0.2056
     27 O          12.5200   -4.8760  -20.3420 O.2       1 ACE        -0.3943
     28 CB         14.8330   -4.5390  -18.3960 C.3       1 ACE         0.0406
     29 CG         16.0840   -5.0670  -17.8030 C.2       1 ACE         0.0393
     30 OD1        16.1170   -5.2480  -16.5680 O.co2     1 ACE        -0.5688
     31 OD2        17.0230   -5.2990  -18.5900 O.co2     1 ACE        -0.5688
     32 N          11.5900   -4.3860  -18.3400 N.am      1 ACE        -0.2636
     33 CA         10.5520   -3.5400  -18.9150 C.3       1 ACE         0.1312
     34 C          11.1390   -2.2480  -19.4680 C.2       1 ACE         0.2035
     35 O          10.7070   -1.7600  -20.5180 O.2       1 ACE        -0.3944
     36 CB          9.5030   -3.2020  -17.8540 C.3       1 ACE        -0.0101
     37 CG          8.2400   -4.0400  -17.7780 C.3       1 ACE        -0.0425
     38 CD1         7.2860   -3.4730  -16.7240 C.3       1 ACE        -0.0625
     39 CD2         7.5910   -4.1080  -19.1330 C.3       1 ACE        -0.0625
     40 N          12.0990   -1.6650  -18.7630 N.am      1 ACE        -0.2677
     41 CA         12.6950   -0.4080  -19.1770 C.3       1 ACE         0.1039
     42 C          14.0840   -0.2740  -18.5780 C.2       1 ACE         0.0621
     43 O          14.8360    0.6420  -18.9150 O.co2     1 ACE        -0.5664
     44 CB         11.8050    0.7760  -18.7690 C.3       1 ACE         0.0159
     45 CG         11.3760    0.7510  -17.3260 C.ar      1 ACE        -0.0392
     46 CD1        12.2180    1.2180  -16.3260 C.ar      1 ACE        -0.0602
     47 CD2        10.1290    0.2610  -16.9690 C.ar      1 ACE        -0.0602
     48 CE1        11.8260    1.1890  -14.9990 C.ar      1 ACE        -0.0686
     49 CE2         9.7310    0.2370  -15.6470 C.ar      1 ACE        -0.0686
     50 CZ         10.5840    0.7010  -14.6600 C.ar      1 ACE        -0.0687
     51 OXT        14.4750   -1.0880  -17.7380 O.co2     1 ACE        -0.5664
     52 H1         16.8441  -15.0298  -16.5135 H         1 ACE         0.0467
     53 H2         17.5199  -14.6578  -18.1357 H         1 ACE         0.0467
     54 H3         16.1516  -15.8105  -17.9755 H         1 ACE         0.0467
     55 H4         15.6512  -13.4548  -15.7371 H         1 ACE         0.1883
     56 H5         13.3307  -12.3802  -16.8828 H         1 ACE         0.0801
     57 H6         15.1399  -11.1279  -14.7600 H         1 ACE         0.0337
     58 H7         13.8514  -12.3426  -14.4582 H         1 ACE         0.0337
     59 H8         13.4615   -9.5734  -15.6475 H         1 ACE         0.0504
     60 H9         13.1012  -10.0618  -13.9568 H         1 ACE         0.0504
     61 H10        10.2518  -10.4190  -16.6958 H         1 ACE         0.1814
     62 H11        11.6101   -9.3455  -16.7480 H         1 ACE         0.1814
     63 H12        12.9229  -10.8469  -18.3128 H         1 ACE         0.1883
     64 H13        15.1548   -9.2566  -19.4599 H         1 ACE         0.0800
     65 H14        13.1183   -8.2193  -20.7892 H         1 ACE         0.0315
     66 H15        12.2355   -9.6704  -20.2047 H         1 ACE         0.0315
     67 H16        13.6457   -9.4096  -22.5345 H         1 ACE         0.0303
     68 H17        15.3729  -11.1110  -20.7098 H         1 ACE         0.0268
     69 H18        15.8130   -9.5140  -21.4046 H         1 ACE         0.0268
     70 H19        16.7730  -11.4114  -22.6963 H         1 ACE         0.0265
     71 H20        15.6408  -10.4178  -23.6749 H         1 ACE         0.0265
     72 H21        15.0621  -13.1057  -22.3481 H         1 ACE         0.0265
     73 H22        15.2248  -12.7758  -24.1063 H         1 ACE         0.0265
     74 H23        12.8499  -12.9696  -23.3389 H         1 ACE         0.0265
     75 H24        13.2374  -11.3814  -24.0833 H         1 ACE         0.0265
     76 H25        11.8847  -11.0450  -22.0758 H         1 ACE         0.0268
     77 H26        13.0386  -12.0149  -21.0988 H         1 ACE         0.0268
     78 H27        14.7790   -6.8640  -19.6998 H         1 ACE         0.1884
     79 H28        13.4018   -5.7371  -17.3359 H         1 ACE         0.0819
     80 H29        14.5188   -3.6533  -17.8243 H         1 ACE         0.0478
     81 H30        15.0319   -4.2508  -19.4388 H         1 ACE         0.0478
     82 H31        11.5967   -4.5602  -17.3553 H         1 ACE         0.1883
     83 H32        10.0671   -4.0884  -19.7360 H         1 ACE         0.0800
     84 H33         9.1902   -2.1620  -18.0291 H         1 ACE         0.0315
     85 H34         9.9988   -3.2759  -16.8749 H         1 ACE         0.0315
     86 H35         8.5161   -5.0612  -17.4764 H         1 ACE         0.0298
     87 H36         6.3771   -4.0911  -16.6818 H         1 ACE         0.0232
     88 H37         7.0154   -2.4409  -16.9916 H         1 ACE         0.0232
     89 H38         7.7798   -3.4795  -15.7411 H         1 ACE         0.0232
     90 H39         8.3053   -4.5192  -19.8614 H         1 ACE         0.0232
     91 H40         7.2889   -3.0977  -19.4460 H         1 ACE         0.0232
     92 H41         6.7042   -4.7568  -19.0827 H         1 ACE         0.0232
     93 H42        12.4209   -2.1031  -17.9237 H         1 ACE         0.1877
     94 H43        12.7868   -0.4093  -20.2731 H         1 ACE         0.0749
     95 H44        10.9029    0.7636  -19.3983 H         1 ACE         0.0467
     96 H45        12.3639    1.7065  -18.9476 H         1 ACE         0.0467
     97 H46        13.1942    1.6101  -16.5876 H         1 ACE         0.0557
     98 H47         9.4585   -0.1076  -17.7369 H         1 ACE         0.0557
     99 H48        12.4962    1.5501  -14.2273 H         1 ACE         0.0599
    100 H49         8.7516   -0.1448  -15.3821 H         1 ACE         0.0599
    101 H50        10.2743    0.6801  -13.6214 H         1 ACE         0.0559
@<TRIPOS>BOND
     1    1    2 2  
     2    1    3 1  
     3    1    4 am 
     4    4    5 1  
     5    5    6 1  
     6    5    8 1  
     7    6    7 2  
     8    6   13 am 
     9    8    9 1  
    10    9   10 1  
    11   10   11 2  
    12   10   12 am 
    13   13   14 1  
    14   14   15 1  
    15   14   17 1  
    16   15   16 2  
    17   15   24 am 
    18   17   18 1  
    19   18   19 1  
    20   18   23 1  
    21   19   20 1  
    22   20   21 1  
    23   21   22 1  
    24   22   23 1  
    25   24   25 1  
    26   25   26 1  
    27   25   28 1  
    28   26   27 2  
    29   26   32 am 
    30   28   29 1  
    31   29   30 ar 
    32   29   31 ar 
    33   32   33 1  
    34   33   34 1  
    35   33   36 1  
    36   34   35 2  
    37   34   40 am 
    38   36   37 1  
    39   37   38 1  
    40   37   39 1  
    41   40   41 1  
    42   41   42 1  
    43   41   44 1  
    44   42   43 ar 
    45   42   51 ar 
    46   44   45 1  
    47   45   46 ar 
    48   45   47 ar 
    49   46   48 ar 
    50   47   49 ar 
    51   48   50 ar 
    52   49   50 ar 
    53    3   52 1  
    54    3   53 1  
    55    3   54 1  
    56    4   55 1  
    57    5   56 1  
    58    8   57 1  
    59    8   58 1  
    60    9   59 1  
    61    9   60 1  
    62   12   61 1  
    63   12   62 1  
    64   13   63 1  
    65   14   64 1  
    66   17   65 1  
    67   17   66 1  
    68   18   67 1  
    69   19   68 1  
    70   19   69 1  
    71   20   70 1  
    72   20   71 1  
    73   21   72 1  
    74   21   73 1  
    75   22   74 1  
    76   22   75 1  
    77   23   76 1  
    78   23   77 1  
    79   24   78 1  
    80   25   79 1  
    81   28   80 1  
    82   28   81 1  
    83   32   82 1  
    84   33   83 1  
    85   36   84 1  
    86   36   85 1  
    87   37   86 1  
    88   38   87 1  
    89   38   88 1  
    90   38   89 1  
    91   39   90 1  
    92   39   91 1  
    93   39   92 1  
    94   40   93 1  
    95   41   94 1  
    96   44   95 1  
    97   44   96 1  
    98   46   97 1  
    99   47   98 1  
   100   48   99 1  
   101   49  100 1  
   102   50  101 1  
@<TRIPOS>SUBSTRUCTURE
     1 ACE         1

