6fvm_ligand
  -I-interpret- 

103104  0  0  0  0  0  0  0  0999 V2000
   15.6150  -13.7390  -17.7240 C   0  0  0  0  0
   15.2200  -13.4210  -18.8100 O   0  0  0  0  0
   16.6010  -14.8890  -17.5770 C   0  0  0  0  0
   15.2530  -13.1300  -16.5950 N   0  0  0  0  0
   14.3090  -12.0160  -16.5360 C   0  0  0  0  0
   14.7290  -10.8510  -17.4180 C   0  0  0  0  0
   15.8420  -10.3430  -17.2840 O   0  0  0  0  0
   14.1660  -11.5080  -15.1020 C   0  0  0  0  0
   13.1520  -10.4070  -15.0000 C   0  0  0  0  0
   11.7730  -10.8850  -15.4320 C   0  0  0  0  0
   11.2900  -11.9220  -14.9730 O   0  0  0  0  0
   11.1600  -10.1550  -16.3710 N   0  0  0  0  0
   13.8190  -10.4040  -18.2840 N   0  0  0  0  0
   14.0860   -9.2800  -19.2010 C   0  0  0  0  0
   13.6260   -7.9820  -18.4670 C   0  0  0  0  0
   12.8400   -7.9860  -17.5310 O   0  0  0  0  0
   13.2240   -9.2660  -20.4680 C   0  0  0  0  0
   13.7520  -10.0670  -21.6590 C   0  0  0  0  0
   15.2280  -10.4320  -21.5630 C   0  0  0  0  0
   15.7210  -11.1200  -22.8320 C   0  0  0  0  0
   14.8990  -12.3610  -23.1410 C   0  0  0  0  0
   13.4170  -12.0350  -23.2170 C   0  0  0  0  0
   12.9410  -11.3250  -21.9500 C   0  0  0  0  0
   14.1200   -6.8430  -18.9480 N   0  0  0  0  0
   13.7010   -5.5570  -18.3790 C   0  0  0  0  0
   12.5320   -4.9310  -19.1130 C   0  0  0  0  0
   12.5200   -4.8760  -20.3420 O   0  0  0  0  0
   14.8330   -4.5390  -18.3960 C   0  0  0  0  0
   16.0840   -5.0670  -17.8030 C   0  0  0  0  0
   16.1170   -5.2480  -16.5680 O   0  0  0  0  0
   17.0230   -5.2990  -18.5900 O   0  0  0  0  0
   11.5900   -4.3860  -18.3400 N   0  0  0  0  0
   10.5520   -3.5400  -18.9150 C   0  0  0  0  0
   11.1390   -2.2480  -19.4680 C   0  0  0  0  0
   10.7070   -1.7600  -20.5180 O   0  0  0  0  0
    9.5030   -3.2020  -17.8540 C   0  0  0  0  0
    8.2400   -4.0400  -17.7780 C   0  0  0  0  0
    7.2860   -3.4730  -16.7240 C   0  0  0  0  0
    7.5910   -4.1080  -19.1330 C   0  0  0  0  0
   12.0990   -1.6650  -18.7630 N   0  0  0  0  0
   12.6950   -0.4080  -19.1770 C   0  0  0  0  0
   14.0840   -0.2740  -18.5780 C   0  0  0  0  0
   14.8360    0.6420  -18.9150 O   0  0  0  0  0
   11.8050    0.7760  -18.7690 C   0  0  0  0  0
   11.3760    0.7510  -17.3260 C   0  0  0  0  0
   12.2180    1.2180  -16.3260 C   0  0  0  0  0
   10.1290    0.2610  -16.9690 C   0  0  0  0  0
   11.8260    1.1890  -14.9990 C   0  0  0  0  0
    9.7310    0.2370  -15.6470 C   0  0  0  0  0
   10.5840    0.7010  -14.6600 C   0  0  0  0  0
   14.4750   -1.0880  -17.7380 O   0  0  0  0  0
   16.1546  -15.8015  -17.9722 H   0  0  0  0  0
   17.5110  -14.6587  -18.1310 H   0  0  0  0  0
   16.8411  -15.0275  -16.5228 H   0  0  0  0  0
   15.6591  -13.4613  -15.7199 H   0  0  0  0  0
   13.3574  -12.4023  -16.9012 H   0  0  0  0  0
   15.1307  -11.1165  -14.7792 H   0  0  0  0  0
   13.8360  -12.3370  -14.4760 H   0  0  0  0  0
   13.4579   -9.5912  -15.6550 H   0  0  0  0  0
   13.0969  -10.0805  -13.9615 H   0  0  0  0  0
   10.2547  -10.4504  -16.7364 H   0  0  0  0  0
   11.5980   -9.3031  -16.7214 H   0  0  0  0  0
   12.9050  -10.8558  -18.3134 H   0  0  0  0  0
   15.1392   -9.3600  -19.4701 H   0  0  0  0  0
   13.1846   -8.2272  -20.7956 H   0  0  0  0  0
   12.2740   -9.7240  -20.1927 H   0  0  0  0  0
   13.6346   -9.3745  -22.4925 H   0  0  0  0  0
   15.3589  -11.1184  -20.7265 H   0  0  0  0  0
   15.8008   -9.5151  -21.4241 H   0  0  0  0  0
   16.7589  -11.4186  -22.6845 H   0  0  0  0  0
   15.6248  -10.4233  -23.6647 H   0  0  0  0  0
   15.0544  -13.0881  -22.3439 H   0  0  0  0  0
   15.2174  -12.7576  -24.1051 H   0  0  0  0  0
   12.8611  -12.9665  -23.3233 H   0  0  0  0  0
   13.2492  -11.3759  -24.0688 H   0  0  0  0  0
   11.9007  -11.0333  -22.0939 H   0  0  0  0  0
   13.0621  -12.0096  -21.1105 H   0  0  0  0  0
   14.7922   -6.8644  -19.7149 H   0  0  0  0  0
   13.4029   -5.7943  -17.3578 H   0  0  0  0  0
   14.5190   -3.6787  -17.8050 H   0  0  0  0  0
   15.0372   -4.2821  -19.4354 H   0  0  0  0  0
   15.2734   -4.9951  -16.1860 H   0  0  0  0  0
   11.5968   -4.5637  -17.3356 H   0  0  0  0  0
   10.0874   -4.0911  -19.7326 H   0  0  0  0  0
    9.1603   -2.1985  -18.1065 H   0  0  0  0  0
   10.0054   -3.3628  -16.9001 H   0  0  0  0  0
    8.4975   -5.0548  -17.4745 H   0  0  0  0  0
    7.7764   -3.4800  -15.7506 H   0  0  0  0  0
    7.0187   -2.4504  -16.9903 H   0  0  0  0  0
    6.3858   -4.0863  -16.6831 H   0  0  0  0  0
    7.3366   -3.1010  -19.4635 H   0  0  0  0  0
    8.2825   -4.5611  -19.8433 H   0  0  0  0  0
    6.6852   -4.7110  -19.0707 H   0  0  0  0  0
   12.4273   -2.1119  -17.9069 H   0  0  0  0  0
   12.7815   -0.3998  -20.2635 H   0  0  0  0  0
   10.9011    0.7252  -19.3760 H   0  0  0  0  0
   12.3881    1.6849  -18.9172 H   0  0  0  0  0
   13.1996    1.6122  -16.5891 H   0  0  0  0  0
    9.4548   -0.1097  -17.7411 H   0  0  0  0  0
   12.4999    1.5521  -14.2230 H   0  0  0  0  0
    8.7462   -0.1469  -15.3807 H   0  0  0  0  0
   10.2726    0.6800  -13.6157 H   0  0  0  0  0
   13.7862   -1.7374  -17.5785 H   0  0  0  0  0
  1  2  2  0  0  0
  1  3  1  0  0  0
  1  4  1  0  0  0
  4  5  1  0  0  0
  5  6  1  0  0  0
  5  8  1  0  0  0
  6  7  2  0  0  0
  6 13  1  0  0  0
  8  9  1  0  0  0
  9 10  1  0  0  0
 10 11  2  0  0  0
 10 12  1  0  0  0
 13 14  1  0  0  0
 14 15  1  0  0  0
 14 17  1  0  0  0
 15 16  2  0  0  0
 15 24  1  0  0  0
 17 18  1  0  0  0
 18 19  1  0  0  0
 18 23  1  0  0  0
 19 20  1  0  0  0
 20 21  1  0  0  0
 21 22  1  0  0  0
 22 23  1  0  0  0
 24 25  1  0  0  0
 25 26  1  0  0  0
 25 28  1  0  0  0
 26 27  2  0  0  0
 26 32  1  0  0  0
 28 29  1  0  0  0
 29 30  1  0  0  0
 29 31  2  0  0  0
 32 33  1  0  0  0
 33 34  1  0  0  0
 33 36  1  0  0  0
 34 35  2  0  0  0
 34 40  1  0  0  0
 36 37  1  0  0  0
 37 38  1  0  0  0
 37 39  1  0  0  0
 40 41  1  0  0  0
 41 42  1  0  0  0
 41 44  1  0  0  0
 42 43  2  0  0  0
 42 51  1  0  0  0
 44 45  1  0  0  0
 45 46  4  0  0  0
 45 47  4  0  0  0
 46 48  4  0  0  0
 47 49  4  0  0  0
 48 50  4  0  0  0
 49 50  4  0  0  0
  3 52  1  0  0  0
  3 53  1  0  0  0
  3 54  1  0  0  0
  4 55  1  0  0  0
  5 56  1  0  0  0
  8 57  1  0  0  0
  8 58  1  0  0  0
  9 59  1  0  0  0
  9 60  1  0  0  0
 12 61  1  0  0  0
 12 62  1  0  0  0
 13 63  1  0  0  0
 14 64  1  0  0  0
 17 65  1  0  0  0
 17 66  1  0  0  0
 18 67  1  0  0  0
 19 68  1  0  0  0
 19 69  1  0  0  0
 20 70  1  0  0  0
 20 71  1  0  0  0
 21 72  1  0  0  0
 21 73  1  0  0  0
 22 74  1  0  0  0
 22 75  1  0  0  0
 23 76  1  0  0  0
 23 77  1  0  0  0
 24 78  1  0  0  0
 25 79  1  0  0  0
 28 80  1  0  0  0
 28 81  1  0  0  0
 30 82  1  0  0  0
 32 83  1  0  0  0
 33 84  1  0  0  0
 36 85  1  0  0  0
 36 86  1  0  0  0
 37 87  1  0  0  0
 38 88  1  0  0  0
 38 89  1  0  0  0
 38 90  1  0  0  0
 39 91  1  0  0  0
 39 92  1  0  0  0
 39 93  1  0  0  0
 40 94  1  0  0  0
 41 95  1  0  0  0
 44 96  1  0  0  0
 44 97  1  0  0  0
 46 98  1  0  0  0
 47 99  1  0  0  0
 48100  1  0  0  0
 49101  1  0  0  0
 50102  1  0  0  0
 51103  1  0  0  0
M  END
$$$$
