4itj_ligand
  -I-interpret- 

 34 35  0  0  0  0  0  0  0  0999 V2000
   18.3600   -1.1210   53.0890 C   0  0  0  0  0
   18.2780    1.0230   54.2500 C   0  0  0  0  0
   17.1550    0.6190   54.9480 C   0  0  0  0  0
   17.2430   -1.5240   53.8020 C   0  0  0  0  0
   16.6520   -0.6520   54.7080 C   0  0  0  0  0
   18.8540    0.1550   53.3230 C   0  0  0  0  0
   18.9820   -2.0500   52.0990 C   0  0  0  0  0
   20.2240   -3.6450   53.4150 C   0  0  0  0  0
   20.2990    0.7270   52.4630 Cl  0  0  0  0  0
   16.7170   -2.7500   53.6060 F   0  0  0  0  0
   18.0530   -2.1470   50.8860 C   0  0  0  0  0
   19.1540   -3.3660   52.6790 N   0  0  0  0  0
   20.9580   -2.7570   53.8230 O   0  0  0  0  0
   20.5710   -5.0630   53.7450 C   0  0  0  0  0
   20.2170   -6.1910   52.9760 C   0  0  0  0  0
   20.7370   -7.3210   53.5840 C   0  0  0  0  0
   21.3650   -6.7890   54.7000 C   0  0  0  0  0
   22.0410   -7.5100   55.6050 C   0  0  0  0  0
   22.6710   -8.1500   56.3500 N   0  0  0  0  0
   21.2970   -5.4660   54.8060 N   0  0  0  0  0
   21.8930   -4.6620   55.9180 C   0  0  0  0  0
   18.7085    2.0094   54.4225 H   0  0  0  0  0
   16.6767    1.2822   55.6688 H   0  0  0  0  0
   15.7631   -0.9772   55.2486 H   0  0  0  0  0
   19.9611   -1.6713   51.8056 H   0  0  0  0  0
   18.4917   -2.8170   50.1466 H   0  0  0  0  0
   17.0849   -2.5360   51.2016 H   0  0  0  0  0
   17.9233   -1.1568   50.4492 H   0  0  0  0  0
   18.4475   -4.0846   52.5210 H   0  0  0  0  0
   19.6318   -6.1757   52.0566 H   0  0  0  0  0
   20.6699   -8.3617   53.2668 H   0  0  0  0  0
   22.5947   -3.9373   55.5050 H   0  0  0  0  0
   21.0998   -4.1383   56.4516 H   0  0  0  0  0
   22.4172   -5.3267   56.6047 H   0  0  0  0  0
  1  4  4  0  0  0
  6  1  4  0  0  0
  1  7  1  0  0  0
  2  3  4  0  0  0
  2  6  4  0  0  0
  3  5  4  0  0  0
  4  5  4  0  0  0
  4 10  1  0  0  0
  6  9  1  0  0  0
  7 11  1  0  0  0
  7 12  1  0  0  0
 12  8  1  0  0  0
  8 13  2  0  0  0
  8 14  1  0  0  0
 14 15  4  0  0  0
 14 20  4  0  0  0
 15 16  4  0  0  0
 16 17  4  0  0  0
 17 18  1  0  0  0
 17 20  4  0  0  0
 18 19  3  0  0  0
 20 21  1  0  0  0
  2 22  1  0  0  0
  3 23  1  0  0  0
  5 24  1  0  0  0
  7 25  1  0  0  0
 11 26  1  0  0  0
 11 27  1  0  0  0
 11 28  1  0  0  0
 12 29  1  0  0  0
 15 30  1  0  0  0
 16 31  1  0  0  0
 21 32  1  0  0  0
 21 33  1  0  0  0
 21 34  1  0  0  0
M  END
$$$$
