4y8c_ligand
  -I-interpret- 

 45 48  0  0  0  0  0  0  0  0999 V2000
   81.3460   50.7170   39.4890 C   0  0  0  0  0
   81.0520   51.6970   40.5810 C   0  0  0  0  0
   79.3390   49.9760   40.2730 C   0  0  0  0  0
   79.5540   51.3680   40.8080 C   0  0  0  0  0
   79.2210   51.5180   42.2540 N   0  0  0  0  0
   78.1460   52.1990   42.6620 C   0  0  0  0  0
   77.1750   52.8110   41.9590 N   0  0  0  0  0
   79.8740   51.1140   43.2810 N   0  0  0  0  0
   79.2290   51.5120   44.3780 C   0  0  0  0  0
   78.1400   52.1950   44.0000 C   0  0  0  0  0
   77.1470   52.8110   44.6790 C   0  0  0  0  0
   77.1020   52.8370   45.9120 O   0  0  0  0  0
   76.1300   53.4430   43.9650 N   0  0  0  0  0
   76.1650   53.4310   42.5740 C   0  0  0  0  0
   75.2050   54.0330   41.8900 N   0  0  0  0  0
   75.2420   54.1560   40.4200 C   0  0  0  0  0
   73.8540   53.8100   39.8520 C   0  0  0  0  0
   75.6520   55.4600   40.1220 C   0  0  0  0  0
   77.0010   55.7120   39.8780 C   0  0  0  0  0
   77.4400   57.0050   39.6030 C   0  0  0  0  0
   76.5340   58.0640   39.5730 C   0  0  0  0  0
   75.1930   57.8240   39.8200 C   0  0  0  0  0
   74.7550   56.5300   40.1010 C   0  0  0  0  0
   80.7230   49.4120   40.0040 C   0  0  0  0  0
   77.0710   59.6700   39.2340 Cl  0  0  0  0  0
   82.4132   50.6209   39.2891 H   0  0  0  0  0
   80.9353   51.0259   38.5277 H   0  0  0  0  0
   81.2609   52.7375   40.3325 H   0  0  0  0  0
   81.6821   51.6016   41.4653 H   0  0  0  0  0
   78.7357   49.9909   39.3653 H   0  0  0  0  0
   78.7933   49.3589   40.9868 H   0  0  0  0  0
   78.8837   52.0504   40.2853 H   0  0  0  0  0
   77.2113   52.8010   40.9397 H   0  0  0  0  0
   79.5350   51.3155   45.4056 H   0  0  0  0  0
   74.4117   54.4257   42.3968 H   0  0  0  0  0
   75.9462   53.4628   39.9599 H   0  0  0  0  0
   73.5938   52.7885   40.1292 H   0  0  0  0  0
   73.1139   54.4983   40.2602 H   0  0  0  0  0
   73.8748   53.8990   38.7658 H   0  0  0  0  0
   77.7177   54.8911   39.9026 H   0  0  0  0  0
   78.4968   57.1896   39.4104 H   0  0  0  0  0
   74.4789   58.6471   39.7948 H   0  0  0  0  0
   73.6995   56.3517   40.3067 H   0  0  0  0  0
   81.2238   48.9377   40.8480 H   0  0  0  0  0
   80.7732   48.5548   39.3326 H   0  0  0  0  0
  1  2  1  0  0  0
  1 24  1  0  0  0
  2  4  1  0  0  0
  4  3  1  0  0  0
  3 24  1  0  0  0
  4  5  1  0  0  0
  5  6  4  0  0  0
  5  8  4  0  0  0
  6  7  1  0  0  0
  6 10  4  0  0  0
  7 14  1  0  0  0
  8  9  4  0  0  0
  9 10  4  0  0  0
 10 11  1  0  0  0
 11 12  2  0  0  0
 11 13  1  0  0  0
 13 14  4  0  0  0
 14 15  1  0  0  0
 15 16  1  0  0  0
 16 17  1  0  0  0
 16 18  1  0  0  0
 18 19  4  0  0  0
 18 23  4  0  0  0
 19 20  4  0  0  0
 20 21  4  0  0  0
 21 22  4  0  0  0
 21 25  1  0  0  0
 22 23  4  0  0  0
  1 26  1  0  0  0
  1 27  1  0  0  0
  2 28  1  0  0  0
  2 29  1  0  0  0
  3 30  1  0  0  0
  3 31  1  0  0  0
  4 32  1  0  0  0
  7 33  1  0  0  0
  9 34  1  0  0  0
 15 35  1  0  0  0
 16 36  1  0  0  0
 17 37  1  0  0  0
 17 38  1  0  0  0
 17 39  1  0  0  0
 19 40  1  0  0  0
 20 41  1  0  0  0
 22 42  1  0  0  0
 23 43  1  0  0  0
 24 44  1  0  0  0
 24 45  1  0  0  0
M  END
$$$$
