3mt9_ligand
  -I-interpret- 

 44 45  0  0  0  0  0  0  0  0999 V2000
   19.3190   15.2560   56.1900 C   0  0  0  0  0
   18.8600   13.9520   55.7230 N   0  0  0  0  0
   18.6050   13.0120   58.2190 S   0  0  0  0  0
   20.6560   15.5480   55.4780 C   0  0  0  0  0
   18.1110   11.7920   55.9720 N   0  0  0  0  0
   21.6800   14.6140   55.8580 O   0  0  0  0  0
   21.0790   16.9990   55.7390 C   0  0  0  0  0
   18.0460   11.6980   54.7370 N   0  0  0  0  0
   22.2580   17.3340   55.0000 O   0  0  0  0  0
   19.9550   17.9390   55.2980 C   0  0  0  0  0
   17.3780   10.2120   48.5600 N   0  0  0  0  0
   20.2590   19.3020   55.6000 O   0  0  0  0  0
   18.6350   17.5950   55.9710 C   0  0  0  0  0
   18.3220   16.2070   55.7830 O   0  0  0  0  0
   17.5510   18.4470   55.3250 C   0  0  0  0  0
   16.2890   18.0220   55.8330 O   0  0  0  0  0
   18.5230   12.9310   56.5250 C   0  0  0  0  0
   17.5460   11.1880   47.8500 O   0  0  0  0  0
   17.6660   10.6290   54.2010 C   0  0  0  0  0
   17.0900    9.1390   48.0510 O   0  0  0  0  0
   17.5960   10.5330   52.7300 C   0  0  0  0  0
   18.2750   11.4590   51.9300 C   0  0  0  0  0
   18.2120   11.3610   50.5450 C   0  0  0  0  0
   17.4710   10.3280   49.9610 C   0  0  0  0  0
   16.7950    9.4050   50.7650 C   0  0  0  0  0
   16.8520    9.5060   52.1530 C   0  0  0  0  0
   19.4628   15.2990   57.2696 H   0  0  0  0  0
   18.7905   13.8066   54.7158 H   0  0  0  0  0
   20.5104   15.4201   54.4054 H   0  0  0  0  0
   21.3784   13.7202   55.6799 H   0  0  0  0  0
   21.2829   17.1058   56.8044 H   0  0  0  0  0
   22.9755   16.7533   55.2639 H   0  0  0  0  0
   19.8640   17.8091   54.2196 H   0  0  0  0  0
   19.5348   19.8619   55.3107 H   0  0  0  0  0
   18.7018   17.7896   57.0414 H   0  0  0  0  0
   17.5778   18.3295   54.2417 H   0  0  0  0  0
   17.7133   19.4995   55.5573 H   0  0  0  0  0
   15.5916   18.5491   55.4361 H   0  0  0  0  0
   16.6354   10.5057   54.5339 H   0  0  0  0  0
   18.4182    9.8946   54.4889 H   0  0  0  0  0
   18.8538   12.2579   52.3935 H   0  0  0  0  0
   18.7358   12.0833   49.9188 H   0  0  0  0  0
   16.2204    8.6022   50.3030 H   0  0  0  0  0
   16.3209    8.7901   52.7803 H   0  0  0  0  0
  2  1  1  0  0  0
  1  4  1  0  0  0
  1 14  1  0  0  0
 17  2  1  0  0  0
 17  3  2  0  0  0
  4  6  1  0  0  0
  4  7  1  0  0  0
  8  5  2  0  0  0
  5 17  1  0  0  0
  7  9  1  0  0  0
  7 10  1  0  0  0
 19  8  1  0  0  0
 10 12  1  0  0  0
 13 10  1  0  0  0
 11 18  2  0  0  0
 11 20  2  0  0  0
 24 11  1  0  0  0
 14 13  1  0  0  0
 13 15  1  0  0  0
 15 16  1  0  0  0
 21 19  1  0  0  0
 22 21  4  0  0  0
 21 26  4  0  0  0
 23 22  4  0  0  0
 23 24  4  0  0  0
 24 25  4  0  0  0
 25 26  4  0  0  0
  1 27  1  0  0  0
  2 28  1  0  0  0
  4 29  1  0  0  0
  6 30  1  0  0  0
  7 31  1  0  0  0
  9 32  1  0  0  0
 10 33  1  0  0  0
 12 34  1  0  0  0
 13 35  1  0  0  0
 15 36  1  0  0  0
 15 37  1  0  0  0
 16 38  1  0  0  0
 19 39  1  0  0  0
 19 40  1  0  0  0
 22 41  1  0  0  0
 23 42  1  0  0  0
 25 43  1  0  0  0
 26 44  1  0  0  0
M  END
$$$$
