### 
### Created by X-TOOL on Mon Sep 10 21:12:55 2018
### 

@<TRIPOS>MOLECULE
2fm5_ligand
   56    59     1     0     0
SMALL
GAST_HUCK


@<TRIPOS>ATOM
      1 F1         21.5730   -1.2390   35.9070 F         1 M99        -0.1743
      2 F2         23.6720   -1.2160   35.1300 F         1 M99        -0.1743
      3 C1         22.7400   -1.9060   35.8300 C.3       1 M99         0.3634
      4 O1         22.5080   -3.1830   35.2620 O.3       1 M99        -0.2646
      5 C12        23.1720   -8.1430   33.5760 C.3       1 M99        -0.0199
      6 C13        23.4820   -7.3260   32.3110 C.3       1 M99        -0.0199
      7 C8         22.6460   -6.7120   33.4370 C.3       1 M99         0.0789
      8 O2         22.3570   -5.5260   34.1430 O.3       1 M99        -0.3198
      9 C2         22.0600   -3.2340   33.9720 C.ar      1 M99         0.1203
     10 C3         22.0110   -4.4660   33.3780 C.ar      1 M99         0.1157
     11 C4         21.5720   -4.6060   32.0480 C.ar      1 M99        -0.0340
     12 C5         21.1690   -3.4830   31.3130 C.ar      1 M99        -0.0252
     13 C6         21.2190   -2.2340   31.9310 C.ar      1 M99        -0.0742
     14 C7         21.6630   -2.1010   33.2600 C.ar      1 M99        -0.0459
     15 C9         20.6540   -3.6260   29.8770 C.3       1 M99         0.1092
     16 C10        21.3440   -4.7560   29.1530 C.2       1 M99         0.1606
     17 C11        23.0300   -5.8580   27.9330 C.2       1 M99         0.0420
     18 N1         22.5580   -4.6480   28.5440 N.2       1 M99        -0.2360
     19 S1         20.7000   -6.2760   28.9500 S.3       1 M99         0.0313
     20 C14        22.0470   -6.8420   28.1490 C.2       1 M99         0.0584
     21 C15        22.1710   -8.2670   27.6610 C.3       1 M99         0.2211
     22 O3         21.0180   -9.0110   28.0770 O.3       1 M99        -0.4399
     23 C16        23.3970   -8.9570   28.3300 C.3       1 M99         0.3809
     24 F5         23.4970  -10.2440   27.9010 F         1 M99        -0.1827
     25 F6         23.2180   -8.9450   29.6730 F         1 M99        -0.1827
     26 F7         24.5390   -8.2950   28.0210 F         1 M99        -0.1827
     27 C17        22.2710   -8.2840   26.1000 C.3       1 M99         0.3809
     28 F8         21.1900   -7.6660   25.5750 F         1 M99        -0.1827
     29 F9         22.3100   -9.5600   25.6440 F         1 M99        -0.1827
     30 F10        23.3930   -7.6370   25.7070 F         1 M99        -0.1827
     31 C18        20.7990   -2.3170   29.0840 C.3       1 M99         0.0800
     32 C19        20.3240   -2.4100   27.6510 C.ar      1 M99         0.1136
     33 C20        20.9590   -1.6710   26.6680 C.ar      1 M99         0.0543
     34 C21        20.5310   -1.7570   25.3450 C.ar      1 M99         0.0470
     35 C22        19.2560   -3.2360   27.3060 C.ar      1 M99         0.1487
     36 C23        19.4710   -2.5770   24.9930 C.ar      1 M99         0.1196
     37 O4         17.8210   -4.1330   25.6520 O.2       1 M99        -0.1658
     38 N2         18.8330   -3.3200   25.9780 N.ar      1 M99        -0.0824
     39 H1         23.1235   -2.0465   36.8513 H         1 M99         0.1413
     40 H2         23.9726   -8.3675   34.2961 H         1 M99         0.0295
     41 H3         22.4754   -8.9928   33.5254 H         1 M99         0.0295
     42 H4         23.0073   -7.5908   31.3547 H         1 M99         0.0295
     43 H5         24.5046   -6.9656   32.1254 H         1 M99         0.0295
     44 H6         21.6010   -6.8165   33.1099 H         1 M99         0.0645
     45 H7         21.5455   -5.5880   31.5897 H         1 M99         0.0463
     46 H8         20.9114   -1.3527   31.3799 H         1 M99         0.0451
     47 H9         21.6965   -1.1238   33.7281 H         1 M99         0.0497
     48 H10        19.5821   -3.8669   29.9325 H         1 M99         0.0877
     49 H11        23.9716   -5.9899   27.4021 H         1 M99         0.1239
     50 H12        21.0937   -9.9073   27.7713 H         1 M99         0.1864
     51 H13        21.8614   -2.0318   29.0784 H         1 M99         0.0881
     52 H14        20.2128   -1.5376   29.5928 H         1 M99         0.0881
     53 H15        21.7898   -1.0249   26.9277 H         1 M99         0.1050
     54 H16        21.0337   -1.1749   24.5811 H         1 M99         0.1042
     55 H17        18.7519   -3.8152   28.0712 H         1 M99         0.1436
     56 H18        19.1436   -2.6379   23.9614 H         1 M99         0.1546
@<TRIPOS>BOND
     1    3    1 1  
     2    3    2 1  
     3    4    3 1  
     4    9    4 1  
     5    6    5 1  
     6    7    5 1  
     7    7    6 1  
     8    8    7 1  
     9   10    8 1  
    10    9   10 ar 
    11    9   14 ar 
    12   10   11 ar 
    13   11   12 ar 
    14   12   13 ar 
    15   12   15 1  
    16   13   14 ar 
    17   15   16 1  
    18   15   31 1  
    19   16   18 2  
    20   16   19 1  
    21   18   17 1  
    22   17   20 2  
    23   19   20 1  
    24   20   21 1  
    25   21   22 1  
    26   21   23 1  
    27   21   27 1  
    28   23   24 1  
    29   23   25 1  
    30   23   26 1  
    31   27   28 1  
    32   27   29 1  
    33   27   30 1  
    34   31   32 1  
    35   32   33 ar 
    36   32   35 ar 
    37   33   34 ar 
    38   34   36 ar 
    39   35   38 ar 
    40   36   38 ar 
    41   38   37 2  
    42    3   39 1  
    43    5   40 1  
    44    5   41 1  
    45    6   42 1  
    46    6   43 1  
    47    7   44 1  
    48   11   45 1  
    49   13   46 1  
    50   14   47 1  
    51   15   48 1  
    52   17   49 1  
    53   22   50 1  
    54   31   51 1  
    55   31   52 1  
    56   33   53 1  
    57   34   54 1  
    58   35   55 1  
    59   36   56 1  
@<TRIPOS>SUBSTRUCTURE
     1 M99         1

