2fm5_ligand
  -I-interpret- 

 56 59  0  0  0  0  0  0  0  0999 V2000
   21.5730   -1.2390   35.9070 F   0  0  0  0  0
   23.6720   -1.2160   35.1300 F   0  0  0  0  0
   22.7400   -1.9060   35.8300 C   0  0  0  0  0
   22.5080   -3.1830   35.2620 O   0  0  0  0  0
   23.1720   -8.1430   33.5760 C   0  0  0  0  0
   23.4820   -7.3260   32.3110 C   0  0  0  0  0
   22.6460   -6.7120   33.4370 C   0  0  0  0  0
   22.3570   -5.5260   34.1430 O   0  0  0  0  0
   22.0600   -3.2340   33.9720 C   0  0  0  0  0
   22.0110   -4.4660   33.3780 C   0  0  0  0  0
   21.5720   -4.6060   32.0480 C   0  0  0  0  0
   21.1690   -3.4830   31.3130 C   0  0  0  0  0
   21.2190   -2.2340   31.9310 C   0  0  0  0  0
   21.6630   -2.1010   33.2600 C   0  0  0  0  0
   20.6540   -3.6260   29.8770 C   0  0  0  0  0
   21.3440   -4.7560   29.1530 C   0  0  0  0  0
   23.0300   -5.8580   27.9330 C   0  0  0  0  0
   22.5580   -4.6480   28.5440 N   0  0  0  0  0
   20.7000   -6.2760   28.9500 S   0  0  0  0  0
   22.0470   -6.8420   28.1490 C   0  0  0  0  0
   22.1710   -8.2670   27.6610 C   0  0  0  0  0
   21.0180   -9.0110   28.0770 O   0  0  0  0  0
   23.3970   -8.9570   28.3300 C   0  0  0  0  0
   23.4970  -10.2440   27.9010 F   0  0  0  0  0
   23.2180   -8.9450   29.6730 F   0  0  0  0  0
   24.5390   -8.2950   28.0210 F   0  0  0  0  0
   22.2710   -8.2840   26.1000 C   0  0  0  0  0
   21.1900   -7.6660   25.5750 F   0  0  0  0  0
   22.3100   -9.5600   25.6440 F   0  0  0  0  0
   23.3930   -7.6370   25.7070 F   0  0  0  0  0
   20.7990   -2.3170   29.0840 C   0  0  0  0  0
   20.3240   -2.4100   27.6510 C   0  0  0  0  0
   20.9590   -1.6710   26.6680 C   0  0  0  0  0
   20.5310   -1.7570   25.3450 C   0  0  0  0  0
   19.2560   -3.2360   27.3060 C   0  0  0  0  0
   19.4710   -2.5770   24.9930 C   0  0  0  0  0
   17.8210   -4.1330   25.6520 O   0  0  0  0  0
   18.8330   -3.3200   25.9780 N   0  0  0  0  0
   23.1406   -2.0270   36.8365 H   0  0  0  0  0
   23.7027   -8.7527   34.3072 H   0  0  0  0  0
   22.7961   -9.1313   33.8406 H   0  0  0  0  0
   23.4362   -7.4443   31.2284 H   0  0  0  0  0
   24.3428   -7.0657   31.6951 H   0  0  0  0  0
   21.7751   -6.0827   33.6202 H   0  0  0  0  0
   21.5454   -5.5934   31.5872 H   0  0  0  0  0
   20.9097   -1.3478   31.3768 H   0  0  0  0  0
   21.6966   -1.1184   33.7307 H   0  0  0  0  0
   19.5918   -3.8605   29.9469 H   0  0  0  0  0
   23.9725   -5.9900   27.4016 H   0  0  0  0  0
   21.0945   -9.9167   27.7681 H   0  0  0  0  0
   21.8605   -2.0710   29.0574 H   0  0  0  0  0
   20.1826   -1.5679   29.5810 H   0  0  0  0  0
   21.7944   -1.0214   26.9291 H   0  0  0  0  0
   21.0365   -1.1717   24.5769 H   0  0  0  0  0
   18.7492   -3.8184   28.0754 H   0  0  0  0  0
   19.1418   -2.6383   23.9557 H   0  0  0  0  0
  3  1  1  0  0  0
  3  2  1  0  0  0
  4  3  1  0  0  0
  9  4  1  0  0  0
  6  5  1  0  0  0
  7  5  1  0  0  0
  7  6  1  0  0  0
  8  7  1  0  0  0
 10  8  1  0  0  0
  9 10  4  0  0  0
  9 14  4  0  0  0
 10 11  4  0  0  0
 11 12  4  0  0  0
 12 13  4  0  0  0
 12 15  1  0  0  0
 13 14  4  0  0  0
 15 16  1  0  0  0
 15 31  1  0  0  0
 16 18  4  0  0  0
 16 19  4  0  0  0
 18 17  4  0  0  0
 17 20  4  0  0  0
 19 20  4  0  0  0
 20 21  1  0  0  0
 21 22  1  0  0  0
 21 23  1  0  0  0
 21 27  1  0  0  0
 23 24  1  0  0  0
 23 25  1  0  0  0
 23 26  1  0  0  0
 27 28  1  0  0  0
 27 29  1  0  0  0
 27 30  1  0  0  0
 31 32  1  0  0  0
 32 33  4  0  0  0
 32 35  4  0  0  0
 33 34  4  0  0  0
 34 36  4  0  0  0
 35 38  4  0  0  0
 36 38  4  0  0  0
 38 37  2  0  0  0
  3 39  1  0  0  0
  5 40  1  0  0  0
  5 41  1  0  0  0
  6 42  1  0  0  0
  6 43  1  0  0  0
  7 44  1  0  0  0
 11 45  1  0  0  0
 13 46  1  0  0  0
 14 47  1  0  0  0
 15 48  1  0  0  0
 17 49  1  0  0  0
 22 50  1  0  0  0
 31 51  1  0  0  0
 31 52  1  0  0  0
 33 53  1  0  0  0
 34 54  1  0  0  0
 35 55  1  0  0  0
 36 56  1  0  0  0
M  END
$$$$
