5u7o_ligand
  -I-interpret- 

 57 61  0  0  0  0  0  0  0  0999 V2000
  195.4080  288.0590   27.5950 C   0  0  0  0  0
  197.8640  288.7450   27.9260 C   0  0  0  0  0
  197.4520  289.9140   28.8350 C   0  0  0  0  0
  195.4570  281.7720   29.2590 C   0  0  0  0  0
  197.6680  291.2400   28.4750 C   0  0  0  0  0
  196.8340  289.6390   30.0540 C   0  0  0  0  0
  195.7750  282.6020   30.3240 C   0  0  0  0  0
  196.4450  290.6710   30.8940 C   0  0  0  0  0
  196.6700  291.9820   30.5210 C   0  0  0  0  0
  196.8340  285.5250   27.3220 C   0  0  0  0  0
  197.2110  286.7480   26.5060 C   0  0  0  0  0
  194.9370  286.8250   28.3680 C   0  0  0  0  0
  194.5520  284.4740   27.6570 C   0  0  0  0  0
  195.0220  283.1610   27.0460 C   0  0  0  0  0
  195.1290  281.8910   27.8810 C   0  0  0  0  0
  194.9250  280.6270   27.4040 C   0  0  0  0  0
  195.4180  280.3780   29.5160 C   0  0  0  0  0
  197.2790  292.2640   29.3180 C   0  0  0  0  0
  196.0270  282.0050   31.5480 C   0  0  0  0  0
  196.3240  284.7610   31.2120 C   0  0  0  0  0
  195.6880  279.8780   30.7800 C   0  0  0  0  0
  195.9500  277.8670   32.1790 C   0  0  0  0  0
  195.4190  276.3220   30.7700 C   0  0  0  0  0
  195.1360  274.9520   30.1560 C   0  0  0  0  0
  195.4590  285.6100   27.7720 N   0  0  0  0  0
  196.8410  287.8700   27.3440 N   0  0  0  0  0
  195.1030  279.8230   28.3800 N   0  0  0  0  0
  195.9870  280.7040   31.7640 N   0  0  0  0  0
  195.6520  278.4480   31.0350 N   0  0  0  0  0
  195.8060  276.5490   32.0270 N   0  0  0  0  0
  195.3240  277.4830   30.1560 N   0  0  0  0  0
  193.4360  284.5690   28.0390 O   0  0  0  0  0
  199.0090  288.5430   27.6990 O   0  0  0  0  0
  195.3090  283.1300   25.8990 O   0  0  0  0  0
  195.8330  283.9920   30.1470 O   0  0  0  0  0
  195.2282  288.9699   28.1661 H   0  0  0  0  0
  194.8586  288.1675   26.6599 H   0  0  0  0  0
  198.1463  291.4728   27.5236 H   0  0  0  0  0
  196.6553  288.6050   30.3488 H   0  0  0  0  0
  195.9630  290.4486   31.8460 H   0  0  0  0  0
  196.3650  292.7949   31.1800 H   0  0  0  0  0
  197.4861  285.4695   28.1936 H   0  0  0  0  0
  196.9453  284.6383   26.6979 H   0  0  0  0  0
  196.7002  286.7706   25.5433 H   0  0  0  0  0
  198.2709  286.7593   26.2520 H   0  0  0  0  0
  193.8479  286.7889   28.3405 H   0  0  0  0  0
  195.2983  286.8952   29.3940 H   0  0  0  0  0
  194.6600  280.3558   26.3821 H   0  0  0  0  0
  197.4551  293.3002   29.0293 H   0  0  0  0  0
  196.2748  282.6530   32.3887 H   0  0  0  0  0
  195.6954  284.6078   32.0892 H   0  0  0  0  0
  197.3458  284.4560   31.4379 H   0  0  0  0  0
  196.3111  285.8148   30.9338 H   0  0  0  0  0
  196.2605  278.3750   33.0920 H   0  0  0  0  0
  196.0360  274.3392   30.2076 H   0  0  0  0  0
  194.3321  274.4664   30.7092 H   0  0  0  0  0
  194.8387  275.0763   29.1147 H   0  0  0  0  0
 12  1  1  0  0  0
  1 26  1  0  0  0
  2  3  1  0  0  0
 26  2  1  0  0  0
  2 33  2  0  0  0
  3  5  4  0  0  0
  3  6  4  0  0  0
  4  7  4  0  0  0
  4 15  4  0  0  0
 17  4  4  0  0  0
  5 18  4  0  0  0
  6  8  4  0  0  0
 19  7  4  0  0  0
  7 35  1  0  0  0
  8  9  4  0  0  0
 18  9  4  0  0  0
 10 11  1  0  0  0
 25 10  1  0  0  0
 11 26  1  0  0  0
 25 12  1  0  0  0
 14 13  1  0  0  0
 13 25  1  0  0  0
 13 32  2  0  0  0
 15 14  1  0  0  0
 14 34  2  0  0  0
 16 15  4  0  0  0
 27 16  4  0  0  0
 21 17  4  0  0  0
 17 27  4  0  0  0
 28 19  4  0  0  0
 35 20  1  0  0  0
 21 28  4  0  0  0
 29 21  1  0  0  0
 22 29  4  0  0  0
 30 22  4  0  0  0
 23 24  1  0  0  0
 23 30  4  0  0  0
 23 31  4  0  0  0
 29 31  4  0  0  0
  1 36  1  0  0  0
  1 37  1  0  0  0
  5 38  1  0  0  0
  6 39  1  0  0  0
  8 40  1  0  0  0
  9 41  1  0  0  0
 10 42  1  0  0  0
 10 43  1  0  0  0
 11 44  1  0  0  0
 11 45  1  0  0  0
 12 46  1  0  0  0
 12 47  1  0  0  0
 16 48  1  0  0  0
 18 49  1  0  0  0
 19 50  1  0  0  0
 20 51  1  0  0  0
 20 52  1  0  0  0
 20 53  1  0  0  0
 22 54  1  0  0  0
 24 55  1  0  0  0
 24 56  1  0  0  0
 24 57  1  0  0  0
M  END
$$$$
