5uoo_ligand
  -I-interpret- 

 53 58  0  0  0  0  0  0  0  0999 V2000
   14.4140   -3.3480    5.7420 C   0  0  0  0  0
   14.6130   -4.7900    5.6130 C   0  0  0  0  0
   15.5760   -5.6430    6.0470 C   0  0  0  0  0
   15.1670   -6.9470    5.5650 C   0  0  0  0  0
   15.8780   -8.2290    5.7490 C   0  0  0  0  0
   21.8370   -2.5460    8.1300 N   0  0  0  0  0
   16.9000   -5.9350    8.1160 C   0  0  0  0  0
   16.1950   -7.7020    9.6650 C   0  0  0  0  0
   17.9830   -5.5810    8.9460 C   0  0  0  0  0
   18.8840   -4.6240    8.4800 C   0  0  0  0  0
   20.0930   -4.0880    9.0220 C   0  0  0  0  0
   20.6360   -3.2120    8.0200 C   0  0  0  0  0
   18.7200   -4.0360    7.1960 C   0  0  0  0  0
   20.8300   -4.2150   10.2190 C   0  0  0  0  0
   18.1390   -3.6580   11.6180 C   0  0  0  0  0
   16.9280   -3.5420   12.2070 C   0  0  0  0  0
   20.6170   -6.8080   12.9410 C   0  0  0  0  0
   18.6460   -5.5570   13.0920 C   0  0  0  0  0
   17.3600   -5.3990   13.7080 C   0  0  0  0  0
   16.5130   -4.4150   13.2600 C   0  0  0  0  0
   21.1050   -6.0040   11.8530 C   0  0  0  0  0
   14.0090   -6.8070    4.9050 N   0  0  0  0  0
   13.6630   -5.4950    4.9230 O   0  0  0  0  0
   16.7330   -5.3220    6.8430 C   0  0  0  0  0
   17.6560   -4.3650    6.3680 C   0  0  0  0  0
   19.7990   -3.1660    6.9280 N   0  0  0  0  0
   22.4830   -2.8190    9.3130 C   0  0  0  0  0
   23.8670   -2.2400    9.4370 C   0  0  0  0  0
   22.0410   -3.5970   10.3690 N   0  0  0  0  0
   15.9560   -6.8890    8.5220 O   0  0  0  0  0
   20.3330   -4.9630   11.3940 C   0  0  0  0  0
   19.4510   -6.6200   13.5530 N   0  0  0  0  0
   19.0490   -4.6870   12.0230 C   0  0  0  0  0
   14.3457   -3.0849    6.7976 H   0  0  0  0  0
   15.2561   -2.8244    5.2895 H   0  0  0  0  0
   13.4923   -3.0629    5.2348 H   0  0  0  0  0
   16.8689   -8.1612    5.3000 H   0  0  0  0  0
   15.9740   -8.4401    6.8140 H   0  0  0  0  0
   15.3138   -9.0282    5.2683 H   0  0  0  0  0
   17.1027   -8.2855    9.5109 H   0  0  0  0  0
   16.3146   -7.0667   10.5426 H   0  0  0  0  0
   15.3502   -8.3744    9.8141 H   0  0  0  0  0
   18.1126   -6.0425    9.9249 H   0  0  0  0  0
   18.4252   -2.9630   10.8286 H   0  0  0  0  0
   16.2480   -2.7599   11.8692 H   0  0  0  0  0
   21.2459   -7.6279   13.2880 H   0  0  0  0  0
   17.0577   -6.0544   14.5248 H   0  0  0  0  0
   15.5255   -4.2999   13.7069 H   0  0  0  0  0
   22.0728   -6.2168   11.3989 H   0  0  0  0  0
   17.5374   -3.9022    5.3883 H   0  0  0  0  0
   24.4975   -2.6351    8.6404 H   0  0  0  0  0
   23.8139   -1.1544    9.3554 H   0  0  0  0  0
   24.2882   -2.5128   10.4046 H   0  0  0  0  0
  2  1  1  0  0  0
  3  2  4  0  0  0
  2 23  4  0  0  0
  3  4  4  0  0  0
 24  3  1  0  0  0
  4  5  1  0  0  0
  4 22  4  0  0  0
 12  6  4  0  0  0
  6 27  4  0  0  0
  9  7  4  0  0  0
  7 24  4  0  0  0
  7 30  1  0  0  0
 30  8  1  0  0  0
 10  9  4  0  0  0
 11 10  4  0  0  0
 10 13  4  0  0  0
 11 12  4  0  0  0
 14 11  4  0  0  0
 12 26  4  0  0  0
 13 25  4  0  0  0
 26 13  4  0  0  0
 14 29  4  0  0  0
 31 14  1  0  0  0
 15 16  4  0  0  0
 33 15  4  0  0  0
 20 16  4  0  0  0
 21 17  4  0  0  0
 17 32  4  0  0  0
 18 19  4  0  0  0
 32 18  4  0  0  0
 18 33  4  0  0  0
 19 20  4  0  0  0
 21 31  4  0  0  0
 22 23  4  0  0  0
 24 25  4  0  0  0
 27 28  1  0  0  0
 27 29  4  0  0  0
 31 33  4  0  0  0
  1 34  1  0  0  0
  1 35  1  0  0  0
  1 36  1  0  0  0
  5 37  1  0  0  0
  5 38  1  0  0  0
  5 39  1  0  0  0
  8 40  1  0  0  0
  8 41  1  0  0  0
  8 42  1  0  0  0
  9 43  1  0  0  0
 15 44  1  0  0  0
 16 45  1  0  0  0
 17 46  1  0  0  0
 19 47  1  0  0  0
 20 48  1  0  0  0
 21 49  1  0  0  0
 25 50  1  0  0  0
 28 51  1  0  0  0
 28 52  1  0  0  0
 28 53  1  0  0  0
M  END
$$$$
