### 
### Created by X-TOOL on Mon Sep 10 21:13:01 2018
### 

@<TRIPOS>MOLECULE
3jzq_ligand
  209   214     1     0     0
SMALL
GAST_HUCK


@<TRIPOS>ATOM
      1 N          28.7760   34.2360   -9.2220 N.4       1 GLU         0.2380
      2 CA         29.9890   34.3380   -8.3360 C.3       1 GLU         0.0665
      3 C          29.7990   33.5220   -7.0590 C.2       1 GLU         0.2269
      4 O          28.6810   33.1380   -6.7190 O.2       1 GLU        -0.3907
      5 CB         30.2130   35.7950   -7.9380 C.3       1 GLU         0.0194
      6 CG         30.4580   36.7410   -9.1000 C.3       1 GLU         0.0075
      7 CD         31.7500   36.4240   -9.8670 C.2       1 GLU         0.0351
      8 OE1        32.6730   35.8090   -9.2970 O.co2     1 GLU        -0.5690
      9 OE2        31.8400   36.8150  -11.0460 O.co2     1 GLU        -0.5690
     10 N          30.8800   33.2920   -6.3340 N.am      1 THR        -0.2586
     11 CA         30.7960   32.5440   -5.0990 C.3       1 THR         0.1566
     12 C          30.4140   33.4630   -3.9300 C.2       1 THR         0.2066
     13 O          30.4470   34.6980   -4.0410 O.2       1 THR        -0.3943
     14 CB         32.1150   31.9710   -4.7320 C.3       1 THR         0.0924
     15 OG1        32.9970   33.0490   -4.4100 O.3       1 THR        -0.3874
     16 CG2        32.6960   31.1650   -5.8990 C.3       1 THR        -0.0346
     17 N          30.0600   32.8420   -2.8080 N.am      1 PHE        -0.2619
     18 CA         29.7270   33.6070   -1.6160 C.3       1 PHE         0.1404
     19 C          30.9280   34.4770   -1.1970 C.2       1 PHE         0.2060
     20 O          30.7870   35.6690   -0.8440 O.2       1 PHE        -0.3942
     21 CB         29.3720   32.6810   -0.4440 C.3       1 PHE         0.0214
     22 CG         29.2040   33.4270    0.8580 C.ar      1 PHE        -0.0386
     23 CD1        28.0450   34.1870    1.1010 C.ar      1 PHE        -0.0601
     24 CD2        30.2320   33.4520    1.7930 C.ar      1 PHE        -0.0601
     25 CE1        27.9350   34.9680    2.2760 C.ar      1 PHE        -0.0686
     26 CE2        30.1260   34.2230    2.9590 C.ar      1 PHE        -0.0686
     27 CZ         28.9760   34.9790    3.1940 C.ar      1 PHE        -0.0687
     28 N          32.1120   33.8900   -1.2000 N.am      1 GLU        -0.2635
     29 CA         33.2850   34.6450   -0.8070 C.3       1 GLU         0.1325
     30 C          33.5100   35.9010   -1.6960 C.2       1 GLU         0.2041
     31 O          33.8300   36.9870   -1.2050 O.2       1 GLU        -0.3944
     32 CB         34.5070   33.7190   -0.8460 C.3       1 GLU        -0.0008
     33 CG         35.8200   34.3890   -0.5110 C.3       1 GLU         0.0044
     34 CD         36.4150   35.1670   -1.6910 C.2       1 GLU         0.0350
     35 OE1        36.3120   34.6980   -2.8540 O.co2     1 GLU        -0.5690
     36 OE2        37.0030   36.2470   -1.4520 O.co2     1 GLU        -0.5690
     37 N          33.3070   35.7530   -2.9940 N.am      1 HIS        -0.2625
     38 CA         33.4990   36.8580   -3.9280 C.3       1 HIS         0.1369
     39 C          32.5800   38.0300   -3.5680 C.2       1 HIS         0.2054
     40 O          33.0250   39.1760   -3.4760 O.2       1 HIS        -0.3942
     41 CB         33.2120   36.3740   -5.3550 C.3       1 HIS         0.0145
     42 CG         33.3270   37.4430   -6.4010 C.2       1 HIS        -0.0027
     43 ND1        34.4330   37.5800   -7.2100 N.2       1 HIS        -0.3252
     44 CD2        32.4740   38.4270   -6.7680 C.2       1 HIS         0.0291
     45 CE1        34.2580   38.6040   -8.0280 C.2       1 HIS         0.0907
     46 NE2        33.0790   39.1370   -7.7780 N.pl3     1 HIS        -0.2752
     47 N          31.2950   37.7330   -3.3950 N.am      1 TRP        -0.2625
     48 CA         30.3150   38.7510   -3.0250 C.3       1 TRP         0.1352
     49 C          30.6050   39.3670   -1.6620 C.2       1 TRP         0.2052
     50 O          30.6100   40.6060   -1.5020 O.2       1 TRP        -0.3942
     51 CB         28.9060   38.1560   -2.9520 C.3       1 TRP         0.0042
     52 CG         28.3460   37.7620   -4.2530 C.2       1 TRP        -0.0418
     53 CD1        28.2390   36.4910   -4.7620 C.2       1 TRP         0.0167
     54 CD2        27.7340   38.6310   -5.2030 C.ar      1 TRP        -0.0214
     55 NE1        27.5830   36.5230   -5.9770 N.pl3     1 TRP        -0.2890
     56 CE2        27.2680   37.8230   -6.2740 C.ar      1 TRP         0.0603
     57 CE3        27.5300   40.0210   -5.2570 C.ar      1 TRP        -0.0747
     58 CZ2        26.6000   38.3590   -7.3790 C.ar      1 TRP        -0.0443
     59 CZ3        26.8690   40.5540   -6.3550 C.ar      1 TRP        -0.0792
     60 CH2        26.4150   39.7240   -7.4060 C.ar      1 TRP        -0.0768
     61 N          30.8460   38.5180   -0.6700 N.am      1 TRP        -0.2626
     62 CA         31.0790   39.0190    0.6850 C.3       1 TRP         0.1352
     63 C          32.3330   39.8490    0.8670 C.2       1 TRP         0.2052
     64 O          32.3090   40.9020    1.5550 O.2       1 TRP        -0.3942
     65 CB         31.1430   37.8710    1.7090 C.3       1 TRP         0.0042
     66 CG         31.1040   38.3590    3.1440 C.2       1 TRP        -0.0418
     67 CD1        32.1670   38.6140    3.9750 C.2       1 TRP         0.0167
     68 CD2        29.9220   38.6770    3.8970 C.ar      1 TRP        -0.0214
     69 NE1        31.7150   39.0710    5.1980 N.pl3     1 TRP        -0.2890
     70 CE2        30.3430   39.1190    5.1730 C.ar      1 TRP         0.0603
     71 CE3        28.5460   38.6350    3.6110 C.ar      1 TRP        -0.0747
     72 CZ2        29.4330   39.5120    6.1700 C.ar      1 TRP        -0.0443
     73 CZ3        27.6460   39.0210    4.5980 C.ar      1 TRP        -0.0792
     74 CH2        28.0980   39.4560    5.8660 C.ar      1 TRP        -0.0768
     75 N          33.4300   39.3820    0.2700 N.am      1 SER        -0.2615
     76 CA         34.6970   40.0790    0.4400 C.3       1 SER         0.1539
     77 C          34.6510   41.4910   -0.1340 C.2       1 SER         0.2062
     78 O          35.4820   42.3120    0.2050 O.2       1 SER        -0.3943
     79 CB         35.8470   39.3100   -0.2300 C.3       1 SER         0.0843
     80 OG         35.6490   39.2800   -1.6220 O.3       1 SER        -0.3903
     81 N          33.6890   41.7730   -0.9950 N.am      1 GLN        -0.2635
     82 CA         33.6570   43.1010   -1.5710 C.3       1 GLN         0.1330
     83 C          32.5970   44.0360   -1.0050 C.2       1 GLN         0.2040
     84 O          32.3540   45.1210   -1.5400 O.2       1 GLN        -0.3944
     85 CB         33.5560   42.9630   -3.0730 C.3       1 GLN         0.0045
     86 CG         34.6900   42.0570   -3.5680 C.3       1 GLN         0.0412
     87 CD         34.9530   42.2520   -4.9980 C.2       1 GLN         0.1737
     88 OE1        35.5660   43.2510   -5.3900 O.2       1 GLN        -0.3973
     89 NE2        34.4710   41.3160   -5.8230 N.am      1 GLN        -0.3009
     90 N          31.9600   43.6270    0.0850 N.am      1 LEU        -0.2637
     91 CA         30.9740   44.5190    0.7200 C.3       1 LEU         0.1312
     92 C          31.7770   45.7380    1.1880 C.2       1 LEU         0.2039
     93 O          32.8650   45.5750    1.6870 O.2       1 LEU        -0.3944
     94 CB         30.3880   43.8580    1.9630 C.3       1 LEU        -0.0101
     95 CG         29.3840   42.7740    1.6320 C.3       1 LEU        -0.0425
     96 CD1        28.9070   42.1930    2.9090 C.3       1 LEU        -0.0625
     97 CD2        28.2460   43.3290    0.7640 C.3       1 LEU        -0.0625
     98 N          31.2300   46.9370    1.0660 N.am      1 LEU        -0.2637
     99 CA         31.9480   48.1610    1.4980 C.3       1 LEU         0.1312
    100 C          33.1270   48.5580    0.6090 C.2       1 LEU         0.2034
    101 O          34.0690   49.2430    1.0570 O.2       1 LEU        -0.3944
    102 CB         32.4220   48.0460    2.9540 C.3       1 LEU        -0.0101
    103 CG         31.2630   47.8680    3.9640 C.3       1 LEU        -0.0425
    104 CD1        31.8590   47.7030    5.3700 C.3       1 LEU        -0.0625
    105 CD2        30.2960   49.0650    3.9220 C.3       1 LEU        -0.0625
    106 N          33.0530   48.1240   -0.6490 N.am      1 SER        -0.2672
    107 CA         34.0420   48.4290   -1.6820 C.3       1 SER         0.1173
    108 C          33.3340   49.0880   -2.8580 C.2       1 SER         0.0623
    109 O          32.1130   49.3250   -2.7380 O.co2     1 SER        -0.5665
    110 CB         34.7590   47.1720   -2.1660 C.3       1 SER         0.0789
    111 OG         35.7310   46.7590   -1.2050 O.3       1 SER        -0.3910
    112 OXT        34.0010   49.3710   -3.8830 O.co2     1 SER        -0.5665
    113 H1         28.9231   34.7810  -10.0571 H         1 GLU         0.2015
    114 H2         27.9696   34.5870   -8.7295 H         1 GLU         0.2015
    115 H3         28.6231   33.2717   -9.4727 H         1 GLU         0.2015
    116 H4         30.8673   33.9639   -8.8825 H         1 GLU         0.1099
    117 H5         31.0873   35.8374   -7.2718 H         1 GLU         0.0363
    118 H6         29.3215   36.1427   -7.3956 H         1 GLU         0.0363
    119 H7         30.5248   37.7670   -8.7091 H         1 GLU         0.0434
    120 H8         29.6097   36.6684   -9.7965 H         1 GLU         0.0434
    121 H9         31.7656   33.6390   -6.6428 H         1 THR         0.1885
    122 H10        30.0515   31.7423   -5.2128 H         1 THR         0.0826
    123 H11        31.9993   31.3125   -3.8585 H         1 THR         0.0639
    124 H12        33.8480   32.7001   -4.1721 H         1 THR         0.2101
    125 H13        33.6719   30.7493   -5.6076 H         1 THR         0.0257
    126 H14        32.8234   31.8227   -6.7714 H         1 THR         0.0257
    127 H15        32.0098   30.3444   -6.1555 H         1 THR         0.0257
    128 H16        30.0225   31.8430   -2.7837 H         1 PHE         0.1885
    129 H17        28.8661   34.2546   -1.8384 H         1 PHE         0.0823
    130 H18        30.1768   31.9408   -0.3241 H         1 PHE         0.0474
    131 H19        28.4297   32.1636   -0.6772 H         1 PHE         0.0474
    132 H20        27.2319   34.1742    0.3842 H         1 PHE         0.0557
    133 H21        31.1280   32.8674    1.6183 H         1 PHE         0.0557
    134 H22        27.0420   35.5549    2.4582 H         1 PHE         0.0599
    135 H23        30.9370   34.2322    3.6782 H         1 PHE         0.0599
    136 H24        28.8960   35.5759    4.0953 H         1 PHE         0.0559
    137 H25        32.1980   32.9314   -1.4716 H         1 GLU         0.1883
    138 H26        33.1409   34.9882    0.2281 H         1 GLU         0.0801
    139 H27        34.5859   33.2988   -1.8595 H         1 GLU         0.0330
    140 H28        34.3435   32.9058   -0.1235 H         1 GLU         0.0330
    141 H29        36.5392   33.6159   -0.2028 H         1 GLU         0.0433
    142 H30        35.6541   35.0883    0.3217 H         1 GLU         0.0433
    143 H31        33.0150   34.8630   -3.3441 H         1 HIS         0.1885
    144 H32        34.5437   37.1973   -3.8693 H         1 HIS         0.0817
    145 H33        32.1886   35.9718   -5.3837 H         1 HIS         0.0420
    146 H34        33.9271   35.5745   -5.5986 H         1 HIS         0.0420
    147 H35        31.4905   38.6207   -6.3423 H         1 HIS         0.0729
    148 H36        34.9669   38.9481   -8.7797 H         1 HIS         0.1199
    149 H37        32.6762   39.9529   -8.2608 H         1 HIS         0.2361
    150 H38        30.9921   36.7884   -3.5215 H         1 TRP         0.1884
    151 H39        30.3365   39.5426   -3.7884 H         1 TRP         0.0815
    152 H40        28.2384   38.9061   -2.5029 H         1 TRP         0.0397
    153 H41        28.9417   37.2646   -2.3085 H         1 TRP         0.0397
    154 H42        28.6158   35.5907   -4.2789 H         1 TRP         0.0795
    155 H43        27.3663   35.7044   -6.5633 H         1 TRP         0.2216
    156 H44        27.8817   40.6632   -4.4576 H         1 TRP         0.0540
    157 H45        26.2418   37.7258   -8.1826 H         1 TRP         0.0541
    158 H46        26.6981   41.6232   -6.4076 H         1 TRP         0.0510
    159 H47        25.9092   40.1725   -8.2534 H         1 TRP         0.0530
    160 H48        30.8683   37.5344   -0.8492 H         1 TRP         0.1884
    161 H49        30.2200   39.6584    0.9365 H         1 TRP         0.0815
    162 H50        32.0781   37.3131    1.5531 H         1 TRP         0.0397
    163 H51        30.2852   37.2030    1.5418 H         1 TRP         0.0397
    164 H52        33.2139   38.4761    3.7088 H         1 TRP         0.0795
    165 H53        32.3096   39.3327    5.9973 H         1 TRP         0.2216
    166 H54        28.1935   38.3079    2.6395 H         1 TRP         0.0540
    167 H55        29.7746   39.8468    7.1428 H         1 TRP         0.0541
    168 H56        26.5821   38.9881    4.3928 H         1 TRP         0.0510
    169 H57        27.3716   39.7518    6.6143 H         1 TRP         0.0530
    170 H58        33.3827   38.5564   -0.2922 H         1 SER         0.1884
    171 H59        34.9036   40.1487    1.5182 H         1 SER         0.0823
    172 H60        35.8737   38.2810    0.1578 H         1 SER         0.0606
    173 H61        36.8007   39.8108   -0.0070 H         1 SER         0.0606
    174 H62        34.8256   38.8470   -1.8143 H         1 SER         0.2097
    175 H63        33.0027   41.0888   -1.2417 H         1 GLN         0.1883
    176 H64        34.6268   43.5690   -1.3466 H         1 GLN         0.0801
    177 H65        33.6448   43.9543   -3.5413 H         1 GLN         0.0337
    178 H66        32.5857   42.5177   -3.3381 H         1 GLN         0.0337
    179 H67        34.4087   41.0074   -3.3969 H         1 GLN         0.0504
    180 H68        35.6045   42.2885   -3.0022 H         1 GLN         0.0504
    181 H69        34.6185   41.3945   -6.8089 H         1 GLN         0.1814
    182 H70        33.9631   40.5377   -5.4539 H         1 GLN         0.1814
    183 H71        32.1471   42.7237    0.4710 H         1 LEU         0.1883
    184 H72        30.1781   44.7995    0.0144 H         1 LEU         0.0800
    185 H73        29.8872   44.6282    2.5679 H         1 LEU         0.0315
    186 H74        31.2086   43.4117    2.5439 H         1 LEU         0.0315
    187 H75        29.8903   41.9838    1.0582 H         1 LEU         0.0298
    188 H76        28.1739   41.4000    2.6998 H         1 LEU         0.0232
    189 H77        28.4336   42.9792    3.5154 H         1 LEU         0.0232
    190 H78        29.7593   41.7684    3.4597 H         1 LEU         0.0232
    191 H79        28.6628   43.7442   -0.1654 H         1 LEU         0.0232
    192 H80        27.7175   44.1211    1.3148 H         1 LEU         0.0232
    193 H81        27.5422   42.5194    0.5206 H         1 LEU         0.0232
    194 H82        30.3136   47.0195    0.6744 H         1 LEU         0.1883
    195 H83        31.2200   48.9842    1.4499 H         1 LEU         0.0800
    196 H84        32.9743   48.9609    3.2145 H         1 LEU         0.0315
    197 H85        33.0921   47.1775    3.0353 H         1 LEU         0.0315
    198 H86        30.7020   46.9582    3.7043 H         1 LEU         0.0298
    199 H87        31.0462   47.5753    6.1001 H         1 LEU         0.0232
    200 H88        32.4454   48.5974    5.6270 H         1 LEU         0.0232
    201 H89        32.5121   46.8181    5.3899 H         1 LEU         0.0232
    202 H90        29.8809   49.1656    2.9083 H         1 LEU         0.0232
    203 H91        30.8383   49.9840    4.1890 H         1 LEU         0.0232
    204 H92        29.4778   48.9007    4.6386 H         1 LEU         0.0232
    205 H93        32.2717   47.5537   -0.9025 H         1 SER         0.1876
    206 H94        34.7868   49.1245   -1.2679 H         1 SER         0.0749
    207 H95        35.2603   47.3846   -3.1218 H         1 SER         0.0599
    208 H96        34.0239   46.3663   -2.3088 H         1 SER         0.0599
    209 H97        35.2993   46.5734   -0.3793 H         1 SER         0.2096
@<TRIPOS>BOND
     1    1    2 1  
     2    2    3 1  
     3    2    5 1  
     4    3    4 2  
     5    3   10 am 
     6    5    6 1  
     7    6    7 1  
     8    7    8 ar 
     9    7    9 ar 
    10   10   11 1  
    11   11   12 1  
    12   11   14 1  
    13   12   13 2  
    14   12   17 am 
    15   14   15 1  
    16   14   16 1  
    17   17   18 1  
    18   18   19 1  
    19   18   21 1  
    20   19   20 2  
    21   19   28 am 
    22   21   22 1  
    23   22   23 ar 
    24   22   24 ar 
    25   23   25 ar 
    26   24   26 ar 
    27   25   27 ar 
    28   26   27 ar 
    29   28   29 1  
    30   29   30 1  
    31   29   32 1  
    32   30   31 2  
    33   30   37 am 
    34   32   33 1  
    35   33   34 1  
    36   34   35 ar 
    37   34   36 ar 
    38   37   38 1  
    39   38   39 1  
    40   38   41 1  
    41   39   40 2  
    42   39   47 am 
    43   41   42 1  
    44   42   43 1  
    45   42   44 2  
    46   43   45 2  
    47   44   46 1  
    48   45   46 1  
    49   47   48 1  
    50   48   49 1  
    51   48   51 1  
    52   49   50 2  
    53   49   61 am 
    54   51   52 1  
    55   52   53 2  
    56   52   54 1  
    57   53   55 1  
    58   54   56 ar 
    59   54   57 ar 
    60   55   56 1  
    61   56   58 ar 
    62   57   59 ar 
    63   58   60 ar 
    64   59   60 ar 
    65   61   62 1  
    66   62   63 1  
    67   62   65 1  
    68   63   64 2  
    69   63   75 am 
    70   65   66 1  
    71   66   67 2  
    72   66   68 1  
    73   67   69 1  
    74   68   70 ar 
    75   68   71 ar 
    76   69   70 1  
    77   70   72 ar 
    78   71   73 ar 
    79   72   74 ar 
    80   73   74 ar 
    81   75   76 1  
    82   76   77 1  
    83   76   79 1  
    84   77   78 2  
    85   77   81 am 
    86   79   80 1  
    87   81   82 1  
    88   82   83 1  
    89   82   85 1  
    90   83   84 2  
    91   83   90 am 
    92   85   86 1  
    93   86   87 1  
    94   87   88 2  
    95   87   89 am 
    96   90   91 1  
    97   91   92 1  
    98   91   94 1  
    99   92   93 2  
   100   92   98 am 
   101   94   95 1  
   102   95   96 1  
   103   95   97 1  
   104   98   99 1  
   105   99  100 1  
   106   99  102 1  
   107  100  101 2  
   108  100  106 am 
   109  102  103 1  
   110  103  104 1  
   111  103  105 1  
   112  106  107 1  
   113  107  108 1  
   114  107  110 1  
   115  108  109 ar 
   116  108  112 ar 
   117  110  111 1  
   118    1  113 1  
   119    1  114 1  
   120    1  115 1  
   121    2  116 1  
   122    5  117 1  
   123    5  118 1  
   124    6  119 1  
   125    6  120 1  
   126   10  121 1  
   127   11  122 1  
   128   14  123 1  
   129   15  124 1  
   130   16  125 1  
   131   16  126 1  
   132   16  127 1  
   133   17  128 1  
   134   18  129 1  
   135   21  130 1  
   136   21  131 1  
   137   23  132 1  
   138   24  133 1  
   139   25  134 1  
   140   26  135 1  
   141   27  136 1  
   142   28  137 1  
   143   29  138 1  
   144   32  139 1  
   145   32  140 1  
   146   33  141 1  
   147   33  142 1  
   148   37  143 1  
   149   38  144 1  
   150   41  145 1  
   151   41  146 1  
   152   44  147 1  
   153   45  148 1  
   154   46  149 1  
   155   47  150 1  
   156   48  151 1  
   157   51  152 1  
   158   51  153 1  
   159   53  154 1  
   160   55  155 1  
   161   57  156 1  
   162   58  157 1  
   163   59  158 1  
   164   60  159 1  
   165   61  160 1  
   166   62  161 1  
   167   65  162 1  
   168   65  163 1  
   169   67  164 1  
   170   69  165 1  
   171   71  166 1  
   172   72  167 1  
   173   73  168 1  
   174   74  169 1  
   175   75  170 1  
   176   76  171 1  
   177   79  172 1  
   178   79  173 1  
   179   80  174 1  
   180   81  175 1  
   181   82  176 1  
   182   85  177 1  
   183   85  178 1  
   184   86  179 1  
   185   86  180 1  
   186   89  181 1  
   187   89  182 1  
   188   90  183 1  
   189   91  184 1  
   190   94  185 1  
   191   94  186 1  
   192   95  187 1  
   193   96  188 1  
   194   96  189 1  
   195   96  190 1  
   196   97  191 1  
   197   97  192 1  
   198   97  193 1  
   199   98  194 1  
   200   99  195 1  
   201  102  196 1  
   202  102  197 1  
   203  103  198 1  
   204  104  199 1  
   205  104  200 1  
   206  104  201 1  
   207  105  202 1  
   208  105  203 1  
   209  105  204 1  
   210  106  205 1  
   211  107  206 1  
   212  110  207 1  
   213  110  208 1  
   214  111  209 1  
@<TRIPOS>SUBSTRUCTURE
     1 GLU         1

