3jzq_ligand
  -I-interpret- 

209214  0  0  0  0  0  0  0  0999 V2000
   28.7760   34.2360   -9.2220 N   0  3  0  0  0
   29.9890   34.3380   -8.3360 C   0  0  0  0  0
   29.7990   33.5220   -7.0590 C   0  0  0  0  0
   28.6810   33.1380   -6.7190 O   0  0  0  0  0
   30.2130   35.7950   -7.9380 C   0  0  0  0  0
   30.4580   36.7410   -9.1000 C   0  0  0  0  0
   31.7500   36.4240   -9.8670 C   0  0  0  0  0
   32.6730   35.8090   -9.2970 O   0  0  0  0  0
   31.8400   36.8150  -11.0460 O   0  0  0  0  0
   30.8800   33.2920   -6.3340 N   0  0  0  0  0
   30.7960   32.5440   -5.0990 C   0  0  0  0  0
   30.4140   33.4630   -3.9300 C   0  0  0  0  0
   30.4470   34.6980   -4.0410 O   0  0  0  0  0
   32.1150   31.9710   -4.7320 C   0  0  0  0  0
   32.9970   33.0490   -4.4100 O   0  0  0  0  0
   32.6960   31.1650   -5.8990 C   0  0  0  0  0
   30.0600   32.8420   -2.8080 N   0  0  0  0  0
   29.7270   33.6070   -1.6160 C   0  0  0  0  0
   30.9280   34.4770   -1.1970 C   0  0  0  0  0
   30.7870   35.6690   -0.8440 O   0  0  0  0  0
   29.3720   32.6810   -0.4440 C   0  0  0  0  0
   29.2040   33.4270    0.8580 C   0  0  0  0  0
   28.0450   34.1870    1.1010 C   0  0  0  0  0
   30.2320   33.4520    1.7930 C   0  0  0  0  0
   27.9350   34.9680    2.2760 C   0  0  0  0  0
   30.1260   34.2230    2.9590 C   0  0  0  0  0
   28.9760   34.9790    3.1940 C   0  0  0  0  0
   32.1120   33.8900   -1.2000 N   0  0  0  0  0
   33.2850   34.6450   -0.8070 C   0  0  0  0  0
   33.5100   35.9010   -1.6960 C   0  0  0  0  0
   33.8300   36.9870   -1.2050 O   0  0  0  0  0
   34.5070   33.7190   -0.8460 C   0  0  0  0  0
   35.8200   34.3890   -0.5110 C   0  0  0  0  0
   36.4150   35.1670   -1.6910 C   0  0  0  0  0
   36.3120   34.6980   -2.8540 O   0  0  0  0  0
   37.0030   36.2470   -1.4520 O   0  0  0  0  0
   33.3070   35.7530   -2.9940 N   0  0  0  0  0
   33.4990   36.8580   -3.9280 C   0  0  0  0  0
   32.5800   38.0300   -3.5680 C   0  0  0  0  0
   33.0250   39.1760   -3.4760 O   0  0  0  0  0
   33.2120   36.3740   -5.3550 C   0  0  0  0  0
   33.3270   37.4430   -6.4010 C   0  0  0  0  0
   34.4330   37.5800   -7.2100 N   0  0  0  0  0
   32.4740   38.4270   -6.7680 C   0  0  0  0  0
   34.2580   38.6040   -8.0280 C   0  0  0  0  0
   33.0790   39.1370   -7.7780 N   0  0  0  0  0
   31.2950   37.7330   -3.3950 N   0  0  0  0  0
   30.3150   38.7510   -3.0250 C   0  0  0  0  0
   30.6050   39.3670   -1.6620 C   0  0  0  0  0
   30.6100   40.6060   -1.5020 O   0  0  0  0  0
   28.9060   38.1560   -2.9520 C   0  0  0  0  0
   28.3460   37.7620   -4.2530 C   0  0  0  0  0
   28.2390   36.4910   -4.7620 C   0  0  0  0  0
   27.7340   38.6310   -5.2030 C   0  0  0  0  0
   27.5830   36.5230   -5.9770 N   0  0  0  0  0
   27.2680   37.8230   -6.2740 C   0  0  0  0  0
   27.5300   40.0210   -5.2570 C   0  0  0  0  0
   26.6000   38.3590   -7.3790 C   0  0  0  0  0
   26.8690   40.5540   -6.3550 C   0  0  0  0  0
   26.4150   39.7240   -7.4060 C   0  0  0  0  0
   30.8460   38.5180   -0.6700 N   0  0  0  0  0
   31.0790   39.0190    0.6850 C   0  0  0  0  0
   32.3330   39.8490    0.8670 C   0  0  0  0  0
   32.3090   40.9020    1.5550 O   0  0  0  0  0
   31.1430   37.8710    1.7090 C   0  0  0  0  0
   31.1040   38.3590    3.1440 C   0  0  0  0  0
   32.1670   38.6140    3.9750 C   0  0  0  0  0
   29.9220   38.6770    3.8970 C   0  0  0  0  0
   31.7150   39.0710    5.1980 N   0  0  0  0  0
   30.3430   39.1190    5.1730 C   0  0  0  0  0
   28.5460   38.6350    3.6110 C   0  0  0  0  0
   29.4330   39.5120    6.1700 C   0  0  0  0  0
   27.6460   39.0210    4.5980 C   0  0  0  0  0
   28.0980   39.4560    5.8660 C   0  0  0  0  0
   33.4300   39.3820    0.2700 N   0  0  0  0  0
   34.6970   40.0790    0.4400 C   0  0  0  0  0
   34.6510   41.4910   -0.1340 C   0  0  0  0  0
   35.4820   42.3120    0.2050 O   0  0  0  0  0
   35.8470   39.3100   -0.2300 C   0  0  0  0  0
   35.6490   39.2800   -1.6220 O   0  0  0  0  0
   33.6890   41.7730   -0.9950 N   0  0  0  0  0
   33.6570   43.1010   -1.5710 C   0  0  0  0  0
   32.5970   44.0360   -1.0050 C   0  0  0  0  0
   32.3540   45.1210   -1.5400 O   0  0  0  0  0
   33.5560   42.9630   -3.0730 C   0  0  0  0  0
   34.6900   42.0570   -3.5680 C   0  0  0  0  0
   34.9530   42.2520   -4.9980 C   0  0  0  0  0
   35.5660   43.2510   -5.3900 O   0  0  0  0  0
   34.4710   41.3160   -5.8230 N   0  0  0  0  0
   31.9600   43.6270    0.0850 N   0  0  0  0  0
   30.9740   44.5190    0.7200 C   0  0  0  0  0
   31.7770   45.7380    1.1880 C   0  0  0  0  0
   32.8650   45.5750    1.6870 O   0  0  0  0  0
   30.3880   43.8580    1.9630 C   0  0  0  0  0
   29.3840   42.7740    1.6320 C   0  0  0  0  0
   28.9070   42.1930    2.9090 C   0  0  0  0  0
   28.2460   43.3290    0.7640 C   0  0  0  0  0
   31.2300   46.9370    1.0660 N   0  0  0  0  0
   31.9480   48.1610    1.4980 C   0  0  0  0  0
   33.1270   48.5580    0.6090 C   0  0  0  0  0
   34.0690   49.2430    1.0570 O   0  0  0  0  0
   32.4220   48.0460    2.9540 C   0  0  0  0  0
   31.2630   47.8680    3.9640 C   0  0  0  0  0
   31.8590   47.7030    5.3700 C   0  0  0  0  0
   30.2960   49.0650    3.9220 C   0  0  0  0  0
   33.0530   48.1240   -0.6490 N   0  0  0  0  0
   34.0420   48.4290   -1.6820 C   0  0  0  0  0
   33.3340   49.0880   -2.8580 C   0  0  0  0  0
   32.1130   49.3250   -2.7380 O   0  0  0  0  0
   34.7590   47.1720   -2.1660 C   0  0  0  0  0
   35.7310   46.7590   -1.2050 O   0  0  0  0  0
   34.0010   49.3710   -3.8830 O   0  0  0  0  0
   28.6299   33.2615   -9.4855 H   0  0  0  0  0
   27.9584   34.5794   -8.7180 H   0  0  0  0  0
   28.9208   34.7982  -10.0607 H   0  0  0  0  0
   30.8446   33.9533   -8.8911 H   0  0  0  0  0
   31.1075   35.8194   -7.3156 H   0  0  0  0  0
   29.3025   36.1315   -7.4421 H   0  0  0  0  0
   30.5502   37.7487   -8.6949 H   0  0  0  0  0
   29.6246   36.6374   -9.7948 H   0  0  0  0  0
   32.4082   35.5976   -8.3988 H   0  0  0  0  0
   31.7833   33.6459   -6.6489 H   0  0  0  0  0
   30.0513   31.7654   -5.2642 H   0  0  0  0  0
   31.9982   31.3023   -3.8792 H   0  0  0  0  0
   33.8570   32.6965   -4.1696 H   0  0  0  0  0
   32.0152   30.3523   -6.1522 H   0  0  0  0  0
   32.8217   31.8178   -6.7628 H   0  0  0  0  0
   33.6629   30.7537   -5.6091 H   0  0  0  0  0
   30.0218   31.8230   -2.7832 H   0  0  0  0  0
   28.8666   34.2320   -1.8552 H   0  0  0  0  0
   30.1891   31.9705   -0.3195 H   0  0  0  0  0
   28.4241   32.1956   -0.6763 H   0  0  0  0  0
   27.2274   34.1741    0.3802 H   0  0  0  0  0
   31.1329   32.8641    1.6173 H   0  0  0  0  0
   27.0371   35.5581    2.4592 H   0  0  0  0  0
   30.9415   34.2323    3.6822 H   0  0  0  0  0
   28.8955   35.5792    4.1003 H   0  0  0  0  0
   32.1997   32.9123   -1.4770 H   0  0  0  0  0
   33.1308   35.0151    0.2066 H   0  0  0  0  0
   34.5917   33.3492   -1.8679 H   0  0  0  0  0
   34.3440   32.9475   -0.0934 H   0  0  0  0  0
   36.5299   33.6088   -0.2363 H   0  0  0  0  0
   35.6339   35.0993    0.2946 H   0  0  0  0  0
   35.8295   33.8687   -2.8218 H   0  0  0  0  0
   33.0092   34.8452   -3.3511 H   0  0  0  0  0
   34.5308   37.2037   -3.8658 H   0  0  0  0  0
   32.1826   36.0160   -5.3725 H   0  0  0  0  0
   33.9539   35.6112   -5.5914 H   0  0  0  0  0
   31.4896   38.6209   -6.3419 H   0  0  0  0  0
   34.9675   38.9484   -8.7804 H   0  0  0  0  0
   30.9860   36.7695   -3.5240 H   0  0  0  0  0
   30.3812   39.5160   -3.7987 H   0  0  0  0  0
   28.2535   38.9273   -2.5429 H   0  0  0  0  0
   28.9707   37.2532   -2.3446 H   0  0  0  0  0
   28.6162   35.5899   -4.2785 H   0  0  0  0  0
   27.8836   40.6668   -4.4532 H   0  0  0  0  0
   26.2399   37.7223   -8.1871 H   0  0  0  0  0
   26.6972   41.6291   -6.4079 H   0  0  0  0  0
   25.9064   40.1750   -8.2581 H   0  0  0  0  0
   30.8688   37.5148   -0.8528 H   0  0  0  0  0
   30.2220   39.6707    0.8548 H   0  0  0  0  0
   32.0861   37.3449    1.5614 H   0  0  0  0  0
   30.2732   37.2336    1.5499 H   0  0  0  0  0
   33.2149   38.4760    3.7086 H   0  0  0  0  0
   28.1916   38.3061    2.6341 H   0  0  0  0  0
   29.7765   39.8486    7.1482 H   0  0  0  0  0
   26.5762   38.9880    4.3917 H   0  0  0  0  0
   27.3676   39.7534    6.6184 H   0  0  0  0  0
   33.3818   38.5399   -0.3035 H   0  0  0  0  0
   34.8729   40.1403    1.5140 H   0  0  0  0  0
   35.8716   38.2900    0.1537 H   0  0  0  0  0
   36.7913   39.8079   -0.0099 H   0  0  0  0  0
   36.3692   38.7990   -2.0362 H   0  0  0  0  0
   32.9890   41.0751   -1.2466 H   0  0  0  0  0
   34.5866   43.5958   -1.2899 H   0  0  0  0  0
   33.6397   43.9448   -3.5390 H   0  0  0  0  0
   32.5935   42.5256   -3.3382 H   0  0  0  0  0
   34.3951   41.0195   -3.4107 H   0  0  0  0  0
   35.5955   42.3056   -3.0146 H   0  0  0  0  0
   34.6024   41.4075   -6.8304 H   0  0  0  0  0
   33.9721   40.5108   -5.4448 H   0  0  0  0  0
   32.1508   42.7056    0.4787 H   0  0  0  0  0
   30.1655   44.7626    0.0307 H   0  0  0  0  0
   29.8722   44.6267    2.5385 H   0  0  0  0  0
   31.2077   43.3972    2.5143 H   0  0  0  0  0
   29.8450   41.9843    1.0387 H   0  0  0  0  0
   29.7524   41.7727    3.4537 H   0  0  0  0  0
   28.4382   42.9730    3.5089 H   0  0  0  0  0
   28.1807   41.4074    2.7004 H   0  0  0  0  0
   27.7360   44.1275    1.3029 H   0  0  0  0  0
   28.6581   43.7218   -0.1655 H   0  0  0  0  0
   27.5386   42.5304    0.5404 H   0  0  0  0  0
   30.2952   47.0211    0.6666 H   0  0  0  0  0
   31.2084   48.9561    1.4042 H   0  0  0  0  0
   32.9387   48.9721    3.2059 H   0  0  0  0  0
   33.0581   47.1636    3.0242 H   0  0  0  0  0
   30.6882   46.9809    3.6980 H   0  0  0  0  0
   32.5059   46.8259    5.3884 H   0  0  0  0  0
   32.4398   48.5899    5.6234 H   0  0  0  0  0
   31.0527   47.5765    6.0925 H   0  0  0  0  0
   30.8378   49.9771    4.1721 H   0  0  0  0  0
   29.8739   49.1545    2.9210 H   0  0  0  0  0
   29.4939   48.9080    4.6432 H   0  0  0  0  0
   32.2560   47.5423   -0.9075 H   0  0  0  0  0
   34.7901   49.0970   -1.2552 H   0  0  0  0  0
   35.2593   47.3873   -3.1102 H   0  0  0  0  0
   34.0289   46.3740   -2.3012 H   0  0  0  0  0
   36.1750   45.9683   -1.5201 H   0  0  0  0  0
   34.9131   49.1003   -3.7547 H   0  0  0  0  0
  1  2  1  0  0  0
  2  3  1  0  0  0
  2  5  1  0  0  0
  3  4  2  0  0  0
  3 10  1  0  0  0
  5  6  1  0  0  0
  6  7  1  0  0  0
  7  8  1  0  0  0
  7  9  2  0  0  0
 10 11  1  0  0  0
 11 12  1  0  0  0
 11 14  1  0  0  0
 12 13  2  0  0  0
 12 17  1  0  0  0
 14 15  1  0  0  0
 14 16  1  0  0  0
 17 18  1  0  0  0
 18 19  1  0  0  0
 18 21  1  0  0  0
 19 20  2  0  0  0
 19 28  1  0  0  0
 21 22  1  0  0  0
 22 23  4  0  0  0
 22 24  4  0  0  0
 23 25  4  0  0  0
 24 26  4  0  0  0
 25 27  4  0  0  0
 26 27  4  0  0  0
 28 29  1  0  0  0
 29 30  1  0  0  0
 29 32  1  0  0  0
 30 31  2  0  0  0
 30 37  1  0  0  0
 32 33  1  0  0  0
 33 34  1  0  0  0
 34 35  1  0  0  0
 34 36  2  0  0  0
 37 38  1  0  0  0
 38 39  1  0  0  0
 38 41  1  0  0  0
 39 40  2  0  0  0
 39 47  1  0  0  0
 41 42  1  0  0  0
 42 43  4  0  0  0
 42 44  4  0  0  0
 43 45  4  0  0  0
 44 46  4  0  0  0
 45 46  4  0  0  0
 47 48  1  0  0  0
 48 49  1  0  0  0
 48 51  1  0  0  0
 49 50  2  0  0  0
 49 61  1  0  0  0
 51 52  1  0  0  0
 52 53  4  0  0  0
 52 54  4  0  0  0
 53 55  4  0  0  0
 54 56  4  0  0  0
 54 57  4  0  0  0
 55 56  4  0  0  0
 56 58  4  0  0  0
 57 59  4  0  0  0
 58 60  4  0  0  0
 59 60  4  0  0  0
 61 62  1  0  0  0
 62 63  1  0  0  0
 62 65  1  0  0  0
 63 64  2  0  0  0
 63 75  1  0  0  0
 65 66  1  0  0  0
 66 67  4  0  0  0
 66 68  4  0  0  0
 67 69  4  0  0  0
 68 70  4  0  0  0
 68 71  4  0  0  0
 69 70  4  0  0  0
 70 72  4  0  0  0
 71 73  4  0  0  0
 72 74  4  0  0  0
 73 74  4  0  0  0
 75 76  1  0  0  0
 76 77  1  0  0  0
 76 79  1  0  0  0
 77 78  2  0  0  0
 77 81  1  0  0  0
 79 80  1  0  0  0
 81 82  1  0  0  0
 82 83  1  0  0  0
 82 85  1  0  0  0
 83 84  2  0  0  0
 83 90  1  0  0  0
 85 86  1  0  0  0
 86 87  1  0  0  0
 87 88  2  0  0  0
 87 89  1  0  0  0
 90 91  1  0  0  0
 91 92  1  0  0  0
 91 94  1  0  0  0
 92 93  2  0  0  0
 92 98  1  0  0  0
 94 95  1  0  0  0
 95 96  1  0  0  0
 95 97  1  0  0  0
 98 99  1  0  0  0
 99100  1  0  0  0
 99102  1  0  0  0
100101  2  0  0  0
100106  1  0  0  0
102103  1  0  0  0
103104  1  0  0  0
103105  1  0  0  0
106107  1  0  0  0
107108  1  0  0  0
107110  1  0  0  0
108109  2  0  0  0
108112  1  0  0  0
110111  1  0  0  0
  1113  1  0  0  0
  1114  1  0  0  0
  1115  1  0  0  0
  2116  1  0  0  0
  5117  1  0  0  0
  5118  1  0  0  0
  6119  1  0  0  0
  6120  1  0  0  0
  8121  1  0  0  0
 10122  1  0  0  0
 11123  1  0  0  0
 14124  1  0  0  0
 15125  1  0  0  0
 16126  1  0  0  0
 16127  1  0  0  0
 16128  1  0  0  0
 17129  1  0  0  0
 18130  1  0  0  0
 21131  1  0  0  0
 21132  1  0  0  0
 23133  1  0  0  0
 24134  1  0  0  0
 25135  1  0  0  0
 26136  1  0  0  0
 27137  1  0  0  0
 28138  1  0  0  0
 29139  1  0  0  0
 32140  1  0  0  0
 32141  1  0  0  0
 33142  1  0  0  0
 33143  1  0  0  0
 35144  1  0  0  0
 37145  1  0  0  0
 38146  1  0  0  0
 41147  1  0  0  0
 41148  1  0  0  0
 44149  1  0  0  0
 45150  1  0  0  0
 47151  1  0  0  0
 48152  1  0  0  0
 51153  1  0  0  0
 51154  1  0  0  0
 53155  1  0  0  0
 57156  1  0  0  0
 58157  1  0  0  0
 59158  1  0  0  0
 60159  1  0  0  0
 61160  1  0  0  0
 62161  1  0  0  0
 65162  1  0  0  0
 65163  1  0  0  0
 67164  1  0  0  0
 71165  1  0  0  0
 72166  1  0  0  0
 73167  1  0  0  0
 74168  1  0  0  0
 75169  1  0  0  0
 76170  1  0  0  0
 79171  1  0  0  0
 79172  1  0  0  0
 80173  1  0  0  0
 81174  1  0  0  0
 82175  1  0  0  0
 85176  1  0  0  0
 85177  1  0  0  0
 86178  1  0  0  0
 86179  1  0  0  0
 89180  1  0  0  0
 89181  1  0  0  0
 90182  1  0  0  0
 91183  1  0  0  0
 94184  1  0  0  0
 94185  1  0  0  0
 95186  1  0  0  0
 96187  1  0  0  0
 96188  1  0  0  0
 96189  1  0  0  0
 97190  1  0  0  0
 97191  1  0  0  0
 97192  1  0  0  0
 98193  1  0  0  0
 99194  1  0  0  0
102195  1  0  0  0
102196  1  0  0  0
103197  1  0  0  0
104198  1  0  0  0
104199  1  0  0  0
104200  1  0  0  0
105201  1  0  0  0
105202  1  0  0  0
105203  1  0  0  0
106204  1  0  0  0
107205  1  0  0  0
110206  1  0  0  0
110207  1  0  0  0
111208  1  0  0  0
112209  1  0  0  0
M  END
$$$$
