### 
### Created by X-TOOL on Mon Sep 10 21:13:33 2018
### 

@<TRIPOS>MOLECULE
5w8v_ligand
   45    46     1     0     0
SMALL
GAST_HUCK


@<TRIPOS>ATOM
      1 OAE        -1.4480   28.0530   81.6890 O.co2     1 9YP        -0.5435
      2 PBA        -0.4290   29.1920   81.9900 P.3       1 9YP         0.0655
      3 OAF         0.9030   28.9150   81.2290 O.co2     1 9YP        -0.5435
      4 OAC        -0.1600   29.2500   83.4610 O.co2     1 9YP        -0.5435
      5 CAL        -1.1250   30.7920   81.4590 C.3       1 9YP         0.0169
      6 CAK        -0.4570   31.4840   80.3230 C.3       1 9YP         0.0536
      7 OAS        -0.9470   31.2060   79.0680 O.3       1 9YP        -0.3789
      8 CAM        -0.2290   30.3660   78.2500 C.3       1 9YP         0.0551
      9 CAY        -0.9000   29.8590   77.0220 C.3       1 9YP         0.0334
     10 CAN         0.0070   30.0250   75.8510 C.3       1 9YP         0.0557
     11 OAT         0.9840   30.9990   75.8910 O.3       1 9YP        -0.3727
     12 CAO         1.8370   31.0960   74.8120 C.3       1 9YP         0.0931
     13 PBB         2.4930   32.7240   74.2990 P.3       1 9YP         0.0874
     14 OAG         3.1760   33.4440   75.4960 O.co2     1 9YP        -0.5414
     15 OAH         3.5310   32.5010   73.1630 O.co2     1 9YP        -0.5414
     16 OAD         1.3860   33.5900   73.7890 O.co2     1 9YP        -0.5414
     17 CAP        -2.1980   30.5600   76.7690 C.3       1 9YP         0.0654
     18 NAZ        -2.9590   30.0620   75.6610 N.pl3     1 9YP        -0.2387
     19 CAW        -3.8120   28.9730   75.7000 C.2       1 9YP         0.1135
     20 CAJ        -4.1990   28.1040   76.6960 N.2       1 9YP        -0.2765
     21 CAU        -5.0710   27.1200   76.4440 C.2       1 9YP         0.2340
     22 NAA        -5.4560   26.2330   77.4960 N.pl3     1 9YP        -0.2807
     23 NAR        -5.5870   26.9530   75.2110 N.am      1 9YP        -0.1839
     24 CAV        -5.2570   27.7610   74.1820 C.2       1 9YP         0.2135
     25 OAB        -5.8020   27.5630   72.9350 O.2       1 9YP        -0.4091
     26 CAX        -4.3310   28.8190   74.4300 C.2       1 9YP         0.0925
     27 NAQ        -3.7710   29.8190   73.6530 N.2       1 9YP        -0.3236
     28 CAI        -2.9410   30.5580   74.4120 C.2       1 9YP         0.0932
     29 H1         -1.0919   31.4702   82.3244 H         1 9YP         0.0357
     30 H2         -2.1718   30.6173   81.1698 H         1 9YP         0.0357
     31 H3          0.6063   31.2028   80.3376 H         1 9YP         0.0564
     32 H4         -0.5521   32.5674   80.4876 H         1 9YP         0.0564
     33 H5          0.0621   29.4916   78.8506 H         1 9YP         0.0564
     34 H6          0.6731   30.9089   77.9315 H         1 9YP         0.0564
     35 H7         -1.1077   28.7874   77.1581 H         1 9YP         0.0373
     36 H8         -0.6286   30.2425   74.9800 H         1 9YP         0.0564
     37 H9          0.5181   29.0626   75.7009 H         1 9YP         0.0564
     38 H10         1.2988   30.6846   73.9454 H         1 9YP         0.0632
     39 H11         2.7067   30.4617   75.0384 H         1 9YP         0.0632
     40 H12        -1.9796   31.6216   76.5811 H         1 9YP         0.0620
     41 H13        -2.8160   30.4674   77.6743 H         1 9YP         0.0620
     42 H14        -5.0654   26.3549   78.4412 H         1 9YP         0.1897
     43 H15        -6.1242   25.4717   77.3091 H         1 9YP         0.1897
     44 H16        -6.2345   26.2074   75.0534 H         1 9YP         0.2515
     45 H17        -2.3555   31.4112   74.0725 H         1 9YP         0.1178
@<TRIPOS>BOND
     1    1    2 ar 
     2    2    3 ar 
     3    2    4 ar 
     4    2    5 1  
     5    5    6 1  
     6    6    7 1  
     7    7    8 1  
     8    8    9 1  
     9    9   10 1  
    10    9   17 1  
    11   10   11 1  
    12   11   12 1  
    13   12   13 1  
    14   13   14 ar 
    15   13   15 ar 
    16   13   16 ar 
    17   17   18 1  
    18   18   19 1  
    19   18   28 1  
    20   19   20 1  
    21   19   26 2  
    22   20   21 2  
    23   21   22 1  
    24   21   23 am 
    25   23   24 am 
    26   24   25 2  
    27   24   26 1  
    28   26   27 1  
    29   27   28 2  
    30    5   29 1  
    31    5   30 1  
    32    6   31 1  
    33    6   32 1  
    34    8   33 1  
    35    8   34 1  
    36    9   35 1  
    37   10   36 1  
    38   10   37 1  
    39   12   38 1  
    40   12   39 1  
    41   17   40 1  
    42   17   41 1  
    43   22   42 1  
    44   22   43 1  
    45   23   44 1  
    46   28   45 1  
@<TRIPOS>SUBSTRUCTURE
     1 9YP         1

