5w8v_ligand
  -I-interpret- 

 49 50  0  0  0  0  0  0  0  0999 V2000
   -1.4480   28.0530   81.6890 O   0  0  0  0  0
   -0.4290   29.1920   81.9900 P   0  0  0  0  0
    0.9030   28.9150   81.2290 O   0  0  0  0  0
   -0.1600   29.2500   83.4610 O   0  0  0  0  0
   -1.1250   30.7920   81.4590 C   0  0  0  0  0
   -0.4570   31.4840   80.3230 C   0  0  0  0  0
   -0.9470   31.2060   79.0680 O   0  0  0  0  0
   -0.2290   30.3660   78.2500 C   0  0  0  0  0
   -0.9000   29.8590   77.0220 C   0  0  0  0  0
    0.0070   30.0250   75.8510 C   0  0  0  0  0
    0.9840   30.9990   75.8910 O   0  0  0  0  0
    1.8370   31.0960   74.8120 C   0  0  0  0  0
    2.4930   32.7240   74.2990 P   0  0  0  0  0
    3.1760   33.4440   75.4960 O   0  0  0  0  0
    3.5310   32.5010   73.1630 O   0  0  0  0  0
    1.3860   33.5900   73.7890 O   0  0  0  0  0
   -2.1980   30.5600   76.7690 C   0  0  0  0  0
   -2.9590   30.0620   75.6610 N   0  0  0  0  0
   -3.8120   28.9730   75.7000 C   0  0  0  0  0
   -4.1990   28.1040   76.6960 N   0  0  0  0  0
   -5.0710   27.1200   76.4440 C   0  0  0  0  0
   -5.4560   26.2330   77.4960 N   0  0  0  0  0
   -5.5870   26.9530   75.2110 N   0  0  0  0  0
   -5.2570   27.7610   74.1820 C   0  0  0  0  0
   -5.8020   27.5630   72.9350 O   0  0  0  0  0
   -4.3310   28.8190   74.4300 C   0  0  0  0  0
   -3.7710   29.8190   73.6530 N   0  0  0  0  0
   -2.9410   30.5580   74.4120 C   0  0  0  0  0
   -1.6182   28.0187   80.7448 H   0  0  0  0  0
    0.7295   28.8780   80.2855 H   0  0  0  0  0
   -1.0179   31.4588   82.3146 H   0  0  0  0  0
   -2.1372   30.5747   81.1179 H   0  0  0  0  0
    0.5787   31.1443   80.3269 H   0  0  0  0  0
   -0.6153   32.5507   80.4816 H   0  0  0  0  0
   -0.0159   29.4830   78.8525 H   0  0  0  0  0
    0.6185   30.9544   77.8983 H   0  0  0  0  0
   -1.1207   28.8020   77.1709 H   0  0  0  0  0
   -0.6471   30.3183   75.0299 H   0  0  0  0  0
    0.5528   29.0838   75.7842 H   0  0  0  0  0
    1.2377   30.7664   73.9632 H   0  0  0  0  0
    2.7195   30.5318   75.1136 H   0  0  0  0  0
    3.8894   32.8967   75.8323 H   0  0  0  0  0
    4.2436   31.9452   73.4868 H   0  0  0  0  0
   -1.9524   31.5964   76.5375 H   0  0  0  0  0
   -2.8102   30.4127   77.6587 H   0  0  0  0  0
   -5.0669   26.3519   78.4314 H   0  0  0  0  0
   -6.1199   25.4809   77.3116 H   0  0  0  0  0
   -6.2474   26.1925   75.0503 H   0  0  0  0  0
   -2.3549   31.4119   74.0722 H   0  0  0  0  0
  1  2  1  0  0  0
  2  3  1  0  0  0
  2  4  2  0  0  0
  2  5  1  0  0  0
  5  6  1  0  0  0
  6  7  1  0  0  0
  7  8  1  0  0  0
  8  9  1  0  0  0
  9 10  1  0  0  0
  9 17  1  0  0  0
 10 11  1  0  0  0
 11 12  1  0  0  0
 12 13  1  0  0  0
 13 14  1  0  0  0
 13 15  1  0  0  0
 13 16  2  0  0  0
 17 18  1  0  0  0
 18 19  4  0  0  0
 18 28  4  0  0  0
 19 20  1  0  0  0
 19 26  4  0  0  0
 20 21  2  0  0  0
 21 22  1  0  0  0
 21 23  1  0  0  0
 23 24  1  0  0  0
 24 25  2  0  0  0
 24 26  1  0  0  0
 26 27  4  0  0  0
 27 28  4  0  0  0
  1 29  1  0  0  0
  3 30  1  0  0  0
  5 31  1  0  0  0
  5 32  1  0  0  0
  6 33  1  0  0  0
  6 34  1  0  0  0
  8 35  1  0  0  0
  8 36  1  0  0  0
  9 37  1  0  0  0
 10 38  1  0  0  0
 10 39  1  0  0  0
 12 40  1  0  0  0
 12 41  1  0  0  0
 14 42  1  0  0  0
 15 43  1  0  0  0
 17 44  1  0  0  0
 17 45  1  0  0  0
 22 46  1  0  0  0
 22 47  1  0  0  0
 23 48  1  0  0  0
 28 49  1  0  0  0
M  END
$$$$
