5wa4_ligand
  -I-interpret- 

184185  0  0  0  0  0  0  0  0999 V2000
   12.1430   25.8770    7.1440 N   0  3  0  0  0
   10.7690   26.1670    6.7510 C   0  0  0  0  0
   10.8130   27.2320    5.6460 C   0  0  0  0  0
   10.4850   28.3980    5.8670 O   0  0  0  0  0
    9.9400   26.6100    7.9760 C   0  0  0  0  0
    8.4070   26.7810    7.9550 C   0  0  0  0  0
    7.8590   26.6740    9.3790 C   0  0  0  0  0
    7.9200   28.0720    7.3310 C   0  0  0  0  0
   11.2250   26.8080    4.4490 N   0  0  0  0  0
   11.4860   27.7230    3.3330 C   0  0  0  0  0
   11.1430   27.1720    1.9260 C   0  0  0  0  0
   10.4170   26.1810    1.8000 O   0  0  0  0  0
   12.9560   28.1440    3.3750 C   0  0  0  0  0
   13.8810   26.9820    3.6440 C   0  0  0  0  0
   14.3980   26.3600    2.7160 O   0  0  0  0  0
   14.0910   26.6770    4.9200 N   0  0  0  0  0
   11.6460   27.8410    0.8820 N   0  0  0  0  0
   11.4240   27.4420   -0.5180 C   0  0  0  0  0
   11.7080   25.9400   -0.7990 C   0  0  0  0  0
   12.8450   25.4660   -0.5970 O   0  0  0  0  0
   12.3010   28.2910   -1.4650 C   0  0  0  0  0
   11.6910   29.6690   -1.8270 C   0  0  0  0  0
   10.4880   29.9590   -1.5180 O   0  0  0  0  0
   12.4470   30.4570   -2.4820 O   0  0  0  0  0
   10.6860   25.2140   -1.2790 N   0  0  0  0  0
   10.8320   23.8180   -1.7410 C   0  0  0  0  0
   11.6210   23.7480   -3.0500 C   0  0  0  0  0
   11.4620   24.6170   -3.9140 O   0  0  0  0  0
    9.4640   23.1520   -1.9690 C   0  0  0  0  0
    8.3580   23.0580   -0.9200 C   0  0  0  0  0
    7.0280   22.8620   -1.6210 C   0  0  0  0  0
    8.6110   21.9190    0.0580 C   0  0  0  0  0
   12.4370   22.6910   -3.2260 N   0  0  0  0  0
   13.1680   22.5230   -4.4910 C   0  0  0  0  0
   12.1740   22.2810   -5.5930 C   0  0  0  0  0
   11.1480   21.7220   -5.2270 O   0  0  0  0  0
   14.0220   21.2590   -4.2650 C   0  0  0  0  0
   13.8690   20.9050   -2.8210 C   0  0  0  0  0
   12.5590   21.5060   -2.3630 C   0  0  0  0  0
   12.4260   22.6380   -6.8580 N   0  0  0  0  0
   11.4980   22.1900   -7.9090 C   0  0  0  0  0
   12.0590   22.0390   -9.3130 C   0  0  0  0  0
   11.3020   22.0040  -10.2940 O   0  0  0  0  0
   10.2560   23.0830   -7.9410 C   0  0  0  0  0
    9.0650   22.1740   -7.9940 C   0  0  0  0  0
    7.6840   22.5670   -6.9520 S   0  0  0  0  0
    8.4700   22.8130   -5.3790 C   0  0  0  0  0
   13.3770   21.8830   -9.3890 N   0  0  0  0  0
   14.0350   21.4120  -10.5980 C   0  0  0  0  0
   13.9150   19.8920  -10.6260 C   0  0  0  0  0
   14.5550   19.2090   -9.8220 O   0  0  0  0  0
   15.5060   21.8370  -10.6060 C   0  0  0  0  0
   16.1250   21.8060  -11.9870 C   0  0  0  0  0
   15.4230   21.4350  -12.9520 O   0  0  0  0  0
   17.3230   22.1520  -12.0980 O   0  0  0  0  0
   13.0860   19.3590  -11.5230 N   0  0  0  0  0
   12.8940   17.9090  -11.6130 C   0  0  0  0  0
   14.1020   17.2200  -12.2520 C   0  0  0  0  0
   14.3710   16.0510  -11.9780 O   0  0  0  0  0
   11.6240   17.5510  -12.4070 C   0  0  0  0  0
   10.4050   18.1570  -11.7410 C   0  0  0  0  0
   11.7330   18.0210  -13.8490 C   0  0  0  0  0
   14.8190   17.9560  -13.1010 N   0  0  0  0  0
   16.0880   17.5070  -13.6790 C   0  0  0  0  0
   17.2490   17.8970  -12.7580 C   0  0  0  0  0
   18.2480   18.4740  -13.2020 O   0  0  0  0  0
   16.3090   18.1090  -15.0740 C   0  0  0  0  0
   15.1190   18.0030  -15.9850 C   0  0  0  0  0
   14.8160   16.8090  -16.6200 C   0  0  0  0  0
   14.3040   19.1080  -16.2140 C   0  0  0  0  0
   13.7210   16.7150  -17.4680 C   0  0  0  0  0
   13.2100   19.0210  -17.0560 C   0  0  0  0  0
   12.9180   17.8210  -17.6850 C   0  0  0  0  0
   17.0940   17.5910  -11.4720 N   0  0  0  0  0
   18.1070   17.8770  -10.4590 C   0  0  0  0  0
   19.3390   16.9900  -10.6830 C   0  0  0  0  0
   20.4790   17.4390  -10.5120 O   0  0  0  0  0
   17.5140   17.6740   -9.0560 C   0  0  0  0  0
   18.5050   17.6410   -7.9080 C   0  0  0  0  0
   17.8170   17.5870   -6.5480 C   0  0  0  0  0
   16.5710   17.4510   -6.5080 O   0  0  0  0  0
   18.5250   17.6780   -5.5170 O   0  0  0  0  0
   19.0980   15.7410  -11.0870 N   0  0  0  0  0
   20.1680   14.8110  -11.4360 C   0  0  0  0  0
   20.4890   14.8770  -12.9270 C   0  0  0  0  0
   21.1810   15.7860  -13.3880 O   0  0  0  0  0
   19.7880   13.3810  -11.0520 C   0  0  0  0  0
   19.3500   13.0930   -9.6130 C   0  0  0  0  0
   18.9650   11.6360   -9.4870 C   0  0  0  0  0
   20.4290   13.4500   -8.5990 C   0  0  0  0  0
   20.0640   14.0230  -13.7070 O   0  0  0  0  0
   12.6757   25.5863    6.3242 H   0  0  0  0  0
   12.5645   26.7146    7.5455 H   0  0  0  0  0
   12.1465   25.1279    7.8363 H   0  0  0  0  0
   10.2750   25.2773    6.3604 H   0  0  0  0  0
   10.2950   27.6248    8.1553 H   0  0  0  0  0
   10.0829   25.7871    8.6763 H   0  0  0  0  0
    8.0322   25.9789    7.3191 H   0  0  0  0  0
    8.2112   27.5214    9.9671 H   0  0  0  0  0
    6.7694   26.6788    9.3489 H   0  0  0  0  0
    8.2072   25.7458    9.8321 H   0  0  0  0  0
    6.8303   28.0734    7.3058 H   0  0  0  0  0
    8.2721   28.9161    7.9240 H   0  0  0  0  0
    8.3083   28.1524    6.3157 H   0  0  0  0  0
   11.3638   25.8078    4.3049 H   0  0  0  0  0
   10.8123   28.5678    3.4765 H   0  0  0  0  0
   13.0769   28.8650    4.1835 H   0  0  0  0  0
   13.2146   28.5622    2.4022 H   0  0  0  0  0
   14.7029   25.8983    5.1642 H   0  0  0  0  0
   13.6403   27.2215    5.6554 H   0  0  0  0  0
   12.2120   28.6695    1.0652 H   0  0  0  0  0
   10.3636   27.6137   -0.7027 H   0  0  0  0  0
   12.4074   27.7313   -2.3943 H   0  0  0  0  0
   13.2424   28.4805   -0.9493 H   0  0  0  0  0
   10.1002   29.2303   -1.0279 H   0  0  0  0  0
    9.7637   25.6470   -1.3272 H   0  0  0  0  0
   11.3693   23.2878   -0.9547 H   0  0  0  0  0
    9.7338   22.1068   -2.1204 H   0  0  0  0  0
    9.0144   23.7924   -2.7278 H   0  0  0  0  0
    8.3431   23.9838   -0.3449 H   0  0  0  0  0
    6.8384   23.7085   -2.2810 H   0  0  0  0  0
    7.0592   21.9431   -2.2064 H   0  0  0  0  0
    6.2336   22.7940   -0.8778 H   0  0  0  0  0
    8.6510   20.9759   -0.4871 H   0  0  0  0  0
    9.5590   22.0850    0.5696 H   0  0  0  0  0
    7.8034   21.8835    0.7892 H   0  0  0  0  0
   13.7716   23.3884   -4.7645 H   0  0  0  0  0
   15.0669   21.4407   -4.5164 H   0  0  0  0  0
   13.6923   20.4421   -4.9069 H   0  0  0  0  0
   14.7013   21.2950   -2.2351 H   0  0  0  0  0
   13.8693   19.8237   -2.6839 H   0  0  0  0  0
   11.7172   20.8198   -2.4563 H   0  0  0  0  0
   12.5470   21.7473   -1.3001 H   0  0  0  0  0
   13.2410   23.2065   -7.0881 H   0  0  0  0  0
   11.2550   21.1702   -7.6104 H   0  0  0  0  0
   10.2771   23.7426   -8.8085 H   0  0  0  0  0
   10.2161   23.7205   -7.0577 H   0  0  0  0  0
    9.4227   21.2030   -7.6516 H   0  0  0  0  0
    8.6898   22.2427   -9.0151 H   0  0  0  0  0
    8.9827   21.8977   -5.0834 H   0  0  0  0  0
    9.1918   23.6259   -5.4581 H   0  0  0  0  0
    7.7163   23.0659   -4.6333 H   0  0  0  0  0
   13.9466   22.1011   -8.5714 H   0  0  0  0  0
   13.5650   21.8445  -11.4812 H   0  0  0  0  0
   16.0571   21.1352   -9.9800 H   0  0  0  0  0
   15.5563   22.8636  -10.2433 H   0  0  0  0  0
   17.6654   22.3970  -11.2352 H   0  0  0  0  0
   12.5755   19.9718  -12.1588 H   0  0  0  0  0
   12.7818   17.5490  -10.5903 H   0  0  0  0  0
   11.5180   16.4662  -12.4148 H   0  0  0  0  0
   10.3152   17.7674  -10.7270 H   0  0  0  0  0
   10.5125   19.2412  -11.7069 H   0  0  0  0  0
    9.5136   17.8967  -12.3118 H   0  0  0  0  0
   11.8649   19.1028  -13.8682 H   0  0  0  0  0
   12.5893   17.5408  -14.3226 H   0  0  0  0  0
   10.8226   17.7551  -14.3863 H   0  0  0  0  0
   14.4668   18.8772  -13.3611 H   0  0  0  0  0
   16.0478   16.4222  -13.7780 H   0  0  0  0  0
   17.1218   17.5519  -15.5400 H   0  0  0  0  0
   16.5164   19.1703  -14.9375 H   0  0  0  0  0
   15.4443   15.9343  -16.4518 H   0  0  0  0  0
   14.5309   20.0545  -15.7233 H   0  0  0  0  0
   13.4938   15.7706  -17.9626 H   0  0  0  0  0
   12.5792   19.8939  -17.2244 H   0  0  0  0  0
   12.0571   17.7485  -18.3496 H   0  0  0  0  0
   16.2288   17.1362  -11.1806 H   0  0  0  0  0
   18.4242   18.9164  -10.5435 H   0  0  0  0  0
   17.0303   16.6973   -9.0685 H   0  0  0  0  0
   16.8650   18.5304   -8.8732 H   0  0  0  0  0
   19.0997   18.5536   -7.9493 H   0  0  0  0  0
   19.1142   16.7433   -8.0138 H   0  0  0  0  0
   16.2267   17.4016   -7.4028 H   0  0  0  0  0
   18.1307   15.4245  -11.1544 H   0  0  0  0  0
   21.0558   15.1048  -10.8760 H   0  0  0  0  0
   20.7000   12.8003  -11.1905 H   0  0  0  0  0
   18.9168   13.1470  -11.6639 H   0  0  0  0  0
   18.4886   13.7229   -9.3911 H   0  0  0  0  0
   18.1428   11.4185  -10.1688 H   0  0  0  0  0
   19.8224   11.0119   -9.7389 H   0  0  0  0  0
   18.6533   11.4311   -8.4628 H   0  0  0  0  0
   21.3257   12.8651   -8.8035 H   0  0  0  0  0
   20.6611   14.5122   -8.6761 H   0  0  0  0  0
   20.0696   13.2273   -7.5943 H   0  0  0  0  0
   19.5439   13.3784  -13.2216 H   0  0  0  0  0
  1  2  1  0  0  0
  2  3  1  0  0  0
  2  5  1  0  0  0
  3  4  2  0  0  0
  3  9  1  0  0  0
  5  6  1  0  0  0
  6  7  1  0  0  0
  6  8  1  0  0  0
  9 10  1  0  0  0
 10 11  1  0  0  0
 10 13  1  0  0  0
 11 12  2  0  0  0
 11 17  1  0  0  0
 13 14  1  0  0  0
 14 15  2  0  0  0
 14 16  1  0  0  0
 17 18  1  0  0  0
 18 19  1  0  0  0
 18 21  1  0  0  0
 19 20  2  0  0  0
 19 25  1  0  0  0
 21 22  1  0  0  0
 22 23  1  0  0  0
 22 24  2  0  0  0
 25 26  1  0  0  0
 26 27  1  0  0  0
 26 29  1  0  0  0
 27 28  2  0  0  0
 27 33  1  0  0  0
 29 30  1  0  0  0
 30 31  1  0  0  0
 30 32  1  0  0  0
 33 34  1  0  0  0
 33 39  1  0  0  0
 34 35  1  0  0  0
 34 37  1  0  0  0
 35 36  2  0  0  0
 35 40  1  0  0  0
 37 38  1  0  0  0
 38 39  1  0  0  0
 40 41  1  0  0  0
 41 42  1  0  0  0
 41 44  1  0  0  0
 42 43  2  0  0  0
 42 48  1  0  0  0
 44 45  1  0  0  0
 45 46  1  0  0  0
 46 47  1  0  0  0
 48 49  1  0  0  0
 49 50  1  0  0  0
 49 52  1  0  0  0
 50 51  2  0  0  0
 50 56  1  0  0  0
 52 53  1  0  0  0
 53 54  2  0  0  0
 53 55  1  0  0  0
 56 57  1  0  0  0
 57 58  1  0  0  0
 57 60  1  0  0  0
 58 59  2  0  0  0
 58 63  1  0  0  0
 60 61  1  0  0  0
 60 62  1  0  0  0
 63 64  1  0  0  0
 64 65  1  0  0  0
 64 67  1  0  0  0
 65 66  2  0  0  0
 65 74  1  0  0  0
 67 68  1  0  0  0
 68 69  4  0  0  0
 68 70  4  0  0  0
 69 71  4  0  0  0
 70 72  4  0  0  0
 71 73  4  0  0  0
 72 73  4  0  0  0
 74 75  1  0  0  0
 75 76  1  0  0  0
 75 78  1  0  0  0
 76 77  2  0  0  0
 76 83  1  0  0  0
 78 79  1  0  0  0
 79 80  1  0  0  0
 80 81  1  0  0  0
 80 82  2  0  0  0
 83 84  1  0  0  0
 84 85  1  0  0  0
 84 87  1  0  0  0
 85 86  2  0  0  0
 85 91  1  0  0  0
 87 88  1  0  0  0
 88 89  1  0  0  0
 88 90  1  0  0  0
  1 92  1  0  0  0
  1 93  1  0  0  0
  1 94  1  0  0  0
  2 95  1  0  0  0
  5 96  1  0  0  0
  5 97  1  0  0  0
  6 98  1  0  0  0
  7 99  1  0  0  0
  7100  1  0  0  0
  7101  1  0  0  0
  8102  1  0  0  0
  8103  1  0  0  0
  8104  1  0  0  0
  9105  1  0  0  0
 10106  1  0  0  0
 13107  1  0  0  0
 13108  1  0  0  0
 16109  1  0  0  0
 16110  1  0  0  0
 17111  1  0  0  0
 18112  1  0  0  0
 21113  1  0  0  0
 21114  1  0  0  0
 23115  1  0  0  0
 25116  1  0  0  0
 26117  1  0  0  0
 29118  1  0  0  0
 29119  1  0  0  0
 30120  1  0  0  0
 31121  1  0  0  0
 31122  1  0  0  0
 31123  1  0  0  0
 32124  1  0  0  0
 32125  1  0  0  0
 32126  1  0  0  0
 34127  1  0  0  0
 37128  1  0  0  0
 37129  1  0  0  0
 38130  1  0  0  0
 38131  1  0  0  0
 39132  1  0  0  0
 39133  1  0  0  0
 40134  1  0  0  0
 41135  1  0  0  0
 44136  1  0  0  0
 44137  1  0  0  0
 45138  1  0  0  0
 45139  1  0  0  0
 47140  1  0  0  0
 47141  1  0  0  0
 47142  1  0  0  0
 48143  1  0  0  0
 49144  1  0  0  0
 52145  1  0  0  0
 52146  1  0  0  0
 55147  1  0  0  0
 56148  1  0  0  0
 57149  1  0  0  0
 60150  1  0  0  0
 61151  1  0  0  0
 61152  1  0  0  0
 61153  1  0  0  0
 62154  1  0  0  0
 62155  1  0  0  0
 62156  1  0  0  0
 63157  1  0  0  0
 64158  1  0  0  0
 67159  1  0  0  0
 67160  1  0  0  0
 69161  1  0  0  0
 70162  1  0  0  0
 71163  1  0  0  0
 72164  1  0  0  0
 73165  1  0  0  0
 74166  1  0  0  0
 75167  1  0  0  0
 78168  1  0  0  0
 78169  1  0  0  0
 79170  1  0  0  0
 79171  1  0  0  0
 81172  1  0  0  0
 83173  1  0  0  0
 84174  1  0  0  0
 87175  1  0  0  0
 87176  1  0  0  0
 88177  1  0  0  0
 89178  1  0  0  0
 89179  1  0  0  0
 89180  1  0  0  0
 90181  1  0  0  0
 90182  1  0  0  0
 90183  1  0  0  0
 91184  1  0  0  0
M  END
$$$$
