### 
### Created by X-TOOL on Mon Sep 10 21:13:34 2018
### 

@<TRIPOS>MOLECULE
5wa4_ligand
  180   181     1     0     0
SMALL
GAST_HUCK


@<TRIPOS>ATOM
      1 N          12.1430   25.8770    7.1440 N.4       1 LEU         0.2379
      2 CA         10.7690   26.1670    6.7510 C.3       1 LEU         0.0652
      3 C          10.8130   27.2320    5.6460 C.2       1 LEU         0.2268
      4 O          10.4850   28.3980    5.8670 O.2       1 LEU        -0.3907
      5 CB          9.9400   26.6100    7.9760 C.3       1 LEU         0.0102
      6 CG          8.4070   26.7810    7.9550 C.3       1 LEU        -0.0394
      7 CD1         7.8590   26.6740    9.3790 C.3       1 LEU        -0.0623
      8 CD2         7.9200   28.0720    7.3310 C.3       1 LEU        -0.0623
      9 N          11.2250   26.8080    4.4490 N.am      1 ASN        -0.2589
     10 CA         11.4860   27.7230    3.3330 C.3       1 ASN         0.1477
     11 C          11.1430   27.1720    1.9260 C.2       1 ASN         0.2063
     12 O          10.4170   26.1810    1.8000 O.2       1 ASN        -0.3942
     13 CB         12.9560   28.1440    3.3750 C.3       1 ASN         0.0773
     14 CG         13.8810   26.9820    3.6440 C.2       1 ASN         0.1780
     15 OD1        14.3980   26.3600    2.7160 O.2       1 ASN        -0.3970
     16 ND2        14.0910   26.6770    4.9200 N.am      1 ASN        -0.3007
     17 N          11.6460   27.8410    0.8820 N.am      1 ASP        -0.2620
     18 CA         11.4240   27.4420   -0.5180 C.3       1 ASP         0.1423
     19 C          11.7080   25.9400   -0.7990 C.2       1 ASP         0.2056
     20 O          12.8450   25.4660   -0.5970 O.2       1 ASP        -0.3943
     21 CB         12.3010   28.2910   -1.4650 C.3       1 ASP         0.0406
     22 CG         11.6910   29.6690   -1.8270 C.2       1 ASP         0.0393
     23 OD1        10.4880   29.9590   -1.5180 O.co2     1 ASP        -0.5688
     24 OD2        12.4470   30.4570   -2.4820 O.co2     1 ASP        -0.5688
     25 N          10.6860   25.2140   -1.2790 N.am      1 LEU        -0.2636
     26 CA         10.8320   23.8180   -1.7410 C.3       1 LEU         0.1314
     27 C          11.6210   23.7480   -3.0500 C.2       1 LEU         0.2064
     28 O          11.4620   24.6170   -3.9140 O.2       1 LEU        -0.3942
     29 CB          9.4640   23.1520   -1.9690 C.3       1 LEU        -0.0101
     30 CG          8.3580   23.0580   -0.9200 C.3       1 LEU        -0.0425
     31 CD1         7.0280   22.8620   -1.6210 C.3       1 LEU        -0.0625
     32 CD2         8.6110   21.9190    0.0580 C.3       1 LEU        -0.0625
     33 N          12.4370   22.6910   -3.2260 N.am      1 PRO        -0.2498
     34 CA         13.1680   22.5230   -4.4910 C.3       1 PRO         0.1338
     35 C          12.1740   22.2810   -5.5930 C.2       1 PRO         0.2041
     36 O          11.1480   21.7220   -5.2270 O.2       1 PRO        -0.3944
     37 CB         14.0220   21.2590   -4.2650 C.3       1 PRO        -0.0104
     38 CG         13.8690   20.9050   -2.8210 C.3       1 PRO        -0.0281
     39 CD         12.5590   21.5060   -2.3630 C.3       1 PRO         0.0369
     40 N          12.4260   22.6380   -6.8580 N.am      1 MET        -0.2637
     41 CA         11.4980   22.1900   -7.9090 C.3       1 MET         0.1317
     42 C          12.0590   22.0390   -9.3130 C.2       1 MET         0.2040
     43 O          11.3020   22.0040  -10.2940 O.2       1 MET        -0.3944
     44 CB         10.2560   23.0830   -7.9410 C.3       1 MET        -0.0034
     45 CG          9.0650   22.1740   -7.9940 C.3       1 MET        -0.0024
     46 SD          7.6840   22.5670   -6.9520 S.3       1 MET        -0.1639
     47 CE          8.4700   22.8130   -5.3790 C.3       1 MET        -0.0181
     48 N          13.3770   21.8830   -9.3890 N.am      1 ASP        -0.2622
     49 CA         14.0350   21.4120  -10.5980 C.3       1 ASP         0.1423
     50 C          13.9150   19.8920  -10.6260 C.2       1 ASP         0.2056
     51 O          14.5550   19.2090   -9.8220 O.2       1 ASP        -0.3943
     52 CB         15.5060   21.8370  -10.6060 C.3       1 ASP         0.0406
     53 CG         16.1250   21.8060  -11.9870 C.2       1 ASP         0.0393
     54 OD1        15.4230   21.4350  -12.9520 O.co2     1 ASP        -0.5688
     55 OD2        17.3230   22.1520  -12.0980 O.co2     1 ASP        -0.5688
     56 N          13.0860   19.3590  -11.5230 N.am      1 VAL        -0.2634
     57 CA         12.8940   17.9090  -11.6130 C.3       1 VAL         0.1333
     58 C          14.1020   17.2200  -12.2520 C.2       1 VAL         0.2043
     59 O          14.3710   16.0510  -11.9780 O.2       1 VAL        -0.3944
     60 CB         11.6240   17.5510  -12.4070 C.3       1 VAL        -0.0063
     61 CG1        10.4050   18.1570  -11.7410 C.3       1 VAL        -0.0584
     62 CG2        11.7330   18.0210  -13.8490 C.3       1 VAL        -0.0584
     63 N          14.8190   17.9560  -13.1010 N.am      1 PHE        -0.2619
     64 CA         16.0880   17.5070  -13.6790 C.3       1 PHE         0.1404
     65 C          17.2490   17.8970  -12.7580 C.2       1 PHE         0.2060
     66 O          18.2480   18.4740  -13.2020 O.2       1 PHE        -0.3942
     67 CB         16.3090   18.1090  -15.0740 C.3       1 PHE         0.0214
     68 CG         15.1190   18.0030  -15.9850 C.ar      1 PHE        -0.0386
     69 CD1        14.8160   16.8090  -16.6200 C.ar      1 PHE        -0.0601
     70 CD2        14.3040   19.1080  -16.2140 C.ar      1 PHE        -0.0601
     71 CE1        13.7210   16.7150  -17.4680 C.ar      1 PHE        -0.0686
     72 CE2        13.2100   19.0210  -17.0560 C.ar      1 PHE        -0.0686
     73 CZ         12.9180   17.8210  -17.6850 C.ar      1 PHE        -0.0687
     74 N          17.0940   17.5910  -11.4720 N.am      1 GLU        -0.2635
     75 CA         18.1070   17.8770  -10.4590 C.3       1 GLU         0.1324
     76 C          19.3390   16.9900  -10.6830 C.2       1 GLU         0.2034
     77 O          20.4790   17.4390  -10.5120 O.2       1 GLU        -0.3944
     78 CB         17.5140   17.6740   -9.0560 C.3       1 GLU        -0.0008
     79 CG         18.5050   17.6410   -7.9080 C.3       1 GLU         0.0044
     80 CD         17.8170   17.5870   -6.5480 C.2       1 GLU         0.0350
     81 OE1        16.5710   17.4510   -6.5080 O.co2     1 GLU        -0.5690
     82 OE2        18.5250   17.6780   -5.5170 O.co2     1 GLU        -0.5690
     83 N          19.0980   15.7410  -11.0870 N.am      1 LEU        -0.2695
     84 CA         20.1680   14.8110  -11.4360 C.3       1 LEU         0.0946
     85 C          20.4890   14.8770  -12.9270 C.2       1 LEU         0.0601
     86 O          21.1810   15.7860  -13.3880 O.co2     1 LEU        -0.5666
     87 CB         19.7880   13.3810  -11.0520 C.3       1 LEU        -0.0156
     88 CG         19.3500   13.0930   -9.6130 C.3       1 LEU        -0.0431
     89 CD1        18.9650   11.6360   -9.4870 C.3       1 LEU        -0.0625
     90 CD2        20.4290   13.4500   -8.5990 C.3       1 LEU        -0.0625
     91 OXT        20.0640   14.0230  -13.7070 O.co2     1 LEU        -0.5666
     92 H1         12.1443   25.1785    7.8707 H         1 LEU         0.2015
     93 H2         12.5794   26.7187    7.4863 H         1 LEU         0.2015
     94 H3         12.6551   25.5333    6.3467 H         1 LEU         0.2015
     95 H4         10.3117   25.2544    6.3411 H         1 LEU         0.1098
     96 H5         10.3465   27.5873    8.2755 H         1 LEU         0.0348
     97 H6         10.1482   25.8697    8.7625 H         1 LEU         0.0348
     98 H7          7.9939   25.9527    7.3606 H         1 LEU         0.0299
     99 H8          6.7660   26.7962    9.3614 H         1 LEU         0.0232
    100 H9          8.3059   27.4612   10.0040 H         1 LEU         0.0232
    101 H10         8.1109   25.6877    9.7957 H         1 LEU         0.0232
    102 H11         8.3112   28.1543    6.3062 H         1 LEU         0.0232
    103 H12         8.2747   28.9247    7.9285 H         1 LEU         0.0232
    104 H13         6.8203   28.0747    7.3049 H         1 LEU         0.0232
    105 H14        11.3611   25.8274    4.3077 H         1 ASN         0.1886
    106 H15        10.8638   28.6163    3.4910 H         1 ASN         0.0826
    107 H16        13.0867   28.8910    4.1718 H         1 ASN         0.0551
    108 H17        13.2231   28.5908    2.4060 H         1 ASN         0.0551
    109 H18        14.6946   25.9166    5.1595 H         1 ASN         0.1814
    110 H19        13.6454   27.2079    5.6409 H         1 ASN         0.1814
    111 H20        12.2009   28.6533    1.0616 H         1 ASP         0.1884
    112 H21        10.3668   27.6349   -0.7528 H         1 ASP         0.0819
    113 H22        12.4522   27.7249   -2.3960 H         1 ASP         0.0478
    114 H23        13.2722   28.4606   -0.9771 H         1 ASP         0.0478
    115 H24         9.7818   25.6386   -1.3262 H         1 LEU         0.1883
    116 H25        11.3755   23.2553   -0.9677 H         1 LEU         0.0800
    117 H26         9.6858   22.1139   -2.2575 H         1 LEU         0.0315
    118 H27         9.0165   23.6822   -2.8226 H         1 LEU         0.0315
    119 H28         8.3278   24.0012   -0.3548 H         1 LEU         0.0298
    120 H29         6.2254   22.7933   -0.8719 H         1 LEU         0.0232
    121 H30         7.0582   21.9348   -2.2121 H         1 LEU         0.0232
    122 H31         6.8354   23.7157   -2.2874 H         1 LEU         0.0232
    123 H32         9.5780   22.0738    0.5589 H         1 LEU         0.0232
    124 H33         8.6296   20.9642   -0.4879 H         1 LEU         0.0232
    125 H34         7.8083   21.8960    0.8097 H         1 LEU         0.0232
    126 H35        13.7945   23.3977   -4.7200 H         1 PRO         0.0802
    127 H36        15.0772   21.4652   -4.4973 H         1 PRO         0.0313
    128 H37        13.6608   20.4363   -4.8996 H         1 PRO         0.0313
    129 H38        14.7025   21.3233   -2.2377 H         1 PRO         0.0287
    130 H39        13.8480   19.8120   -2.6987 H         1 PRO         0.0287
    131 H40        11.7235   20.8088   -2.5237 H         1 PRO         0.0524
    132 H41        12.6009   21.7896   -1.3010 H         1 PRO         0.0524
    133 H42        13.2250   23.1954   -7.0836 H         1 MET         0.1883
    134 H43        11.1684   21.1849   -7.6073 H         1 MET         0.0800
    135 H44        10.2780   23.7293   -8.8308 H         1 MET         0.0320
    136 H45        10.2154   23.7066   -7.0358 H         1 MET         0.0320
    137 H46         9.4081   21.1657   -7.7190 H         1 MET         0.0378
    138 H47         8.7022   22.1673   -9.0324 H         1 MET         0.0378
    139 H48         7.7104   23.0683   -4.6255 H         1 MET         0.0340
    140 H49         9.1987   23.6333   -5.4575 H         1 MET         0.0340
    141 H50         8.9878   21.8899   -5.0795 H         1 MET         0.0340
    142 H51        13.9354   22.0968   -8.5875 H         1 ASP         0.1884
    143 H52        13.5345   21.8374  -11.4803 H         1 ASP         0.0819
    144 H53        16.0711   21.1551   -9.9536 H         1 ASP         0.0478
    145 H54        15.5765   22.8622  -10.2137 H         1 ASP         0.0478
    146 H55        12.5856   19.9598  -12.1464 H         1 VAL         0.1883
    147 H56        12.7793   17.5220  -10.5897 H         1 VAL         0.0802
    148 H57        11.5126   16.4567  -12.4081 H         1 VAL         0.0343
    149 H58         9.5047   17.8950  -12.3162 H         1 VAL         0.0234
    150 H59        10.5122   19.2512  -11.7060 H         1 VAL         0.0234
    151 H60        10.3132   17.7646  -10.7175 H         1 VAL         0.0234
    152 H61        12.6222   17.5714  -14.3149 H         1 VAL         0.0234
    153 H62        11.8218   19.1172  -13.8717 H         1 VAL         0.0234
    154 H63        10.8339   17.7144  -14.4036 H         1 VAL         0.0234
    155 H64        14.4737   18.8592  -13.3560 H         1 PHE         0.1885
    156 H65        16.0611   16.4112  -13.7712 H         1 PHE         0.0823
    157 H66        17.1530   17.5850  -15.5463 H         1 PHE         0.0474
    158 H67        16.5587   19.1736  -14.9549 H         1 PHE         0.0474
    159 H68        15.4408   15.9391  -16.4527 H         1 PHE         0.0557
    160 H69        14.5297   20.0493  -15.7260 H         1 PHE         0.0557
    161 H70        13.4951   15.7758  -17.9599 H         1 PHE         0.0599
    162 H71        12.5827   19.8891  -17.2234 H         1 PHE         0.0599
    163 H72        12.0619   17.7489  -18.3460 H         1 PHE         0.0559
    164 H73        16.2457   17.1451  -11.1863 H         1 GLU         0.1883
    165 H74        18.4152   18.9284  -10.5562 H         1 GLU         0.0801
    166 H75        16.9696   16.7181   -9.0569 H         1 GLU         0.0330
    167 H76        16.8092   18.4972   -8.8672 H         1 GLU         0.0330
    168 H77        19.1281   18.5463   -7.9530 H         1 GLU         0.0433
    169 H78        19.1425   16.7512   -8.0170 H         1 GLU         0.0433
    170 H79        18.1496   15.4307  -11.1531 H         1 LEU         0.1875
    171 H80        21.0692   15.0959  -10.8732 H         1 LEU         0.0726
    172 H81        20.6645   12.7483  -11.2554 H         1 LEU         0.0308
    173 H82        18.9582   13.0801  -11.7084 H         1 LEU         0.0308
    174 H83        18.4643   13.7078   -9.3951 H         1 LEU         0.0297
    175 H84        18.6502   11.4280   -8.4537 H         1 LEU         0.0232
    176 H85        19.8295   11.0050   -9.7410 H         1 LEU         0.0232
    177 H86        18.1352   11.4152  -10.1745 H         1 LEU         0.0232
    178 H87        20.6955   14.5119   -8.7058 H         1 LEU         0.0232
    179 H88        21.3193   12.8289   -8.7768 H         1 LEU         0.0232
    180 H89        20.0515   13.2672   -7.5821 H         1 LEU         0.0232
@<TRIPOS>BOND
     1    1    2 1  
     2    2    3 1  
     3    2    5 1  
     4    3    4 2  
     5    3    9 am 
     6    5    6 1  
     7    6    7 1  
     8    6    8 1  
     9    9   10 1  
    10   10   11 1  
    11   10   13 1  
    12   11   12 2  
    13   11   17 am 
    14   13   14 1  
    15   14   15 2  
    16   14   16 am 
    17   17   18 1  
    18   18   19 1  
    19   18   21 1  
    20   19   20 2  
    21   19   25 am 
    22   21   22 1  
    23   22   23 ar 
    24   22   24 ar 
    25   25   26 1  
    26   26   27 1  
    27   26   29 1  
    28   27   28 2  
    29   27   33 am 
    30   29   30 1  
    31   30   31 1  
    32   30   32 1  
    33   33   34 1  
    34   33   39 1  
    35   34   35 1  
    36   34   37 1  
    37   35   36 2  
    38   35   40 am 
    39   37   38 1  
    40   38   39 1  
    41   40   41 1  
    42   41   42 1  
    43   41   44 1  
    44   42   43 2  
    45   42   48 am 
    46   44   45 1  
    47   45   46 1  
    48   46   47 1  
    49   48   49 1  
    50   49   50 1  
    51   49   52 1  
    52   50   51 2  
    53   50   56 am 
    54   52   53 1  
    55   53   54 ar 
    56   53   55 ar 
    57   56   57 1  
    58   57   58 1  
    59   57   60 1  
    60   58   59 2  
    61   58   63 am 
    62   60   61 1  
    63   60   62 1  
    64   63   64 1  
    65   64   65 1  
    66   64   67 1  
    67   65   66 2  
    68   65   74 am 
    69   67   68 1  
    70   68   69 ar 
    71   68   70 ar 
    72   69   71 ar 
    73   70   72 ar 
    74   71   73 ar 
    75   72   73 ar 
    76   74   75 1  
    77   75   76 1  
    78   75   78 1  
    79   76   77 2  
    80   76   83 am 
    81   78   79 1  
    82   79   80 1  
    83   80   81 ar 
    84   80   82 ar 
    85   83   84 1  
    86   84   85 1  
    87   84   87 1  
    88   85   86 ar 
    89   85   91 ar 
    90   87   88 1  
    91   88   89 1  
    92   88   90 1  
    93    1   92 1  
    94    1   93 1  
    95    1   94 1  
    96    2   95 1  
    97    5   96 1  
    98    5   97 1  
    99    6   98 1  
   100    7   99 1  
   101    7  100 1  
   102    7  101 1  
   103    8  102 1  
   104    8  103 1  
   105    8  104 1  
   106    9  105 1  
   107   10  106 1  
   108   13  107 1  
   109   13  108 1  
   110   16  109 1  
   111   16  110 1  
   112   17  111 1  
   113   18  112 1  
   114   21  113 1  
   115   21  114 1  
   116   25  115 1  
   117   26  116 1  
   118   29  117 1  
   119   29  118 1  
   120   30  119 1  
   121   31  120 1  
   122   31  121 1  
   123   31  122 1  
   124   32  123 1  
   125   32  124 1  
   126   32  125 1  
   127   34  126 1  
   128   37  127 1  
   129   37  128 1  
   130   38  129 1  
   131   38  130 1  
   132   39  131 1  
   133   39  132 1  
   134   40  133 1  
   135   41  134 1  
   136   44  135 1  
   137   44  136 1  
   138   45  137 1  
   139   45  138 1  
   140   47  139 1  
   141   47  140 1  
   142   47  141 1  
   143   48  142 1  
   144   49  143 1  
   145   52  144 1  
   146   52  145 1  
   147   56  146 1  
   148   57  147 1  
   149   60  148 1  
   150   61  149 1  
   151   61  150 1  
   152   61  151 1  
   153   62  152 1  
   154   62  153 1  
   155   62  154 1  
   156   63  155 1  
   157   64  156 1  
   158   67  157 1  
   159   67  158 1  
   160   69  159 1  
   161   70  160 1  
   162   71  161 1  
   163   72  162 1  
   164   73  163 1  
   165   74  164 1  
   166   75  165 1  
   167   78  166 1  
   168   78  167 1  
   169   79  168 1  
   170   79  169 1  
   171   83  170 1  
   172   84  171 1  
   173   87  172 1  
   174   87  173 1  
   175   88  174 1  
   176   89  175 1  
   177   89  176 1  
   178   89  177 1  
   179   90  178 1  
   180   90  179 1  
   181   90  180 1  
@<TRIPOS>SUBSTRUCTURE
     1 LEU         1

