5o9q_ligand
  -I-interpret- 

 88 92  0  0  0  0  0  0  0  0999 V2000
   -9.0410   17.3320   17.3070 C   0  0  0  0  0
   -9.5290   15.8860   17.3760 C   0  0  0  0  0
   -8.8020   14.9630   16.3810 C   0  0  0  0  0
   -9.7480   18.1690   18.3760 C   0  0  0  0  0
  -22.6510    9.1970   17.4400 C   0  0  0  0  0
  -22.8630    9.5320   16.0990 C   0  0  0  0  0
  -22.2120    8.8270   15.0880 C   0  0  0  0  0
  -21.3460    7.7860   15.4190 C   0  0  0  0  0
  -21.1390    7.4540   16.7600 C   0  0  0  0  0
  -21.7840    8.1530   17.7780 C   0  0  0  0  0
  -21.5530    7.7990   19.1120 C   0  0  0  0  0
  -20.2500    8.2550   19.4990 O   0  0  0  0  0
  -19.9190    7.9030   20.8430 C   0  0  0  0  0
  -18.7780    8.7910   21.3410 C   0  0  0  0  0
  -17.5540    8.4040   21.6500 C   0  0  0  0  0
  -18.8630   10.0970   21.5400 N   0  0  0  0  0
  -17.7670   10.4850   21.9480 N   0  0  0  0  0
  -16.9400    9.5230   22.0240 N   0  0  0  0  0
  -15.5620    9.6370   22.5080 C   0  0  0  0  0
  -14.8770   10.9430   22.1190 C   0  0  0  0  0
  -14.5530   10.8960   20.7270 O   0  0  0  0  0
  -15.7910    9.6120   23.9190 O   0  0  0  0  0
  -14.5810    9.6700   24.6850 C   0  0  0  0  0
  -14.9060    9.4560   26.1720 C   0  0  0  0  0
  -16.2000    9.9670   26.4540 O   0  0  0  0  0
  -13.9090   11.0100   24.4290 C   0  0  0  0  0
  -12.6830   11.0970   25.1720 O   0  0  0  0  0
  -13.6040   11.1290   22.9430 C   0  0  0  0  0
  -13.0890   12.4500   22.7160 O   0  0  0  0  0
  -11.8730   12.5020   21.9840 C   0  0  0  0  0
  -11.5380   13.9680   21.7590 C   0  0  0  0  0
  -12.5780   14.5810   20.9780 O   0  0  0  0  0
  -10.8430   11.8960   22.7660 O   0  0  0  0  0
   -9.5720   11.8870   22.0990 C   0  0  0  0  0
   -8.5980   11.1630   23.0330 C   0  0  0  0  0
   -8.4930   11.8610   24.2780 O   0  0  0  0  0
   -9.1180   13.3290   21.8210 C   0  0  0  0  0
   -7.9070   13.2980   21.0500 O   0  0  0  0  0
  -10.1940   14.0810   21.0460 C   0  0  0  0  0
   -9.8140   15.4630   20.9690 O   0  0  0  0  0
  -10.0430   16.0670   19.6860 C   0  0  0  0  0
   -9.2600   15.3940   18.6930 O   0  0  0  0  0
   -7.4250   14.8240   16.7500 O   0  0  0  0  0
   -9.3340   17.8850   16.0180 O   0  0  0  0  0
   -9.1590   19.4750   18.4140 O   0  0  0  0  0
   -9.6140   17.5250   19.7530 C   0  0  0  0  0
  -10.4310   18.2370   20.6840 O   0  0  0  0  0
   -7.9645   17.3471   17.4774 H   0  0  0  0  0
  -10.5905   15.8824   17.1282 H   0  0  0  0  0
   -8.8617   15.3970   15.3829 H   0  0  0  0  0
   -9.2755   13.9813   16.3939 H   0  0  0  0  0
  -10.8061   18.2324   18.1221 H   0  0  0  0  0
  -23.1638    9.7521   18.2255 H   0  0  0  0  0
  -23.5397   10.3473   15.8434 H   0  0  0  0  0
  -22.3794    9.0886   14.0432 H   0  0  0  0  0
  -20.8317    7.2325   14.6334 H   0  0  0  0  0
  -20.4636    6.6369   17.0134 H   0  0  0  0  0
  -21.6094    6.7157   19.2191 H   0  0  0  0  0
  -22.3073    8.2598   19.7497 H   0  0  0  0  0
  -19.6064    6.8593   20.8771 H   0  0  0  0  0
  -20.7923    8.0451   21.4797 H   0  0  0  0  0
  -17.1406    7.3963   21.6081 H   0  0  0  0  0
  -14.9039    8.8685   22.1025 H   0  0  0  0  0
  -15.5447   11.7820   22.3148 H   0  0  0  0  0
  -14.1210   11.7146   20.4723 H   0  0  0  0  0
  -13.8905    8.8809   24.3873 H   0  0  0  0  0
  -14.1692    9.9776   26.7828 H   0  0  0  0  0
  -14.8797    8.3902   26.3991 H   0  0  0  0  0
  -16.4006    9.8322   27.3831 H   0  0  0  0  0
  -14.5728   11.8150   24.7444 H   0  0  0  0  0
  -12.2675   11.9458   25.0033 H   0  0  0  0  0
  -12.8867   10.3638   22.6464 H   0  0  0  0  0
  -11.9618   11.9785   21.0321 H   0  0  0  0  0
  -11.4684   14.4831   22.7171 H   0  0  0  0  0
  -12.3666   15.5066   20.8359 H   0  0  0  0  0
   -9.6215   11.3788   21.1360 H   0  0  0  0  0
   -7.6156   11.1244   22.5624 H   0  0  0  0  0
   -8.9671   10.1546   23.2201 H   0  0  0  0  0
   -7.8802   11.3969   24.8531 H   0  0  0  0  0
   -8.9451   13.8400   22.7681 H   0  0  0  0  0
   -7.6185   14.1964   20.8732 H   0  0  0  0  0
  -10.2910   13.6531   20.0482 H   0  0  0  0  0
  -11.0988   15.9942   19.4252 H   0  0  0  0  0
   -6.9834   14.2469   16.1226 H   0  0  0  0  0
   -8.8942   17.3658   15.3408 H   0  0  0  0  0
   -9.2397   19.8864   17.5504 H   0  0  0  0  0
   -8.5745   17.5670   20.0783 H   0  0  0  0  0
  -10.1509   19.1546   20.7174 H   0  0  0  0  0
  2  1  1  0  0  0
  1  4  1  0  0  0
  1 44  1  0  0  0
  2  3  1  0  0  0
 42  2  1  0  0  0
  3 43  1  0  0  0
  4 45  1  0  0  0
  4 46  1  0  0  0
  5  6  4  0  0  0
 10  5  4  0  0  0
  6  7  4  0  0  0
  8  7  4  0  0  0
  9  8  4  0  0  0
 10  9  4  0  0  0
 11 10  1  0  0  0
 12 11  1  0  0  0
 13 12  1  0  0  0
 14 13  1  0  0  0
 15 14  4  0  0  0
 16 14  4  0  0  0
 18 15  4  0  0  0
 17 16  4  0  0  0
 18 17  4  0  0  0
 19 18  1  0  0  0
 20 19  1  0  0  0
 19 22  1  0  0  0
 20 21  1  0  0  0
 28 20  1  0  0  0
 23 22  1  0  0  0
 23 24  1  0  0  0
 26 23  1  0  0  0
 24 25  1  0  0  0
 26 27  1  0  0  0
 28 26  1  0  0  0
 29 28  1  0  0  0
 30 29  1  0  0  0
 31 30  1  0  0  0
 30 33  1  0  0  0
 31 32  1  0  0  0
 39 31  1  0  0  0
 34 33  1  0  0  0
 34 35  1  0  0  0
 37 34  1  0  0  0
 35 36  1  0  0  0
 37 38  1  0  0  0
 39 37  1  0  0  0
 40 39  1  0  0  0
 41 40  1  0  0  0
 41 42  1  0  0  0
 41 46  1  0  0  0
 46 47  1  0  0  0
  1 48  1  0  0  0
  2 49  1  0  0  0
  3 50  1  0  0  0
  3 51  1  0  0  0
  4 52  1  0  0  0
  5 53  1  0  0  0
  6 54  1  0  0  0
  7 55  1  0  0  0
  8 56  1  0  0  0
  9 57  1  0  0  0
 11 58  1  0  0  0
 11 59  1  0  0  0
 13 60  1  0  0  0
 13 61  1  0  0  0
 15 62  1  0  0  0
 19 63  1  0  0  0
 20 64  1  0  0  0
 21 65  1  0  0  0
 23 66  1  0  0  0
 24 67  1  0  0  0
 24 68  1  0  0  0
 25 69  1  0  0  0
 26 70  1  0  0  0
 27 71  1  0  0  0
 28 72  1  0  0  0
 30 73  1  0  0  0
 31 74  1  0  0  0
 32 75  1  0  0  0
 34 76  1  0  0  0
 35 77  1  0  0  0
 35 78  1  0  0  0
 36 79  1  0  0  0
 37 80  1  0  0  0
 38 81  1  0  0  0
 39 82  1  0  0  0
 41 83  1  0  0  0
 43 84  1  0  0  0
 44 85  1  0  0  0
 45 86  1  0  0  0
 46 87  1  0  0  0
 47 88  1  0  0  0
M  END
$$$$
