6dyr_ligand
  -I-interpret- 

 27 27  0  0  0  0  0  0  0  0999 V2000
    6.9180   -0.9610   12.7950 N   0  0  0  0  0
    6.7350   -1.7760   13.8840 C   0  0  0  0  0
    9.6890   -3.9900   14.6480 N   0  0  0  0  0
    7.8730   -2.3040   14.6910 C   0  0  0  0  0
   13.4090   -6.5930   15.8780 N   0  3  0  0  0
    8.3820   -3.6200   14.1350 C   0  0  0  0  0
   10.3830   -5.0200   14.1580 C   0  0  0  0  0
    5.3910   -1.9560   13.9840 C   0  0  0  0  0
    5.7140   -0.6730   12.2930 C   0  0  0  0  0
   11.8120   -5.1730   14.6300 C   0  0  0  0  0
   12.0570   -6.4910   15.3370 C   0  0  0  0  0
    4.7580   -1.2560   12.9810 N   0  0  0  0  0
    9.9000   -5.7970   13.3370 O   0  0  0  0  0
   10.0912   -3.4437   15.4097 H   0  0  0  0  0
    7.5264   -2.4701   15.7110 H   0  0  0  0  0
    8.6854   -1.5779   14.6603 H   0  0  0  0  0
   13.5213   -7.4946   16.3415 H   0  0  0  0  0
   14.0849   -6.5134   15.1182 H   0  0  0  0  0
   13.5622   -5.8420   16.5510 H   0  0  0  0  0
    7.6784   -4.3981   14.4311 H   0  0  0  0  0
    8.4703   -3.5100   13.0542 H   0  0  0  0  0
    4.8917   -2.5608   14.7410 H   0  0  0  0  0
    5.5461   -0.0363   11.4244 H   0  0  0  0  0
   12.0182   -4.3703   15.3379 H   0  0  0  0  0
   12.4593   -5.1381   13.7537 H   0  0  0  0  0
   11.3560   -6.5616   16.1687 H   0  0  0  0  0
   11.9247   -7.2921   14.6098 H   0  0  0  0  0
  2  1  4  0  0  0
  1  9  4  0  0  0
  4  2  1  0  0  0
  2  8  4  0  0  0
  3  6  1  0  0  0
  7  3  1  0  0  0
  6  4  1  0  0  0
 11  5  1  0  0  0
 10  7  1  0  0  0
  7 13  2  0  0  0
  8 12  4  0  0  0
 12  9  4  0  0  0
 10 11  1  0  0  0
  3 14  1  0  0  0
  4 15  1  0  0  0
  4 16  1  0  0  0
  5 17  1  0  0  0
  5 18  1  0  0  0
  5 19  1  0  0  0
  6 20  1  0  0  0
  6 21  1  0  0  0
  8 22  1  0  0  0
  9 23  1  0  0  0
 10 24  1  0  0  0
 10 25  1  0  0  0
 11 26  1  0  0  0
 11 27  1  0  0  0
M  END
$$$$
