2vpo_ligand
  -I-interpret- 

 21 21  0  0  0  0  0  0  0  0999 V2000
   43.5300   29.8500   33.4510 O   0  0  0  0  0
   43.6750   31.0110   33.8780 C   0  0  0  0  0
   44.0070   31.2240   35.0690 O   0  0  0  0  0
   43.5020   32.1680   32.9050 C   0  0  0  0  0
   42.8700   31.7640   31.6420 N   0  0  0  0  0
   42.1840   32.5680   30.9210 C   0  0  0  0  0
   41.5790   32.0840   29.6210 C   0  0  0  0  0
   41.9840   33.8400   31.2840 N   0  0  0  0  0
   42.4050   34.4470   32.5450 C   0  0  0  0  0
   42.6500   33.2880   33.5100 C   0  0  0  0  0
   43.2810   33.8230   34.6840 O   0  0  0  0  0
   44.0705   32.1702   35.2180 H   0  0  0  0  0
   44.5134   32.5205   32.7026 H   0  0  0  0  0
   42.3732   31.7430   28.9568 H   0  0  0  0  0
   40.8951   31.2600   29.8246 H   0  0  0  0  0
   41.0345   32.9016   29.1485 H   0  0  0  0  0
   41.4935   34.4402   30.6210 H   0  0  0  0  0
   41.6441   35.1263   32.9293 H   0  0  0  0  0
   43.3051   35.0473   32.4128 H   0  0  0  0  0
   41.6910   32.8289   33.7501 H   0  0  0  0  0
   43.4465   33.1131   35.3087 H   0  0  0  0  0
  1  2  2  0  0  0
  2  3  1  0  0  0
  2  4  1  0  0  0
  4  5  1  0  0  0
  4 10  1  0  0  0
  5  6  2  0  0  0
  6  7  1  0  0  0
  6  8  1  0  0  0
  8  9  1  0  0  0
  9 10  1  0  0  0
 10 11  1  0  0  0
  3 12  1  0  0  0
  4 13  1  0  0  0
  7 14  1  0  0  0
  7 15  1  0  0  0
  7 16  1  0  0  0
  8 17  1  0  0  0
  9 18  1  0  0  0
  9 19  1  0  0  0
 10 20  1  0  0  0
 11 21  1  0  0  0
M  END
$$$$
