4hv7_ligand
  -I-interpret- 

 33 34  0  0  0  0  0  0  0  0999 V2000
   23.8700   -8.8480   -6.3700 C   0  0  0  0  0
   24.2250   -8.1530   -5.2580 N   0  0  0  0  0
   21.8830   -8.3280   -9.2430 O   0  0  0  0  0
   22.6450   -8.8680   -8.4120 C   0  0  0  0  0
   23.0550   -8.2390   -7.2910 N   0  0  0  0  0
   23.1370  -10.2310   -8.6420 C   0  0  0  0  0
   24.3500  -10.0950   -6.5310 N   0  0  0  0  0
   25.3720  -14.6180   -8.2330 O   0  0  0  0  0
   24.0330  -10.8070   -7.6270 C   0  0  0  0  0
   24.4920  -12.0530   -7.8230 N   0  0  0  0  0
   24.1430  -12.7410   -8.9250 C   0  0  0  0  0
   22.8010  -10.9420   -9.7360 N   0  0  0  0  0
   23.3000  -12.1810   -9.8850 C   0  0  0  0  0
   24.7240  -14.1080   -9.1210 C   0  0  0  0  0
   24.5970  -14.6950  -10.3000 N   0  0  0  0  0
   25.2720  -15.9400  -10.6230 C   0  0  0  0  0
   26.7740  -15.8320  -10.8240 C   0  0  0  0  0
   27.4630  -16.8410  -10.8340 O   0  0  0  0  0
   27.3060  -14.6220  -10.9840 N   0  0  0  0  0
   28.6910  -14.4470  -11.3920 C   0  0  0  0  0
   28.8950  -14.7050  -12.8740 C   0  0  0  0  0
   29.3110  -13.8120  -13.6010 O   0  0  0  0  0
   28.6280  -15.8990  -13.4130 O   0  0  0  0  0
   23.8867   -7.2004   -5.1223 H   0  0  0  0  0
   24.9566  -10.5017   -5.8189 H   0  0  0  0  0
   23.0412  -12.7589  -10.7723 H   0  0  0  0  0
   24.0048  -14.2583  -11.0063 H   0  0  0  0  0
   24.8548  -16.2845  -11.5692 H   0  0  0  0  0
   25.1181  -16.6072   -9.7749 H   0  0  0  0  0
   26.7285  -13.7981  -10.8164 H   0  0  0  0  0
   29.2986  -15.1629  -10.8384 H   0  0  0  0  0
   28.9749  -13.4147  -11.1873 H   0  0  0  0  0
   28.3126  -16.4943  -12.7291 H   0  0  0  0  0
  1  2  2  0  0  0
  1  5  4  0  0  0
  7  1  1  0  0  0
  4  3  2  0  0  0
  4  5  1  0  0  0
  6  4  1  0  0  0
  9  6  4  0  0  0
  6 12  4  0  0  0
  9  7  1  0  0  0
 14  8  2  0  0  0
 10  9  4  0  0  0
 11 10  4  0  0  0
 11 13  4  0  0  0
 11 14  1  0  0  0
 12 13  4  0  0  0
 14 15  1  0  0  0
 15 16  1  0  0  0
 16 17  1  0  0  0
 17 18  2  0  0  0
 17 19  1  0  0  0
 19 20  1  0  0  0
 20 21  1  0  0  0
 21 22  2  0  0  0
 21 23  1  0  0  0
  2 24  1  0  0  0
  7 25  1  0  0  0
 13 26  1  0  0  0
 15 27  1  0  0  0
 16 28  1  0  0  0
 16 29  1  0  0  0
 19 30  1  0  0  0
 20 31  1  0  0  0
 20 32  1  0  0  0
 23 33  1  0  0  0
M  END
$$$$
