6p87_ligand
  -I-interpret- 

 50 53  0  0  0  0  0  0  0  0999 V2000
  -13.4810   27.7610   16.5390 C   0  0  0  0  0
  -13.0570   26.6330   15.6480 C   0  0  0  0  0
  -14.3920   27.7540   17.5830 C   0  0  0  0  0
   -9.2760   26.0880   14.6010 C   0  0  0  0  0
  -13.8880   24.7040   17.1220 C   0  0  0  0  0
  -14.7540   23.0770   15.7230 C   0  0  0  0  0
   -8.7730   27.4980   12.7410 C   0  0  0  0  0
  -14.4910   23.4090   17.0060 C   0  0  0  0  0
   -8.6820   27.6590   11.2830 C   0  0  0  0  0
  -10.9010   26.3780   17.0330 C   0  0  0  0  0
  -12.0620   29.7630   15.5730 C   0  0  0  0  0
  -13.4040   31.2720   17.5810 C   0  0  0  0  0
   -8.8030   28.6270   13.6290 C   0  0  0  0  0
   -8.5630   28.9870   10.8390 C   0  0  0  0  0
   -8.3720   26.5580    8.9370 C   0  0  0  0  0
  -11.8270   31.1220   15.7410 C   0  0  0  0  0
  -12.4960   31.8680   16.7350 C   0  0  0  0  0
   -8.5800   30.0750   11.7640 C   0  0  0  0  0
   -8.7100   29.9040   13.1340 C   0  0  0  0  0
  -13.6370   29.8960   17.4110 C   0  0  0  0  0
  -12.9820   29.1270   16.4150 C   0  0  0  0  0
  -13.7150   25.2990   15.9100 C   0  0  0  0  0
  -10.8110   26.2520   14.5260 C   0  0  0  0  0
  -11.5490   26.4360   15.6980 N   0  0  0  0  0
  -14.4900   29.0460   18.1180 N   0  0  0  0  0
   -8.7720   26.2240   13.2770 O   0  0  0  0  0
  -11.3510   26.1890   13.4280 O   0  0  0  0  0
   -8.8230   26.5380   10.3780 O   0  0  0  0  0
  -14.2960   24.2890   14.6350 S   0  0  0  0  0
  -13.3926   26.9533   14.6616 H   0  0  0  0  0
  -14.9448   26.8821   17.9328 H   0  0  0  0  0
   -9.0142   25.1133   15.0127 H   0  0  0  0  0
   -8.8413   26.8429   15.2562 H   0  0  0  0  0
  -13.6014   25.1593   18.0700 H   0  0  0  0  0
  -15.2102   22.1338   15.4225 H   0  0  0  0  0
  -14.7124   22.7647   17.8568 H   0  0  0  0  0
  -10.4469   25.3970   17.1727 H   0  0  0  0  0
  -10.1321   27.1480   17.0960 H   0  0  0  0  0
  -11.6501   26.5465   17.8067 H   0  0  0  0  0
  -11.5390   29.2016   14.7988 H   0  0  0  0  0
  -13.9213   31.8438   18.3514 H   0  0  0  0  0
   -8.9003   28.4685   14.7030 H   0  0  0  0  0
   -8.4562   29.1896    9.7733 H   0  0  0  0  0
   -8.9018   27.3466    8.4027 H   0  0  0  0  0
   -7.2993   26.7469    8.8960 H   0  0  0  0  0
   -8.5905   25.5948    8.4758 H   0  0  0  0  0
  -11.1101   31.6232   15.0907 H   0  0  0  0  0
  -12.2903   32.9338   16.8345 H   0  0  0  0  0
   -8.4863   31.0887   11.3743 H   0  0  0  0  0
   -8.7377   30.7643   13.8028 H   0  0  0  0  0
  2  1  1  0  0  0
  1  3  4  0  0  0
  1 21  4  0  0  0
  2 22  1  0  0  0
 24  2  1  0  0  0
  3 25  4  0  0  0
 23  4  1  0  0  0
  4 26  1  0  0  0
  5  8  4  0  0  0
 22  5  4  0  0  0
  6  8  4  0  0  0
 29  6  4  0  0  0
  7  9  4  0  0  0
  7 13  4  0  0  0
 26  7  1  0  0  0
  9 14  4  0  0  0
  9 28  1  0  0  0
 24 10  1  0  0  0
 11 16  4  0  0  0
 21 11  4  0  0  0
 12 17  4  0  0  0
 20 12  4  0  0  0
 13 19  4  0  0  0
 14 18  4  0  0  0
 28 15  1  0  0  0
 16 17  4  0  0  0
 19 18  4  0  0  0
 21 20  4  0  0  0
 20 25  4  0  0  0
 22 29  4  0  0  0
 23 24  1  0  0  0
 23 27  2  0  0  0
  2 30  1  0  0  0
  3 31  1  0  0  0
  4 32  1  0  0  0
  4 33  1  0  0  0
  5 34  1  0  0  0
  6 35  1  0  0  0
  8 36  1  0  0  0
 10 37  1  0  0  0
 10 38  1  0  0  0
 10 39  1  0  0  0
 11 40  1  0  0  0
 12 41  1  0  0  0
 13 42  1  0  0  0
 14 43  1  0  0  0
 15 44  1  0  0  0
 15 45  1  0  0  0
 15 46  1  0  0  0
 16 47  1  0  0  0
 17 48  1  0  0  0
 18 49  1  0  0  0
 19 50  1  0  0  0
M  END
$$$$
