4msk_ligand
  -I-interpret- 

 52 56  0  0  0  0  0  0  0  0999 V2000
   35.4340   26.0950   18.0090 N   0  0  0  0  0
   35.5710   25.8260   16.6640 C   0  0  0  0  0
   36.3730   24.9410   16.2830 O   0  0  0  0  0
   34.9430   26.6300   15.6510 C   0  0  0  0  0
   34.9550   26.4210   14.1850 C   0  0  0  0  0
   34.2470   27.3690   13.3090 C   0  0  0  0  0
   33.5310   28.5200   13.8650 C   0  0  0  0  0
   33.5050   28.7150   15.3070 C   0  0  0  0  0
   34.1790   27.7840   16.1920 C   0  0  0  0  0
   34.1240   27.9580   17.5500 N   0  0  0  0  0
   34.7090   27.1590   18.4620 C   0  0  0  0  0
   34.6050   27.5490   19.9000 C   0  0  0  0  0
   33.1690   27.5080   20.3130 C   0  0  0  0  0
   32.7430   26.1500   20.5780 C   0  0  0  0  0
   32.2230   25.4870   19.6920 O   0  0  0  0  0
   33.0220   25.7760   21.8580 N   0  0  0  0  0
   32.6720   24.6570   22.5540 C   0  0  0  0  0
   33.1530   24.5160   23.9200 C   0  0  0  0  0
   32.8370   23.3090   24.6530 C   0  0  0  0  0
   31.8780   23.6120   21.9370 C   0  0  0  0  0
   31.5630   22.4200   22.6560 C   0  0  0  0  0
   31.7560   20.9830   24.7440 C   0  0  0  0  0
   32.0460   22.2600   24.0130 C   0  0  0  0  0
   31.0930   19.8620   24.3260 N   0  0  0  0  0
   31.0580   18.9490   25.3660 N   0  0  0  0  0
   31.7100   19.5390   26.4180 C   0  0  0  0  0
   31.9370   19.0020   27.8100 C   0  0  0  0  0
   32.1310   20.7790   26.0150 O   0  0  0  0  0
   31.5520   17.6290   28.1630 C   0  0  0  0  0
   31.7640   17.1200   29.5170 C   0  0  0  0  0
   32.3700   17.9570   30.5560 C   0  0  0  0  0
   32.7510   19.3110   30.2150 C   0  0  0  0  0
   32.5450   19.8420   28.8690 C   0  0  0  0  0
   35.8877   25.4810   18.6854 H   0  0  0  0  0
   35.4850   25.5701   13.7570 H   0  0  0  0  0
   34.2556   27.2122   12.2304 H   0  0  0  0  0
   33.0229   29.2233   13.2052 H   0  0  0  0  0
   32.9736   29.5694   15.7263 H   0  0  0  0  0
   34.9981   28.5564   20.0369 H   0  0  0  0  0
   35.1831   26.8561   20.5114 H   0  0  0  0  0
   32.5611   27.9133   19.5041 H   0  0  0  0  0
   33.0505   28.0953   21.2236 H   0  0  0  0  0
   33.5865   26.4441   22.3828 H   0  0  0  0  0
   33.7421   25.3071   24.3839 H   0  0  0  0  0
   33.1872   23.1829   25.6775 H   0  0  0  0  0
   31.5188   23.7380   20.9156 H   0  0  0  0  0
   30.9649   21.6375   22.1890 H   0  0  0  0  0
   31.1038   16.9833   27.4079 H   0  0  0  0  0
   31.4660   16.0996   29.7580 H   0  0  0  0  0
   32.5301   17.5690   31.5620 H   0  0  0  0  0
   33.2005   19.9474   30.9772 H   0  0  0  0  0
   32.8415   20.8660   28.6417 H   0  0  0  0  0
  1  2  1  0  0  0
  1 11  1  0  0  0
  2  3  2  0  0  0
  2  4  1  0  0  0
  4  5  4  0  0  0
  4  9  4  0  0  0
  5  6  4  0  0  0
  6  7  4  0  0  0
  7  8  4  0  0  0
  8  9  4  0  0  0
  9 10  1  0  0  0
 10 11  2  0  0  0
 11 12  1  0  0  0
 12 13  1  0  0  0
 13 14  1  0  0  0
 14 15  2  0  0  0
 14 16  1  0  0  0
 16 17  1  0  0  0
 17 18  4  0  0  0
 17 20  4  0  0  0
 18 19  4  0  0  0
 19 23  4  0  0  0
 20 21  4  0  0  0
 21 23  4  0  0  0
 23 22  1  0  0  0
 22 24  4  0  0  0
 22 28  4  0  0  0
 24 25  4  0  0  0
 25 26  4  0  0  0
 26 27  1  0  0  0
 26 28  4  0  0  0
 27 29  4  0  0  0
 27 33  4  0  0  0
 29 30  4  0  0  0
 30 31  4  0  0  0
 31 32  4  0  0  0
 32 33  4  0  0  0
  1 34  1  0  0  0
  5 35  1  0  0  0
  6 36  1  0  0  0
  7 37  1  0  0  0
  8 38  1  0  0  0
 12 39  1  0  0  0
 12 40  1  0  0  0
 13 41  1  0  0  0
 13 42  1  0  0  0
 16 43  1  0  0  0
 18 44  1  0  0  0
 19 45  1  0  0  0
 20 46  1  0  0  0
 21 47  1  0  0  0
 29 48  1  0  0  0
 30 49  1  0  0  0
 31 50  1  0  0  0
 32 51  1  0  0  0
 33 52  1  0  0  0
M  END
$$$$
