6gcw_ligand
  -I-interpret- 

 72 75  0  0  0  0  0  0  0  0999 V2000
    0.4230  -34.7170   13.9720 C   0  0  0  0  0
   -0.3120  -35.8980   14.0330 C   0  0  0  0  0
    0.1280  -36.9440   14.8160 C   0  0  0  0  0
    1.2950  -36.7710   15.5420 N   0  0  0  0  0
    1.5310  -34.6150   14.7100 N   0  0  0  0  0
    1.9770  -35.6240   15.4720 C   0  0  0  0  0
   15.2050  -32.0570   19.1190 C   0  0  0  0  0
    0.6350  -34.0700    8.4130 C   0  0  0  0  0
   15.9990  -30.8750   18.5600 C   0  0  0  0  0
    1.9540  -30.6890   13.5580 C   0  0  0  0  0
    2.0990  -30.3350   12.2220 C   0  0  0  0  0
    1.2320  -31.8250   13.9070 C   0  0  0  0  0
    1.5290  -31.1330   11.2380 C   0  0  0  0  0
    5.5440  -33.4200   17.6900 C   0  0  0  0  0
    4.8500  -32.4190   15.6170 C   0  0  0  0  0
    4.6740  -34.4820   17.4950 C   0  0  0  0  0
    3.9860  -33.4890   15.4160 C   0  0  0  0  0
   10.3140  -30.2650   19.1810 C   0  0  0  0  0
   12.8760  -28.7250   18.3210 C   0  0  0  0  0
   12.0180  -28.5210   19.5690 C   0  0  0  0  0
    6.5290  -31.3420   16.9980 C   0  0  0  0  0
    8.1700  -31.5350   18.7520 C   0  0  0  0  0
   15.1500  -29.6420   18.2580 C   0  0  0  0  0
    0.2480  -33.0370   10.5610 C   0  0  0  0  0
    5.6440  -32.4010   16.7620 C   0  0  0  0  0
    3.8770  -34.5110   16.3530 C   0  0  0  0  0
    9.0090  -30.2660   18.9630 C   0  0  0  0  0
    0.6600  -32.6220   12.9230 C   0  0  0  0  0
    0.8000  -32.2610   11.5840 C   0  0  0  0  0
    8.5640  -29.0040   18.9630 N   0  0  0  0  0
    9.5640  -28.2530   19.1730 N   0  0  0  0  0
    1.0840  -33.2410    9.5340 N   0  0  0  0  0
    6.7640  -31.2080   18.4450 N   0  3  0  0  0
   13.8490  -29.8000   18.5430 N   0  0  0  0  0
    3.0830  -35.5810   16.2150 N   0  0  0  0  0
   -0.0580  -33.7310   13.1830 N   0  0  0  0  0
   10.6360  -28.9790   19.3110 N   0  0  0  0  0
   15.6460  -28.6120   17.7920 O   0  0  0  0  0
   -0.8860  -33.5060   10.6520 O   0  0  0  0  0
   -1.7280  -36.1080   13.1530 Cl  0  0  0  0  0
   -0.4270  -37.8810   14.8625 H   0  0  0  0  0
   14.7237  -31.7614   20.0512 H   0  0  0  0  0
   14.4464  -32.3577   18.3964 H   0  0  0  0  0
   15.8811  -32.8912   19.3063 H   0  0  0  0  0
    0.3938  -35.0693    8.7755 H   0  0  0  0  0
   -0.2509  -33.6216    7.9632 H   0  0  0  0  0
    1.4291  -34.1338    7.6691 H   0  0  0  0  0
   16.4424  -31.2001   17.6188 H   0  0  0  0  0
   16.7273  -30.5877   19.3184 H   0  0  0  0  0
    2.4078  -30.0740   14.3351 H   0  0  0  0  0
    2.6554  -29.4385   11.9484 H   0  0  0  0  0
    1.1142  -32.0915   14.9573 H   0  0  0  0  0
    1.6555  -30.8710   10.1875 H   0  0  0  0  0
    6.1588  -33.3885   18.5895 H   0  0  0  0  0
    4.9056  -31.6076   14.8912 H   0  0  0  0  0
    4.6144  -35.2863   18.2282 H   0  0  0  0  0
    3.3835  -33.5278   14.5085 H   0  0  0  0  0
   10.9790  -31.1265   19.2410 H   0  0  0  0  0
   13.4105  -27.8008   18.1014 H   0  0  0  0  0
   12.2305  -28.9959   17.4855 H   0  0  0  0  0
   12.0034  -27.4617   19.8256 H   0  0  0  0  0
   12.4394  -29.0971   20.3927 H   0  0  0  0  0
    6.0981  -30.4174   16.6139 H   0  0  0  0  0
    7.4749  -31.5414   16.4944 H   0  0  0  0  0
    8.1957  -32.1228   19.6696 H   0  0  0  0  0
    8.5873  -32.0894   17.9114 H   0  0  0  0  0
    2.0160  -32.8266    9.5328 H   0  0  0  0  0
    6.1499  -31.8483   18.9483 H   0  0  0  0  0
    6.5691  -30.2488   18.7321 H   0  0  0  0  0
   13.5280  -30.6902   18.9237 H   0  0  0  0  0
    3.3451  -36.4290   16.7176 H   0  0  0  0  0
   -0.9875  -33.8292   12.7745 H   0  0  0  0  0
  1  2  4  0  0  0
  1  5  4  0  0  0
 36  1  1  0  0  0
  2  3  4  0  0  0
  2 40  1  0  0  0
  3  4  4  0  0  0
  6  4  4  0  0  0
  5  6  4  0  0  0
  6 35  1  0  0  0
  9  7  1  0  0  0
 32  8  1  0  0  0
 23  9  1  0  0  0
 10 11  4  0  0  0
 12 10  4  0  0  0
 13 11  4  0  0  0
 28 12  4  0  0  0
 29 13  4  0  0  0
 16 14  4  0  0  0
 14 25  4  0  0  0
 17 15  4  0  0  0
 15 25  4  0  0  0
 26 16  4  0  0  0
 26 17  4  0  0  0
 27 18  4  0  0  0
 18 37  4  0  0  0
 20 19  1  0  0  0
 19 34  1  0  0  0
 37 20  1  0  0  0
 25 21  1  0  0  0
 21 33  1  0  0  0
 22 27  1  0  0  0
 33 22  1  0  0  0
 34 23  1  0  0  0
 23 38  2  0  0  0
 29 24  1  0  0  0
 24 32  1  0  0  0
 24 39  2  0  0  0
 35 26  1  0  0  0
 27 30  4  0  0  0
 28 29  4  0  0  0
 28 36  1  0  0  0
 30 31  4  0  0  0
 31 37  4  0  0  0
  3 41  1  0  0  0
  7 42  1  0  0  0
  7 43  1  0  0  0
  7 44  1  0  0  0
  8 45  1  0  0  0
  8 46  1  0  0  0
  8 47  1  0  0  0
  9 48  1  0  0  0
  9 49  1  0  0  0
 10 50  1  0  0  0
 11 51  1  0  0  0
 12 52  1  0  0  0
 13 53  1  0  0  0
 14 54  1  0  0  0
 15 55  1  0  0  0
 16 56  1  0  0  0
 17 57  1  0  0  0
 18 58  1  0  0  0
 19 59  1  0  0  0
 19 60  1  0  0  0
 20 61  1  0  0  0
 20 62  1  0  0  0
 21 63  1  0  0  0
 21 64  1  0  0  0
 22 65  1  0  0  0
 22 66  1  0  0  0
 32 67  1  0  0  0
 33 68  1  0  0  0
 33 69  1  0  0  0
 34 70  1  0  0  0
 35 71  1  0  0  0
 36 72  1  0  0  0
M  END
$$$$
