6od6_ligand
  -I-interpret- 

 46 49  0  0  0  0  0  0  0  0999 V2000
  -30.2300  -46.4360   17.2360 C   0  0  0  0  0
  -31.6120  -46.0860   17.1710 C   0  0  0  0  0
  -32.0310  -45.0280   16.3670 C   0  0  0  0  0
  -33.3840  -44.7040   16.3180 C   0  0  0  0  0
  -34.2450  -45.4710   17.0840 C   0  0  0  0  0
  -32.5610  -46.7890   17.9010 C   0  0  0  0  0
  -37.7690  -45.4820   18.2340 C   0  0  0  0  0
  -40.4500  -44.9920   18.8250 C   0  0  0  0  0
  -39.9280  -44.6100   17.5880 C   0  0  0  0  0
  -38.5870  -44.8590   17.2890 C   0  0  0  0  0
  -40.1740  -46.0590   21.1390 C   0  0  0  0  0
  -38.3580  -44.9370   22.9190 C   0  0  0  0  0
  -39.3370  -42.9110   22.9370 C   0  0  0  0  0
  -38.2970  -45.8670   19.4680 C   0  0  0  0  0
  -39.6380  -45.6220   19.7680 C   0  0  0  0  0
  -41.3640  -46.9510   20.9130 C   0  0  0  0  0
  -38.2670  -46.3620   22.6730 C   0  0  0  0  0
  -37.4530  -44.0440   23.4570 C   0  0  0  0  0
  -38.0720  -42.7680   23.4670 C   0  0  0  0  0
  -40.6300  -44.8740   22.0260 C   0  0  0  0  0
  -35.6660  -45.1300   17.0310 C   0  0  0  0  0
  -41.7410  -44.7560   19.1050 F   0  0  0  0  0
  -29.1050  -46.7170   17.2840 N   0  0  0  0  0
  -36.4140  -45.7590   17.9910 N   0  0  0  0  0
  -39.1360  -46.8610   21.8390 N   0  0  0  0  0
  -37.3190  -47.1250   23.2940 N   0  0  0  0  0
  -39.4840  -44.2210   22.6150 N   0  0  0  0  0
  -33.8830  -46.5050   17.8750 N   0  0  0  0  0
  -36.0590  -44.3510   16.1780 O   0  0  0  0  0
  -31.3071  -44.4600   15.7826 H   0  0  0  0  0
  -33.7497  -43.8818   15.7030 H   0  0  0  0  0
  -32.2226  -47.6136   18.5284 H   0  0  0  0  0
  -40.5673  -44.1173   16.8554 H   0  0  0  0  0
  -38.1798  -44.5679   16.3207 H   0  0  0  0  0
  -40.0774  -42.1224   22.8024 H   0  0  0  0  0
  -37.6589  -46.3612   20.2005 H   0  0  0  0  0
  -42.1306  -46.4007   20.3675 H   0  0  0  0  0
  -41.0586  -47.8222   20.3335 H   0  0  0  0  0
  -41.7621  -47.2742   21.8749 H   0  0  0  0  0
  -36.4480  -44.2767   23.8092 H   0  0  0  0  0
  -37.6276  -41.8408   23.8287 H   0  0  0  0  0
  -41.2734  -45.2507   22.8211 H   0  0  0  0  0
  -41.1722  -44.1561   21.4107 H   0  0  0  0  0
  -35.9597  -46.4708   18.5632 H   0  0  0  0  0
  -39.1017  -47.8637   21.6553 H   0  0  0  0  0
  -36.6610  -46.6928   23.9425 H   0  0  0  0  0
  2  1  1  0  0  0
  1 23  3  0  0  0
  3  2  4  0  0  0
  6  2  4  0  0  0
  4  3  4  0  0  0
  5  4  4  0  0  0
 21  5  1  0  0  0
  5 28  4  0  0  0
 28  6  4  0  0  0
  7 10  4  0  0  0
  7 14  4  0  0  0
 24  7  1  0  0  0
  9  8  4  0  0  0
 15  8  4  0  0  0
  8 22  1  0  0  0
 10  9  4  0  0  0
 15 11  1  0  0  0
 11 16  1  0  0  0
 11 20  1  0  0  0
 11 25  1  0  0  0
 17 12  1  0  0  0
 12 18  4  0  0  0
 27 12  4  0  0  0
 13 19  4  0  0  0
 27 13  4  0  0  0
 14 15  4  0  0  0
 25 17  1  0  0  0
 17 26  2  0  0  0
 18 19  4  0  0  0
 20 27  1  0  0  0
 21 24  1  0  0  0
 21 29  2  0  0  0
  3 30  1  0  0  0
  4 31  1  0  0  0
  6 32  1  0  0  0
  9 33  1  0  0  0
 10 34  1  0  0  0
 13 35  1  0  0  0
 14 36  1  0  0  0
 16 37  1  0  0  0
 16 38  1  0  0  0
 16 39  1  0  0  0
 18 40  1  0  0  0
 19 41  1  0  0  0
 20 42  1  0  0  0
 20 43  1  0  0  0
 24 44  1  0  0  0
 25 45  1  0  0  0
 26 46  1  0  0  0
M  END
$$$$
