3shc_ligand
  -I-interpret- 

 51 53  0  0  0  0  0  0  0  0999 V2000
   16.4670  -16.0470   23.1480 N   0  3  0  0  0
   17.6300  -15.1850   23.2700 C   0  0  0  0  0
   17.2830  -13.8210   22.7350 C   0  0  0  0  0
   16.2960  -13.2280   23.1540 O   0  0  0  0  0
   18.0200  -15.0840   24.7410 C   0  0  0  0  0
   19.4380  -14.5680   24.8540 C   0  0  0  0  0
   20.4480  -15.1110   24.0600 C   0  0  0  0  0
   19.7360  -13.5580   25.7650 C   0  0  0  0  0
   21.7540  -14.6370   24.1720 C   0  0  0  0  0
   21.0380  -13.0840   25.8760 C   0  0  0  0  0
   22.0460  -13.6240   25.0770 C   0  0  0  0  0
   18.0770  -13.3080   21.7950 N   0  0  0  0  0
   17.7740  -11.9880   21.2330 C   0  0  0  0  0
   16.3830  -11.9630   20.6550 C   0  0  0  0  0
   15.9960  -12.9110   19.9890 O   0  0  0  0  0
   18.8090  -11.8000   20.1290 C   0  0  0  0  0
   19.5060  -13.1370   19.9370 C   0  0  0  0  0
   19.2710  -13.9260   21.2160 C   0  0  0  0  0
   14.2330  -10.7040   20.4400 C   0  0  0  0  0
   13.2640  -10.6040   21.6020 C   0  0  0  0  0
   11.5220  -11.5700   22.8360 C   0  0  0  0  0
   11.4780  -10.4810   23.7070 C   0  0  0  0  0
   12.3620   -9.4240   23.5200 C   0  0  0  0  0
   13.2590   -9.4960   22.4520 C   0  0  0  0  0
   15.6070  -10.9010   20.9080 N   0  0  0  0  0
   12.3970  -11.6160   21.8180 N   0  0  0  0  0
   12.3300   -7.9990   24.6400 Cl  0  0  0  0  0
   16.2003  -16.1192   22.1661 H   0  0  0  0  0
   16.6928  -16.9738   23.5093 H   0  0  0  0  0
   15.6942  -15.6511   23.6832 H   0  0  0  0  0
   18.4666  -15.5937   22.7033 H   0  0  0  0  0
   17.9546  -16.0695   25.2022 H   0  0  0  0  0
   17.3426  -14.3981   25.2497 H   0  0  0  0  0
   20.2159  -15.9063   23.3517 H   0  0  0  0  0
   18.9483  -13.1390   26.3911 H   0  0  0  0  0
   22.5440  -15.0598   23.5513 H   0  0  0  0  0
   21.2711  -12.2911   26.5867 H   0  0  0  0  0
   23.0662  -13.2499   25.1630 H   0  0  0  0  0
   17.8134  -11.1993   21.9844 H   0  0  0  0  0
   19.5275  -11.0275   20.4029 H   0  0  0  0  0
   18.3304  -11.4793   19.2037 H   0  0  0  0  0
   20.5711  -13.0014   19.7492 H   0  0  0  0  0
   19.1091  -13.6660   19.0706 H   0  0  0  0  0
   19.1362  -14.9910   21.0271 H   0  0  0  0  0
   20.1265  -13.8866   21.8903 H   0  0  0  0  0
   14.1900   -9.7750   19.8715 H   0  0  0  0  0
   13.9502  -11.5583   19.8250 H   0  0  0  0  0
   10.8320  -12.4006   22.9847 H   0  0  0  0  0
   10.7583  -10.4590   24.5254 H   0  0  0  0  0
   13.9613   -8.6803   22.2804 H   0  0  0  0  0
   16.0108  -10.1596   21.4804 H   0  0  0  0  0
  2  1  1  0  0  0
  3  2  1  0  0  0
  2  5  1  0  0  0
  3  4  2  0  0  0
 12  3  1  0  0  0
  5  6  1  0  0  0
  6  7  4  0  0  0
  6  8  4  0  0  0
  7  9  4  0  0  0
  8 10  4  0  0  0
  9 11  4  0  0  0
 10 11  4  0  0  0
 13 12  1  0  0  0
 12 18  1  0  0  0
 14 13  1  0  0  0
 13 16  1  0  0  0
 14 15  2  0  0  0
 25 14  1  0  0  0
 16 17  1  0  0  0
 17 18  1  0  0  0
 20 19  1  0  0  0
 19 25  1  0  0  0
 20 24  4  0  0  0
 26 20  4  0  0  0
 21 22  4  0  0  0
 21 26  4  0  0  0
 22 23  4  0  0  0
 23 24  4  0  0  0
 23 27  1  0  0  0
  1 28  1  0  0  0
  1 29  1  0  0  0
  1 30  1  0  0  0
  2 31  1  0  0  0
  5 32  1  0  0  0
  5 33  1  0  0  0
  7 34  1  0  0  0
  8 35  1  0  0  0
  9 36  1  0  0  0
 10 37  1  0  0  0
 11 38  1  0  0  0
 13 39  1  0  0  0
 16 40  1  0  0  0
 16 41  1  0  0  0
 17 42  1  0  0  0
 17 43  1  0  0  0
 18 44  1  0  0  0
 18 45  1  0  0  0
 19 46  1  0  0  0
 19 47  1  0  0  0
 21 48  1  0  0  0
 22 49  1  0  0  0
 24 50  1  0  0  0
 25 51  1  0  0  0
M  END
$$$$
