1c4u_ligand
  -I-interpret- 

 65 68  0  0  0  0  0  0  0  0999 V2000
   21.9140  -15.0870   25.5810 C   0  0  0  0  0
   21.0480  -14.3190   26.2120 C   0  0  0  0  0
   19.8910  -14.9510   26.5140 C   0  0  0  0  0
   19.6460  -16.2650   26.1410 C   0  0  0  0  0
   20.5030  -16.9760   25.4410 C   0  0  0  0  0
   21.6750  -16.3910   25.1330 C   0  0  0  0  0
   18.1600  -17.1020   26.4320 S   0  0  0  0  0
   17.2280  -16.0250   26.7360 O   0  0  0  0  0
   18.4440  -17.9820   27.5840 O   0  0  0  0  0
   17.6480  -17.9860   25.0220 C   0  0  0  0  0
   17.0590  -17.1230   23.8100 C   0  0  0  0  0
   18.4770  -13.0140   21.7470 C   0  0  0  0  0
   19.7290  -12.8770   21.1120 C   0  0  0  0  0
   20.6890  -13.7440   20.8150 C   0  0  0  0  0
   20.4550  -15.1580   21.2980 C   0  0  0  0  0
   19.0290  -16.4530   22.6890 C   0  0  0  0  0
   17.5700  -14.8640   23.0450 C   0  0  0  0  0
   19.2900  -15.2970   21.9610 N   0  0  0  0  0
   18.5340  -14.2870   22.4350 N   0  0  0  0  0
   16.5860  -14.3920   23.3750 O   0  0  0  0  0
   19.7750  -17.4080   22.5830 O   0  0  0  0  0
   17.8950  -16.2050   23.2180 N   0  0  0  0  0
   17.1880  -12.6810   20.7050 C   0  0  0  0  0
   17.3750  -12.1980   19.5280 O   0  0  0  0  0
   14.8760  -12.1880   20.4480 C   0  0  0  0  0
   13.6350  -12.0180   21.1120 C   0  0  0  0  0
   13.1260  -10.6710   21.5830 C   0  0  0  0  0
   11.9440  -10.7790   22.3690 C   0  0  0  0  0
   12.2410  -11.6020   23.7210 C   0  0  0  0  0
   12.5930  -12.9820   23.0890 C   0  0  0  0  0
   15.8230  -12.4690   20.9900 N   0  0  0  0  0
   13.5510  -13.1730   22.1480 C   0  0  0  0  0
   10.9750  -11.8100   24.2710 C   0  0  0  0  0
   10.3730  -12.9340   24.2100 N   0  0  0  0  0
   10.4990  -10.8270   24.9970 N   0  0  0  0  0
   23.4420  -14.3210   25.1250 Br  0  0  0  0  0
   21.2450  -13.2773   26.4654 H   0  0  0  0  0
   19.1249  -14.4098   27.0693 H   0  0  0  0  0
   20.2741  -17.9936   25.1245 H   0  0  0  0  0
   22.4238  -16.9226   24.5458 H   0  0  0  0  0
   16.8365  -18.6348   25.3518 H   0  0  0  0  0
   18.5401  -18.4785   24.6351 H   0  0  0  0  0
   16.2399  -16.5425   24.2344 H   0  0  0  0  0
   16.8145  -17.8431   23.0291 H   0  0  0  0  0
   18.2655  -12.2621   22.5073 H   0  0  0  0  0
   19.9526  -11.8557   20.8038 H   0  0  0  0  0
   21.5833  -13.4571   20.2618 H   0  0  0  0  0
   21.2623  -15.4144   21.9840 H   0  0  0  0  0
   20.4214  -15.8082   20.4238 H   0  0  0  0  0
   14.6966  -13.0436   19.7970 H   0  0  0  0  0
   15.0934  -11.1912   20.0642 H   0  0  0  0  0
   12.8835  -12.0580   20.3235 H   0  0  0  0  0
   12.8905  -10.0738   20.7021 H   0  0  0  0  0
   13.9003  -10.2164   22.2010 H   0  0  0  0  0
   11.1822  -11.3051   21.7936 H   0  0  0  0  0
   11.5997   -9.7786   22.6311 H   0  0  0  0  0
   12.9546  -11.1702   24.4228 H   0  0  0  0  0
   11.6794  -13.2362   22.5516 H   0  0  0  0  0
   12.9830  -13.5397   23.9404 H   0  0  0  0  0
   15.6380  -12.6130   21.9827 H   0  0  0  0  0
   14.5110  -13.2250   22.6615 H   0  0  0  0  0
   13.3019  -14.0847   21.6050 H   0  0  0  0  0
   10.8171  -13.7258   23.7450 H   0  0  0  0  0
    9.6351  -10.9542   25.5241 H   0  0  0  0  0
   10.9927   -9.9353   25.0346 H   0  0  0  0  0
  1 36  1  0  0  0
  1  6  4  0  0  0
  1  2  4  0  0  0
  2  3  4  0  0  0
  3  4  4  0  0  0
  4  7  1  0  0  0
  4  5  4  0  0  0
  5  6  4  0  0  0
  7 10  1  0  0  0
  7  9  2  0  0  0
  7  8  2  0  0  0
 10 11  1  0  0  0
 11 22  1  0  0  0
 22 16  1  0  0  0
 22 17  1  0  0  0
 17 19  1  0  0  0
 17 20  2  0  0  0
 19 18  1  0  0  0
 19 12  1  0  0  0
 12 23  1  0  0  0
 12 13  1  0  0  0
 13 14  2  0  0  0
 14 15  1  0  0  0
 18 15  1  0  0  0
 18 16  1  0  0  0
 16 21  2  0  0  0
 23 31  1  0  0  0
 23 24  2  0  0  0
 31 25  1  0  0  0
 25 26  1  0  0  0
 26 32  1  0  0  0
 26 27  1  0  0  0
 27 28  1  0  0  0
 28 29  1  0  0  0
 29 33  1  0  0  0
 29 30  1  0  0  0
 30 32  1  0  0  0
 33 35  1  0  0  0
 33 34  2  0  0  0
  2 37  1  0  0  0
  3 38  1  0  0  0
  5 39  1  0  0  0
  6 40  1  0  0  0
 10 41  1  0  0  0
 10 42  1  0  0  0
 11 43  1  0  0  0
 11 44  1  0  0  0
 12 45  1  0  0  0
 13 46  1  0  0  0
 14 47  1  0  0  0
 15 48  1  0  0  0
 15 49  1  0  0  0
 25 50  1  0  0  0
 25 51  1  0  0  0
 26 52  1  0  0  0
 27 53  1  0  0  0
 27 54  1  0  0  0
 28 55  1  0  0  0
 28 56  1  0  0  0
 29 57  1  0  0  0
 30 58  1  0  0  0
 30 59  1  0  0  0
 31 60  1  0  0  0
 32 61  1  0  0  0
 32 62  1  0  0  0
 34 63  1  0  0  0
 35 64  1  0  0  0
 35 65  1  0  0  0
M  END
$$$$
