2wky_ligand
  -I-interpret- 

 32 33  0  0  0  0  0  0  0  0999 V2000
   29.6390    2.2440   76.8850 O   0  0  0  0  0
   30.6440    2.3560   76.1510 C   0  0  0  0  0
   30.8780    3.3040   75.3740 O   0  0  0  0  0
   31.6770    1.2270   76.2010 C   0  0  0  0  0
   32.8270    1.6070   75.3690 N   0  3  0  0  0
   32.1410    1.0080   77.6440 C   0  0  0  0  0
   33.3570    0.0820   77.6990 C   0  0  0  0  0
   33.1380   -1.2620   77.4230 C   0  0  0  0  0
   34.6010    0.6450   77.9750 C   0  0  0  0  0
   35.8430    0.0290   78.0890 C   0  0  0  0  0
   36.2010   -1.3110   77.9680 C   0  0  0  0  0
   35.5650   -2.0120   76.7650 C   0  0  0  0  0
   34.0610   -2.1990   76.9810 C   0  0  0  0  0
   33.4140   -3.3860   76.7860 O   0  0  0  0  0
   32.0460   -3.1810   77.1220 N   0  0  0  0  0
   31.9110   -1.9110   77.4990 C   0  0  0  0  0
   30.8550   -1.4030   77.8680 O   0  0  0  0  0
   29.6981    1.4260   77.3840 H   0  0  0  0  0
   31.2323    0.3038   75.8294 H   0  0  0  0  0
   32.5168    1.7526   74.4083 H   0  0  0  0  0
   33.2361    2.4689   75.7297 H   0  0  0  0  0
   33.5236    0.8624   75.3935 H   0  0  0  0  0
   31.3276    0.5481   78.2052 H   0  0  0  0  0
   32.4180    1.9720   78.0706 H   0  0  0  0  0
   34.6012    1.7249   78.1231 H   0  0  0  0  0
   36.6696    0.7047   78.3086 H   0  0  0  0  0
   35.8532   -1.8234   78.8650 H   0  0  0  0  0
   37.2819   -1.3485   77.8329 H   0  0  0  0  0
   36.0279   -2.9912   76.6423 H   0  0  0  0  0
   35.7201   -1.3989   75.8772 H   0  0  0  0  0
   35.0326   -1.7544   76.7656 H   0  0  0  0  0
   31.3041   -3.8798   77.0814 H   0  0  0  0  0
  1  2  1  0  0  0
  2  3  2  0  0  0
  2  4  1  0  0  0
  4  5  1  0  0  0
  4  6  1  0  0  0
  6  7  1  0  0  0
  7  8  2  0  0  0
  7  9  1  0  0  0
  8 13  1  0  0  0
  8 16  1  0  0  0
  9 10  2  0  0  0
 10 11  1  0  0  0
 11 12  1  0  0  0
 12 13  1  0  0  0
 13 14  1  0  0  0
 14 15  1  0  0  0
 15 16  1  0  0  0
 16 17  2  0  0  0
  1 18  1  0  0  0
  4 19  1  0  0  0
  5 20  1  0  0  0
  5 21  1  0  0  0
  5 22  1  0  0  0
  6 23  1  0  0  0
  6 24  1  0  0  0
  9 25  1  0  0  0
 10 26  1  0  0  0
 11 27  1  0  0  0
 11 28  1  0  0  0
 12 29  1  0  0  0
 12 30  1  0  0  0
 13 31  1  0  0  0
 15 32  1  0  0  0
M  END
$$$$
