3g19_ligand
  -I-interpret- 

 61 60  0  0  0  0  0  0  0  0999 V2000
   20.8980   -4.1080  -16.3120 N   0  3  0  0  0
   21.1370   -4.8800  -15.0990 C   0  0  0  0  0
   22.1910   -5.9580  -15.3300 C   0  0  0  0  0
   22.4510   -6.3480  -16.4670 O   0  0  0  0  0
   19.8340   -5.5130  -14.6040 C   0  0  0  0  0
   18.6950   -4.5460  -14.2750 C   0  0  0  0  0
   17.4170   -5.3090  -13.9610 C   0  0  0  0  0
   19.0770   -3.6320  -13.1190 C   0  0  0  0  0
   22.7920   -6.4340  -14.2450 N   0  0  0  0  0
   23.8200   -7.4660  -14.3220 C   0  0  0  0  0
   23.2060   -8.8460  -14.5490 C   0  0  0  0  0
   22.1100   -9.1320  -14.0650 O   0  0  0  0  0
   24.6670   -7.4660  -13.0480 C   0  0  0  0  0
   25.7620   -8.5280  -12.9250 C   0  0  0  0  0
   26.8070   -8.3570  -14.0170 C   0  0  0  0  0
   26.4070   -8.4680  -11.5500 C   0  0  0  0  0
   23.9280   -9.6890  -15.2830 N   0  0  0  0  0
   23.4770  -11.0340  -15.6460 C   0  0  0  0  0
   22.5720  -11.0130  -16.8750 C   0  0  0  0  0
   22.6430  -11.8970  -17.7310 O   0  0  0  0  0
   22.7900  -11.7410  -14.4710 C   0  0  0  0  0
   22.2250  -13.1410  -14.7370 C   0  0  0  0  0
   22.1430  -13.9470  -13.4500 C   0  0  0  0  0
   20.8630  -13.0750  -15.4210 C   0  0  0  0  0
   21.7570  -10.1080  -17.0440 O   0  0  0  0  0
   21.7748   -3.6936  -16.6281 H   0  0  0  0  0
   20.5299   -4.7228  -17.0379 H   0  0  0  0  0
   20.2226   -3.3692  -16.1159 H   0  0  0  0  0
   21.5115   -4.1976  -14.3360 H   0  0  0  0  0
   20.0784   -6.0233  -13.6724 H   0  0  0  0  0
   19.4733   -6.1423  -15.4176 H   0  0  0  0  0
   18.5138   -3.9236  -15.1512 H   0  0  0  0  0
   17.5675   -5.9154  -13.0678 H   0  0  0  0  0
   16.6059   -4.6015  -13.7889 H   0  0  0  0  0
   17.1651   -5.9550  -14.8020 H   0  0  0  0  0
   18.2741   -2.9162  -12.9428 H   0  0  0  0  0
   19.2357   -4.2301  -12.2217 H   0  0  0  0  0
   19.9938   -3.0975  -13.3677 H   0  0  0  0  0
   22.5267   -6.0669  -13.3311 H   0  0  0  0  0
   24.4600   -7.2392  -15.1747 H   0  0  0  0  0
   23.9709   -7.6677  -12.2338 H   0  0  0  0  0
   25.1866   -6.5079  -13.0421 H   0  0  0  0  0
   25.3030   -9.5089  -13.0483 H   0  0  0  0  0
   26.3306   -8.4546  -14.9925 H   0  0  0  0  0
   27.2627   -7.3706  -13.9308 H   0  0  0  0  0
   27.5739   -9.1237  -13.9075 H   0  0  0  0  0
   26.8488   -7.4829  -11.4000 H   0  0  0  0  0
   25.6499   -8.6481  -10.7868 H   0  0  0  0  0
   27.1832   -9.2301  -11.4806 H   0  0  0  0  0
   24.8441   -9.3820  -15.6101 H   0  0  0  0  0
   24.3685  -11.6074  -15.9000 H   0  0  0  0  0
   23.3138  -12.5347  -17.4760 H   0  0  0  0  0
   21.9342  -11.1192  -14.2082 H   0  0  0  0  0
   23.5593  -11.8698  -13.7096 H   0  0  0  0  0
   22.9115  -13.6474  -15.4155 H   0  0  0  0  0
   23.1401  -14.0467  -13.0211 H   0  0  0  0  0
   21.4913  -13.4342  -12.7426 H   0  0  0  0  0
   21.7390  -14.9358  -13.6672 H   0  0  0  0  0
   20.1630  -12.5359  -14.7826 H   0  0  0  0  0
   20.9614  -12.5557  -16.3743 H   0  0  0  0  0
   20.4949  -14.0864  -15.5931 H   0  0  0  0  0
  1  2  1  0  0  0
  2  3  1  0  0  0
  2  5  1  0  0  0
  3  4  2  0  0  0
  3  9  1  0  0  0
  5  6  1  0  0  0
  6  7  1  0  0  0
  6  8  1  0  0  0
  9 10  1  0  0  0
 10 11  1  0  0  0
 10 13  1  0  0  0
 11 12  2  0  0  0
 11 17  1  0  0  0
 13 14  1  0  0  0
 14 15  1  0  0  0
 14 16  1  0  0  0
 17 18  1  0  0  0
 18 19  1  0  0  0
 18 21  1  0  0  0
 19 20  1  0  0  0
 19 25  2  0  0  0
 21 22  1  0  0  0
 22 23  1  0  0  0
 22 24  1  0  0  0
  1 26  1  0  0  0
  1 27  1  0  0  0
  1 28  1  0  0  0
  2 29  1  0  0  0
  5 30  1  0  0  0
  5 31  1  0  0  0
  6 32  1  0  0  0
  7 33  1  0  0  0
  7 34  1  0  0  0
  7 35  1  0  0  0
  8 36  1  0  0  0
  8 37  1  0  0  0
  8 38  1  0  0  0
  9 39  1  0  0  0
 10 40  1  0  0  0
 13 41  1  0  0  0
 13 42  1  0  0  0
 14 43  1  0  0  0
 15 44  1  0  0  0
 15 45  1  0  0  0
 15 46  1  0  0  0
 16 47  1  0  0  0
 16 48  1  0  0  0
 16 49  1  0  0  0
 17 50  1  0  0  0
 18 51  1  0  0  0
 20 52  1  0  0  0
 21 53  1  0  0  0
 21 54  1  0  0  0
 22 55  1  0  0  0
 23 56  1  0  0  0
 23 57  1  0  0  0
 23 58  1  0  0  0
 24 59  1  0  0  0
 24 60  1  0  0  0
 24 61  1  0  0  0
M  END
$$$$
