### 
### Created by X-TOOL on Mon Sep 10 21:12:48 2018
### 

@<TRIPOS>MOLECULE
1jd5_ligand
  128   130     1     0     0
SMALL
GAST_HUCK


@<TRIPOS>ATOM
      1 N          10.8260   42.4210   12.8100 N.4       1 ALA         0.2377
      2 CA          9.5190   42.4860   13.5020 C.3       1 ALA         0.0621
      3 C           8.4660   42.5250   12.4220 C.2       1 ALA         0.2264
      4 O           8.7790   42.7820   11.2630 O.2       1 ALA        -0.3907
      5 CB          9.4280   43.7460   14.3560 C.3       1 ALA        -0.0040
      6 N           7.2360   42.1960   12.7860 N.am      1 ILE        -0.2608
      7 CA          6.1410   42.2280   11.8320 C.3       1 ILE         0.1336
      8 C           5.1020   43.2110   12.3670 C.2       1 ILE         0.2042
      9 O           4.9090   43.3270   13.5850 O.2       1 ILE        -0.3944
     10 CB          5.4990   40.8270   11.6190 C.3       1 ILE        -0.0037
     11 CG1         4.8790   40.3180   12.9110 C.3       1 ILE        -0.0491
     12 CG2         6.5440   39.8190   11.1300 C.3       1 ILE        -0.0582
     13 CD1         4.1120   39.0330   12.7440 C.3       1 ILE        -0.0648
     14 N           4.4920   43.9700   11.4670 N.am      1 ALA        -0.2640
     15 CA          3.4860   44.9390   11.8600 C.3       1 ALA         0.1282
     16 C           2.1470   44.2310   11.9460 C.2       1 ALA         0.2037
     17 O           1.5560   43.8980   10.9230 O.2       1 ALA        -0.3944
     18 CB          3.4340   46.0760   10.8510 C.3       1 ALA        -0.0244
     19 N           1.6900   43.9570   13.1660 N.am      1 TYR        -0.2621
     20 CA          0.4110   43.2760   13.3360 C.3       1 TYR         0.1390
     21 C          -0.7730   44.2120   13.1070 C.2       1 TYR         0.2059
     22 O          -1.9120   43.7730   12.9180 O.2       1 TYR        -0.3942
     23 CB          0.3330   42.5510   14.6940 C.3       1 TYR         0.0163
     24 CG          0.2940   43.4100   15.9370 C.ar      1 TYR        -0.0493
     25 CD1        -0.9200   43.7400   16.5340 C.ar      1 TYR        -0.0685
     26 CD2         1.4690   43.7990   16.5780 C.ar      1 TYR        -0.0685
     27 CE1        -0.9650   44.4330   17.7470 C.ar      1 TYR        -0.0398
     28 CE2         1.4360   44.4940   17.7920 C.ar      1 TYR        -0.0398
     29 CZ          0.2150   44.8010   18.3720 C.ar      1 TYR         0.0805
     30 OH          0.1640   45.4420   19.5840 O.3       1 TYR        -0.3376
     31 N          -0.4880   45.5080   13.1150 N.am      1 PHE        -0.2618
     32 CA         -1.4870   46.5310   12.8700 C.3       1 PHE         0.1404
     33 C          -0.8100   47.7250   12.2290 C.2       1 PHE         0.2060
     34 O           0.1520   48.2760   12.7710 O.2       1 PHE        -0.3942
     35 CB         -2.1940   46.9710   14.1580 C.3       1 PHE         0.0214
     36 CG         -3.1490   48.1210   13.9520 C.ar      1 PHE        -0.0386
     37 CD1        -4.4340   47.8970   13.4590 C.ar      1 PHE        -0.0601
     38 CD2        -2.7440   49.4370   14.1860 C.ar      1 PHE        -0.0601
     39 CE1        -5.2980   48.9670   13.1970 C.ar      1 PHE        -0.0686
     40 CE2        -3.5960   50.5150   13.9300 C.ar      1 PHE        -0.0686
     41 CZ         -4.8730   50.2800   13.4330 C.ar      1 PHE        -0.0687
     42 N          -1.2940   48.0870   11.0440 N.am      1 ILE        -0.2633
     43 CA         -0.7840   49.2300   10.3070 C.3       1 ILE         0.1337
     44 C          -1.9600   50.1880   10.1600 C.2       1 ILE         0.2067
     45 O          -3.0320   49.7900    9.7120 O.2       1 ILE        -0.3942
     46 CB         -0.2540   48.8060    8.9130 C.3       1 ILE        -0.0037
     47 CG1         1.0500   48.0200    9.0850 C.3       1 ILE        -0.0491
     48 CG2        -0.0300   50.0280    8.0360 C.3       1 ILE        -0.0582
     49 CD1         1.6490   47.5160    7.7880 C.3       1 ILE        -0.0648
     50 N          -1.7920   51.4470   10.6090 N.am      1 PRO        -0.2498
     51 CA         -2.8270   52.4860   10.5440 C.3       1 PRO         0.1337
     52 C          -3.5980   52.4620    9.2210 C.2       1 PRO         0.2036
     53 O          -3.0220   52.6930    8.1610 O.2       1 PRO        -0.3944
     54 CB         -2.0180   53.7660   10.7170 C.3       1 PRO        -0.0104
     55 CG         -0.9780   53.3460   11.6960 C.3       1 PRO        -0.0281
     56 CD         -0.5370   52.0020   11.1570 C.3       1 PRO         0.0369
     57 N          -4.8740   52.0790    9.3220 N.am      1 ASP        -0.2679
     58 CA         -5.8440   51.9660    8.2230 C.3       1 ASP         0.1057
     59 C          -5.3800   52.3980    6.8300 C.2       1 ASP         0.0618
     60 O          -5.1260   51.5060    5.9850 O.co2     1 ASP        -0.5665
     61 CB         -7.1380   52.6910    8.6050 C.3       1 ASP         0.0351
     62 CG         -7.5220   52.4620   10.0550 C.2       1 ASP         0.0387
     63 OD1        -7.0830   53.2600   10.9140 O.co2     1 ASP        -0.5688
     64 OD2        -8.2250   51.4690   10.3450 O.co2     1 ASP        -0.5688
     65 O1         -5.2563   53.6178    6.5393 O.co2     1 ASP        -0.5665
     66 H1         11.5668   42.3929   13.4930 H         1 ALA         0.2015
     67 H2         10.9380   43.2351   12.2262 H         1 ALA         0.2015
     68 H3         10.8633   41.5907   12.2396 H         1 ALA         0.2015
     69 H4          9.3818   41.5994   14.1385 H         1 ALA         0.1095
     70 H5          8.4515   43.7766   14.8615 H         1 ALA         0.0310
     71 H6          9.5365   44.6327   13.7141 H         1 ALA         0.0310
     72 H7         10.2303   43.7377   15.1085 H         1 ALA         0.0310
     73 H8          7.0584   41.9216   13.7311 H         1 ILE         0.1885
     74 H9          6.5200   42.5872   10.8639 H         1 ILE         0.0803
     75 H10         4.7098   40.9166   10.8580 H         1 ILE         0.0345
     76 H11         4.1914   41.0866   13.2936 H         1 ILE         0.0267
     77 H12         5.6844   40.1503   13.6412 H         1 ILE         0.0267
     78 H13         6.9953   40.1831   10.1953 H         1 ILE         0.0235
     79 H14         6.0603   38.8477   10.9495 H         1 ILE         0.0235
     80 H15         7.3267   39.7025   11.8940 H         1 ILE         0.0235
     81 H16         3.6940   38.7267   13.7143 H         1 ILE         0.0230
     82 H17         4.7873   38.2486   12.3717 H         1 ILE         0.0230
     83 H18         3.2943   39.1849   12.0241 H         1 ILE         0.0230
     84 H19         4.7294   43.8729   10.5005 H         1 ALA         0.1883
     85 H20         3.7420   45.3507   12.8474 H         1 ALA         0.0797
     86 H21         2.6689   46.8041   11.1583 H         1 ALA         0.0277
     87 H22         3.1805   45.6745    9.8588 H         1 ALA         0.0277
     88 H23         4.4149   46.5717   10.8063 H         1 ALA         0.0277
     89 H24         2.2254   44.2190   13.9689 H         1 TYR         0.1885
     90 H25         0.3562   42.5006   12.5577 H         1 TYR         0.0821
     91 H26         1.2149   41.8980   14.7712 H         1 TYR         0.0453
     92 H27        -0.5791   41.9362   14.6885 H         1 TYR         0.0453
     93 H28        -1.8466   43.4544   16.0494 H         1 TYR         0.0530
     94 H29         2.4255   43.5588   16.1280 H         1 TYR         0.0530
     95 H30        -1.9195   44.6814   18.1968 H         1 TYR         0.0525
     96 H31         2.3596   44.7905   18.2759 H         1 TYR         0.0525
     97 H32         1.0473   45.6267   19.8807 H         1 TYR         0.2458
     98 H33         0.4536   45.7910   13.2973 H         1 PHE         0.1885
     99 H34        -2.2413   46.1282   12.1781 H         1 PHE         0.0823
    100 H35        -1.4305   47.2778   14.8880 H         1 PHE         0.0474
    101 H36        -2.7589   46.1152   14.5560 H         1 PHE         0.0474
    102 H37        -4.7680   46.8820   13.2764 H         1 PHE         0.0557
    103 H38        -1.7495   49.6260   14.5737 H         1 PHE         0.0557
    104 H39        -6.2939   48.7793   12.8122 H         1 PHE         0.0599
    105 H40        -3.2628   51.5292   14.1180 H         1 PHE         0.0599
    106 H41        -5.5380   51.1113   13.2287 H         1 PHE         0.0559
    107 H42        -2.0381   47.5512   10.6450 H         1 ILE         0.1883
    108 H43         0.0290   49.7103   10.8712 H         1 ILE         0.0803
    109 H44        -0.9997   48.1577    8.4297 H         1 ILE         0.0345
    110 H45         0.8472   47.1529    9.7307 H         1 ILE         0.0267
    111 H46         1.7861   48.6761    9.5725 H         1 ILE         0.0267
    112 H47        -0.9762   50.5779    7.9248 H         1 ILE         0.0235
    113 H48         0.3268   49.7083    7.0458 H         1 ILE         0.0235
    114 H49         0.7213   50.6818    8.5030 H         1 ILE         0.0235
    115 H50         2.5773   46.9660    8.0022 H         1 ILE         0.0230
    116 H51         1.8719   48.3696    7.1309 H         1 ILE         0.0230
    117 H52         0.9329   46.8464    7.2892 H         1 ILE         0.0230
    118 H53        -3.5440   52.3678   11.3698 H         1 PRO         0.0802
    119 H54        -2.6392   54.5801   11.1187 H         1 PRO         0.0313
    120 H55        -1.5661   54.0846    9.7661 H         1 PRO         0.0313
    121 H56        -1.4010   53.2486   12.7067 H         1 PRO         0.0287
    122 H57        -0.1409   54.0593   11.7160 H         1 PRO         0.0287
    123 H58        -0.1377   51.3640   11.9592 H         1 PRO         0.0524
    124 H59         0.2222   52.1196   10.3698 H         1 PRO         0.0524
    125 H60        -5.2023   51.8457   10.2373 H         1 ASP         0.1876
    126 H61        -6.0818   50.8953    8.1396 H         1 ASP         0.0745
    127 H62        -7.9516   52.3244    7.9619 H         1 ASP         0.0471
    128 H63        -6.9998   53.7701    8.4422 H         1 ASP         0.0471
@<TRIPOS>BOND
     1    3    2 1  
     2    2    5 1  
     3    2    1 1  
     4    3    4 2  
     5    8    7 1  
     6    7   10 1  
     7    7    6 1  
     8   10   11 1  
     9   10   12 1  
    10   11   13 1  
    11    8    9 2  
    12   16   15 1  
    13   15   18 1  
    14   15   14 1  
    15   16   17 2  
    16   21   20 1  
    17   20   23 1  
    18   20   19 1  
    19   23   24 1  
    20   24   26 ar 
    21   24   25 ar 
    22   25   27 ar 
    23   27   29 ar 
    24   29   30 1  
    25   28   29 ar 
    26   26   28 ar 
    27   21   22 2  
    28   33   32 1  
    29   32   35 1  
    30   32   31 1  
    31   35   36 1  
    32   36   38 ar 
    33   36   37 ar 
    34   37   39 ar 
    35   39   41 ar 
    36   40   41 ar 
    37   38   40 ar 
    38   33   34 2  
    39   44   43 1  
    40   43   46 1  
    41   43   42 1  
    42   46   47 1  
    43   46   48 1  
    44   47   49 1  
    45   44   45 2  
    46   51   50 1  
    47   51   54 1  
    48   52   51 1  
    49   52   53 2  
    50   54   55 1  
    51   55   56 1  
    52   50   56 1  
    53   58   59 1  
    54   58   61 1  
    55   57   58 1  
    56   61   62 1  
    57   62   63 ar 
    58   62   64 ar 
    59   59   60 ar 
    60    6    3 am 
    61   14    8 am 
    62   19   16 am 
    63   31   21 am 
    64   42   33 am 
    65   50   44 am 
    66   52   57 am 
    67   59   65 ar 
    68    1   66 1  
    69    1   67 1  
    70    1   68 1  
    71    2   69 1  
    72    5   70 1  
    73    5   71 1  
    74    5   72 1  
    75    6   73 1  
    76    7   74 1  
    77   10   75 1  
    78   11   76 1  
    79   11   77 1  
    80   12   78 1  
    81   12   79 1  
    82   12   80 1  
    83   13   81 1  
    84   13   82 1  
    85   13   83 1  
    86   14   84 1  
    87   15   85 1  
    88   18   86 1  
    89   18   87 1  
    90   18   88 1  
    91   19   89 1  
    92   20   90 1  
    93   23   91 1  
    94   23   92 1  
    95   25   93 1  
    96   26   94 1  
    97   27   95 1  
    98   28   96 1  
    99   30   97 1  
   100   31   98 1  
   101   32   99 1  
   102   35  100 1  
   103   35  101 1  
   104   37  102 1  
   105   38  103 1  
   106   39  104 1  
   107   40  105 1  
   108   41  106 1  
   109   42  107 1  
   110   43  108 1  
   111   46  109 1  
   112   47  110 1  
   113   47  111 1  
   114   48  112 1  
   115   48  113 1  
   116   48  114 1  
   117   49  115 1  
   118   49  116 1  
   119   49  117 1  
   120   51  118 1  
   121   54  119 1  
   122   54  120 1  
   123   55  121 1  
   124   55  122 1  
   125   56  123 1  
   126   56  124 1  
   127   57  125 1  
   128   58  126 1  
   129   61  127 1  
   130   61  128 1  
@<TRIPOS>SUBSTRUCTURE
     1 ALA         1

