1jd5_ligand
  -I-interpret- 

130132  0  0  0  0  0  0  0  0999 V2000
   10.8260   42.4210   12.8100 N   0  3  0  0  0
    9.5190   42.4860   13.5020 C   0  0  0  0  0
    8.4660   42.5250   12.4220 C   0  0  0  0  0
    8.7790   42.7820   11.2630 O   0  0  0  0  0
    9.4280   43.7460   14.3560 C   0  0  0  0  0
    7.2360   42.1960   12.7860 N   0  0  0  0  0
    6.1410   42.2280   11.8320 C   0  0  0  0  0
    5.1020   43.2110   12.3670 C   0  0  0  0  0
    4.9090   43.3270   13.5850 O   0  0  0  0  0
    5.4990   40.8270   11.6190 C   0  0  0  0  0
    4.8790   40.3180   12.9110 C   0  0  0  0  0
    6.5440   39.8190   11.1300 C   0  0  0  0  0
    4.1120   39.0330   12.7440 C   0  0  0  0  0
    4.4920   43.9700   11.4670 N   0  0  0  0  0
    3.4860   44.9390   11.8600 C   0  0  0  0  0
    2.1470   44.2310   11.9460 C   0  0  0  0  0
    1.5560   43.8980   10.9230 O   0  0  0  0  0
    3.4340   46.0760   10.8510 C   0  0  0  0  0
    1.6900   43.9570   13.1660 N   0  0  0  0  0
    0.4110   43.2760   13.3360 C   0  0  0  0  0
   -0.7730   44.2120   13.1070 C   0  0  0  0  0
   -1.9120   43.7730   12.9180 O   0  0  0  0  0
    0.3330   42.5510   14.6940 C   0  0  0  0  0
    0.2940   43.4100   15.9370 C   0  0  0  0  0
   -0.9200   43.7400   16.5340 C   0  0  0  0  0
    1.4690   43.7990   16.5780 C   0  0  0  0  0
   -0.9650   44.4330   17.7470 C   0  0  0  0  0
    1.4360   44.4940   17.7920 C   0  0  0  0  0
    0.2150   44.8010   18.3720 C   0  0  0  0  0
    0.1640   45.4420   19.5840 O   0  0  0  0  0
   -0.4880   45.5080   13.1150 N   0  0  0  0  0
   -1.4870   46.5310   12.8700 C   0  0  0  0  0
   -0.8100   47.7250   12.2290 C   0  0  0  0  0
    0.1520   48.2760   12.7710 O   0  0  0  0  0
   -2.1940   46.9710   14.1580 C   0  0  0  0  0
   -3.1490   48.1210   13.9520 C   0  0  0  0  0
   -4.4340   47.8970   13.4590 C   0  0  0  0  0
   -2.7440   49.4370   14.1860 C   0  0  0  0  0
   -5.2980   48.9670   13.1970 C   0  0  0  0  0
   -3.5960   50.5150   13.9300 C   0  0  0  0  0
   -4.8730   50.2800   13.4330 C   0  0  0  0  0
   -1.2940   48.0870   11.0440 N   0  0  0  0  0
   -0.7840   49.2300   10.3070 C   0  0  0  0  0
   -1.9600   50.1880   10.1600 C   0  0  0  0  0
   -3.0320   49.7900    9.7120 O   0  0  0  0  0
   -0.2540   48.8060    8.9130 C   0  0  0  0  0
    1.0500   48.0200    9.0850 C   0  0  0  0  0
   -0.0300   50.0280    8.0360 C   0  0  0  0  0
    1.6490   47.5160    7.7880 C   0  0  0  0  0
   -1.7920   51.4470   10.6090 N   0  0  0  0  0
   -2.8270   52.4860   10.5440 C   0  0  0  0  0
   -3.5980   52.4620    9.2210 C   0  0  0  0  0
   -3.0220   52.6930    8.1610 O   0  0  0  0  0
   -2.0180   53.7660   10.7170 C   0  0  0  0  0
   -0.9780   53.3460   11.6960 C   0  0  0  0  0
   -0.5370   52.0020   11.1570 C   0  0  0  0  0
   -4.8740   52.0790    9.3220 N   0  0  0  0  0
   -5.8440   51.9660    8.2230 C   0  0  0  0  0
   -5.3800   52.3980    6.8300 C   0  0  0  0  0
   -5.1260   51.5060    5.9850 O   0  0  0  0  0
   -7.1380   52.6910    8.6050 C   0  0  0  0  0
   -7.5220   52.4620   10.0550 C   0  0  0  0  0
   -7.0830   53.2600   10.9140 O   0  0  0  0  0
   -8.2250   51.4690   10.3450 O   0  0  0  0  0
   -5.2563   53.6178    6.5393 O   0  0  0  0  0
   10.8683   41.5730   12.2447 H   0  0  0  0  0
   10.9318   43.2378   12.2083 H   0  0  0  0  0
   11.5754   42.4075   13.5019 H   0  0  0  0  0
    9.3861   41.6292   14.1626 H   0  0  0  0  0
   10.2234   43.7366   15.1012 H   0  0  0  0  0
    9.5357   44.6238   13.7188 H   0  0  0  0  0
    8.4600   43.7752   14.8563 H   0  0  0  0  0
    7.0549   41.9161   13.7500 H   0  0  0  0  0
    6.5204   42.5398   10.8589 H   0  0  0  0  0
    4.7207   40.9313   10.8631 H   0  0  0  0  0
    4.1767   41.0759   13.2581 H   0  0  0  0  0
    5.6922   40.1255   13.6109 H   0  0  0  0  0
    6.9629   40.1620   10.1840 H   0  0  0  0  0
    7.3388   39.7332   11.8710 H   0  0  0  0  0
    6.0711   38.8472   10.9884 H   0  0  0  0  0
    3.3021   39.1849   12.0305 H   0  0  0  0  0
    4.7822   38.2566   12.3750 H   0  0  0  0  0
    3.6984   38.7306   13.7061 H   0  0  0  0  0
    4.7342   43.8710   10.4811 H   0  0  0  0  0
    3.7334   45.3673   12.8313 H   0  0  0  0  0
    3.1840   45.6767    9.8681 H   0  0  0  0  0
    2.6747   46.7962   11.1559 H   0  0  0  0  0
    4.4062   46.5671   10.8085 H   0  0  0  0  0
    2.2361   44.2242   13.9850 H   0  0  0  0  0
    0.3476   42.5097   12.5635 H   0  0  0  0  0
    1.2491   41.9651   14.7688 H   0  0  0  0  0
   -0.6101   42.0047   14.6831 H   0  0  0  0  0
   -1.8517   43.4528   16.0467 H   0  0  0  0  0
    2.4308   43.5575   16.1255 H   0  0  0  0  0
   -1.9248   44.6828   18.1992 H   0  0  0  0  0
    2.3647   44.7921   18.2786 H   0  0  0  0  0
    1.0567   45.6287   19.8838 H   0  0  0  0  0
    0.4725   45.7966   13.3010 H   0  0  0  0  0
   -2.2475   46.1140   12.2099 H   0  0  0  0  0
   -1.4269   47.3014   14.8584 H   0  0  0  0  0
   -2.7737   46.1226   14.5218 H   0  0  0  0  0
   -4.7699   46.8764   13.2754 H   0  0  0  0  0
   -1.7440   49.6271   14.5759 H   0  0  0  0  0
   -6.2994   48.7783   12.8101 H   0  0  0  0  0
   -3.2609   51.5349   14.1191 H   0  0  0  0  0
   -5.5417   51.1159   13.2276 H   0  0  0  0  0
   -2.0530   47.5405   10.6370 H   0  0  0  0  0
    0.0529   49.6927   10.8301 H   0  0  0  0  0
   -0.9928   48.1712    8.4239 H   0  0  0  0  0
    0.8197   47.1454    9.6934 H   0  0  0  0  0
    1.7769   48.6981    9.5321 H   0  0  0  0  0
   -0.9723   50.5614    7.9107 H   0  0  0  0  0
    0.7003   50.6843    8.5092 H   0  0  0  0  0
    0.3420   49.7111    7.0617 H   0  0  0  0  0
    0.9385   46.8527    7.2947 H   0  0  0  0  0
    1.8693   48.3627    7.1379 H   0  0  0  0  0
    2.5687   46.9713    8.0015 H   0  0  0  0  0
   -3.6066   52.3621   11.2956 H   0  0  0  0  0
   -2.6156   54.6112   11.0585 H   0  0  0  0  0
   -1.6032   54.1438    9.7825 H   0  0  0  0  0
   -1.3532   53.2919   12.7180 H   0  0  0  0  0
   -0.1589   54.0604   11.7789 H   0  0  0  0  0
   -0.0858   51.3650   11.9178 H   0  0  0  0  0
    0.2551   52.0806   10.4124 H   0  0  0  0  0
   -5.2089   51.8410   10.2556 H   0  0  0  0  0
   -5.9963   50.8925    8.1111 H   0  0  0  0  0
   -7.9404   52.3023    7.9779 H   0  0  0  0  0
   -6.9806   53.7601    8.4623 H   0  0  0  0  0
   -6.5705   53.9458   10.4797 H   0  0  0  0  0
   -5.4917   54.1526    7.3010 H   0  0  0  0  0
  3  2  1  0  0  0
  2  5  1  0  0  0
  2  1  1  0  0  0
  3  4  2  0  0  0
  8  7  1  0  0  0
  7 10  1  0  0  0
  7  6  1  0  0  0
 10 11  1  0  0  0
 10 12  1  0  0  0
 11 13  1  0  0  0
  8  9  2  0  0  0
 16 15  1  0  0  0
 15 18  1  0  0  0
 15 14  1  0  0  0
 16 17  2  0  0  0
 21 20  1  0  0  0
 20 23  1  0  0  0
 20 19  1  0  0  0
 23 24  1  0  0  0
 24 26  4  0  0  0
 24 25  4  0  0  0
 25 27  4  0  0  0
 27 29  4  0  0  0
 29 30  1  0  0  0
 28 29  4  0  0  0
 26 28  4  0  0  0
 21 22  2  0  0  0
 33 32  1  0  0  0
 32 35  1  0  0  0
 32 31  1  0  0  0
 35 36  1  0  0  0
 36 38  4  0  0  0
 36 37  4  0  0  0
 37 39  4  0  0  0
 39 41  4  0  0  0
 40 41  4  0  0  0
 38 40  4  0  0  0
 33 34  2  0  0  0
 44 43  1  0  0  0
 43 46  1  0  0  0
 43 42  1  0  0  0
 46 47  1  0  0  0
 46 48  1  0  0  0
 47 49  1  0  0  0
 44 45  2  0  0  0
 51 50  1  0  0  0
 51 54  1  0  0  0
 52 51  1  0  0  0
 52 53  2  0  0  0
 54 55  1  0  0  0
 55 56  1  0  0  0
 50 56  1  0  0  0
 58 59  1  0  0  0
 58 61  1  0  0  0
 57 58  1  0  0  0
 61 62  1  0  0  0
 62 63  1  0  0  0
 62 64  2  0  0  0
 59 60  2  0  0  0
  6  3  1  0  0  0
 14  8  1  0  0  0
 19 16  1  0  0  0
 31 21  1  0  0  0
 42 33  1  0  0  0
 50 44  1  0  0  0
 52 57  1  0  0  0
 59 65  1  0  0  0
  1 66  1  0  0  0
  1 67  1  0  0  0
  1 68  1  0  0  0
  2 69  1  0  0  0
  5 70  1  0  0  0
  5 71  1  0  0  0
  5 72  1  0  0  0
  6 73  1  0  0  0
  7 74  1  0  0  0
 10 75  1  0  0  0
 11 76  1  0  0  0
 11 77  1  0  0  0
 12 78  1  0  0  0
 12 79  1  0  0  0
 12 80  1  0  0  0
 13 81  1  0  0  0
 13 82  1  0  0  0
 13 83  1  0  0  0
 14 84  1  0  0  0
 15 85  1  0  0  0
 18 86  1  0  0  0
 18 87  1  0  0  0
 18 88  1  0  0  0
 19 89  1  0  0  0
 20 90  1  0  0  0
 23 91  1  0  0  0
 23 92  1  0  0  0
 25 93  1  0  0  0
 26 94  1  0  0  0
 27 95  1  0  0  0
 28 96  1  0  0  0
 30 97  1  0  0  0
 31 98  1  0  0  0
 32 99  1  0  0  0
 35100  1  0  0  0
 35101  1  0  0  0
 37102  1  0  0  0
 38103  1  0  0  0
 39104  1  0  0  0
 40105  1  0  0  0
 41106  1  0  0  0
 42107  1  0  0  0
 43108  1  0  0  0
 46109  1  0  0  0
 47110  1  0  0  0
 47111  1  0  0  0
 48112  1  0  0  0
 48113  1  0  0  0
 48114  1  0  0  0
 49115  1  0  0  0
 49116  1  0  0  0
 49117  1  0  0  0
 51118  1  0  0  0
 54119  1  0  0  0
 54120  1  0  0  0
 55121  1  0  0  0
 55122  1  0  0  0
 56123  1  0  0  0
 56124  1  0  0  0
 57125  1  0  0  0
 58126  1  0  0  0
 61127  1  0  0  0
 61128  1  0  0  0
 63129  1  0  0  0
 65130  1  0  0  0
M  END
$$$$
