2boi_ligand
  -I-interpret- 

 26 26  0  0  0  0  0  0  0  0999 V2000
   35.6300   21.2600   20.8590 C   0  0  0  0  0
   35.2310   19.8350   20.5170 C   0  0  0  0  0
   34.7400   19.1250   21.7650 C   0  0  0  0  0
   33.6300   19.8970   22.4460 C   0  0  0  0  0
   34.0950   21.3200   22.7070 C   0  0  0  0  0
   32.9810   22.1590   23.3010 C   0  0  0  0  0
   36.7380   21.2100   21.7460 O   0  0  0  0  0
   36.3050   19.0630   19.9800 O   0  0  0  0  0
   34.2800   17.8120   21.3820 O   0  0  0  0  0
   32.4820   19.8270   21.5830 O   0  0  0  0  0
   34.5340   21.9260   21.4750 O   0  0  0  0  0
   37.2480   22.5220   22.0660 C   0  0  0  0  0
   35.9040   21.8075   19.9572 H   0  0  0  0  0
   34.4511   19.9145   19.7597 H   0  0  0  0  0
   35.5579   19.0487   22.4814 H   0  0  0  0  0
   33.3638   19.4793   23.4170 H   0  0  0  0  0
   34.9201   21.2780   23.4180 H   0  0  0  0  0
   33.3509   23.1653   23.4974 H   0  0  0  0  0
   32.1495   22.2069   22.5978 H   0  0  0  0  0
   32.6443   21.7059   24.2334 H   0  0  0  0  0
   36.6379   19.4885   19.1865 H   0  0  0  0  0
   34.9947   17.3365   20.9523 H   0  0  0  0  0
   32.2350   18.9082   21.4547 H   0  0  0  0  0
   37.5715   23.0178   21.1508 H   0  0  0  0  0
   36.4626   23.1098   22.5411 H   0  0  0  0  0
   38.0937   22.4256   22.7469 H   0  0  0  0  0
  1  2  1  0  0  0
  1  7  1  0  0  0
  1 11  1  0  0  0
  2  3  1  0  0  0
  2  8  1  0  0  0
  3  4  1  0  0  0
  3  9  1  0  0  0
  4  5  1  0  0  0
  4 10  1  0  0  0
  5  6  1  0  0  0
  5 11  1  0  0  0
  7 12  1  0  0  0
  1 13  1  0  0  0
  2 14  1  0  0  0
  3 15  1  0  0  0
  4 16  1  0  0  0
  5 17  1  0  0  0
  6 18  1  0  0  0
  6 19  1  0  0  0
  6 20  1  0  0  0
  8 21  1  0  0  0
  9 22  1  0  0  0
 10 23  1  0  0  0
 12 24  1  0  0  0
 12 25  1  0  0  0
 12 26  1  0  0  0
M  END
$$$$
