### 
### Created by X-TOOL on Mon Sep 10 21:13:32 2018
### 

@<TRIPOS>MOLECULE
6bhh_ligand
  110   110     1     0     0
SMALL
GAST_HUCK


@<TRIPOS>ATOM
      1 CA         51.2020   -7.7180   64.8560 C.3       1 MLY         0.0258
      2 C          50.5380   -7.2170   63.6010 C.2       1 MLY         0.1751
      3 O          50.0710   -8.0190   62.7800 O.2       1 MLY        -0.3972
      4 N          50.5090   -5.8860   63.4340 N.am      1 SER        -0.2661
      5 CA         49.7990   -5.2200   62.3070 C.3       1 SER         0.1281
      6 C          50.7070   -4.7350   61.1390 C.2       1 SER         0.2037
      7 O          50.2870   -3.8790   60.3410 O.2       1 SER        -0.3944
      8 CB         49.0110   -4.0180   62.8520 C.3       1 SER        -0.0244
      9 N          51.9190   -5.2750   61.0190 N.am      1 THR        -0.2613
     10 CA         52.8920   -4.7400   60.0300 C.3       1 THR         0.1565
     11 C          52.5370   -4.9600   58.5500 C.2       1 THR         0.2063
     12 O          52.1340   -6.0540   58.1510 O.2       1 THR        -0.3943
     13 CB         54.3300   -5.2590   60.2630 C.3       1 THR         0.0924
     14 OG1        55.2100   -4.5960   59.3450 O.3       1 THR        -0.3874
     15 CG2        54.4590   -6.7930   60.0410 C.3       1 THR        -0.0346
     16 N          52.7390   -3.9250   57.7330 N.am      1 GLY        -0.2663
     17 CA         52.6760   -4.0770   56.2740 C.3       1 GLY         0.1201
     18 C          54.0260   -4.3390   55.5810 C.2       1 GLY         0.2005
     19 O          54.1300   -4.2580   54.3550 O.2       1 GLY        -0.3947
     20 N          55.0770   -4.6370   56.3360 N.am      1 GLY        -0.2666
     21 CA         56.3750   -4.9450   55.7220 C.3       1 GLY         0.1201
     22 C          57.0730   -3.7730   55.0310 C.2       1 GLY         0.2007
     23 O          56.6730   -2.6170   55.1680 O.2       1 GLY        -0.3947
     24 OH         59.2240    0.1070   56.9910 O.2       1 ALY        -0.3974
     25 CH         58.8450   -0.9580   57.4570 C.2       1 ALY         0.1729
     26 CH3        57.4580   -1.1400   58.0100 C.3       1 ALY         0.0256
     27 NZ         59.6240   -2.0150   57.4960 N.am      1 ALY        -0.2872
     28 CE         61.0030   -1.9820   57.0540 C.3       1 ALY         0.0309
     29 CD         61.2440   -2.1550   55.5920 C.3       1 ALY        -0.0325
     30 CG         60.9350   -3.5820   55.1620 C.3       1 ALY        -0.0470
     31 CB         60.4370   -3.5770   53.7260 C.3       1 ALY        -0.0123
     32 CA         58.9800   -3.0670   53.6550 C.3       1 ALY         0.1310
     33 N          58.1190   -4.0870   54.2690 N.am      1 ALY        -0.2640
     34 C          58.6530   -2.7280   52.2340 C.2       1 ALY         0.2039
     35 O          59.1240   -1.7130   51.7220 O.2       1 ALY        -0.3944
     36 N          57.8790   -3.5900   51.5570 N.am      1 ALA        -0.2640
     37 CA         57.5190   -3.3890   50.1450 C.3       1 ALA         0.1284
     38 C          56.0510   -3.6940   49.9380 C.2       1 ALA         0.2061
     39 O          55.4620   -4.4570   50.7060 O.2       1 ALA        -0.3942
     40 CB         58.3410   -4.2920   49.2530 C.3       1 ALA        -0.0244
     41 N          55.4610   -3.1370   48.8890 N.am      1 PRO        -0.2498
     42 CA         54.0630   -3.4470   48.6700 C.3       1 PRO         0.1338
     43 C          53.8140   -4.9430   48.4840 C.2       1 PRO         0.2041
     44 O          54.6860   -5.6560   47.9700 O.2       1 PRO        -0.3944
     45 CB         53.7380   -2.6760   47.3780 C.3       1 PRO        -0.0104
     46 CG         54.6720   -1.5260   47.4060 C.3       1 PRO        -0.0281
     47 CD         55.9440   -2.1070   47.9510 C.3       1 PRO         0.0369
     48 N          52.6490   -5.3970   48.9400 N.am      1 ARG        -0.2640
     49 CA         52.1930   -6.7780   48.7260 C.3       1 ARG         0.1280
     50 C          52.0130   -7.0610   47.2220 C.2       1 ARG         0.2011
     51 O          51.5750   -6.1820   46.4780 O.2       1 ARG        -0.3946
     52 CB         50.8740   -7.0160   49.4730 C.3       1 ARG        -0.0244
     53 N          52.3920   -8.2700   46.7800 N.am      1 LYS        -0.2881
     54 CA         52.2180   -8.6950   45.3670 C.3       1 LYS         0.0196
     55 H1         51.5497   -6.8624   65.4535 H         1 MLY         0.0467
     56 H2         52.0606   -8.3516   64.5887 H         1 MLY         0.0467
     57 H3         50.4809   -8.3060   65.4427 H         1 MLY         0.0467
     58 H4         50.9878   -5.3129   64.0991 H         1 SER         0.1882
     59 H5         49.0878   -5.9485   61.8906 H         1 SER         0.0797
     60 H6         48.4833   -3.5202   62.0251 H         1 SER         0.0277
     61 H7         49.7057   -3.3077   63.3240 H         1 SER         0.0277
     62 H8         48.2801   -4.3659   63.5968 H         1 SER         0.0277
     63 H9         52.1768   -6.0474   61.5995 H         1 THR         0.1884
     64 H10        52.9095   -3.6518   60.1895 H         1 THR         0.0826
     65 H11        54.6276   -5.0240   61.2956 H         1 THR         0.0639
     66 H12        55.1754   -3.6587   59.4959 H         1 THR         0.2101
     67 H13        55.4990   -7.1032   60.2202 H         1 THR         0.0257
     68 H14        54.1760   -7.0389   59.0069 H         1 THR         0.0257
     69 H15        53.7933   -7.3218   60.7390 H         1 THR         0.0257
     70 H16        52.9377   -3.0258   58.1228 H         1 GLY         0.1881
     71 H17        52.2521   -3.1530   55.8540 H         1 GLY         0.0763
     72 H18        52.0088   -4.9220   56.0488 H         1 GLY         0.0763
     73 H19        54.9838   -4.6518   57.3315 H         1 GLY         0.1881
     74 H20        56.2162   -5.7341   54.9723 H         1 GLY         0.0763
     75 H21        57.0430   -5.3188   56.5119 H         1 GLY         0.0763
     76 H22        57.3402   -2.1719   58.3722 H         1 ALY         0.0467
     77 H23        56.7192   -0.9424   57.2194 H         1 ALY         0.0467
     78 H24        57.3003   -0.4389   58.8428 H         1 ALY         0.0467
     79 H25        59.2508   -2.8750   57.8440 H         1 ALY         0.1850
     80 H26        61.5398   -2.7869   57.5774 H         1 ALY         0.0520
     81 H27        61.4237   -1.0091   57.3479 H         1 ALY         0.0520
     82 H28        62.2980   -1.9312   55.3706 H         1 ALY         0.0285
     83 H29        60.5970   -1.4617   55.0346 H         1 ALY         0.0285
     84 H30        60.1596   -4.0039   55.8183 H         1 ALY         0.0268
     85 H31        61.8471   -4.1927   55.2325 H         1 ALY         0.0268
     86 H32        60.4813   -4.6003   53.3248 H         1 ALY         0.0312
     87 H33        61.0798   -2.9186   53.1232 H         1 ALY         0.0312
     88 H34        58.8896   -2.1452   54.2483 H         1 ALY         0.0800
     89 H35        58.3260   -5.0521   54.1089 H         1 ALY         0.1883
     90 H36        57.5336   -4.4002   52.0306 H         1 ALA         0.1883
     91 H37        57.7131   -2.3410   49.8731 H         1 ALA         0.0797
     92 H38        58.0574   -4.1270   48.2031 H         1 ALA         0.0277
     93 H39        58.1545   -5.3420   49.5224 H         1 ALA         0.0277
     94 H40        59.4090   -4.0638   49.3845 H         1 ALA         0.0277
     95 H41        53.4513   -3.0836   49.5089 H         1 PRO         0.0802
     96 H42        52.6932   -2.3319   47.3796 H         1 PRO         0.0313
     97 H43        53.9161   -3.3035   46.4923 H         1 PRO         0.0313
     98 H44        54.2926   -0.7296   48.0631 H         1 PRO         0.0287
     99 H45        54.8277   -1.1235   46.3942 H         1 PRO         0.0287
    100 H46        56.5497   -2.5547   47.1494 H         1 PRO         0.0524
    101 H47        56.5361   -1.3418   48.4742 H         1 PRO         0.0524
    102 H48        52.0584   -4.7717   49.4502 H         1 ARG         0.1883
    103 H49        52.9535   -7.4658   49.1242 H         1 ARG         0.0797
    104 H50        50.5405   -8.0511   49.3074 H         1 ARG         0.0277
    105 H51        50.1093   -6.3199   49.0978 H         1 ARG         0.0277
    106 H52        51.0266   -6.8477   50.5493 H         1 ARG         0.0277
    107 H53        52.8076   -8.9096   47.4266 H         1 LYS         0.1848
    108 H54        52.6000   -9.7190   45.2424 H         1 LYS         0.0484
    109 H55        52.7751   -8.0131   44.7077 H         1 LYS         0.0484
    110 H56        51.1501   -8.6677   45.1047 H         1 LYS         0.0484
@<TRIPOS>BOND
     1    2    1 1  
     2    2    3 2  
     3    4    2 am 
     4    5    4 1  
     5    6    5 1  
     6    5    8 1  
     7    6    7 2  
     8    9    6 am 
     9   10    9 1  
    10   11   10 1  
    11   10   13 1  
    12   11   12 2  
    13   16   11 am 
    14   13   14 1  
    15   13   15 1  
    16   17   16 1  
    17   18   17 1  
    18   18   19 2  
    19   20   18 am 
    20   21   20 1  
    21   22   21 1  
    22   22   23 2  
    23   33   22 am 
    24   25   24 2  
    25   25   26 1  
    26   27   25 am 
    27   28   27 1  
    28   29   28 1  
    29   30   29 1  
    30   31   30 1  
    31   32   31 1  
    32   32   33 1  
    33   32   34 1  
    34   34   35 2  
    35   34   36 am 
    36   36   37 1  
    37   37   38 1  
    38   37   40 1  
    39   38   39 2  
    40   38   41 am 
    41   41   42 1  
    42   41   47 1  
    43   42   43 1  
    44   42   45 1  
    45   43   44 2  
    46   43   48 am 
    47   45   46 1  
    48   46   47 1  
    49   48   49 1  
    50   49   50 1  
    51   49   52 1  
    52   50   51 2  
    53   50   53 am 
    54   53   54 1  
    55    1   55 1  
    56    1   56 1  
    57    1   57 1  
    58    4   58 1  
    59    5   59 1  
    60    8   60 1  
    61    8   61 1  
    62    8   62 1  
    63    9   63 1  
    64   10   64 1  
    65   13   65 1  
    66   14   66 1  
    67   15   67 1  
    68   15   68 1  
    69   15   69 1  
    70   16   70 1  
    71   17   71 1  
    72   17   72 1  
    73   20   73 1  
    74   21   74 1  
    75   21   75 1  
    76   26   76 1  
    77   26   77 1  
    78   26   78 1  
    79   27   79 1  
    80   28   80 1  
    81   28   81 1  
    82   29   82 1  
    83   29   83 1  
    84   30   84 1  
    85   30   85 1  
    86   31   86 1  
    87   31   87 1  
    88   32   88 1  
    89   33   89 1  
    90   36   90 1  
    91   37   91 1  
    92   40   92 1  
    93   40   93 1  
    94   40   94 1  
    95   42   95 1  
    96   45   96 1  
    97   45   97 1  
    98   46   98 1  
    99   46   99 1  
   100   47  100 1  
   101   47  101 1  
   102   48  102 1  
   103   49  103 1  
   104   52  104 1  
   105   52  105 1  
   106   52  106 1  
   107   53  107 1  
   108   54  108 1  
   109   54  109 1  
   110   54  110 1  
@<TRIPOS>SUBSTRUCTURE
     1 MLY         1

