6bhh_ligand
  -I-interpret- 

110110  0  0  0  0  0  0  0  0999 V2000
   51.2020   -7.7180   64.8560 C   0  0  0  0  0
   50.5380   -7.2170   63.6010 C   0  0  0  0  0
   50.0710   -8.0190   62.7800 O   0  0  0  0  0
   50.5090   -5.8860   63.4340 N   0  0  0  0  0
   49.7990   -5.2200   62.3070 C   0  0  0  0  0
   50.7070   -4.7350   61.1390 C   0  0  0  0  0
   50.2870   -3.8790   60.3410 O   0  0  0  0  0
   49.0110   -4.0180   62.8520 C   0  0  0  0  0
   51.9190   -5.2750   61.0190 N   0  0  0  0  0
   52.8920   -4.7400   60.0300 C   0  0  0  0  0
   52.5370   -4.9600   58.5500 C   0  0  0  0  0
   52.1340   -6.0540   58.1510 O   0  0  0  0  0
   54.3300   -5.2590   60.2630 C   0  0  0  0  0
   55.2100   -4.5960   59.3450 O   0  0  0  0  0
   54.4590   -6.7930   60.0410 C   0  0  0  0  0
   52.7390   -3.9250   57.7330 N   0  0  0  0  0
   52.6760   -4.0770   56.2740 C   0  0  0  0  0
   54.0260   -4.3390   55.5810 C   0  0  0  0  0
   54.1300   -4.2580   54.3550 O   0  0  0  0  0
   55.0770   -4.6370   56.3360 N   0  0  0  0  0
   56.3750   -4.9450   55.7220 C   0  0  0  0  0
   57.0730   -3.7730   55.0310 C   0  0  0  0  0
   56.6730   -2.6170   55.1680 O   0  0  0  0  0
   59.2240    0.1070   56.9910 O   0  0  0  0  0
   58.8450   -0.9580   57.4570 C   0  0  0  0  0
   57.4580   -1.1400   58.0100 C   0  0  0  0  0
   59.6240   -2.0150   57.4960 N   0  0  0  0  0
   61.0030   -1.9820   57.0540 C   0  0  0  0  0
   61.2440   -2.1550   55.5920 C   0  0  0  0  0
   60.9350   -3.5820   55.1620 C   0  0  0  0  0
   60.4370   -3.5770   53.7260 C   0  0  0  0  0
   58.9800   -3.0670   53.6550 C   0  0  0  0  0
   58.1190   -4.0870   54.2690 N   0  0  0  0  0
   58.6530   -2.7280   52.2340 C   0  0  0  0  0
   59.1240   -1.7130   51.7220 O   0  0  0  0  0
   57.8790   -3.5900   51.5570 N   0  0  0  0  0
   57.5190   -3.3890   50.1450 C   0  0  0  0  0
   56.0510   -3.6940   49.9380 C   0  0  0  0  0
   55.4620   -4.4570   50.7060 O   0  0  0  0  0
   58.3410   -4.2920   49.2530 C   0  0  0  0  0
   55.4610   -3.1370   48.8890 N   0  0  0  0  0
   54.0630   -3.4470   48.6700 C   0  0  0  0  0
   53.8140   -4.9430   48.4840 C   0  0  0  0  0
   54.6860   -5.6560   47.9700 O   0  0  0  0  0
   53.7380   -2.6760   47.3780 C   0  0  0  0  0
   54.6720   -1.5260   47.4060 C   0  0  0  0  0
   55.9440   -2.1070   47.9510 C   0  0  0  0  0
   52.6490   -5.3970   48.9400 N   0  0  0  0  0
   52.1930   -6.7780   48.7260 C   0  0  0  0  0
   52.0130   -7.0610   47.2220 C   0  0  0  0  0
   51.5750   -6.1820   46.4780 O   0  0  0  0  0
   50.8740   -7.0160   49.4730 C   0  0  0  0  0
   52.3920   -8.2700   46.7800 N   0  0  0  0  0
   52.2180   -8.6950   45.3670 C   0  0  0  0  0
   50.4865   -8.3005   65.4364 H   0  0  0  0  0
   52.0525   -8.3457   64.5898 H   0  0  0  0  0
   51.5461   -6.8693   65.4471 H   0  0  0  0  0
   50.9973   -5.3015   64.1124 H   0  0  0  0  0
   49.1510   -5.9851   61.8795 H   0  0  0  0  0
   49.7080   -3.2622   63.2139 H   0  0  0  0  0
   48.3971   -3.5965   62.0560 H   0  0  0  0  0
   48.3711   -4.3459   63.6712 H   0  0  0  0  0
   52.1820   -6.0628   61.6111 H   0  0  0  0  0
   52.8349   -3.6678   60.2175 H   0  0  0  0  0
   54.5894   -5.0496   61.3008 H   0  0  0  0  0
   56.1071   -4.9101   59.4799 H   0  0  0  0  0
   53.7989   -7.3158   60.7331 H   0  0  0  0  0
   54.1783   -7.0354   59.0160 H   0  0  0  0  0
   55.4899   -7.0991   60.2188 H   0  0  0  0  0
   52.9417   -3.0078   58.1306 H   0  0  0  0  0
   52.2996   -3.1339   55.8778 H   0  0  0  0  0
   52.0501   -4.9475   56.0776 H   0  0  0  0  0
   54.9819   -4.6521   57.3514 H   0  0  0  0  0
   56.1834   -5.6902   54.9500 H   0  0  0  0  0
   57.0324   -5.2638   56.5309 H   0  0  0  0  0
   57.3031   -0.4447   58.8350 H   0  0  0  0  0
   56.7269   -0.9439   57.2257 H   0  0  0  0  0
   57.3425   -2.1628   58.3686 H   0  0  0  0  0
   59.2434   -2.8922   57.8510 H   0  0  0  0  0
   61.4938   -2.8250   57.5404 H   0  0  0  0  0
   61.3738   -0.9878   57.3032 H   0  0  0  0  0
   62.2916   -1.9416   55.3795 H   0  0  0  0  0
   60.5938   -1.4729   55.0442 H   0  0  0  0  0
   60.1678   -4.0013   55.8129 H   0  0  0  0  0
   61.8381   -4.1882   55.2330 H   0  0  0  0  0
   60.4736   -4.5945   53.3368 H   0  0  0  0  0
   61.0710   -2.9157   53.1355 H   0  0  0  0  0
   58.8202   -2.1459   54.2154 H   0  0  0  0  0
   58.3301   -5.0714   54.1057 H   0  0  0  0  0
   57.5267   -4.4164   52.0400 H   0  0  0  0  0
   57.7208   -2.3497   49.8858 H   0  0  0  0  0
   59.3990   -4.0649   49.3843 H   0  0  0  0  0
   58.1553   -5.3321   49.5210 H   0  0  0  0  0
   58.0591   -4.1276   48.2130 H   0  0  0  0  0
   53.4417   -3.1692   49.5215 H   0  0  0  0  0
   52.6952   -2.3618   47.3342 H   0  0  0  0  0
   53.8636   -3.2902   46.4863 H   0  0  0  0  0
   54.2979   -0.7038   48.0160 H   0  0  0  0  0
   54.8094   -1.0803   46.4208 H   0  0  0  0  0
   56.5909   -2.5130   47.1733 H   0  0  0  0  0
   56.5780   -1.3615   48.4311 H   0  0  0  0  0
   52.0466   -4.7592   49.4604 H   0  0  0  0  0
   52.9490   -7.4596   49.1159 H   0  0  0  0  0
   51.0265   -6.8489   50.5393 H   0  0  0  0  0
   50.1172   -6.3257   49.1004 H   0  0  0  0  0
   50.5446   -8.0419   49.3082 H   0  0  0  0  0
   52.8159   -8.9224   47.4396 H   0  0  0  0  0
   51.1595   -8.6674   45.1084 H   0  0  0  0  0
   52.7704   -8.0186   44.7148 H   0  0  0  0  0
   52.5969   -9.7097   45.2448 H   0  0  0  0  0
  2  1  1  0  0  0
  2  3  2  0  0  0
  4  2  1  0  0  0
  5  4  1  0  0  0
  6  5  1  0  0  0
  5  8  1  0  0  0
  6  7  2  0  0  0
  9  6  1  0  0  0
 10  9  1  0  0  0
 11 10  1  0  0  0
 10 13  1  0  0  0
 11 12  2  0  0  0
 16 11  1  0  0  0
 13 14  1  0  0  0
 13 15  1  0  0  0
 17 16  1  0  0  0
 18 17  1  0  0  0
 18 19  2  0  0  0
 20 18  1  0  0  0
 21 20  1  0  0  0
 22 21  1  0  0  0
 22 23  2  0  0  0
 33 22  1  0  0  0
 25 24  2  0  0  0
 25 26  1  0  0  0
 27 25  1  0  0  0
 28 27  1  0  0  0
 29 28  1  0  0  0
 30 29  1  0  0  0
 31 30  1  0  0  0
 32 31  1  0  0  0
 32 33  1  0  0  0
 32 34  1  0  0  0
 34 35  2  0  0  0
 34 36  1  0  0  0
 36 37  1  0  0  0
 37 38  1  0  0  0
 37 40  1  0  0  0
 38 39  2  0  0  0
 38 41  1  0  0  0
 41 42  1  0  0  0
 41 47  1  0  0  0
 42 43  1  0  0  0
 42 45  1  0  0  0
 43 44  2  0  0  0
 43 48  1  0  0  0
 45 46  1  0  0  0
 46 47  1  0  0  0
 48 49  1  0  0  0
 49 50  1  0  0  0
 49 52  1  0  0  0
 50 51  2  0  0  0
 50 53  1  0  0  0
 53 54  1  0  0  0
  1 55  1  0  0  0
  1 56  1  0  0  0
  1 57  1  0  0  0
  4 58  1  0  0  0
  5 59  1  0  0  0
  8 60  1  0  0  0
  8 61  1  0  0  0
  8 62  1  0  0  0
  9 63  1  0  0  0
 10 64  1  0  0  0
 13 65  1  0  0  0
 14 66  1  0  0  0
 15 67  1  0  0  0
 15 68  1  0  0  0
 15 69  1  0  0  0
 16 70  1  0  0  0
 17 71  1  0  0  0
 17 72  1  0  0  0
 20 73  1  0  0  0
 21 74  1  0  0  0
 21 75  1  0  0  0
 26 76  1  0  0  0
 26 77  1  0  0  0
 26 78  1  0  0  0
 27 79  1  0  0  0
 28 80  1  0  0  0
 28 81  1  0  0  0
 29 82  1  0  0  0
 29 83  1  0  0  0
 30 84  1  0  0  0
 30 85  1  0  0  0
 31 86  1  0  0  0
 31 87  1  0  0  0
 32 88  1  0  0  0
 33 89  1  0  0  0
 36 90  1  0  0  0
 37 91  1  0  0  0
 40 92  1  0  0  0
 40 93  1  0  0  0
 40 94  1  0  0  0
 42 95  1  0  0  0
 45 96  1  0  0  0
 45 97  1  0  0  0
 46 98  1  0  0  0
 46 99  1  0  0  0
 47100  1  0  0  0
 47101  1  0  0  0
 48102  1  0  0  0
 49103  1  0  0  0
 52104  1  0  0  0
 52105  1  0  0  0
 52106  1  0  0  0
 53107  1  0  0  0
 54108  1  0  0  0
 54109  1  0  0  0
 54110  1  0  0  0
M  END
$$$$
