6n0p_ligand
  -I-interpret- 

 61 64  0  0  0  0  0  0  0  0999 V2000
  -41.1410   25.6520   -2.9950 C   0  0  0  0  0
  -43.1200   26.9010   -3.1880 C   0  0  0  0  0
  -45.4670   20.9150   -4.2570 C   0  0  0  0  0
  -45.0030   21.1570   -2.9650 C   0  0  0  0  0
  -44.2370   22.3000   -2.6640 C   0  0  0  0  0
  -43.6680   22.4410   -1.2830 C   0  0  0  0  0
  -38.9640   24.3610   -3.0210 C   0  0  0  0  0
  -37.4930   24.7360   -3.2100 C   0  0  0  0  0
  -37.7350   26.8670   -2.1620 C   0  0  0  0  0
  -39.2050   26.5950   -1.7520 C   0  0  0  0  0
  -44.8620   21.6630   -7.7290 C   0  0  0  0  0
  -45.5000   21.1800   -8.9660 C   0  0  0  0  0
  -46.8960   21.0950   -9.0810 C   0  0  0  0  0
  -47.4140   20.6610  -10.3250 C   0  0  0  0  0
  -45.2540   20.4590  -11.2100 C   0  0  0  0  0
  -44.6560   20.8470  -10.0260 C   0  0  0  0  0
  -44.3960   20.2870  -12.4720 C   0  0  0  0  0
  -41.7690   26.8810   -2.9710 N   0  0  0  0  0
  -43.8950   25.7630   -3.4410 C   0  0  0  0  0
  -43.2180   24.5180   -3.4660 C   0  0  0  0  0
  -41.8250   24.4340   -3.2430 C   0  0  0  0  0
  -39.7370   25.6390   -2.7980 N   0  0  0  0  0
  -43.9730   23.2660   -3.6970 C   0  0  0  0  0
  -44.4490   23.0660   -5.0030 C   0  0  0  0  0
  -45.1790   21.8520   -5.2680 C   0  0  0  0  0
  -45.5820   21.5000   -6.5800 N   0  0  0  0  0
  -37.0750   25.6120   -2.1620 O   0  0  0  0  0
  -43.7550   22.1850   -7.7420 O   0  0  0  0  0
  -46.6130   20.3390  -11.3850 N   0  0  0  0  0
  -44.9190   21.0260  -13.4720 F   0  0  0  0  0
  -43.7510   28.1310   -3.1690 O   0  0  0  0  0
  -43.0890   29.2140   -2.5230 C   0  0  0  0  0
  -43.1200   20.7080  -12.3360 F   0  0  0  0  0
  -44.1760   30.3120   -2.4900 C   0  0  0  0  0
  -44.4680   30.6920   -3.8120 O   0  0  0  0  0
  -44.2740   19.0410  -12.9420 F   0  0  0  0  0
  -46.0424   20.0167   -4.4807 H   0  0  0  0  0
  -45.2377   20.4474   -2.1716 H   0  0  0  0  0
  -44.4802   22.4517   -0.5561 H   0  0  0  0  0
  -43.0053   21.6005   -1.0769 H   0  0  0  0  0
  -43.1065   23.3729   -1.2162 H   0  0  0  0  0
  -39.0791   23.6935   -2.1670 H   0  0  0  0  0
  -39.3390   23.8389   -3.9013 H   0  0  0  0  0
  -37.3711   25.2396   -4.1690 H   0  0  0  0  0
  -36.8857   23.8312   -3.1854 H   0  0  0  0  0
  -37.2583   27.5573   -1.4660 H   0  0  0  0  0
  -37.6854   27.3327   -3.1463 H   0  0  0  0  0
  -39.7888   27.5146   -1.7130 H   0  0  0  0  0
  -39.2717   26.1725   -0.7494 H   0  0  0  0  0
  -47.5523   21.3517   -8.2495 H   0  0  0  0  0
  -48.4947   20.5804  -10.4423 H   0  0  0  0  0
  -43.5716   20.8910   -9.9246 H   0  0  0  0  0
  -44.9695   25.8312   -3.6109 H   0  0  0  0  0
  -41.3008   23.4785   -3.2607 H   0  0  0  0  0
  -44.2728   23.8020   -5.7875 H   0  0  0  0  0
  -46.5069   21.0809   -6.6764 H   0  0  0  0  0
  -42.1848   29.5288   -3.0439 H   0  0  0  0  0
  -42.7199   28.9536   -1.5310 H   0  0  0  0  0
  -43.8174   31.1732   -1.9263 H   0  0  0  0  0
  -45.0750   29.9307   -2.0057 H   0  0  0  0  0
  -45.1429   31.3747   -3.8059 H   0  0  0  0  0
  1 18  4  0  0  0
 21  1  4  0  0  0
  1 22  1  0  0  0
  2 18  4  0  0  0
 19  2  4  0  0  0
  2 31  1  0  0  0
  3  4  4  0  0  0
 25  3  4  0  0  0
  4  5  4  0  0  0
  5  6  1  0  0  0
 23  5  4  0  0  0
  7  8  1  0  0  0
 22  7  1  0  0  0
  8 27  1  0  0  0
 10  9  1  0  0  0
  9 27  1  0  0  0
 22 10  1  0  0  0
 11 12  1  0  0  0
 26 11  1  0  0  0
 11 28  2  0  0  0
 12 13  4  0  0  0
 12 16  4  0  0  0
 13 14  4  0  0  0
 14 29  4  0  0  0
 16 15  4  0  0  0
 15 17  1  0  0  0
 15 29  4  0  0  0
 17 30  1  0  0  0
 17 33  1  0  0  0
 17 36  1  0  0  0
 20 19  4  0  0  0
 20 21  4  0  0  0
 23 20  1  0  0  0
 24 23  4  0  0  0
 25 24  4  0  0  0
 25 26  1  0  0  0
 31 32  1  0  0  0
 32 34  1  0  0  0
 34 35  1  0  0  0
  3 37  1  0  0  0
  4 38  1  0  0  0
  6 39  1  0  0  0
  6 40  1  0  0  0
  6 41  1  0  0  0
  7 42  1  0  0  0
  7 43  1  0  0  0
  8 44  1  0  0  0
  8 45  1  0  0  0
  9 46  1  0  0  0
  9 47  1  0  0  0
 10 48  1  0  0  0
 10 49  1  0  0  0
 13 50  1  0  0  0
 14 51  1  0  0  0
 16 52  1  0  0  0
 19 53  1  0  0  0
 21 54  1  0  0  0
 24 55  1  0  0  0
 26 56  1  0  0  0
 32 57  1  0  0  0
 32 58  1  0  0  0
 34 59  1  0  0  0
 34 60  1  0  0  0
 35 61  1  0  0  0
M  END
$$$$
