4yv1_ligand
  -I-interpret- 

 35 37  0  0  0  0  0  0  0  0999 V2000
  -11.2290  -18.4200  -53.5950 C   0  0  0  0  0
  -15.4770  -20.4740  -54.5420 C   0  0  0  0  0
  -12.2790  -19.2420  -53.2270 C   0  0  0  0  0
  -14.4020  -20.2630  -53.6960 C   0  0  0  0  0
  -11.2750  -17.7970  -54.8180 C   0  0  0  0  0
  -15.4700  -19.8320  -55.7580 C   0  0  0  0  0
  -13.3580  -19.4380  -54.0760 C   0  0  0  0  0
  -13.4290  -18.8190  -55.3130 C   0  0  0  0  0
  -12.3650  -17.9990  -55.6490 C   0  0  0  0  0
  -13.0210  -16.1670  -56.7230 C   0  0  0  0  0
  -12.7160  -14.0160  -60.3140 C   0  0  0  0  0
  -13.1990  -13.3490  -59.0360 C   0  0  0  0  0
  -11.8360  -15.2050  -60.0200 C   0  0  0  0  0
  -13.8930  -14.3140  -58.1030 C   0  0  0  0  0
  -12.6340  -16.1680  -59.1750 C   0  0  0  0  0
  -14.4770  -19.0210  -56.1440 N   0  0  0  0  0
  -13.1340  -15.5420  -57.9620 N   0  0  0  0  0
  -13.4680  -15.7180  -55.6630 O   0  0  0  0  0
  -12.3500  -17.3640  -56.8790 O   0  0  0  0  0
  -10.3811  -18.2696  -52.9268 H   0  0  0  0  0
  -16.3010  -21.1268  -54.2541 H   0  0  0  0  0
  -12.2581  -19.7415  -52.2584 H   0  0  0  0  0
  -14.3776  -20.7511  -52.7217 H   0  0  0  0  0
  -10.4585  -17.1472  -55.1331 H   0  0  0  0  0
  -16.3084  -19.9900  -56.4364 H   0  0  0  0  0
  -12.1358  -13.2901  -60.8837 H   0  0  0  0  0
  -13.5859  -14.3607  -60.8730 H   0  0  0  0  0
  -13.9155  -12.5752  -59.3117 H   0  0  0  0  0
  -12.3282  -12.9485  -58.5170 H   0  0  0  0  0
  -10.9371  -14.8900  -59.4900 H   0  0  0  0  0
  -11.5226  -15.6838  -60.9477 H   0  0  0  0  0
  -14.8724  -14.5550  -58.5162 H   0  0  0  0  0
  -13.9846  -13.8463  -57.1227 H   0  0  0  0  0
  -11.9811  -16.9926  -58.8890 H   0  0  0  0  0
  -13.4883  -16.5082  -59.7603 H   0  0  0  0  0
  1  3  4  0  0  0
  5  1  4  0  0  0
  4  2  4  0  0  0
  6  2  4  0  0  0
  7  3  4  0  0  0
  7  4  4  0  0  0
  9  5  4  0  0  0
 16  6  4  0  0  0
  8  7  4  0  0  0
  9  8  4  0  0  0
  8 16  4  0  0  0
 19  9  1  0  0  0
 17 10  1  0  0  0
 10 18  2  0  0  0
 10 19  1  0  0  0
 12 11  1  0  0  0
 11 13  1  0  0  0
 14 12  1  0  0  0
 13 15  1  0  0  0
 14 17  1  0  0  0
 15 17  1  0  0  0
  1 20  1  0  0  0
  2 21  1  0  0  0
  3 22  1  0  0  0
  4 23  1  0  0  0
  5 24  1  0  0  0
  6 25  1  0  0  0
 11 26  1  0  0  0
 11 27  1  0  0  0
 12 28  1  0  0  0
 12 29  1  0  0  0
 13 30  1  0  0  0
 13 31  1  0  0  0
 14 32  1  0  0  0
 14 33  1  0  0  0
 15 34  1  0  0  0
 15 35  1  0  0  0
M  END
$$$$
