6ijl_ligand
  -I-interpret- 

 68 72  0  0  0  0  0  0  0  0999 V2000
   74.9140  128.7340  123.1380 C   0  0  0  0  0
   76.7090  128.8550  124.9170 C   0  0  0  0  0
   75.9840  130.0620  125.5290 C   0  0  0  0  0
   74.3380  129.9170  123.8110 C   0  0  0  0  0
   75.0020  132.0770  124.5330 C   0  0  0  0  0
   74.4100  132.6790  123.4630 C   0  0  0  0  0
   73.5160  133.6820  123.6840 C   0  0  0  0  0
   72.9510  134.3730  122.6450 C   0  0  0  0  0
   73.5030  134.3270  121.3860 C   0  0  0  0  0
   74.5910  133.4840  121.1540 C   0  0  0  0  0
   75.0820  132.7070  122.2230 C   0  0  0  0  0
   71.3980  135.9750  122.0770 C   0  0  0  0  0
   71.8460  135.9430  120.7540 C   0  0  0  0  0
   72.9300  135.1370  120.4150 C   0  0  0  0  0
   75.7950  129.1980  121.9660 C   0  0  0  0  0
   75.6450  126.6550  124.2530 C   0  0  0  0  0
   76.1010  124.5920  125.2200 C   0  0  0  0  0
   76.9260  123.9370  124.1210 C   0  0  0  0  0
   78.4010  124.1870  124.3970 C   0  0  0  0  0
   70.2610  136.6460  122.4960 C   0  0  0  0  0
   69.7750  137.7860  121.8810 C   0  0  0  0  0
   68.6410  138.4160  122.3880 C   0  0  0  0  0
   68.0130  137.9110  123.5250 C   0  0  0  0  0
   68.5130  136.7840  124.1600 C   0  0  0  0  0
   69.6590  136.1880  123.6670 C   0  0  0  0  0
   66.8880  138.5300  124.0400 C   0  0  0  0  0
   66.0800  137.7820  125.0950 C   0  0  0  0  0
   67.0050  138.9250  125.4910 C   0  0  0  0  0
   75.6670  127.9960  124.1940 N   0  0  0  0  0
   75.3430  130.8040  124.4430 N   0  0  0  0  0
   71.8980  135.1120  122.9490 N   0  0  0  0  0
   66.1710  139.4640  123.1590 N   0  3  0  0  0
   75.7840  132.8190  125.1480 O   0  0  0  0  0
   76.3460  126.0140  125.2360 O   0  0  0  0  0
   74.7800  126.0510  123.6130 O   0  0  0  0  0
   74.1655  128.0727  122.7016 H   0  0  0  0  0
   77.2004  128.2745  125.6978 H   0  0  0  0  0
   77.4738  129.1898  124.2162 H   0  0  0  0  0
   76.6942  130.7012  126.0534 H   0  0  0  0  0
   75.2365  129.7269  126.2481 H   0  0  0  0  0
   73.6870  129.5508  124.6049 H   0  0  0  0  0
   73.8250  130.5033  123.0487 H   0  0  0  0  0
   73.2447  133.9401  124.7077 H   0  0  0  0  0
   75.0511  133.4276  120.1675 H   0  0  0  0  0
   75.9914  132.1211  122.0898 H   0  0  0  0  0
   71.3504  136.5448  119.9922 H   0  0  0  0  0
   73.3241  135.1421  119.3987 H   0  0  0  0  0
   76.5724  129.8647  122.3392 H   0  0  0  0  0
   76.2550  128.3303  121.4932 H   0  0  0  0  0
   75.1799  129.7267  121.2379 H   0  0  0  0  0
   76.3835  124.1675  126.1834 H   0  0  0  0  0
   75.0427  124.4114  125.0315 H   0  0  0  0  0
   76.6549  124.3611  123.1542 H   0  0  0  0  0
   76.7310  122.8647  124.1031 H   0  0  0  0  0
   78.5900  125.2604  124.4104 H   0  0  0  0  0
   78.6663  123.7579  125.3632 H   0  0  0  0  0
   78.9998  123.7211  123.6144 H   0  0  0  0  0
   70.2780  138.1899  121.0024 H   0  0  0  0  0
   68.2447  139.3040  121.8955 H   0  0  0  0  0
   68.0096  136.3739  125.0355 H   0  0  0  0  0
   70.0988  135.3466  124.2025 H   0  0  0  0  0
   65.8659  136.7556  125.3929 H   0  0  0  0  0
   65.0545  137.4556  125.2678 H   0  0  0  0  0
   66.9659  139.8326  126.0934 H   0  0  0  0  0
   67.7907  139.1210  126.2206 H   0  0  0  0  0
   65.3674  139.8488  123.6555 H   0  0  0  0  0
   66.7978  140.2209  122.8859 H   0  0  0  0  0
   65.8523  138.9678  122.3268 H   0  0  0  0  0
  1  4  1  0  0  0
  1 15  1  0  0  0
 29  1  1  0  0  0
  2  3  1  0  0  0
 29  2  1  0  0  0
  3 30  1  0  0  0
  4 30  1  0  0  0
  5  6  1  0  0  0
 30  5  1  0  0  0
  5 33  2  0  0  0
  6  7  4  0  0  0
  6 11  4  0  0  0
  7  8  4  0  0  0
  8  9  4  0  0  0
  8 31  4  0  0  0
 10  9  4  0  0  0
  9 14  4  0  0  0
 11 10  4  0  0  0
 12 13  4  0  0  0
 12 20  1  0  0  0
 31 12  4  0  0  0
 14 13  4  0  0  0
 16 29  1  0  0  0
 34 16  1  0  0  0
 16 35  2  0  0  0
 17 18  1  0  0  0
 17 34  1  0  0  0
 18 19  1  0  0  0
 20 21  4  0  0  0
 20 25  4  0  0  0
 21 22  4  0  0  0
 22 23  4  0  0  0
 23 24  4  0  0  0
 23 26  1  0  0  0
 24 25  4  0  0  0
 26 27  1  0  0  0
 26 28  1  0  0  0
 26 32  1  0  0  0
 27 28  1  0  0  0
  1 36  1  0  0  0
  2 37  1  0  0  0
  2 38  1  0  0  0
  3 39  1  0  0  0
  3 40  1  0  0  0
  4 41  1  0  0  0
  4 42  1  0  0  0
  7 43  1  0  0  0
 10 44  1  0  0  0
 11 45  1  0  0  0
 13 46  1  0  0  0
 14 47  1  0  0  0
 15 48  1  0  0  0
 15 49  1  0  0  0
 15 50  1  0  0  0
 17 51  1  0  0  0
 17 52  1  0  0  0
 18 53  1  0  0  0
 18 54  1  0  0  0
 19 55  1  0  0  0
 19 56  1  0  0  0
 19 57  1  0  0  0
 21 58  1  0  0  0
 22 59  1  0  0  0
 24 60  1  0  0  0
 25 61  1  0  0  0
 27 62  1  0  0  0
 27 63  1  0  0  0
 28 64  1  0  0  0
 28 65  1  0  0  0
 32 66  1  0  0  0
 32 67  1  0  0  0
 32 68  1  0  0  0
M  END
$$$$
