6n19_ligand
  -I-interpret- 

 34 34  0  0  0  0  0  0  0  0999 V2000
    7.2160  -16.4680  -33.9450 C   0  0  0  0  0
    7.0850  -13.7050  -34.1670 C   0  0  0  0  0
    8.3000  -14.3560  -34.2990 C   0  0  0  0  0
    8.3670  -15.7370  -34.2020 C   0  0  0  0  0
    7.8260  -21.8760  -37.5920 C   0  0  0  0  0
    7.4070  -21.6180  -36.1430 C   0  0  0  0  0
    8.5510  -21.0800  -35.2820 C   0  0  0  0  0
    8.0720  -20.3390  -34.0310 C   0  0  0  0  0
    8.2590  -18.8330  -34.2050 C   0  0  0  0  0
    6.0030  -15.8100  -33.8120 C   0  0  0  0  0
    5.9310  -14.4330  -33.9220 C   0  0  0  0  0
    6.9660  -12.1840  -34.2750 C   0  0  0  0  0
    9.5850  -13.5880  -34.5900 C   0  0  0  0  0
    7.2010  -17.9190  -33.8200 N   0  0  0  0  0
    7.3900  -22.8820  -38.2190 O   0  0  0  0  0
    8.6110  -21.0770  -38.1670 O   0  0  0  0  0
    9.2650  -18.4420  -34.6640 O   0  0  0  0  0
    7.7630  -11.4390  -33.6550 O   0  0  0  0  0
    6.0300  -11.6890  -34.9450 O   0  0  0  0  0
    9.6310  -12.7940  -35.5630 O   0  0  0  0  0
   10.6010  -13.7540  -33.8670 O   0  0  0  0  0
    9.3218  -16.2477  -34.3273 H   0  0  0  0  0
    7.0847  -22.5671  -35.7147 H   0  0  0  0  0
    6.6156  -20.8685  -36.1528 H   0  0  0  0  0
    9.1143  -20.3711  -35.8889 H   0  0  0  0  0
    9.1440  -21.9331  -34.9523 H   0  0  0  0  0
    8.6551  -20.6739  -33.1731 H   0  0  0  0  0
    7.0144  -20.5512  -33.8740 H   0  0  0  0  0
    5.0966  -16.3837  -33.6187 H   0  0  0  0  0
    4.9731  -13.9237  -33.8167 H   0  0  0  0  0
    6.3598  -18.3351  -33.4206 H   0  0  0  0  0
    6.8082  -23.3871  -37.6463 H   0  0  0  0  0
    8.4130  -11.9777  -33.1980 H   0  0  0  0  0
   10.3994  -14.3874  -33.1743 H   0  0  0  0  0
  1  4  4  0  0  0
  1 10  4  0  0  0
 14  1  1  0  0  0
  3  2  4  0  0  0
  2 11  4  0  0  0
  2 12  1  0  0  0
  4  3  4  0  0  0
  3 13  1  0  0  0
  6  5  1  0  0  0
  5 15  1  0  0  0
  5 16  2  0  0  0
  7  6  1  0  0  0
  8  7  1  0  0  0
  9  8  1  0  0  0
  9 14  1  0  0  0
  9 17  2  0  0  0
 10 11  4  0  0  0
 12 18  1  0  0  0
 12 19  2  0  0  0
 13 20  2  0  0  0
 13 21  1  0  0  0
  4 22  1  0  0  0
  6 23  1  0  0  0
  6 24  1  0  0  0
  7 25  1  0  0  0
  7 26  1  0  0  0
  8 27  1  0  0  0
  8 28  1  0  0  0
 10 29  1  0  0  0
 11 30  1  0  0  0
 14 31  1  0  0  0
 15 32  1  0  0  0
 18 33  1  0  0  0
 21 34  1  0  0  0
M  END
$$$$
