1rej_ligand
  -I-interpret- 

 50 52  0  0  0  0  0  0  0  0999 V2000
   16.9020   39.1290   19.4210 O   0  0  0  0  0
   15.6260   39.4820   19.2210 C   0  0  0  0  0
   15.2800   40.8300   19.0950 C   0  0  0  0  0
   13.9470   41.1980   18.8910 C   0  0  0  0  0
   12.9590   40.2120   18.8100 C   0  0  0  0  0
   13.3010   38.8640   18.9310 C   0  0  0  0  0
   14.6340   38.5000   19.1430 C   0  0  0  0  0
   11.6330   40.5750   18.6060 C   0  0  0  0  0
   11.3220   41.7800   18.4860 O   0  0  0  0  0
   10.6710   39.6300   18.5350 N   0  0  0  0  0
    9.2740   39.9710   18.7520 C   0  0  0  0  0
    8.4700   39.6660   17.4790 C   0  0  0  0  0
    6.9560   39.6620   17.7350 C   0  0  0  0  0
    6.5410   38.4710   18.5840 C   0  0  0  0  0
    6.3870   38.9240   20.0260 C   0  0  0  0  0
    7.5010   39.7750   20.4130 N   0  3  0  0  0
    8.7570   39.2010   19.9620 C   0  0  0  0  0
    8.7600   40.6800   16.5230 O   0  0  0  0  0
    8.1770   40.3930   15.2660 C   0  0  0  0  0
    8.3170   39.2670   14.7700 O   0  0  0  0  0
    7.4700   41.3770   14.5890 C   0  0  0  0  0
    6.6430   42.2620   15.2960 C   0  0  0  0  0
    5.9290   43.2540   14.6040 C   0  0  0  0  0
    6.0590   43.3760   13.2190 C   0  0  0  0  0
    6.8880   42.4920   12.5160 C   0  0  0  0  0
    7.6010   41.5040   13.2060 C   0  0  0  0  0
    5.3820   44.3220   12.5500 O   0  0  0  0  0
   16.9622   38.1730   19.4843 H   0  0  0  0  0
   16.0521   41.5970   19.1560 H   0  0  0  0  0
   13.6787   42.2501   18.7954 H   0  0  0  0  0
   12.5301   38.0967   18.8603 H   0  0  0  0  0
   14.9005   37.4483   19.2477 H   0  0  0  0  0
   10.9274   38.6650   18.3266 H   0  0  0  0  0
    9.1627   41.0350   18.9609 H   0  0  0  0  0
    8.7527   38.6744   17.1255 H   0  0  0  0  0
    6.4425   39.5993   16.7756 H   0  0  0  0  0
    6.6922   40.5758   18.2675 H   0  0  0  0  0
    7.3006   37.6918   18.5218 H   0  0  0  0  0
    5.5943   38.0714   18.2203 H   0  0  0  0  0
    6.3692   38.0471   20.6732 H   0  0  0  0  0
    5.4594   39.4881   20.1233 H   0  0  0  0  0
    7.5191   39.8569   21.4295 H   0  0  0  0  0
    7.3824   40.6930   19.9845 H   0  0  0  0  0
    9.4897   39.2615   20.7668 H   0  0  0  0  0
    8.5971   38.1593   19.6839 H   0  0  0  0  0
    6.5546   42.1802   16.3793 H   0  0  0  0  0
    5.2714   43.9307   15.1497 H   0  0  0  0  0
    6.9779   42.5733   11.4328 H   0  0  0  0  0
    8.2617   40.8308   12.6598 H   0  0  0  0  0
    5.5893   44.2612   11.6146 H   0  0  0  0  0
  1  2  1  0  0  0
  2  3  4  0  0  0
  2  7  4  0  0  0
  3  4  4  0  0  0
  4  5  4  0  0  0
  5  6  4  0  0  0
  5  8  1  0  0  0
  6  7  4  0  0  0
  8  9  2  0  0  0
  8 10  1  0  0  0
 10 11  1  0  0  0
 11 12  1  0  0  0
 11 17  1  0  0  0
 12 13  1  0  0  0
 12 18  1  0  0  0
 13 14  1  0  0  0
 14 15  1  0  0  0
 15 16  1  0  0  0
 16 17  1  0  0  0
 18 19  1  0  0  0
 19 20  2  0  0  0
 19 21  1  0  0  0
 21 22  4  0  0  0
 21 26  4  0  0  0
 22 23  4  0  0  0
 23 24  4  0  0  0
 24 25  4  0  0  0
 24 27  1  0  0  0
 25 26  4  0  0  0
  1 28  1  0  0  0
  3 29  1  0  0  0
  4 30  1  0  0  0
  6 31  1  0  0  0
  7 32  1  0  0  0
 10 33  1  0  0  0
 11 34  1  0  0  0
 12 35  1  0  0  0
 13 36  1  0  0  0
 13 37  1  0  0  0
 14 38  1  0  0  0
 14 39  1  0  0  0
 15 40  1  0  0  0
 15 41  1  0  0  0
 16 42  1  0  0  0
 16 43  1  0  0  0
 17 44  1  0  0  0
 17 45  1  0  0  0
 22 46  1  0  0  0
 23 47  1  0  0  0
 25 48  1  0  0  0
 26 49  1  0  0  0
 27 50  1  0  0  0
M  END
$$$$
