4drk_ligand
  -I-interpret- 

 83 85  0  0  0  0  0  0  0  0999 V2000
   13.1750  -15.5400   29.8980 O   0  0  0  0  0
   13.3870  -15.8000   28.6980 C   0  0  0  0  0
   12.5270  -15.7170   27.7910 O   0  0  0  0  0
   14.7510  -16.2980   28.2770 C   0  0  0  0  0
   15.7300  -16.0680   29.2940 O   0  0  0  0  0
   16.3280  -14.8520   29.4810 C   0  0  0  0  0
   17.3680  -14.8270   30.4010 C   0  0  0  0  0
   15.9450  -13.6840   28.8130 C   0  0  0  0  0
   16.6120  -12.4740   29.0720 C   0  0  0  0  0
   17.6600  -12.4320   29.9890 C   0  0  0  0  0
   18.0310  -13.6070   30.6640 C   0  0  0  0  0
   19.2030  -13.5170   31.5950 C   0  0  0  0  0
   18.9360  -14.0850   32.9900 C   0  0  0  0  0
   18.1850  -13.0880   33.8540 C   0  0  0  0  0
   19.0630  -11.9900   34.4320 C   0  0  0  0  0
   18.9910  -10.6710   33.9580 C   0  0  0  0  0
   19.7790   -9.6430   34.4940 C   0  0  0  0  0
   20.6900   -9.9300   35.5250 C   0  0  0  0  0
   21.5250   -9.0290   36.1510 O   0  0  0  0  0
   21.3070   -7.6310   35.8790 C   0  0  0  0  0
   20.7460  -11.2490   35.9910 C   0  0  0  0  0
   21.6430  -11.4740   36.9990 O   0  0  0  0  0
   21.6390  -12.6820   37.8000 C   0  0  0  0  0
   19.9730  -12.2800   35.4640 C   0  0  0  0  0
   20.1400  -14.4060   30.9500 O   0  0  0  0  0
   21.4900  -14.0060   30.8510 C   0  0  0  0  0
   21.8440  -12.9750   31.3410 O   0  0  0  0  0
   22.4420  -15.0000   30.2300 C   0  0  0  0  0
   21.7860  -16.1830   29.6390 N   0  0  0  0  0
   20.9790  -15.9470   28.3900 C   0  0  0  0  0
   21.7980  -15.1420   27.3380 C   0  0  0  0  0
   22.4240  -13.8820   27.9400 C   0  0  0  0  0
   23.2710  -14.2870   29.1560 C   0  0  0  0  0
   21.9280  -17.3840   30.2460 C   0  0  0  0  0
   22.6300  -17.5450   31.2660 O   0  0  0  0  0
   21.2740  -18.6190   29.6960 C   0  0  0  0  0
   21.8130  -19.2080   28.7600 O   0  0  0  0  0
   20.0580  -19.2200   30.3990 C   0  0  0  0  0
   19.2290  -20.0610   29.4280 C   0  0  0  0  0
   19.2620  -18.1170   31.1320 C   0  0  0  0  0
   20.5690  -20.1790   31.4870 C   0  0  0  0  0
   19.5130  -20.7000   32.4280 C   0  0  0  0  0
   12.9226  -15.9665   26.9526 H   0  0  0  0  0
   15.0531  -15.7593   27.3789 H   0  0  0  0  0
   14.6862  -17.3710   28.0966 H   0  0  0  0  0
   17.6699  -15.7394   30.9152 H   0  0  0  0  0
   15.1288  -13.7122   28.0911 H   0  0  0  0  0
   16.3080  -11.5648   28.5532 H   0  0  0  0  0
   18.1867  -11.4972   30.1808 H   0  0  0  0  0
   19.5067  -12.4815   31.7490 H   0  0  0  0  0
   19.8921  -14.3060   33.4646 H   0  0  0  0  0
   18.3289  -14.9847   32.8891 H   0  0  0  0  0
   17.7619  -13.6402   34.6931 H   0  0  0  0  0
   17.4393  -12.6073   33.2208 H   0  0  0  0  0
   18.3004  -10.4385   33.1473 H   0  0  0  0  0
   19.6856   -8.6260   34.1130 H   0  0  0  0  0
   21.4267   -7.4469   34.8114 H   0  0  0  0  0
   20.2979   -7.3556   36.1856 H   0  0  0  0  0
   22.0320   -7.0366   36.4350 H   0  0  0  0  0
   20.6813  -12.7735   38.3123 H   0  0  0  0  0
   21.7904  -13.5460   37.1529 H   0  0  0  0  0
   22.4423  -12.6317   38.5350 H   0  0  0  0  0
   20.0717  -13.2963   35.8455 H   0  0  0  0  0
   23.0679  -15.3776   31.0386 H   0  0  0  0  0
   20.0893  -15.3745   28.6522 H   0  0  0  0  0
   20.7113  -16.9121   27.9598 H   0  0  0  0  0
   21.1212  -14.8380   26.5395 H   0  0  0  0  0
   22.6021  -15.7801   26.9715 H   0  0  0  0  0
   21.6405  -13.1897   28.2480 H   0  0  0  0  0
   23.0524  -13.3895   27.1980 H   0  0  0  0  0
   24.0457  -14.9738   28.8151 H   0  0  0  0  0
   23.6868  -13.3805   29.5958 H   0  0  0  0  0
   18.8852  -19.4321   28.6068 H   0  0  0  0  0
   19.8435  -20.8707   29.0346 H   0  0  0  0  0
   18.3693  -20.4776   29.9528 H   0  0  0  0  0
   19.9028  -17.6403   31.8738 H   0  0  0  0  0
   18.9246  -17.3735   30.4099 H   0  0  0  0  0
   18.3991  -18.5619   31.6275 H   0  0  0  0  0
   21.2790  -19.6162   32.0930 H   0  0  0  0  0
   20.9848  -21.0449   30.9718 H   0  0  0  0  0
   19.0442  -19.8629   32.9454 H   0  0  0  0  0
   18.7595  -21.2458   31.8602 H   0  0  0  0  0
   19.9743  -21.3667   33.1565 H   0  0  0  0  0
  1  2  2  0  0  0
  2  3  1  0  0  0
  2  4  1  0  0  0
  4  5  1  0  0  0
  5  6  1  0  0  0
  6  7  4  0  0  0
  6  8  4  0  0  0
  7 11  4  0  0  0
  8  9  4  0  0  0
  9 10  4  0  0  0
 10 11  4  0  0  0
 11 12  1  0  0  0
 12 13  1  0  0  0
 12 25  1  0  0  0
 13 14  1  0  0  0
 14 15  1  0  0  0
 15 16  4  0  0  0
 15 24  4  0  0  0
 16 17  4  0  0  0
 17 18  4  0  0  0
 18 19  1  0  0  0
 18 21  4  0  0  0
 19 20  1  0  0  0
 21 22  1  0  0  0
 21 24  4  0  0  0
 22 23  1  0  0  0
 25 26  1  0  0  0
 26 27  2  0  0  0
 26 28  1  0  0  0
 28 29  1  0  0  0
 28 33  1  0  0  0
 29 30  1  0  0  0
 29 34  1  0  0  0
 30 31  1  0  0  0
 31 32  1  0  0  0
 32 33  1  0  0  0
 34 35  2  0  0  0
 34 36  1  0  0  0
 36 37  2  0  0  0
 36 38  1  0  0  0
 38 39  1  0  0  0
 38 40  1  0  0  0
 38 41  1  0  0  0
 41 42  1  0  0  0
  3 43  1  0  0  0
  4 44  1  0  0  0
  4 45  1  0  0  0
  7 46  1  0  0  0
  8 47  1  0  0  0
  9 48  1  0  0  0
 10 49  1  0  0  0
 12 50  1  0  0  0
 13 51  1  0  0  0
 13 52  1  0  0  0
 14 53  1  0  0  0
 14 54  1  0  0  0
 16 55  1  0  0  0
 17 56  1  0  0  0
 20 57  1  0  0  0
 20 58  1  0  0  0
 20 59  1  0  0  0
 23 60  1  0  0  0
 23 61  1  0  0  0
 23 62  1  0  0  0
 24 63  1  0  0  0
 28 64  1  0  0  0
 30 65  1  0  0  0
 30 66  1  0  0  0
 31 67  1  0  0  0
 31 68  1  0  0  0
 32 69  1  0  0  0
 32 70  1  0  0  0
 33 71  1  0  0  0
 33 72  1  0  0  0
 39 73  1  0  0  0
 39 74  1  0  0  0
 39 75  1  0  0  0
 40 76  1  0  0  0
 40 77  1  0  0  0
 40 78  1  0  0  0
 41 79  1  0  0  0
 41 80  1  0  0  0
 42 81  1  0  0  0
 42 82  1  0  0  0
 42 83  1  0  0  0
M  END
$$$$
