1qca_ligand
  -I-interpret- 

 85 88  0  0  0  0  0  0  0  0999 V2000
   -0.2410   16.4710   15.9770 C   0  0  0  0  0
   -1.2180   16.0020   17.0800 C   0  0  0  0  0
   -1.7290   14.6010   16.9690 C   0  0  0  0  0
   -0.6090   13.5550   16.4850 C   0  0  0  0  0
    0.1980   14.1680   15.3940 C   0  0  0  0  0
    0.9790   13.1370   14.6140 C   0  0  0  0  0
    1.8780   13.6690   13.4630 C   0  0  0  0  0
    1.6100   15.1440   13.1120 C   0  0  0  0  0
    1.7570   15.9960   14.4160 C   0  0  0  0  0
    0.8500   15.4800   15.6280 C   0  0  0  0  0
    1.5380   17.5540   14.0620 C   0  0  0  0  0
    2.6000   18.0240   13.0630 C   0  0  0  0  0
    2.5610   17.1960   11.7450 C   0  0  0  0  0
    2.7330   15.6930   12.0730 C   0  0  0  0  0
    2.7120   15.1100   10.7000 C   0  0  0  0  0
    3.4150   16.1260    9.7730 C   0  0  0  0  0
    3.4310   17.4300   10.5910 C   0  0  0  0  0
   -1.4160   12.3510   16.1600 C   0  0  0  0  0
    1.7630   15.2600   16.8810 C   0  0  0  0  0
    0.2620   15.2980   12.5590 C   0  0  0  0  0
    4.2240   15.5230   12.4730 C   0  0  0  0  0
    4.2290   18.3590   10.0920 C   0  0  0  0  0
    4.4120   19.7030   10.7610 C   0  0  0  0  0
    5.5740   20.6240   10.3970 C   0  0  0  0  0
    6.0130   21.7040   11.3200 C   0  0  0  0  0
    5.3030   22.5780   11.8380 C   0  0  0  0  0
    5.4330   23.7750   12.8540 C   0  0  0  0  0
    3.7270   22.6820   11.5350 C   0  0  0  0  0
    5.0180   18.1410    8.8800 C   0  0  0  0  0
    5.3920   14.9770    8.9030 C   0  0  0  0  0
    6.7890   14.8630    9.1190 C   0  0  0  0  0
    0.2370   17.6070   13.4510 O   0  0  0  0  0
    4.8790   15.8570    9.7960 O   0  0  0  0  0
    4.7480   14.4230    8.1390 O   0  0  0  0  0
    6.2070   18.5770    8.8280 O   0  0  0  0  0
    4.6050   17.6150    7.7740 O   0  0  0  0  0
   -2.8510   14.6200   16.0410 O   0  0  0  0  0
   -0.8327   16.6199   15.0738 H   0  0  0  0  0
    0.2543   17.3659   16.3538 H   0  0  0  0  0
   -2.0921   16.6486   17.0031 H   0  0  0  0  0
   -0.6601   16.0460   18.0153 H   0  0  0  0  0
   -2.0356   14.2590   17.9575 H   0  0  0  0  0
    0.1622   13.2767   17.2033 H   0  0  0  0  0
   -0.5596   14.5517   14.7106 H   0  0  0  0  0
    0.2380   12.4911   14.1431 H   0  0  0  0  0
    1.6532   12.6658   15.3292 H   0  0  0  0  0
    1.6619   13.0748   12.5751 H   0  0  0  0  0
    2.9142   13.5920   13.7923 H   0  0  0  0  0
    2.7723   15.8700   14.7920 H   0  0  0  0  0
    1.6155   18.1927   14.9418 H   0  0  0  0  0
    3.5811   17.8946   13.5199 H   0  0  0  0  0
    2.4018   19.0675   12.8180 H   0  0  0  0  0
    1.5987   17.5640   11.3891 H   0  0  0  0  0
    1.6886   14.9291   10.3714 H   0  0  0  0  0
    3.2240   14.1479   10.6796 H   0  0  0  0  0
    2.9516   16.1186    8.7864 H   0  0  0  0  0
   -2.1343   12.5969   15.3779 H   0  0  0  0  0
   -0.7563   11.5560   15.8123 H   0  0  0  0  0
   -1.9475   12.0197   17.0521 H   0  0  0  0  0
    2.5262   14.5177   16.6471 H   0  0  0  0  0
    2.2409   16.2018   17.1506 H   0  0  0  0  0
    1.1552   14.9079   17.7145 H   0  0  0  0  0
    0.1699   14.6942   11.6562 H   0  0  0  0  0
   -0.4711   14.9677   13.2949 H   0  0  0  0  0
    0.0879   16.3462   12.3160 H   0  0  0  0  0
    4.4110   16.0529   13.4070 H   0  0  0  0  0
    4.4452   14.4638   12.6042 H   0  0  0  0  0
    4.8586   15.9334   11.6876 H   0  0  0  0  0
    4.5972   19.4508   11.8051 H   0  0  0  0  0
    3.5291   20.2663   10.4589 H   0  0  0  0  0
    5.2219   21.1576    9.5141 H   0  0  0  0  0
    6.4339   19.9563   10.3434 H   0  0  0  0  0
    7.0741   21.7299   11.5679 H   0  0  0  0  0
    5.7763   23.3969   13.8169 H   0  0  0  0  0
    6.1509   24.4996   12.4698 H   0  0  0  0  0
    4.4614   24.2538   12.9757 H   0  0  0  0  0
    3.5733   22.8418   10.4678 H   0  0  0  0  0
    3.2380   21.7566   11.8393 H   0  0  0  0  0
    3.3054   23.5178   12.0933 H   0  0  0  0  0
    7.0307   13.8355    9.3908 H   0  0  0  0  0
    7.3197   15.1332    8.2061 H   0  0  0  0  0
    7.0865   15.5331    9.9256 H   0  0  0  0  0
    0.0345   18.5140   13.2102 H   0  0  0  0  0
    3.7023   17.3077    7.8846 H   0  0  0  0  0
   -3.5076   15.2497   16.3474 H   0  0  0  0  0
  1 10  1  0  0  0
  1  2  1  0  0  0
  2  3  1  0  0  0
  3 37  1  0  0  0
  3  4  1  0  0  0
  4 18  1  0  0  0
  4  5  1  0  0  0
  5 10  1  0  0  0
  5  6  1  0  0  0
  6  7  1  0  0  0
  7  8  1  0  0  0
  8 20  1  0  0  0
  8 14  1  0  0  0
  8  9  1  0  0  0
  9 11  1  0  0  0
  9 10  1  0  0  0
 10 19  1  0  0  0
 11 32  1  0  0  0
 11 12  1  0  0  0
 12 13  1  0  0  0
 13 17  1  0  0  0
 13 14  1  0  0  0
 14 21  1  0  0  0
 14 15  1  0  0  0
 15 16  1  0  0  0
 16 33  1  0  0  0
 16 17  1  0  0  0
 17 22  2  0  0  0
 22 29  1  0  0  0
 22 23  1  0  0  0
 23 24  1  0  0  0
 24 25  1  0  0  0
 25 26  2  0  0  0
 26 28  1  0  0  0
 26 27  1  0  0  0
 29 36  1  0  0  0
 29 35  2  0  0  0
 33 30  1  0  0  0
 30 34  2  0  0  0
 30 31  1  0  0  0
  1 38  1  0  0  0
  1 39  1  0  0  0
  2 40  1  0  0  0
  2 41  1  0  0  0
  3 42  1  0  0  0
  4 43  1  0  0  0
  5 44  1  0  0  0
  6 45  1  0  0  0
  6 46  1  0  0  0
  7 47  1  0  0  0
  7 48  1  0  0  0
  9 49  1  0  0  0
 11 50  1  0  0  0
 12 51  1  0  0  0
 12 52  1  0  0  0
 13 53  1  0  0  0
 15 54  1  0  0  0
 15 55  1  0  0  0
 16 56  1  0  0  0
 18 57  1  0  0  0
 18 58  1  0  0  0
 18 59  1  0  0  0
 19 60  1  0  0  0
 19 61  1  0  0  0
 19 62  1  0  0  0
 20 63  1  0  0  0
 20 64  1  0  0  0
 20 65  1  0  0  0
 21 66  1  0  0  0
 21 67  1  0  0  0
 21 68  1  0  0  0
 23 69  1  0  0  0
 23 70  1  0  0  0
 24 71  1  0  0  0
 24 72  1  0  0  0
 25 73  1  0  0  0
 27 74  1  0  0  0
 27 75  1  0  0  0
 27 76  1  0  0  0
 28 77  1  0  0  0
 28 78  1  0  0  0
 28 79  1  0  0  0
 31 80  1  0  0  0
 31 81  1  0  0  0
 31 82  1  0  0  0
 32 83  1  0  0  0
 36 84  1  0  0  0
 37 85  1  0  0  0
M  END
$$$$
