5en3_ligand
  -I-interpret- 

 30 32  0  0  0  0  0  0  0  0999 V2000
   -1.0190    3.0820   21.1180 Cl  0  0  0  0  0
   -0.5110    1.6840   22.0030 C   0  0  0  0  0
   -0.4940    1.7400   23.3800 C   0  0  0  0  0
   -0.1730    0.5420   21.3100 C   0  0  0  0  0
    0.1760   -0.5940   22.0120 C   0  0  0  0  0
    0.4890   -1.7160   21.3130 O   0  0  0  0  0
    0.1950   -0.5880   23.4190 C   0  0  0  0  0
    0.5360   -1.7550   24.1950 C   0  0  0  0  0
    0.8140   -2.8390   23.6640 O   0  0  0  0  0
   -0.1460    0.6020   24.0690 C   0  0  0  0  0
   -0.1750    0.6860   25.4480 O   0  0  0  0  0
    0.1340   -0.4120   26.1930 C   0  0  0  0  0
    0.4930   -1.5770   25.6240 C   0  0  0  0  0
   -0.0580   -0.1680   27.6280 C   0  0  0  0  0
   -1.0780    0.6780   28.0580 C   0  0  0  0  0
   -1.3050    0.8590   29.4150 C   0  0  0  0  0
   -2.3140    1.6550   29.8550 O   0  0  0  0  0
   -0.5040    0.2020   30.3510 C   0  0  0  0  0
   -0.7410    0.3860   31.6770 O   0  0  0  0  0
    0.5160   -0.6320   29.9180 C   0  0  0  0  0
    0.7360   -0.8140   28.5670 C   0  0  0  0  0
   -0.7489    2.6593   23.9073 H   0  0  0  0  0
   -0.1811    0.5358   20.2200 H   0  0  0  0  0
    0.7098   -2.4218   21.9251 H   0  0  0  0  0
    0.7607   -2.4157   26.2667 H   0  0  0  0  0
   -1.6982    1.1981   27.3280 H   0  0  0  0  0
   -2.3199    1.6611   30.8150 H   0  0  0  0  0
   -0.1118   -0.1286   32.1878 H   0  0  0  0  0
    1.1452   -1.1448   30.6455 H   0  0  0  0  0
    1.5400   -1.4705   28.2344 H   0  0  0  0  0
  1  2  1  0  0  0
  2  3  4  0  0  0
  2  4  4  0  0  0
  3 10  4  0  0  0
  4  5  4  0  0  0
  5  6  1  0  0  0
  5  7  4  0  0  0
  7  8  1  0  0  0
  7 10  4  0  0  0
  8  9  2  0  0  0
  8 13  1  0  0  0
 10 11  1  0  0  0
 11 12  1  0  0  0
 12 13  2  0  0  0
 12 14  1  0  0  0
 14 15  4  0  0  0
 14 21  4  0  0  0
 15 16  4  0  0  0
 16 17  1  0  0  0
 16 18  4  0  0  0
 18 19  1  0  0  0
 18 20  4  0  0  0
 20 21  4  0  0  0
  3 22  1  0  0  0
  4 23  1  0  0  0
  6 24  1  0  0  0
 13 25  1  0  0  0
 15 26  1  0  0  0
 17 27  1  0  0  0
 19 28  1  0  0  0
 20 29  1  0  0  0
 21 30  1  0  0  0
M  END
$$$$
