5egm_ligand
  -I-interpret- 

 63 69  0  0  0  0  0  0  0  0999 V2000
  -13.2820  -39.0900  -11.2380 Cl  0  0  0  0  0
  -14.6290  -40.1850  -11.1740 C   0  0  0  0  0
  -14.5260  -41.2870  -10.3410 C   0  0  0  0  0
  -15.5700  -42.2140  -10.3010 C   0  0  0  0  0
  -15.4580  -43.3800   -9.4780 N   0  0  0  0  0
  -14.8610  -43.4900   -8.2620 C   0  0  0  0  0
  -15.0050  -44.6920   -7.7810 N   0  0  0  0  0
  -15.7120  -45.4250   -8.7260 N   0  0  0  0  0
  -15.9580  -44.6210   -9.7220 C   0  0  0  0  0
  -16.6950  -42.0250  -11.0860 C   0  0  0  0  0
  -16.7900  -40.9210  -11.9090 C   0  0  0  0  0
  -15.7560  -39.9830  -11.9770 C   0  0  0  0  0
  -15.9080  -38.8960  -12.9860 C   0  0  0  0  0
  -16.2330  -39.1610  -14.1430 O   0  0  0  0  0
  -15.7610  -37.6310  -12.5390 N   0  0  0  0  0
  -15.8390  -36.4360  -13.3980 C   0  0  0  0  0
  -15.4040  -35.2520  -12.4700 C   0  0  0  0  0
  -14.0000  -35.4440  -12.0340 N   0  0  0  0  0
  -13.4380  -34.9870  -10.8350 C   0  0  0  0  0
  -14.0370  -34.2670   -9.8060 C   0  0  0  0  0
  -13.2510  -33.9500   -8.7050 C   0  0  0  0  0
  -17.2640  -36.2170  -13.9350 C   0  0  0  0  0
  -18.3680  -36.7970  -13.3110 C   0  0  0  0  0
  -19.6540  -36.5420  -13.7610 C   0  0  0  0  0
  -19.8600  -35.7050  -14.8350 C   0  0  0  0  0
  -18.7790  -35.1220  -15.4670 C   0  0  0  0  0
  -17.4910  -35.3760  -15.0230 C   0  0  0  0  0
  -14.7830  -36.5150  -14.5220 C   0  0  0  0  0
  -13.3690  -36.8440  -14.0180 C   0  0  0  0  0
  -13.0550  -36.1600  -12.7160 C   0  0  0  0  0
  -11.8580  -36.1880  -11.9920 C   0  0  0  0  0
  -12.1240  -35.4070  -10.7850 C   0  0  0  0  0
  -11.3640  -35.0570   -9.6720 C   0  0  0  0  0
  -11.9070  -34.3260   -8.6260 C   0  0  0  0  0
  -11.0670  -33.9650   -7.4200 C   0  0  0  0  0
  -10.6130  -36.8490  -12.3430 C   0  0  0  0  0
  -10.4030  -37.6050  -13.4310 N   0  0  0  0  0
   -9.1100  -37.9670  -13.3870 N   0  0  0  0  0
   -8.5500  -37.4520  -12.3220 N   0  0  0  0  0
   -9.4650  -36.7500  -11.6550 N   0  0  0  0  0
  -13.6394  -41.4292   -9.7231 H   0  0  0  0  0
  -14.3327  -42.6812   -7.7571 H   0  0  0  0  0
  -16.4925  -44.9051  -10.6285 H   0  0  0  0  0
  -17.5080  -42.7503  -11.0539 H   0  0  0  0  0
  -17.6848  -40.7785  -12.5150 H   0  0  0  0  0
  -15.5848  -37.4934  -11.5438 H   0  0  0  0  0
  -16.0523  -35.2241  -11.5942 H   0  0  0  0  0
  -15.4851  -34.3147  -13.0204 H   0  0  0  0  0
  -15.0824  -33.9634   -9.8615 H   0  0  0  0  0
  -13.6947  -33.3927   -7.8800 H   0  0  0  0  0
  -18.2177  -37.4594  -12.4585 H   0  0  0  0  0
  -20.5054  -37.0057  -13.2629 H   0  0  0  0  0
  -20.8724  -35.5033  -15.1850 H   0  0  0  0  0
  -18.9395  -34.4599  -16.3179 H   0  0  0  0  0
  -16.6452  -34.9124  -15.5308 H   0  0  0  0  0
  -14.7398  -35.5356  -14.9985 H   0  0  0  0  0
  -15.0837  -37.3168  -15.1964 H   0  0  0  0  0
  -12.6542  -36.4966  -14.7640 H   0  0  0  0  0
  -13.3084  -37.9205  -13.8582 H   0  0  0  0  0
  -10.3194  -35.3643   -9.6218 H   0  0  0  0  0
  -11.0347  -32.8808   -7.3127 H   0  0  0  0  0
  -11.5078  -34.4068   -6.5264 H   0  0  0  0  0
  -10.0556  -34.3483   -7.5553 H   0  0  0  0  0
  1  2  1  0  0  0
  2  3  4  0  0  0
  2 12  4  0  0  0
  3  4  4  0  0  0
  4  5  1  0  0  0
  4 10  4  0  0  0
  5  6  4  0  0  0
  5  9  4  0  0  0
  6  7  4  0  0  0
  7  8  4  0  0  0
  8  9  4  0  0  0
 10 11  4  0  0  0
 11 12  4  0  0  0
 12 13  1  0  0  0
 13 14  2  0  0  0
 13 15  1  0  0  0
 15 16  1  0  0  0
 16 17  1  0  0  0
 16 22  1  0  0  0
 16 28  1  0  0  0
 17 18  1  0  0  0
 18 19  4  0  0  0
 18 30  4  0  0  0
 19 20  4  0  0  0
 19 32  4  0  0  0
 20 21  4  0  0  0
 21 34  4  0  0  0
 22 23  4  0  0  0
 22 27  4  0  0  0
 23 24  4  0  0  0
 24 25  4  0  0  0
 25 26  4  0  0  0
 26 27  4  0  0  0
 28 29  1  0  0  0
 29 30  1  0  0  0
 30 31  4  0  0  0
 31 32  4  0  0  0
 31 36  1  0  0  0
 32 33  4  0  0  0
 33 34  4  0  0  0
 34 35  1  0  0  0
 36 37  4  0  0  0
 36 40  4  0  0  0
 37 38  4  0  0  0
 38 39  4  0  0  0
 39 40  4  0  0  0
  3 41  1  0  0  0
  6 42  1  0  0  0
  9 43  1  0  0  0
 10 44  1  0  0  0
 11 45  1  0  0  0
 15 46  1  0  0  0
 17 47  1  0  0  0
 17 48  1  0  0  0
 20 49  1  0  0  0
 21 50  1  0  0  0
 23 51  1  0  0  0
 24 52  1  0  0  0
 25 53  1  0  0  0
 26 54  1  0  0  0
 27 55  1  0  0  0
 28 56  1  0  0  0
 28 57  1  0  0  0
 29 58  1  0  0  0
 29 59  1  0  0  0
 33 60  1  0  0  0
 35 61  1  0  0  0
 35 62  1  0  0  0
 35 63  1  0  0  0
M  END
$$$$
