6nsq_ligand
  -I-interpret- 

 53 57  0  0  0  0  0  0  0  0999 V2000
   -6.8240   -9.8460   25.7060 C   0  0  0  0  0
   -7.7170  -12.0460   26.9990 C   0  0  0  0  0
   -8.1890  -13.1870   27.6760 N   0  0  0  0  0
   -9.5870  -13.9270   25.7550 C   0  0  0  0  0
   -2.2880   -5.7190   20.3760 C   0  0  0  0  0
   -2.7340   -7.6460   21.6290 C   0  0  0  0  0
   -9.3040  -13.8840   27.1390 C   0  0  0  0  0
   -4.1350   -2.3870   22.8530 C   0  0  0  0  0
   -3.6430   -3.2970   23.9940 C   0  0  0  0  0
   -3.6370   -6.9990   24.0710 C   0  0  0  0  0
   -3.9080   -8.1640   24.8430 C   0  0  0  0  0
   -4.1450   -9.1720   25.4620 C   0  0  0  0  0
   -4.4920  -10.3590   26.1690 C   0  0  0  0  0
   -5.8600  -10.6890   26.2840 C   0  0  0  0  0
   -8.1500  -10.1400   25.8030 C   0  0  0  0  0
  -10.6770  -14.6050   25.2560 C   0  0  0  0  0
  -11.4960  -15.2620   26.1480 C   0  0  0  0  0
  -11.2450  -15.2440   27.5130 C   0  0  0  0  0
  -10.1490  -14.5570   28.0220 C   0  0  0  0  0
   -6.3120  -11.8120   26.9480 C   0  0  0  0  0
   -5.3960  -12.7190   27.5620 C   0  0  0  0  0
   -4.0620  -12.4280   27.4700 C   0  0  0  0  0
   -3.6280  -11.2550   26.7720 C   0  0  0  0  0
   -2.1860  -10.9680   26.6840 C   0  0  0  0  0
   -3.1420   -6.8260   22.7180 C   0  0  0  0  0
   -3.0690   -5.4040   22.4920 C   0  0  0  0  0
   -3.5120   -4.7800   23.6730 N   0  0  0  0  0
   -3.8450   -5.7490   24.6020 N   0  0  0  0  0
   -8.6440  -11.2310   26.4510 N   0  0  0  0  0
   -2.6400   -4.8220   21.3180 N   0  0  0  0  0
   -2.3090   -7.0950   20.4670 N   0  0  0  0  0
   -2.7580   -9.0510   21.7220 N   0  0  0  0  0
  -12.8470  -16.1070   25.5080 Cl  0  0  0  0  0
   -6.5075   -8.9483   25.1750 H   0  0  0  0  0
   -7.7395  -13.5063   28.5342 H   0  0  0  0  0
   -8.9236  -13.4087   25.0627 H   0  0  0  0  0
   -1.9450   -5.3071   19.4269 H   0  0  0  0  0
   -3.4414   -2.4505   22.0146 H   0  0  0  0  0
   -5.1251   -2.7113   22.5325 H   0  0  0  0  0
   -4.1855   -1.3574   23.2072 H   0  0  0  0  0
   -4.3923   -3.2241   24.7823 H   0  0  0  0  0
   -2.6393   -2.9525   24.2430 H   0  0  0  0  0
   -8.8601   -9.4598   25.3327 H   0  0  0  0  0
  -10.8857  -14.6213   24.1863 H   0  0  0  0  0
  -11.9134  -15.7734   28.1920 H   0  0  0  0  0
   -9.9528  -14.5443   29.0941 H   0  0  0  0  0
   -5.7460  -13.6094   28.0842 H   0  0  0  0  0
   -3.3281  -13.0904   27.9290 H   0  0  0  0  0
   -1.8865  -10.9360   25.6364 H   0  0  0  0  0
   -1.9792  -10.0055   27.1519 H   0  0  0  0  0
   -1.6290  -11.7508   27.1987 H   0  0  0  0  0
   -3.0723   -9.4999   22.5823 H   0  0  0  0  0
   -2.4611   -9.6197   20.9290 H   0  0  0  0  0
 14  1  4  0  0  0
  1 15  4  0  0  0
  2  3  1  0  0  0
 20  2  4  0  0  0
  2 29  4  0  0  0
  3  7  1  0  0  0
  7  4  4  0  0  0
  4 16  4  0  0  0
  5 30  4  0  0  0
 31  5  4  0  0  0
 25  6  4  0  0  0
  6 31  4  0  0  0
  6 32  1  0  0  0
  7 19  4  0  0  0
  9  8  1  0  0  0
 27  9  1  0  0  0
 10 11  1  0  0  0
 25 10  4  0  0  0
 10 28  4  0  0  0
 11 12  3  0  0  0
 12 13  1  0  0  0
 13 14  4  0  0  0
 13 23  4  0  0  0
 14 20  4  0  0  0
 15 29  4  0  0  0
 16 17  4  0  0  0
 18 17  4  0  0  0
 17 33  1  0  0  0
 19 18  4  0  0  0
 20 21  4  0  0  0
 22 21  4  0  0  0
 23 22  4  0  0  0
 23 24  1  0  0  0
 26 25  4  0  0  0
 26 27  4  0  0  0
 26 30  4  0  0  0
 27 28  4  0  0  0
  1 34  1  0  0  0
  3 35  1  0  0  0
  4 36  1  0  0  0
  5 37  1  0  0  0
  8 38  1  0  0  0
  8 39  1  0  0  0
  8 40  1  0  0  0
  9 41  1  0  0  0
  9 42  1  0  0  0
 15 43  1  0  0  0
 16 44  1  0  0  0
 18 45  1  0  0  0
 19 46  1  0  0  0
 21 47  1  0  0  0
 22 48  1  0  0  0
 24 49  1  0  0  0
 24 50  1  0  0  0
 24 51  1  0  0  0
 32 52  1  0  0  0
 32 53  1  0  0  0
M  END
$$$$
