3vw1_ligand
  -I-interpret- 

 59 61  0  0  0  0  0  0  0  0999 V2000
  -13.4020    2.7860  -18.6720 C   0  0  0  0  0
  -12.6860    3.3930  -17.5410 C   0  0  0  0  0
  -11.6340    2.7120  -16.9750 C   0  0  0  0  0
  -10.9790    3.2650  -15.8490 C   0  0  0  0  0
  -11.4240    4.5220  -15.3720 C   0  0  0  0  0
  -12.4950    5.1980  -15.9950 C   0  0  0  0  0
  -13.1250    4.6120  -17.0780 C   0  0  0  0  0
  -14.8730    3.0700  -18.8150 C   0  0  0  0  0
  -15.3830    3.5690  -20.0210 C   0  0  0  0  0
  -16.7790    3.8380  -20.1240 C   0  0  0  0  0
  -17.6380    3.6340  -19.0460 C   0  0  0  0  0
  -17.1200    3.1630  -17.8470 C   0  0  0  0  0
  -15.7410    2.8780  -17.7030 C   0  0  0  0  0
  -12.6310    2.0310  -19.6670 C   0  0  0  0  0
  -11.2440    2.1680  -19.7960 C   0  0  0  0  0
  -10.6130    1.4160  -20.8130 C   0  0  0  0  0
  -11.3340    0.5240  -21.6340 C   0  0  0  0  0
  -12.6950    0.4160  -21.4570 C   0  0  0  0  0
  -13.3330    1.1710  -20.4870 C   0  0  0  0  0
   -9.4710    4.6310  -13.8240 C   0  0  0  0  0
  -11.3910    6.1790  -13.4840 C   0  0  0  0  0
  -19.5190    4.6360  -20.2470 C   0  0  0  0  0
  -19.7550    3.4460  -17.9850 C   0  0  0  0  0
   -9.2330   -0.1860  -22.7330 C   0  0  0  0  0
  -11.3620   -0.8560  -23.8100 C   0  0  0  0  0
  -10.7970    5.0960  -14.2540 N   0  0  0  0  0
  -18.9750    3.9030  -19.1200 N   0  0  0  0  0
  -10.6850   -0.1980  -22.6840 N   0  0  0  0  0
  -13.8072    1.7749  -18.6327 H   0  0  0  0  0
  -11.3084    1.7576  -17.3887 H   0  0  0  0  0
  -10.1568    2.7393  -15.3635 H   0  0  0  0  0
  -12.8218    6.1705  -15.6270 H   0  0  0  0  0
  -13.9638    5.1127  -17.5615 H   0  0  0  0  0
  -14.7215    3.7489  -20.8684 H   0  0  0  0  0
  -17.1828    4.2109  -21.0653 H   0  0  0  0  0
  -17.7885    3.0097  -16.9998 H   0  0  0  0  0
  -15.3486    2.5161  -16.7527 H   0  0  0  0  0
  -10.6747    2.8266  -19.1401 H   0  0  0  0  0
   -9.5398    1.5285  -20.9670 H   0  0  0  0  0
  -13.2720   -0.2656  -22.0820 H   0  0  0  0  0
  -14.4131    1.0841  -20.3686 H   0  0  0  0  0
   -8.7623    5.4574  -13.8785 H   0  0  0  0  0
   -9.5298    4.2681  -12.7979 H   0  0  0  0  0
   -9.1408    3.8238  -14.4778 H   0  0  0  0  0
  -11.5088    5.8639  -12.4472 H   0  0  0  0  0
  -10.7413    7.0531  -13.5278 H   0  0  0  0  0
  -12.3662    6.4282  -13.9024 H   0  0  0  0  0
  -19.0543    5.6207  -20.2968 H   0  0  0  0  0
  -19.3142    4.0892  -21.1674 H   0  0  0  0  0
  -20.5960    4.7471  -20.1208 H   0  0  0  0  0
  -19.6577    2.3645  -17.8907 H   0  0  0  0  0
  -19.3886    3.9255  -17.0773 H   0  0  0  0  0
  -20.8025    3.7059  -18.1374 H   0  0  0  0  0
   -8.8828    0.8407  -22.8399 H   0  0  0  0  0
   -8.8361   -0.6125  -21.8118 H   0  0  0  0  0
   -8.8946   -0.7771  -23.5839 H   0  0  0  0  0
  -12.0471   -1.6130  -23.4282 H   0  0  0  0  0
  -11.9201   -0.1137  -24.3807 H   0  0  0  0  0
  -10.6193   -1.3276  -24.4534 H   0  0  0  0  0
  1  2  1  0  0  0
  1  8  1  0  0  0
  1 14  1  0  0  0
  2  3  4  0  0  0
  2  7  4  0  0  0
  3  4  4  0  0  0
  4  5  4  0  0  0
  5  6  4  0  0  0
  5 26  1  0  0  0
  6  7  4  0  0  0
  8  9  4  0  0  0
  8 13  4  0  0  0
  9 10  4  0  0  0
 10 11  4  0  0  0
 11 12  4  0  0  0
 11 27  1  0  0  0
 12 13  4  0  0  0
 14 15  4  0  0  0
 14 19  4  0  0  0
 15 16  4  0  0  0
 16 17  4  0  0  0
 17 18  4  0  0  0
 17 28  1  0  0  0
 18 19  4  0  0  0
 26 20  1  0  0  0
 26 21  1  0  0  0
 27 22  1  0  0  0
 27 23  1  0  0  0
 28 24  1  0  0  0
 28 25  1  0  0  0
  1 29  1  0  0  0
  3 30  1  0  0  0
  4 31  1  0  0  0
  6 32  1  0  0  0
  7 33  1  0  0  0
  9 34  1  0  0  0
 10 35  1  0  0  0
 12 36  1  0  0  0
 13 37  1  0  0  0
 15 38  1  0  0  0
 16 39  1  0  0  0
 18 40  1  0  0  0
 19 41  1  0  0  0
 20 42  1  0  0  0
 20 43  1  0  0  0
 20 44  1  0  0  0
 21 45  1  0  0  0
 21 46  1  0  0  0
 21 47  1  0  0  0
 22 48  1  0  0  0
 22 49  1  0  0  0
 22 50  1  0  0  0
 23 51  1  0  0  0
 23 52  1  0  0  0
 23 53  1  0  0  0
 24 54  1  0  0  0
 24 55  1  0  0  0
 24 56  1  0  0  0
 25 57  1  0  0  0
 25 58  1  0  0  0
 25 59  1  0  0  0
M  END
$$$$
