4jmx_ligand
  -I-interpret- 

 28 28  0  0  0  0  0  0  0  0999 V2000
   -8.0030   16.6780  -12.8940 C   0  0  0  0  0
  -10.9090   13.5380  -14.1040 C   0  0  0  0  0
   -9.2670   16.4050  -13.6970 C   0  0  0  0  0
  -10.3500   15.5530  -13.0160 C   0  0  0  0  0
   -9.9560   13.3050  -13.2290 C   0  0  0  0  0
   -6.9450   17.0620  -13.4740 O   0  0  0  0  0
   -9.6770   17.8460  -14.0000 C   0  0  0  0  0
   -8.5060   18.5530  -14.4130 O   0  0  0  0  0
  -10.2760   18.5860  -12.8160 C   0  0  0  0  0
   -9.7620   14.3540  -12.4510 N   0  0  0  0  0
   -9.1690   12.0970  -13.1620 C   0  0  0  0  0
   -8.6120   11.6830  -14.1900 O   0  0  0  0  0
   -9.0660   11.5290  -12.0720 O   0  0  0  0  0
  -11.5350   12.4160  -15.1690 S   0  0  0  0  0
  -11.3460   14.9750  -14.0220 C   0  0  0  0  0
   -8.0087   16.5420  -11.8125 H   0  0  0  0  0
   -9.1068   15.7664  -14.5657 H   0  0  0  0  0
  -10.8184   16.2173  -12.2897 H   0  0  0  0  0
  -10.4499   17.8024  -14.7673 H   0  0  0  0  0
   -8.1092   18.1026  -15.1622 H   0  0  0  0  0
   -9.5490   18.6196  -12.0046 H   0  0  0  0  0
  -10.5340   19.6015  -13.1166 H   0  0  0  0  0
  -11.1733   18.0660  -12.4804 H   0  0  0  0  0
   -9.2609   14.3246  -11.5631 H   0  0  0  0  0
   -8.8205   12.2670  -14.9229 H   0  0  0  0  0
  -12.4818   12.9880  -15.9074 H   0  0  0  0  0
  -12.3857   15.0934  -13.7169 H   0  0  0  0  0
  -11.3329   15.4859  -14.9848 H   0  0  0  0  0
  3  1  1  0  0  0
  1  6  2  0  0  0
  2  5  2  0  0  0
  2 14  1  0  0  0
 15  2  1  0  0  0
  4  3  1  0  0  0
  3  7  1  0  0  0
  4 10  1  0  0  0
  4 15  1  0  0  0
  5 10  1  0  0  0
  5 11  1  0  0  0
  7  8  1  0  0  0
  7  9  1  0  0  0
 11 12  1  0  0  0
 11 13  2  0  0  0
  1 16  1  0  0  0
  3 17  1  0  0  0
  4 18  1  0  0  0
  7 19  1  0  0  0
  8 20  1  0  0  0
  9 21  1  0  0  0
  9 22  1  0  0  0
  9 23  1  0  0  0
 10 24  1  0  0  0
 12 25  1  0  0  0
 14 26  1  0  0  0
 15 27  1  0  0  0
 15 28  1  0  0  0
M  END
$$$$
