6pyu_ligand
  -I-interpret- 

 49 54  0  0  0  0  0  0  0  0999 V2000
   42.5570   12.4970   36.2370 C   0  0  0  0  0
   40.4140   12.0870   35.6710 C   0  0  0  0  0
   39.1670   11.5020   35.5190 C   0  0  0  0  0
   38.1330   12.2460   34.9930 C   0  0  0  0  0
   38.3190   13.5940   34.6040 C   0  0  0  0  0
   39.5870   14.1760   34.7880 C   0  0  0  0  0
   42.0720   14.9790   36.5520 C   0  0  0  0  0
   42.3510   16.1890   35.6300 C   0  0  0  0  0
   43.3070   13.1930   33.5030 C   0  0  0  0  0
   44.1600   13.6460   32.3600 C   0  0  0  0  0
   44.5110   12.6060   31.3000 C   0  0  0  0  0
   43.5050   13.7220   30.9860 C   0  0  0  0  0
   36.1170   13.7370   33.4470 C   0  0  0  0  0
   33.0180   14.5640   31.9070 C   0  0  0  0  0
   35.0660   15.8950   33.0330 C   0  0  0  0  0
   43.6740   12.3050   36.6280 O   0  0  0  0  0
   41.5810   11.5700   36.1930 N   0  0  0  0  0
   40.6070   13.4260   35.3000 C   0  0  0  0  0
   42.0380   13.7670   35.6110 C   0  0  0  0  0
   43.1130   15.5430   34.4400 C   0  0  0  0  0
   42.8740   14.0780   34.4510 N   0  0  0  0  0
   43.0580   12.0010   33.5640 O   0  0  0  0  0
   37.1910   14.3770   34.0350 C   0  0  0  0  0
   35.0540   14.4800   32.9510 C   0  0  0  0  0
   34.0260   13.8500   32.3780 N   0  0  0  0  0
   33.0120   15.9620   32.0050 C   0  0  0  0  0
   34.0350   16.6110   32.5460 N   0  0  0  0  0
   36.1500   16.5140   33.6330 C   0  0  0  0  0
   37.1760   15.7790   34.1000 C   0  0  0  0  0
   39.0057   10.4647   35.8123 H   0  0  0  0  0
   37.1516   11.7867   34.8741 H   0  0  0  0  0
   39.7542   15.2201   34.5232 H   0  0  0  0  0
   41.1363   15.0936   37.0992 H   0  0  0  0  0
   42.8352   14.8723   37.3229 H   0  0  0  0  0
   42.9212   16.9765   36.1228 H   0  0  0  0  0
   41.4429   16.7074   35.3223 H   0  0  0  0  0
   44.7311   14.3392   32.9776 H   0  0  0  0  0
   44.5885   11.5226   31.2085 H   0  0  0  0  0
   45.3986   12.1540   30.8573 H   0  0  0  0  0
   43.3193   14.4617   30.2072 H   0  0  0  0  0
   42.5078   13.8292   30.5591 H   0  0  0  0  0
   36.1041   12.6496   33.3725 H   0  0  0  0  0
   32.1771   14.0566   31.4343 H   0  0  0  0  0
   41.6913   10.6057   36.5067 H   0  0  0  0  0
   44.1804   15.7419   34.5357 H   0  0  0  0  0
   42.7557   15.9666   33.5014 H   0  0  0  0  0
   32.1556   16.5236   31.6318 H   0  0  0  0  0
   36.1722   17.5997   33.7272 H   0  0  0  0  0
   38.0281   16.2921   34.5458 H   0  0  0  0  0
  1 16  2  0  0  0
  1 17  1  0  0  0
 19  1  1  0  0  0
  3  2  4  0  0  0
  2 17  1  0  0  0
 18  2  4  0  0  0
  4  3  4  0  0  0
  5  4  4  0  0  0
  5  6  4  0  0  0
 23  5  1  0  0  0
  6 18  4  0  0  0
  7  8  1  0  0  0
 19  7  1  0  0  0
 20  8  1  0  0  0
  9 10  1  0  0  0
 21  9  1  0  0  0
  9 22  2  0  0  0
 10 11  1  0  0  0
 10 12  1  0  0  0
 12 11  1  0  0  0
 13 23  4  0  0  0
 24 13  4  0  0  0
 25 14  4  0  0  0
 14 26  4  0  0  0
 24 15  4  0  0  0
 15 27  4  0  0  0
 15 28  4  0  0  0
 18 19  1  0  0  0
 19 21  1  0  0  0
 21 20  1  0  0  0
 23 29  4  0  0  0
 24 25  4  0  0  0
 26 27  4  0  0  0
 28 29  4  0  0  0
  3 30  1  0  0  0
  4 31  1  0  0  0
  6 32  1  0  0  0
  7 33  1  0  0  0
  7 34  1  0  0  0
  8 35  1  0  0  0
  8 36  1  0  0  0
 10 37  1  0  0  0
 11 38  1  0  0  0
 11 39  1  0  0  0
 12 40  1  0  0  0
 12 41  1  0  0  0
 13 42  1  0  0  0
 14 43  1  0  0  0
 17 44  1  0  0  0
 20 45  1  0  0  0
 20 46  1  0  0  0
 26 47  1  0  0  0
 28 48  1  0  0  0
 29 49  1  0  0  0
M  END
$$$$
