1tu6_ligand
  -I-interpret- 

 62 64  0  0  0  0  0  0  0  0999 V2000
   58.8930  -76.4580  142.0490 C   0  0  0  0  0
   58.1060  -75.4250  142.9000 C   0  0  0  0  0
   58.4740  -75.5790  144.3850 C   0  0  0  0  0
   60.0060  -75.5190  144.5440 C   0  0  0  0  0
   60.4470  -75.4470  146.0620 C   0  0  0  0  0
   59.5100  -74.6350  146.7770 N   0  0  0  0  0
   58.9070  -75.1030  147.8670 C   0  0  0  0  0
   58.8110  -76.3180  148.0480 O   0  0  0  0  0
   58.4440  -74.2650  148.7330 O   0  0  0  0  0
   57.6960  -74.8740  149.7560 C   0  0  0  0  0
   56.7050  -73.8480  150.2680 C   0  0  0  0  0
   55.6210  -73.4330  149.2050 C   0  0  0  0  0
   55.0750  -74.6610  148.4890 C   0  0  0  0  0
   55.3460  -74.8540  147.1460 C   0  0  0  0  0
   54.8510  -75.9710  146.4920 C   0  0  0  0  0
   54.0850  -76.8900  147.1780 C   0  0  0  0  0
   53.6080  -77.9670  146.5440 F   0  0  0  0  0
   53.8100  -76.7010  148.5260 C   0  0  0  0  0
   54.3000  -75.5900  149.1800 C   0  0  0  0  0
   56.1170  -74.2210  151.6250 C   0  0  0  0  0
   56.8490  -73.0330  152.2570 C   0  0  0  0  0
   57.4120  -72.6440  150.8690 C   0  0  0  0  0
   62.8470  -75.3900  145.1720 C   0  0  0  0  0
   63.0330  -76.6040  145.2030 O   0  0  0  0  0
   63.5180  -74.6080  144.3000 N   0  0  0  0  0
   64.1880  -75.1430  143.2440 C   0  0  0  0  0
   63.5900  -75.7300  142.1670 C   0  0  0  0  0
   64.5960  -76.1330  141.3410 C   0  0  0  0  0
   65.8060  -75.7760  141.9430 N   0  0  0  0  0
   65.5490  -75.1540  143.1370 N   0  0  0  0  0
   61.7910  -74.7360  146.0540 C   0  0  0  0  0
   61.8630  -73.4250  146.2750 O   0  0  0  0  0
   59.9627  -76.2899  142.1737 H   0  0  0  0  0
   58.6414  -77.4659  142.3792 H   0  0  0  0  0
   58.6255  -76.3409  140.9989 H   0  0  0  0  0
   57.0369  -75.5973  142.7754 H   0  0  0  0  0
   58.3617  -74.4183  142.5694 H   0  0  0  0  0
   58.1080  -76.5378  144.7523 H   0  0  0  0  0
   58.0175  -74.7718  144.9579 H   0  0  0  0  0
   60.3639  -74.6191  144.0438 H   0  0  0  0  0
   60.4277  -76.4261  144.1110 H   0  0  0  0  0
   60.4962  -76.4325  146.5251 H   0  0  0  0  0
   59.3031  -73.6916  146.4490 H   0  0  0  0  0
   58.3512  -75.2062  150.5613 H   0  0  0  0  0
   57.1737  -75.7518  149.3755 H   0  0  0  0  0
   56.0812  -72.7716  148.4709 H   0  0  0  0  0
   54.8009  -72.9280  149.7154 H   0  0  0  0  0
   55.9492  -74.1271  146.6021 H   0  0  0  0  0
   55.0672  -76.1233  145.4346 H   0  0  0  0  0
   53.2071  -77.4304  149.0670 H   0  0  0  0  0
   54.0810  -75.4388  150.2370 H   0  0  0  0  0
   56.2540  -75.2257  152.0249 H   0  0  0  0  0
   55.0390  -74.3282  151.7451 H   0  0  0  0  0
   57.5268  -73.1931  153.0955 H   0  0  0  0  0
   56.2955  -72.3016  152.8459 H   0  0  0  0  0
   57.2438  -71.6459  150.4646 H   0  0  0  0  0
   58.4837  -72.5048  150.7267 H   0  0  0  0  0
   63.5227  -73.5970  144.4355 H   0  0  0  0  0
   62.5198  -75.8523  142.0005 H   0  0  0  0  0
   64.4785  -76.6416  140.3841 H   0  0  0  0  0
   62.1304  -74.9539  147.0666 H   0  0  0  0  0
   61.1373  -73.1571  146.8435 H   0  0  0  0  0
  2  1  1  0  0  0
  3  2  1  0  0  0
  4  3  1  0  0  0
  5  4  1  0  0  0
  5  6  1  0  0  0
 31  5  1  0  0  0
  6  7  1  0  0  0
  7  8  2  0  0  0
  7  9  1  0  0  0
  9 10  1  0  0  0
 10 11  1  0  0  0
 11 12  1  0  0  0
 11 20  1  0  0  0
 11 22  1  0  0  0
 12 13  1  0  0  0
 13 14  4  0  0  0
 13 19  4  0  0  0
 14 15  4  0  0  0
 15 16  4  0  0  0
 16 17  1  0  0  0
 18 16  4  0  0  0
 19 18  4  0  0  0
 20 21  1  0  0  0
 22 21  1  0  0  0
 23 24  2  0  0  0
 23 25  1  0  0  0
 23 31  1  0  0  0
 25 26  1  0  0  0
 26 27  4  0  0  0
 26 30  4  0  0  0
 27 28  4  0  0  0
 28 29  4  0  0  0
 29 30  4  0  0  0
 31 32  1  0  0  0
  1 33  1  0  0  0
  1 34  1  0  0  0
  1 35  1  0  0  0
  2 36  1  0  0  0
  2 37  1  0  0  0
  3 38  1  0  0  0
  3 39  1  0  0  0
  4 40  1  0  0  0
  4 41  1  0  0  0
  5 42  1  0  0  0
  6 43  1  0  0  0
 10 44  1  0  0  0
 10 45  1  0  0  0
 12 46  1  0  0  0
 12 47  1  0  0  0
 14 48  1  0  0  0
 15 49  1  0  0  0
 18 50  1  0  0  0
 19 51  1  0  0  0
 20 52  1  0  0  0
 20 53  1  0  0  0
 21 54  1  0  0  0
 21 55  1  0  0  0
 22 56  1  0  0  0
 22 57  1  0  0  0
 25 58  1  0  0  0
 27 59  1  0  0  0
 28 60  1  0  0  0
 31 61  1  0  0  0
 32 62  1  0  0  0
M  END
$$$$
