1d7x_ligand
  -I-interpret- 

 40 41  0  0  0  0  0  0  0  0999 V2000
   -7.3820   19.8220   29.5990 C   0  0  0  0  0
   -7.6680   18.5440   29.1250 C   0  0  0  0  0
   -6.7950   17.4910   29.3700 C   0  0  0  0  0
   -5.6190   17.7980   30.0800 C   0  0  0  0  0
   -5.3240   19.0830   30.4720 C   0  0  0  0  0
   -6.1880   20.1220   30.2240 C   0  0  0  0  0
   -8.5320   21.1450   29.4850 S   0  0  0  0  0
   -8.0990   22.1470   30.4020 O   0  0  0  0  0
   -9.8640   20.6850   29.5540 O   0  0  0  0  0
   -4.6360   16.9020   30.4630 O   0  0  0  0  0
   -4.8960   15.5630   30.1320 C   0  0  0  0  0
   -8.4230   21.9630   27.9720 N   0  0  0  0  0
   -7.4260   22.9860   27.6760 C   0  0  0  0  0
   -7.8810   23.5690   26.3330 C   0  0  0  0  0
   -8.4580   22.3190   25.6960 C   0  0  0  0  0
   -5.9900   22.3400   27.4770 C   0  0  0  0  0
   -5.6970   21.3920   26.7350 O   0  0  0  0  0
   -5.0010   22.9310   28.1830 N   0  0  0  0  0
   -3.7020   22.3360   28.0490 O   0  0  0  0  0
   -8.6680   21.2070   26.7480 C   0  0  0  0  0
   -8.8900   22.1590   24.4180 N   0  0  0  0  0
   -8.7660   22.9420   23.2870 O   0  0  0  0  0
   -8.8020   22.1760   22.1250 C   0  0  0  0  0
   -8.5824   18.3687   28.5583 H   0  0  0  0  0
   -7.0101   16.4781   29.0295 H   0  0  0  0  0
   -4.3856   19.2810   30.9900 H   0  0  0  0  0
   -5.9403   21.1443   30.5098 H   0  0  0  0  0
   -5.8186   15.2429   30.6162 H   0  0  0  0  0
   -5.0008   15.4711   29.0509 H   0  0  0  0  0
   -4.0699   14.9389   30.4727 H   0  0  0  0  0
   -7.3501   23.7186   28.4795 H   0  0  0  0  0
   -7.0909   24.0492   25.7557 H   0  0  0  0  0
   -8.5800   24.4015   26.4132 H   0  0  0  0  0
   -5.1669   23.7466   28.7726 H   0  0  0  0  0
   -3.0714   22.8231   28.5845 H   0  0  0  0  0
   -9.6453   20.7262   26.7048 H   0  0  0  0  0
   -8.0219   20.3387   26.6192 H   0  0  0  0  0
   -7.9813   21.4588   22.1386 H   0  0  0  0  0
   -9.7513   21.6429   22.0720 H   0  0  0  0  0
   -8.7015   22.8287   21.2578 H   0  0  0  0  0
  1  7  1  0  0  0
  1  6  4  0  0  0
  1  2  4  0  0  0
  2  3  4  0  0  0
  3  4  4  0  0  0
  4 10  1  0  0  0
  4  5  4  0  0  0
  5  6  4  0  0  0
 10 11  1  0  0  0
  7 12  1  0  0  0
  7  9  2  0  0  0
  7  8  2  0  0  0
 12 20  1  0  0  0
 12 13  1  0  0  0
 13 16  1  0  0  0
 13 14  1  0  0  0
 14 15  1  0  0  0
 15 21  2  0  0  0
 15 20  1  0  0  0
 21 22  1  0  0  0
 22 23  1  0  0  0
 16 18  1  0  0  0
 16 17  2  0  0  0
 18 19  1  0  0  0
  2 24  1  0  0  0
  3 25  1  0  0  0
  5 26  1  0  0  0
  6 27  1  0  0  0
 11 28  1  0  0  0
 11 29  1  0  0  0
 11 30  1  0  0  0
 13 31  1  0  0  0
 14 32  1  0  0  0
 14 33  1  0  0  0
 18 34  1  0  0  0
 19 35  1  0  0  0
 20 36  1  0  0  0
 20 37  1  0  0  0
 23 38  1  0  0  0
 23 39  1  0  0  0
 23 40  1  0  0  0
M  END
$$$$
