1g3c_ligand
  -I-interpret- 

 30 30  0  0  0  0  0  0  0  0999 V2000
   43.7760   -2.9840   26.3340 C   0  0  0  0  0
   42.6870   -3.4910   27.0250 C   0  0  0  0  0
   42.1470   -2.8120   28.1190 C   0  0  0  0  0
   42.7050   -1.5930   28.5210 C   0  0  0  0  0
   43.8020   -1.0980   27.8230 C   0  0  0  0  0
   44.3300   -1.7810   26.7420 C   0  0  0  0  0
   42.1720   -0.8230   29.6300 C   0  0  0  0  0
   44.3230   -3.6950   25.1950 C   0  0  0  0  0
   41.0910   -3.4080   28.7090 O   0  0  0  0  0
   44.3660   -5.0210   25.1850 N   0  0  0  0  0
   44.7760   -3.0120   24.1510 N   0  0  0  0  0
   41.1490   -1.1790   30.3540 N   0  0  0  0  0
   40.7150   -0.2720   31.4140 C   0  0  0  0  0
   39.8550    0.8360   30.8140 C   0  0  0  0  0
   39.9250   -1.0200   32.4830 C   0  0  0  0  0
   39.9130   -0.5670   33.6350 O   0  0  0  0  0
   39.3100   -2.0870   32.1030 O   0  0  0  0  0
   42.2446   -4.4358   26.7091 H   0  0  0  0  0
   44.2533   -0.1556   28.1333 H   0  0  0  0  0
   45.1869   -1.3705   26.2079 H   0  0  0  0  0
   42.6621    0.1194   29.8743 H   0  0  0  0  0
   40.7917   -2.8700   29.4456 H   0  0  0  0  0
   44.7465   -5.5128   24.3765 H   0  0  0  0  0
   45.1559   -3.5066   23.3439 H   0  0  0  0  0
   44.7442   -1.9925   24.1558 H   0  0  0  0  0
   41.5978    0.1611   31.8843 H   0  0  0  0  0
   40.4386    1.3889   30.0779 H   0  0  0  0  0
   38.9824    0.3959   30.3314 H   0  0  0  0  0
   39.5317    1.5121   31.6055 H   0  0  0  0  0
   39.4704   -2.2315   31.1676 H   0  0  0  0  0
  1  2  4  0  0  0
  1  6  4  0  0  0
  1  8  1  0  0  0
  2  3  4  0  0  0
  3  4  4  0  0  0
  3  9  1  0  0  0
  4  5  4  0  0  0
  4  7  1  0  0  0
  5  6  4  0  0  0
  7 12  2  0  0  0
  8 10  2  0  0  0
  8 11  1  0  0  0
 12 13  1  0  0  0
 13 14  1  0  0  0
 13 15  1  0  0  0
 15 16  2  0  0  0
 15 17  1  0  0  0
  2 18  1  0  0  0
  5 19  1  0  0  0
  6 20  1  0  0  0
  7 21  1  0  0  0
  9 22  1  0  0  0
 10 23  1  0  0  0
 11 24  1  0  0  0
 11 25  1  0  0  0
 13 26  1  0  0  0
 14 27  1  0  0  0
 14 28  1  0  0  0
 14 29  1  0  0  0
 17 30  1  0  0  0
M  END
$$$$
