2f6y_ligand
  -I-interpret- 

 49 50  0  0  0  0  0  0  0  0999 V2000
   41.4250   16.9190   11.7600 O   0  0  0  0  0
   42.5050   15.9160   12.1170 S   0  0  0  0  0
   42.5170   14.6270   11.3730 O   0  0  0  0  0
   43.8120   16.5170   12.5160 O   0  0  0  0  0
   41.8880   15.4410   13.5230 N   0  0  0  0  0
   42.3520   14.5050   14.3850 C   0  0  0  0  0
   42.0870   13.1430   14.1930 C   0  0  0  0  0
   42.5380   12.1660   15.0810 C   0  0  0  0  0
   43.0640   14.9680   15.4820 C   0  0  0  0  0
   43.4920   13.9900   16.3750 C   0  0  0  0  0
   44.2340   14.5300   17.5840 C   0  0  0  0  0
   44.4160   13.5130   18.6340 N   0  0  0  0  0
   43.7290   12.2120   18.5550 C   0  0  0  0  0
   42.3130   12.2070   19.0800 C   0  0  0  0  0
   41.6230   11.2630   18.7450 O   0  0  0  0  0
   41.8030   13.1670   19.8680 N   0  0  0  0  0
   40.4530   13.2550   20.4200 C   0  0  0  0  0
   43.7490   11.5850   17.1630 C   0  0  0  0  0
   43.2520   12.6210   16.1830 C   0  0  0  0  0
   45.2240   13.7050   19.6880 C   0  0  0  0  0
   45.8570   14.7510   19.8550 O   0  0  0  0  0
   45.3810   12.6060   20.6450 O   0  0  0  0  0
   46.7450   12.3330   21.0090 C   0  0  0  0  0
   47.3790   11.1610   20.2910 C   0  0  0  0  0
   47.7320   13.4740   20.7860 C   0  0  0  0  0
   46.8190   11.9150   22.4610 C   0  0  0  0  0
   41.5246   17.7025   12.3057 H   0  0  0  0  0
   41.0272   15.9097   13.8054 H   0  0  0  0  0
   41.5093   12.8363   13.3210 H   0  0  0  0  0
   42.3415   11.1061   14.9196 H   0  0  0  0  0
   43.2741   16.0267   15.6343 H   0  0  0  0  0
   43.6450   15.3454   18.0038 H   0  0  0  0  0
   45.2212   14.8549   17.2555 H   0  0  0  0  0
   44.3301   11.5968   19.2245 H   0  0  0  0  0
   42.4361   13.9289   20.1113 H   0  0  0  0  0
   39.7298   13.2851   19.6050 H   0  0  0  0  0
   40.2604   12.3839   21.0463 H   0  0  0  0  0
   40.3652   14.1614   21.0191 H   0  0  0  0  0
   43.1105   10.7020   17.1365 H   0  0  0  0  0
   44.7604   11.2727   16.9031 H   0  0  0  0  0
   46.8117   10.2552   20.5053 H   0  0  0  0  0
   47.3743   11.3487   19.2173 H   0  0  0  0  0
   48.4059   11.0381   20.6352 H   0  0  0  0  0
   47.7453   13.7399   19.7290 H   0  0  0  0  0
   47.4256   14.3381   21.3755 H   0  0  0  0  0
   48.7280   13.1566   21.0947 H   0  0  0  0  0
   46.4333   12.7181   23.0891 H   0  0  0  0  0
   46.2206   11.0162   22.6100 H   0  0  0  0  0
   47.8562   11.7106   22.7265 H   0  0  0  0  0
  1  2  1  0  0  0
  2  3  2  0  0  0
  2  4  2  0  0  0
  2  5  1  0  0  0
  5  6  1  0  0  0
  6  7  4  0  0  0
  6  9  4  0  0  0
  7  8  4  0  0  0
  8 19  4  0  0  0
  9 10  4  0  0  0
 10 11  1  0  0  0
 10 19  4  0  0  0
 11 12  1  0  0  0
 12 13  1  0  0  0
 12 20  1  0  0  0
 13 14  1  0  0  0
 13 18  1  0  0  0
 14 15  2  0  0  0
 14 16  1  0  0  0
 16 17  1  0  0  0
 18 19  1  0  0  0
 20 21  2  0  0  0
 20 22  1  0  0  0
 22 23  1  0  0  0
 23 24  1  0  0  0
 23 25  1  0  0  0
 23 26  1  0  0  0
  1 27  1  0  0  0
  5 28  1  0  0  0
  7 29  1  0  0  0
  8 30  1  0  0  0
  9 31  1  0  0  0
 11 32  1  0  0  0
 11 33  1  0  0  0
 13 34  1  0  0  0
 16 35  1  0  0  0
 17 36  1  0  0  0
 17 37  1  0  0  0
 17 38  1  0  0  0
 18 39  1  0  0  0
 18 40  1  0  0  0
 24 41  1  0  0  0
 24 42  1  0  0  0
 24 43  1  0  0  0
 25 44  1  0  0  0
 25 45  1  0  0  0
 25 46  1  0  0  0
 26 47  1  0  0  0
 26 48  1  0  0  0
 26 49  1  0  0  0
M  END
$$$$
