5u2e_ligand
  -I-interpret- 

 49 52  0  0  0  0  0  0  0  0999 V2000
  -34.0580   12.7590   -4.2940 C   0  0  0  0  0
  -31.5230   14.7520   -6.3170 C   0  0  0  0  0
  -32.1030   16.6950   -4.8090 C   0  0  0  0  0
  -32.2530   17.9060   -4.0170 C   0  0  0  0  0
  -36.4230   17.5460    0.1290 C   0  0  0  0  0
  -36.7110   15.3380   -0.3630 C   0  0  0  0  0
  -38.6480    8.3240   -7.0710 C   0  0  0  0  0
  -37.5640    8.1710   -6.0000 C   0  0  0  0  0
  -36.4340    8.9430   -6.3270 O   0  0  0  0  0
  -35.9120    9.5680   -5.1930 C   0  0  0  0  0
  -36.1560    9.0990   -4.1240 O   0  0  0  0  0
  -35.0670   10.8410   -5.3100 C   0  0  0  0  0
  -34.5440   11.2310   -6.5330 C   0  0  0  0  0
  -33.7770   12.3900   -6.6520 C   0  0  0  0  0
  -33.5500   13.1580   -5.5250 C   0  0  0  0  0
  -34.8270   11.6080   -4.1740 C   0  0  0  0  0
  -32.7070   14.4280   -5.5520 C   0  0  0  0  0
  -31.0030   16.2770   -5.9440 S   0  0  0  0  0
  -33.0280   15.6110   -4.6350 C   0  0  0  0  0
  -34.1540   15.6740   -3.6940 O   0  0  0  0  0
  -34.2790   16.8800   -2.8950 C   0  0  0  0  0
  -33.2030   17.9200   -2.9450 C   0  0  0  0  0
  -31.5750   18.8610   -4.2210 O   0  0  0  0  0
  -34.9860   16.6600   -1.6720 N   0  3  0  0  0
  -35.1100   17.6750   -0.6130 C   0  0  0  0  0
  -36.5020   16.2650    0.6370 O   0  0  0  0  0
  -35.6090   15.3560   -1.4140 C   0  0  0  0  0
  -33.8496   13.3591   -3.4082 H   0  0  0  0  0
  -31.0430   14.0874   -7.0353 H   0  0  0  0  0
  -37.2573   17.7353   -0.5464 H   0  0  0  0  0
  -36.4718   18.2754    0.9376 H   0  0  0  0  0
  -37.6513   15.5825   -0.8572 H   0  0  0  0  0
  -36.7246   14.3482    0.0933 H   0  0  0  0  0
  -38.9426    9.3711   -7.1410 H   0  0  0  0  0
  -38.2570    7.9902   -8.0321 H   0  0  0  0  0
  -39.5132    7.7192   -6.7994 H   0  0  0  0  0
  -37.2710    7.1228   -5.9405 H   0  0  0  0  0
  -37.9608    8.5123   -5.0439 H   0  0  0  0  0
  -34.7353   10.6219   -7.4164 H   0  0  0  0  0
  -33.3639   12.6850   -7.6166 H   0  0  0  0  0
  -35.2348   11.3113   -3.2077 H   0  0  0  0  0
  -34.9498   17.5067   -3.4827 H   0  0  0  0  0
  -33.7368   18.8630   -3.0625 H   0  0  0  0  0
  -32.6088   17.7447   -2.0482 H   0  0  0  0  0
  -34.7525   17.4039   -2.3296 H   0  0  0  0  0
  -34.2964   17.5327    0.0982 H   0  0  0  0  0
  -35.0700   18.6617   -1.0744 H   0  0  0  0  0
  -36.0745   15.0488   -2.3505 H   0  0  0  0  0
  -34.8173   14.7078   -1.0382 H   0  0  0  0  0
 15  1  4  0  0  0
  1 16  4  0  0  0
 17  2  4  0  0  0
 18  2  4  0  0  0
  4  3  1  0  0  0
  3 18  4  0  0  0
 19  3  4  0  0  0
 22  4  1  0  0  0
  4 23  2  0  0  0
 25  5  1  0  0  0
  5 26  1  0  0  0
 26  6  1  0  0  0
  6 27  1  0  0  0
  8  7  1  0  0  0
  9  8  1  0  0  0
 10  9  1  0  0  0
 10 11  2  0  0  0
 12 10  1  0  0  0
 13 12  4  0  0  0
 16 12  4  0  0  0
 14 13  4  0  0  0
 15 14  4  0  0  0
 17 15  1  0  0  0
 19 17  4  0  0  0
 20 19  1  0  0  0
 21 20  1  0  0  0
 21 22  1  0  0  0
 24 21  1  0  0  0
 24 25  1  0  0  0
 24 27  1  0  0  0
  1 28  1  0  0  0
  2 29  1  0  0  0
  5 30  1  0  0  0
  5 31  1  0  0  0
  6 32  1  0  0  0
  6 33  1  0  0  0
  7 34  1  0  0  0
  7 35  1  0  0  0
  7 36  1  0  0  0
  8 37  1  0  0  0
  8 38  1  0  0  0
 13 39  1  0  0  0
 14 40  1  0  0  0
 16 41  1  0  0  0
 21 42  1  0  0  0
 22 43  1  0  0  0
 22 44  1  0  0  0
 24 45  1  0  0  0
 25 46  1  0  0  0
 25 47  1  0  0  0
 27 48  1  0  0  0
 27 49  1  0  0  0
M  END
$$$$
