5fhm_ligand
  -I-interpret- 

 45 47  0  0  0  0  0  0  0  0999 V2000
   -8.4470  -12.9890   22.6030 C   0  0  0  0  0
   -8.0300  -12.5180   21.4160 C   0  0  0  0  0
   -8.6910  -13.1350   20.3790 O   0  0  0  0  0
   -9.6120  -14.0870   20.9550 N   0  0  0  0  0
   -9.4000  -13.9250   22.2580 C   0  0  0  0  0
   -7.0480  -11.5270   21.1500 C   0  0  0  0  0
   -6.9530  -10.9220   19.9330 N   0  0  0  0  0
   -5.9750  -10.0950   20.0920 N   0  0  0  0  0
   -5.5180  -10.2500   21.3560 N   0  0  0  0  0
   -6.2010  -11.1550   22.0870 N   0  0  0  0  0
   -4.3990   -9.4870   21.8570 C   0  0  0  0  0
   -1.9590   -8.0370   18.5340 C   0  0  0  0  0
   -1.6990   -9.3290   19.0500 C   0  0  0  0  0
   -2.4730   -9.8240   20.1410 C   0  0  0  0  0
   -3.5130   -9.0330   20.6920 C   0  0  0  0  0
   -3.7670   -7.7670   20.1520 C   0  0  0  0  0
   -3.0000   -7.2610   19.0900 C   0  0  0  0  0
  -10.0380  -14.6050   23.2140 O   0  0  0  0  0
   -8.0800  -12.7260   24.0470 C   0  0  0  0  0
   -9.0120  -11.6840   24.7220 C   0  0  0  0  0
   -9.2610  -11.9800   26.1970 C   0  0  0  0  0
   -9.2140  -11.0360   27.0120 O   0  0  0  0  0
   -9.5590  -13.1460   26.4920 O   0  0  0  0  0
   -8.4390  -10.3180   24.6270 N   0  3  0  0  0
   -0.5810  -10.1400   18.4080 C   0  0  0  0  0
    0.6490  -10.1030   19.2050 N   0  3  0  0  0
  -10.2583  -14.7202   20.4840 H   0  0  0  0  0
   -3.8129  -10.1102   22.5325 H   0  0  0  0  0
   -4.7707   -8.6109   22.3883 H   0  0  0  0  0
   -1.3598   -7.6434   17.7129 H   0  0  0  0  0
   -2.2648  -10.8119   20.5519 H   0  0  0  0  0
   -4.5753   -7.1625   20.5635 H   0  0  0  0  0
   -3.2085   -6.2672   18.6939 H   0  0  0  0  0
   -7.0648  -12.3297   24.0674 H   0  0  0  0  0
   -8.1764  -13.6644   24.5930 H   0  0  0  0  0
   -9.9577  -11.7471   24.1837 H   0  0  0  0  0
   -8.9614  -10.2312   26.5536 H   0  0  0  0  0
   -9.0693   -9.6542   25.0770 H   0  0  0  0  0
   -7.5323  -10.2977   25.0937 H   0  0  0  0  0
   -8.3231  -10.0667   23.6453 H   0  0  0  0  0
   -0.3667   -9.7112   17.4291 H   0  0  0  0  0
   -0.9096  -11.1767   18.3349 H   0  0  0  0  0
    1.3697  -10.6564   18.7416 H   0  0  0  0  0
    0.9654   -9.1375   19.2951 H   0  0  0  0  0
    0.4646  -10.4894   20.1308 H   0  0  0  0  0
  2  1  2  0  0  0
  1  5  1  0  0  0
  1 19  1  0  0  0
  2  3  1  0  0  0
  6  2  1  0  0  0
  3  4  1  0  0  0
  4  5  1  0  0  0
  5 18  2  0  0  0
  6  7  4  0  0  0
 10  6  4  0  0  0
  8  7  4  0  0  0
  9  8  4  0  0  0
  9 10  4  0  0  0
 11  9  1  0  0  0
 15 11  1  0  0  0
 13 12  4  0  0  0
 12 17  4  0  0  0
 14 13  4  0  0  0
 13 25  1  0  0  0
 14 15  4  0  0  0
 15 16  4  0  0  0
 16 17  4  0  0  0
 19 20  1  0  0  0
 20 21  1  0  0  0
 20 24  1  0  0  0
 21 22  1  0  0  0
 21 23  2  0  0  0
 25 26  1  0  0  0
  4 27  1  0  0  0
 11 28  1  0  0  0
 11 29  1  0  0  0
 12 30  1  0  0  0
 14 31  1  0  0  0
 16 32  1  0  0  0
 17 33  1  0  0  0
 19 34  1  0  0  0
 19 35  1  0  0  0
 20 36  1  0  0  0
 22 37  1  0  0  0
 24 38  1  0  0  0
 24 39  1  0  0  0
 24 40  1  0  0  0
 25 41  1  0  0  0
 25 42  1  0  0  0
 26 43  1  0  0  0
 26 44  1  0  0  0
 26 45  1  0  0  0
M  END
$$$$
