5uah_ligand
  -I-interpret- 

118122  0  0  0  0  0  0  0  0999 V2000
  114.8520   26.9220   -9.3300 C   0  0  0  0  0
  113.6120   26.4820   -8.8330 C   0  0  0  0  0
  112.4480   26.5860   -9.5880 C   0  0  0  0  0
  112.4790   27.1110  -10.8690 C   0  0  0  0  0
  113.8200   28.1090  -12.7300 C   0  0  0  0  0
  115.0940   28.5200  -13.1660 C   0  0  0  0  0
  116.2660   28.4560  -12.4800 C   0  0  0  0  0
  116.1920   27.9140  -11.1740 C   0  0  0  0  0
  114.8990   27.4670  -10.6530 C   0  0  0  0  0
  113.6740   27.5560  -11.4310 C   0  0  0  0  0
  112.9990   28.4130  -13.8360 C   0  0  0  0  0
  113.5500   29.2040  -14.8050 C   0  0  0  0  0
  113.1550   28.6830  -16.1570 C   0  0  0  0  0
  117.5550   28.9330  -13.0720 C   0  0  0  0  0
  114.4380   25.8630   -6.3920 C   0  0  0  0  0
  114.0420   25.2780   -5.0270 C   0  0  0  0  0
  113.4460   26.1750   -4.1240 C   0  0  0  0  0
  113.1730   27.6350   -4.5470 C   0  0  0  0  0
  112.9730   28.6250   -3.5660 C   0  0  0  0  0
  112.1060   29.8450   -3.8030 C   0  0  0  0  0
  112.4420   30.4860   -5.1280 C   0  0  0  0  0
  111.6470   31.7400   -5.3450 C   0  0  0  0  0
  112.1110   32.4410   -6.5870 C   0  0  0  0  0
  111.7190   31.7770   -7.8710 C   0  0  0  0  0
  112.2610   32.5920   -9.0340 C   0  0  0  0  0
  112.4320   31.7420  -10.2640 C   0  0  0  0  0
  112.6930   32.6240  -11.4690 C   0  0  0  0  0
  112.4170   31.9200  -12.7750 C   0  0  0  0  0
  113.4320   31.3140  -13.5260 C   0  0  0  0  0
  113.7560   23.7890   -4.9250 C   0  0  0  0  0
  110.6690   29.4690   -3.7110 C   0  0  0  0  0
  111.8810   32.7360   -4.2440 C   0  0  0  0  0
  110.2250   31.6770   -7.9910 C   0  0  0  0  0
  113.5370   30.7330  -10.0780 C   0  0  0  0  0
  111.6680   34.9740   -8.8460 C   0  0  0  0  0
  110.6100   36.0160   -8.9640 C   0  0  0  0  0
  114.2690   34.3950  -11.8180 C   0  0  0  0  0
  105.5720   26.1170   -5.4960 C   0  0  0  0  0
  107.3560   27.3050   -6.8030 C   0  0  0  0  0
  108.4120   27.0560   -7.8410 C   0  0  0  0  0
  109.0840   24.9850   -6.6150 C   0  0  0  0  0
  107.9500   25.2750   -5.6380 C   0  0  0  0  0
  111.1410   26.0270   -9.0000 C   0  0  0  0  0
  113.4140   25.9200   -7.4790 N   0  0  0  0  0
  110.5190   26.7290   -8.0480 N   0  0  0  0  0
  109.4300   26.1810   -7.3520 N   0  0  0  0  0
  106.8850   26.0870   -6.1930 N   0  3  0  0  0
  115.9890   26.8380   -8.6120 O   0  0  0  0  0
  117.3400   27.8030  -10.3820 O   0  0  0  0  0
  114.9500   29.0850  -14.6200 O   0  0  0  0  0
  111.8490   27.9990  -13.9280 O   0  0  0  0  0
  113.1280   30.5500  -14.6630 O   0  0  0  0  0
  113.9940   33.0780  -11.4590 O   0  0  0  0  0
  111.4000   33.6570   -9.2630 O   0  0  0  0  0
  112.6420   35.2250   -8.1550 O   0  0  0  0  0
  113.4830   32.5040   -6.4550 O   0  0  0  0  0
  113.8010   30.7570   -5.1790 O   0  0  0  0  0
  115.5790   26.2830   -6.5660 O   0  0  0  0  0
  111.3260   27.1870  -11.5730 O   0  0  0  0  0
  113.5164   27.6610  -16.2709 H   0  0  0  0  0
  112.0689   28.6979  -16.2476 H   0  0  0  0  0
  113.5940   29.3133  -16.9303 H   0  0  0  0  0
  117.7694   28.3656  -13.9776 H   0  0  0  0  0
  117.4712   29.9919  -13.3165 H   0  0  0  0  0
  118.3600   28.7877  -12.3516 H   0  0  0  0  0
  113.1758   25.8394   -3.1228 H   0  0  0  0  0
  113.1352   27.8988   -5.6039 H   0  0  0  0  0
  113.4609   28.5093   -2.5982 H   0  0  0  0  0
  112.3063   30.5871   -3.0302 H   0  0  0  0  0
  112.1811   29.7908   -5.9260 H   0  0  0  0  0
  110.6030   31.4311   -5.3964 H   0  0  0  0  0
  111.6331   33.4178   -6.6621 H   0  0  0  0  0
  112.1343   30.7693   -7.8846 H   0  0  0  0  0
  113.2506   32.9750   -8.7850 H   0  0  0  0  0
  111.5101   31.1858  -10.4339 H   0  0  0  0  0
  112.0037   33.4651  -11.3950 H   0  0  0  0  0
  111.3929   31.8819  -13.1464 H   0  0  0  0  0
  114.4718   31.4375  -13.2233 H   0  0  0  0  0
  114.0719   23.4258   -3.9471 H   0  0  0  0  0
  112.6871   23.6162   -5.0502 H   0  0  0  0  0
  114.3046   23.2607   -5.7048 H   0  0  0  0  0
  110.4433   28.7143   -4.4643 H   0  0  0  0  0
  110.4627   29.0671   -2.7190 H   0  0  0  0  0
  110.0522   30.3512   -3.8825 H   0  0  0  0  0
  111.5841   32.2984   -3.2908 H   0  0  0  0  0
  112.9386   32.9978   -4.2114 H   0  0  0  0  0
  111.2894   33.6315   -4.4341 H   0  0  0  0  0
  109.8335   31.0906   -7.1597 H   0  0  0  0  0
  109.7921   32.6771   -7.9675 H   0  0  0  0  0
  109.9691   31.1910   -8.9325 H   0  0  0  0  0
  114.4738   31.2542   -9.8809 H   0  0  0  0  0
  113.2967   30.0840   -9.2359 H   0  0  0  0  0
  113.6365   30.1340  -10.9832 H   0  0  0  0  0
  110.2084   36.2378   -7.9753 H   0  0  0  0  0
  111.0393   36.9207   -9.3945 H   0  0  0  0  0
  109.8109   35.6493   -9.6083 H   0  0  0  0  0
  113.9337   34.5691  -12.8404 H   0  0  0  0  0
  113.7454   35.0713  -11.1424 H   0  0  0  0  0
  115.3425   34.5718  -11.7513 H   0  0  0  0  0
  105.6091   26.8444   -4.6851 H   0  0  0  0  0
  104.7927   26.3995   -6.2038 H   0  0  0  0  0
  105.3550   25.1290   -5.0899 H   0  0  0  0  0
  106.5091   27.7856   -7.2928 H   0  0  0  0  0
  107.7925   27.9263   -6.0210 H   0  0  0  0  0
  108.8718   28.0093   -8.1017 H   0  0  0  0  0
  107.9421   26.5895   -8.7069 H   0  0  0  0  0
  108.7614   24.2156   -7.3165 H   0  0  0  0  0
  109.9567   24.6460   -6.0568 H   0  0  0  0  0
  108.3774   25.8300   -4.8029 H   0  0  0  0  0
  107.5127   24.3168   -5.3574 H   0  0  0  0  0
  110.7316   25.0800   -9.3518 H   0  0  0  0  0
  112.4931   25.5357   -7.2677 H   0  0  0  0  0
  106.5575   25.5266   -6.9798 H   0  0  0  0  0
  116.7185   27.1896   -9.1276 H   0  0  0  0  0
  117.1066   27.4174   -9.5344 H   0  0  0  0  0
  113.8572   32.9450   -7.2213 H   0  0  0  0  0
  114.0135   31.1645   -6.0218 H   0  0  0  0  0
  111.5037   27.5690  -12.4356 H   0  0  0  0  0
  2  1  4  0  0  0
  1  9  4  0  0  0
  1 48  1  0  0  0
  3  2  4  0  0  0
  2 44  1  0  0  0
  3  4  4  0  0  0
 43  3  1  0  0  0
  4 10  4  0  0  0
  4 59  1  0  0  0
  5  6  4  0  0  0
 10  5  4  0  0  0
  5 11  1  0  0  0
  6  7  4  0  0  0
  6 50  1  0  0  0
  8  7  4  0  0  0
  7 14  1  0  0  0
  9  8  4  0  0  0
  8 49  1  0  0  0
 10  9  4  0  0  0
 11 12  1  0  0  0
 11 51  2  0  0  0
 12 13  1  0  0  0
 12 50  1  0  0  0
 12 52  1  0  0  0
 15 16  1  0  0  0
 44 15  1  0  0  0
 15 58  2  0  0  0
 16 17  2  0  0  0
 16 30  1  0  0  0
 17 18  1  0  0  0
 18 19  2  0  0  0
 19 20  1  0  0  0
 20 21  1  0  0  0
 20 31  1  0  0  0
 21 22  1  0  0  0
 21 57  1  0  0  0
 22 23  1  0  0  0
 22 32  1  0  0  0
 23 24  1  0  0  0
 23 56  1  0  0  0
 25 24  1  0  0  0
 24 33  1  0  0  0
 26 25  1  0  0  0
 25 54  1  0  0  0
 27 26  1  0  0  0
 26 34  1  0  0  0
 28 27  1  0  0  0
 27 53  1  0  0  0
 29 28  2  0  0  0
 52 29  1  0  0  0
 35 36  1  0  0  0
 54 35  1  0  0  0
 35 55  2  0  0  0
 53 37  1  0  0  0
 47 38  1  0  0  0
 40 39  1  0  0  0
 39 47  1  0  0  0
 46 40  1  0  0  0
 41 42  1  0  0  0
 46 41  1  0  0  0
 42 47  1  0  0  0
 45 43  2  0  0  0
 45 46  1  0  0  0
 13 60  1  0  0  0
 13 61  1  0  0  0
 13 62  1  0  0  0
 14 63  1  0  0  0
 14 64  1  0  0  0
 14 65  1  0  0  0
 17 66  1  0  0  0
 18 67  1  0  0  0
 19 68  1  0  0  0
 20 69  1  0  0  0
 21 70  1  0  0  0
 22 71  1  0  0  0
 23 72  1  0  0  0
 24 73  1  0  0  0
 25 74  1  0  0  0
 26 75  1  0  0  0
 27 76  1  0  0  0
 28 77  1  0  0  0
 29 78  1  0  0  0
 30 79  1  0  0  0
 30 80  1  0  0  0
 30 81  1  0  0  0
 31 82  1  0  0  0
 31 83  1  0  0  0
 31 84  1  0  0  0
 32 85  1  0  0  0
 32 86  1  0  0  0
 32 87  1  0  0  0
 33 88  1  0  0  0
 33 89  1  0  0  0
 33 90  1  0  0  0
 34 91  1  0  0  0
 34 92  1  0  0  0
 34 93  1  0  0  0
 36 94  1  0  0  0
 36 95  1  0  0  0
 36 96  1  0  0  0
 37 97  1  0  0  0
 37 98  1  0  0  0
 37 99  1  0  0  0
 38100  1  0  0  0
 38101  1  0  0  0
 38102  1  0  0  0
 39103  1  0  0  0
 39104  1  0  0  0
 40105  1  0  0  0
 40106  1  0  0  0
 41107  1  0  0  0
 41108  1  0  0  0
 42109  1  0  0  0
 42110  1  0  0  0
 43111  1  0  0  0
 44112  1  0  0  0
 47113  1  0  0  0
 48114  1  0  0  0
 49115  1  0  0  0
 56116  1  0  0  0
 57117  1  0  0  0
 59118  1  0  0  0
M  END
$$$$
