2ogz_ligand
  -I-interpret- 

 46 47  0  0  0  0  0  0  0  0999 V2000
   34.2130   52.6560   94.4520 C   0  0  0  0  0
   34.1970   53.5420   95.5800 C   0  0  0  0  0
   35.4170   54.1410   96.0020 C   0  0  0  0  0
   36.6450   53.8670   95.3240 C   0  0  0  0  0
   36.6460   52.9900   94.2130 C   0  0  0  0  0
   35.4460   52.3890   93.7790 C   0  0  0  0  0
   37.9420   54.4870   95.7580 C   0  0  0  0  0
   37.8530   55.9950   95.9480 C   0  0  0  0  0
   37.8050   56.8150   94.6430 C   0  0  0  0  0
   38.4450   58.1650   94.9440 C   0  0  0  0  0
   38.5370   56.1390   93.5360 N   0  3  0  0  0
   38.1230   56.5430   92.1780 C   0  0  0  0  0
   36.7270   56.0100   91.7850 C   0  0  0  0  0
   35.6870   56.5530   92.1200 O   0  0  0  0  0
   36.5970   54.7540   90.9250 C   0  0  0  0  0
   37.5710   53.6990   90.9160 C   0  0  0  0  0
   37.3870   52.5590   90.0940 C   0  0  0  0  0
   36.2390   52.4710   89.2750 C   0  0  0  0  0
   36.0780   51.4110   88.5040 F   0  0  0  0  0
   35.2610   53.4920   89.2640 C   0  0  0  0  0
   35.4420   54.6290   90.0850 C   0  0  0  0  0
   33.0140   51.9660   93.9350 C   0  0  0  0  0
   31.7430   52.1500   94.5410 N   0  0  0  0  0
   33.0390   51.2110   92.9880 O   0  0  0  0  0
   33.2656   53.7530   96.1054 H   0  0  0  0  0
   35.4149   54.8191   96.8554 H   0  0  0  0  0
   37.5787   52.7780   93.6902 H   0  0  0  0  0
   35.4587   51.7148   92.9226 H   0  0  0  0  0
   38.6771   54.2957   94.9762 H   0  0  0  0  0
   38.2121   54.0487   96.7188 H   0  0  0  0  0
   38.7559   56.2991   96.4775 H   0  0  0  0  0
   36.9203   56.1908   96.4770 H   0  0  0  0  0
   36.7718   56.9245   94.3135 H   0  0  0  0  0
   37.8840   58.6634   95.7345 H   0  0  0  0  0
   39.4748   58.0134   95.2676 H   0  0  0  0  0
   38.4324   58.7803   94.0444 H   0  0  0  0  0
   38.3417   55.1413   93.6193 H   0  0  0  0  0
   39.5197   56.3945   93.6330 H   0  0  0  0  0
   38.8454   56.1284   91.4749 H   0  0  0  0  0
   38.0797   57.6319   92.1556 H   0  0  0  0  0
   38.4577   53.7753   91.5454 H   0  0  0  0  0
   38.1250   51.7569   90.0937 H   0  0  0  0  0
   34.3784   53.4038   88.6305 H   0  0  0  0  0
   34.6932   55.4211   90.0791 H   0  0  0  0  0
   30.9271   51.6603   94.1736 H   0  0  0  0  0
   31.6459   52.7718   95.3437 H   0  0  0  0  0
  1  2  4  0  0  0
  1  6  4  0  0  0
  1 22  1  0  0  0
  2  3  4  0  0  0
  3  4  4  0  0  0
  4  5  4  0  0  0
  4  7  1  0  0  0
  5  6  4  0  0  0
  7  8  1  0  0  0
  8  9  1  0  0  0
  9 10  1  0  0  0
  9 11  1  0  0  0
 11 12  1  0  0  0
 12 13  1  0  0  0
 13 14  2  0  0  0
 13 15  1  0  0  0
 15 16  4  0  0  0
 15 21  4  0  0  0
 16 17  4  0  0  0
 17 18  4  0  0  0
 18 19  1  0  0  0
 18 20  4  0  0  0
 20 21  4  0  0  0
 22 23  1  0  0  0
 22 24  2  0  0  0
  2 25  1  0  0  0
  3 26  1  0  0  0
  5 27  1  0  0  0
  6 28  1  0  0  0
  7 29  1  0  0  0
  7 30  1  0  0  0
  8 31  1  0  0  0
  8 32  1  0  0  0
  9 33  1  0  0  0
 10 34  1  0  0  0
 10 35  1  0  0  0
 10 36  1  0  0  0
 11 37  1  0  0  0
 11 38  1  0  0  0
 12 39  1  0  0  0
 12 40  1  0  0  0
 16 41  1  0  0  0
 17 42  1  0  0  0
 20 43  1  0  0  0
 21 44  1  0  0  0
 23 45  1  0  0  0
 23 46  1  0  0  0
M  END
$$$$
