2iqg_ligand
  -I-interpret- 

 80 82  0  0  0  0  0  0  0  0999 V2000
   14.1920   -4.5720   17.0800 N   0  0  0  0  0
   13.3380   -3.0420   18.8190 C   0  0  0  0  0
   12.2580   -2.6510   17.9760 C   0  0  0  0  0
   10.3290   -1.0910   17.4110 C   0  0  0  0  0
   13.1660   -0.3560   21.5730 C   0  0  0  0  0
   14.1320   -4.2580   18.4430 C   0  0  0  0  0
    8.8970   -3.1020   17.9970 C   0  0  0  0  0
    7.6310   -2.8360   18.8410 C   0  0  0  0  0
   14.8670   -5.7600   16.4890 C   0  0  0  0  0
   13.8420   -6.3180   15.4750 C   0  0  0  0  0
   19.7260   -5.7770   18.2620 C   0  0  0  0  0
   19.7350   -5.8040   19.6830 C   0  0  0  0  0
   19.9230   -7.0310   20.3770 C   0  0  0  0  0
   20.0970   -8.2480   18.2390 C   0  0  0  0  0
   11.2670   -7.6380   18.0700 C   0  0  0  0  0
   12.5240   -6.6330   16.1800 C   0  0  0  0  0
   11.4760   -1.5170   18.3050 C   0  0  0  0  0
   11.7750   -0.7700   19.4800 C   0  0  0  0  0
   12.8530   -1.1540   20.3280 C   0  0  0  0  0
   13.6320   -2.2950   19.9910 C   0  0  0  0  0
   10.3730    0.0410   16.9580 O   0  0  0  0  0
    9.2200   -1.9640   17.1090 N   0  0  0  0  0
    8.3690   -1.6810   15.9200 C   0  0  0  0  0
    9.1310   -1.7450   14.5810 C   0  0  0  0  0
    9.3600   -3.1860   14.1140 C   0  0  0  0  0
    7.8550   -1.7460   19.9000 C   0  0  0  0  0
   14.6650   -4.9590   19.2940 O   0  0  0  0  0
   16.2420   -5.4200   15.8810 C   0  0  0  0  0
   17.2040   -4.9860   16.9780 C   0  0  0  0  0
   18.5270   -4.7260   16.4310 N   0  3  0  0  0
   19.5010   -4.4610   17.4840 C   0  0  0  0  0
   20.1030   -8.2490   19.6600 C   0  0  0  0  0
   19.9100   -7.0170   17.5460 C   0  0  0  0  0
   20.3510  -10.0460   17.1770 I   0  0  0  0  0
   12.4960   -7.3630   17.4160 C   0  0  0  0  0
   11.3020   -6.1940   15.6250 C   0  0  0  0  0
   10.0700   -6.4710   16.2770 C   0  0  0  0  0
   10.0490   -7.1910   17.4990 C   0  0  0  0  0
   11.2630   -8.3060   19.2050 F   0  0  0  0  0
    8.9520   -6.0520   15.7440 F   0  0  0  0  0
   16.7880   -6.5770   15.3220 O   0  0  0  0  0
   13.7324   -3.9297   16.4345 H   0  0  0  0  0
   12.0334   -3.2251   17.0771 H   0  0  0  0  0
   13.4057    0.6702   21.2945 H   0  0  0  0  0
   12.2993   -0.3614   22.2340 H   0  0  0  0  0
   14.0179   -0.8033   22.0851 H   0  0  0  0  0
    8.7142   -3.9784   17.3752 H   0  0  0  0  0
    9.7351   -3.2519   18.6776 H   0  0  0  0  0
    7.3680   -3.7596   19.3566 H   0  0  0  0  0
    6.8417   -2.4981   18.1695 H   0  0  0  0  0
   15.1234   -6.5116   17.2356 H   0  0  0  0  0
   14.2381   -7.2319   15.0322 H   0  0  0  0  0
   13.6637   -5.5728   14.6998 H   0  0  0  0  0
   19.5971   -4.8795   20.2437 H   0  0  0  0  0
   19.9294   -7.0397   21.4669 H   0  0  0  0  0
   11.1736    0.1033   19.7326 H   0  0  0  0  0
   14.4580   -2.5976   20.6346 H   0  0  0  0  0
    7.9859   -0.6663   16.0282 H   0  0  0  0  0
    7.5906   -2.4433   15.8881 H   0  0  0  0  0
   10.1045   -1.2753   14.7219 H   0  0  0  0  0
    8.5332   -1.2346   13.8258 H   0  0  0  0  0
    9.9443   -3.7207   14.8628 H   0  0  0  0  0
    8.3979   -3.6807   13.9808 H   0  0  0  0  0
    9.9001   -3.1783   13.1673 H   0  0  0  0  0
    8.6528   -2.0556   20.5751 H   0  0  0  0  0
    8.1350   -0.8148   19.4075 H   0  0  0  0  0
    6.9356   -1.5969   20.4662 H   0  0  0  0  0
   16.1066   -4.6301   15.1422 H   0  0  0  0  0
   17.2793   -5.7846   17.7160 H   0  0  0  0  0
   16.8265   -4.0714   17.4353 H   0  0  0  0  0
   18.4712   -3.9041   15.8295 H   0  0  0  0  0
   18.8292   -5.5509   15.9127 H   0  0  0  0  0
   20.4390   -4.1116   17.0524 H   0  0  0  0  0
   19.1321   -3.6841   18.1536 H   0  0  0  0  0
   20.2456   -9.1835   20.2026 H   0  0  0  0  0
   19.9058   -7.0115   16.4560 H   0  0  0  0  0
   13.4302   -7.7102   17.8574 H   0  0  0  0  0
   11.3037   -5.6375   14.6878 H   0  0  0  0  0
    9.1016   -7.3994   17.9961 H   0  0  0  0  0
   17.6452   -6.3731   14.9410 H   0  0  0  0  0
  1  6  1  0  0  0
  9  1  1  0  0  0
  2  3  4  0  0  0
  6  2  1  0  0  0
  2 20  4  0  0  0
  3 17  4  0  0  0
 17  4  1  0  0  0
  4 21  2  0  0  0
  4 22  1  0  0  0
 19  5  1  0  0  0
  6 27  2  0  0  0
  7  8  1  0  0  0
 22  7  1  0  0  0
  8 26  1  0  0  0
  9 10  1  0  0  0
 28  9  1  0  0  0
 10 16  1  0  0  0
 11 12  4  0  0  0
 31 11  1  0  0  0
 11 33  4  0  0  0
 12 13  4  0  0  0
 13 32  4  0  0  0
 14 32  4  0  0  0
 33 14  4  0  0  0
 14 34  1  0  0  0
 35 15  4  0  0  0
 15 38  4  0  0  0
 15 39  1  0  0  0
 16 35  4  0  0  0
 16 36  4  0  0  0
 17 18  4  0  0  0
 19 18  4  0  0  0
 20 19  4  0  0  0
 22 23  1  0  0  0
 23 24  1  0  0  0
 24 25  1  0  0  0
 29 28  1  0  0  0
 28 41  1  0  0  0
 30 29  1  0  0  0
 30 31  1  0  0  0
 36 37  4  0  0  0
 37 38  4  0  0  0
 37 40  1  0  0  0
  1 42  1  0  0  0
  3 43  1  0  0  0
  5 44  1  0  0  0
  5 45  1  0  0  0
  5 46  1  0  0  0
  7 47  1  0  0  0
  7 48  1  0  0  0
  8 49  1  0  0  0
  8 50  1  0  0  0
  9 51  1  0  0  0
 10 52  1  0  0  0
 10 53  1  0  0  0
 12 54  1  0  0  0
 13 55  1  0  0  0
 18 56  1  0  0  0
 20 57  1  0  0  0
 23 58  1  0  0  0
 23 59  1  0  0  0
 24 60  1  0  0  0
 24 61  1  0  0  0
 25 62  1  0  0  0
 25 63  1  0  0  0
 25 64  1  0  0  0
 26 65  1  0  0  0
 26 66  1  0  0  0
 26 67  1  0  0  0
 28 68  1  0  0  0
 29 69  1  0  0  0
 29 70  1  0  0  0
 30 71  1  0  0  0
 30 72  1  0  0  0
 31 73  1  0  0  0
 31 74  1  0  0  0
 32 75  1  0  0  0
 33 76  1  0  0  0
 35 77  1  0  0  0
 36 78  1  0  0  0
 38 79  1  0  0  0
 41 80  1  0  0  0
M  END
$$$$
