6imd_ligand
  -I-interpret- 

 31 32  0  0  0  0  0  0  0  0999 V2000
   23.3090   -2.0840   23.6300 C   0  0  0  0  0
   23.5100   -2.1050   25.0150 C   0  0  0  0  0
   24.3910   -3.0240   25.5780 C   0  0  0  0  0
   22.8910   -2.1540   20.8240 C   0  0  0  0  0
   22.7510   -1.1160   25.8620 C   0  0  0  0  0
   23.5920   -2.2940   27.8440 C   0  0  0  0  0
   24.6320   -3.0760   27.0670 C   0  0  0  0  0
   26.3340   -5.7260   23.0520 C   0  0  0  0  0
   23.7750    0.1620   27.7160 C   0  0  0  0  0
   23.3770   -1.0110   27.1800 N   0  0  0  0  0
   23.9750   -2.9670   22.8030 C   0  0  0  0  0
   25.0600   -3.9190   24.7340 C   0  0  0  0  0
   24.8640   -3.9000   23.3720 C   0  0  0  0  0
   25.4780   -4.7390   22.4890 O   0  0  0  0  0
   23.8360   -3.0350   21.4390 O   0  0  0  0  0
   24.5450    0.2680   28.6520 O   0  0  0  0  0
   22.6173   -1.3607   23.1982 H   0  0  0  0  0
   21.8970   -2.3524   21.2248 H   0  0  0  0  0
   23.1692   -1.1212   21.0337 H   0  0  0  0  0
   22.8895   -2.3196   19.7467 H   0  0  0  0  0
   21.7215   -1.4551   25.9775 H   0  0  0  0  0
   22.7651   -0.1399   25.3770 H   0  0  0  0  0
   23.9390   -2.1291   28.8640 H   0  0  0  0  0
   22.6575   -2.8540   27.8783 H   0  0  0  0  0
   25.6080   -2.6341   27.2678 H   0  0  0  0  0
   24.5781   -4.1179   27.3827 H   0  0  0  0  0
   27.1333   -5.2370   23.6089 H   0  0  0  0  0
   25.7590   -6.3635   23.7236 H   0  0  0  0  0
   26.7633   -6.3311   22.2534 H   0  0  0  0  0
   23.3787    1.0788   27.2796 H   0  0  0  0  0
   25.7497   -4.6451   25.1644 H   0  0  0  0  0
  1  2  4  0  0  0
 11  1  4  0  0  0
  3  2  4  0  0  0
  2  5  1  0  0  0
  3  7  1  0  0  0
 12  3  4  0  0  0
 15  4  1  0  0  0
  5 10  1  0  0  0
  7  6  1  0  0  0
  6 10  1  0  0  0
 14  8  1  0  0  0
 10  9  1  0  0  0
  9 16  2  0  0  0
 13 11  4  0  0  0
 11 15  1  0  0  0
 13 12  4  0  0  0
 13 14  1  0  0  0
  1 17  1  0  0  0
  4 18  1  0  0  0
  4 19  1  0  0  0
  4 20  1  0  0  0
  5 21  1  0  0  0
  5 22  1  0  0  0
  6 23  1  0  0  0
  6 24  1  0  0  0
  7 25  1  0  0  0
  7 26  1  0  0  0
  8 27  1  0  0  0
  8 28  1  0  0  0
  8 29  1  0  0  0
  9 30  1  0  0  0
 12 31  1  0  0  0
M  END
$$$$
