6r5f_ligand
  -I-interpret- 

 49 52  0  0  0  0  0  0  0  0999 V2000
   11.3660   11.1560    9.7530 C   0  0  0  0  0
   11.5980   12.2240    8.6950 C   0  0  0  0  0
   14.7740   13.4820    9.5490 C   0  0  0  0  0
   13.4150   13.3120    6.2320 C   0  0  0  0  0
   14.3340   12.3280    5.8660 C   0  0  0  0  0
   14.4320   11.9640    4.5390 C   0  0  0  0  0
   13.6480   12.4930    3.5450 C   0  0  0  0  0
    5.3940    9.1310   13.5860 C   0  0  0  0  0
    6.5070    8.9490   12.6130 C   0  0  0  0  0
    8.3590    9.0470   11.5540 C   0  0  0  0  0
   10.4230    8.8940   10.2320 C   0  0  0  0  0
   10.6860    9.9260    9.1450 C   0  0  0  0  0
   10.5150   11.7090   10.9120 C   0  0  0  0  0
   10.2060   10.6130   11.9300 C   0  0  0  0  0
   14.5930   14.2820    8.2610 C   0  0  0  0  0
   13.2760   13.7850    7.6620 C   0  0  0  0  0
   12.7440   13.4440    3.9440 C   0  0  0  0  0
   12.5980   13.8590    5.2450 C   0  0  0  0  0
   15.3780   11.0550    4.1830 F   0  0  0  0  0
   11.9580   14.0110    3.0020 F   0  0  0  0  0
    6.3700    8.1360   11.5720 N   0  0  0  0  0
    7.5620    8.2060   10.8820 N   0  0  0  0  0
    9.5890    9.4700   11.2840 N   0  0  0  0  0
   12.8400   12.7130    8.5780 N   0  0  0  0  0
   13.9510   12.2880    9.3610 N   0  3  0  0  0
    7.7580    9.5510   12.6700 O   0  0  0  0  0
   10.6820   12.6450    8.0010 O   0  0  0  0  0
   12.3386   10.8588   10.1451 H   0  0  0  0  0
   14.4713   14.0511   10.4279 H   0  0  0  0  0
   15.8194   13.2318    9.7296 H   0  0  0  0  0
   14.9652   11.8539    6.6176 H   0  0  0  0  0
   13.7378   12.1778    2.5054 H   0  0  0  0  0
    4.5194    9.5226   13.0666 H   0  0  0  0  0
    5.1490    8.1706   14.0396 H   0  0  0  0  0
    5.7020    9.8325   14.3614 H   0  0  0  0  0
   11.3736    8.5795   10.6627 H   0  0  0  0  0
    9.9063    8.0395    9.7950 H   0  0  0  0  0
   11.3367    9.4924    8.3856 H   0  0  0  0  0
    9.7397   10.2233    8.6931 H   0  0  0  0  0
    9.5762   12.0883   10.5085 H   0  0  0  0  0
   11.0722   12.5031   11.4091 H   0  0  0  0  0
    9.5172   11.0097   12.6758 H   0  0  0  0  0
   11.1379   10.2930   12.3961 H   0  0  0  0  0
   15.4275   14.1347    7.5755 H   0  0  0  0  0
   14.5677   15.3545    8.4539 H   0  0  0  0  0
   12.5395   14.5851    7.5872 H   0  0  0  0  0
   11.8502   14.6090    5.5028 H   0  0  0  0  0
   13.6516   11.8955   10.2536 H   0  0  0  0  0
   14.4721   11.5433    8.8981 H   0  0  0  0  0
  2  1  1  0  0  0
  1 12  1  0  0  0
  1 13  1  0  0  0
 24  2  1  0  0  0
  2 27  2  0  0  0
 15  3  1  0  0  0
  3 25  1  0  0  0
  4  5  4  0  0  0
 16  4  1  0  0  0
  4 18  4  0  0  0
  5  6  4  0  0  0
  6  7  4  0  0  0
  6 19  1  0  0  0
  7 17  4  0  0  0
  9  8  1  0  0  0
  9 21  4  0  0  0
 26  9  4  0  0  0
 10 22  4  0  0  0
 23 10  1  0  0  0
 10 26  4  0  0  0
 12 11  1  0  0  0
 11 23  1  0  0  0
 13 14  1  0  0  0
 14 23  1  0  0  0
 16 15  1  0  0  0
 16 24  1  0  0  0
 17 18  4  0  0  0
 17 20  1  0  0  0
 21 22  4  0  0  0
 24 25  1  0  0  0
  1 28  1  0  0  0
  3 29  1  0  0  0
  3 30  1  0  0  0
  5 31  1  0  0  0
  7 32  1  0  0  0
  8 33  1  0  0  0
  8 34  1  0  0  0
  8 35  1  0  0  0
 11 36  1  0  0  0
 11 37  1  0  0  0
 12 38  1  0  0  0
 12 39  1  0  0  0
 13 40  1  0  0  0
 13 41  1  0  0  0
 14 42  1  0  0  0
 14 43  1  0  0  0
 15 44  1  0  0  0
 15 45  1  0  0  0
 16 46  1  0  0  0
 18 47  1  0  0  0
 25 48  1  0  0  0
 25 49  1  0  0  0
M  END
$$$$
