3u8m_ligand
  -I-interpret- 

 29 30  0  0  0  0  0  0  0  0999 V2000
  -33.1880   76.5370  -26.3820 C   0  0  0  0  0
  -32.9820   76.3340  -27.7670 C   0  0  0  0  0
  -34.1270   75.8480  -28.5000 C   0  0  0  0  0
  -35.3370   75.5880  -27.8090 C   0  0  0  0  0
  -35.4010   75.8380  -26.4110 C   0  0  0  0  0
  -34.3420   76.3050  -25.7300 N   0  0  0  0  0
  -36.7820   75.5320  -25.4170 Br  0  0  0  0  0
  -31.7320   76.6090  -28.2690 N   0  0  0  0  0
  -30.8270   77.5110  -27.5470 C   0  0  0  0  0
  -29.9070   78.2590  -28.5200 C   0  0  0  0  0
  -30.6710   79.2140  -29.3310 N   0  3  0  0  0
  -31.1700   78.7390  -30.6550 C   0  0  0  0  0
  -31.5940   77.2590  -30.8310 C   0  0  0  0  0
  -31.3370   76.2710  -29.6560 C   0  0  0  0  0
  -32.3468   76.9102  -25.7979 H   0  0  0  0  0
  -34.0615   75.6825  -29.5754 H   0  0  0  0  0
  -36.2059   75.2019  -28.3419 H   0  0  0  0  0
  -30.2122   76.9203  -26.8678 H   0  0  0  0  0
  -31.4234   78.2401  -26.9985 H   0  0  0  0  0
  -29.4340   77.5347  -29.1831 H   0  0  0  0  0
  -29.1588   78.8055  -27.9459 H   0  0  0  0  0
  -30.0287   79.9795  -29.5356 H   0  0  0  0  0
  -31.5034   79.4370  -28.7852 H   0  0  0  0  0
  -30.3223   78.8637  -31.3288 H   0  0  0  0  0
  -32.0839   79.3084  -30.8244 H   0  0  0  0  0
  -30.9892   76.8846  -31.6569 H   0  0  0  0  0
  -32.6770   77.2842  -30.9517 H   0  0  0  0  0
  -31.9527   75.4056  -29.9010 H   0  0  0  0  0
  -30.2506   76.1958  -29.6088 H   0  0  0  0  0
  1  2  4  0  0  0
  1  6  4  0  0  0
  2  3  4  0  0  0
  2  8  1  0  0  0
  3  4  4  0  0  0
  4  5  4  0  0  0
  5  6  4  0  0  0
  5  7  1  0  0  0
  8  9  1  0  0  0
  8 14  1  0  0  0
  9 10  1  0  0  0
 10 11  1  0  0  0
 11 12  1  0  0  0
 12 13  1  0  0  0
 13 14  1  0  0  0
  1 15  1  0  0  0
  3 16  1  0  0  0
  4 17  1  0  0  0
  9 18  1  0  0  0
  9 19  1  0  0  0
 10 20  1  0  0  0
 10 21  1  0  0  0
 11 22  1  0  0  0
 11 23  1  0  0  0
 12 24  1  0  0  0
 12 25  1  0  0  0
 13 26  1  0  0  0
 13 27  1  0  0  0
 14 28  1  0  0  0
 14 29  1  0  0  0
M  END
$$$$
