5aen_ligand
  -I-interpret- 

 39 40  0  0  0  0  0  0  0  0999 V2000
    5.4580   -2.8940   -0.6780 C   0  0  0  0  0
    4.9810   -1.8670   -1.5540 N   0  3  0  0  0
    7.3480   -0.6490   -1.6890 O   0  0  0  0  0
   13.9420   -2.3650    1.8730 C   0  0  0  0  0
   12.4180    0.6240    0.2890 O   0  0  0  0  0
   14.3230   -1.8260    3.0900 C   0  0  0  0  0
   14.0600   -0.4880    3.3720 C   0  0  0  0  0
   13.4160    0.3090    2.4380 C   0  0  0  0  0
   13.0290   -0.2230    1.2250 C   0  0  0  0  0
   13.2880   -1.5590    0.9300 C   0  0  0  0  0
   11.1390    0.2610   -0.2190 C   0  0  0  0  0
   10.0270    0.4230    0.5800 C   0  0  0  0  0
    8.7960    0.1280    0.0760 C   0  0  0  0  0
    8.6690   -0.3520   -1.2260 C   0  0  0  0  0
    9.7830   -0.5030   -2.0340 C   0  0  0  0  0
   11.0190   -0.1870   -1.5310 C   0  0  0  0  0
    7.1940   -1.6870   -2.6420 C   0  0  0  0  0
    5.6980   -1.8650   -2.8110 C   0  0  0  0  0
    3.5830   -2.1430   -1.8110 C   0  0  0  0  0
    5.3244   -3.8659   -1.1530 H   0  0  0  0  0
    6.5158   -2.7313   -0.4716 H   0  0  0  0  0
    4.8956   -2.8639    0.2552 H   0  0  0  0  0
    5.1186   -0.9555   -1.1174 H   0  0  0  0  0
   14.1495   -3.4113    1.6488 H   0  0  0  0  0
   14.8289   -2.4491    3.8275 H   0  0  0  0  0
   14.3615   -0.0657    4.3305 H   0  0  0  0  0
   13.2152    1.3567    2.6621 H   0  0  0  0  0
   12.9837   -1.9765   -0.0298 H   0  0  0  0  0
   10.1316    0.7831    1.6035 H   0  0  0  0  0
    7.9083    0.2678    0.6928 H   0  0  0  0  0
    9.6791   -0.8680   -3.0558 H   0  0  0  0  0
   11.9054   -0.2865   -2.1575 H   0  0  0  0  0
    7.6702   -2.6089   -2.3081 H   0  0  0  0  0
    7.6750   -1.4353   -3.5872 H   0  0  0  0  0
    5.3292   -1.0262   -3.4013 H   0  0  0  0  0
    5.5312   -2.8303   -3.2890 H   0  0  0  0  0
    3.1764   -1.3727   -2.4663 H   0  0  0  0  0
    3.4885   -3.1171   -2.2910 H   0  0  0  0  0
    3.0354   -2.1463   -0.8685 H   0  0  0  0  0
  2  1  1  0  0  0
 18  2  1  0  0  0
  2 19  1  0  0  0
  3 14  1  0  0  0
 17  3  1  0  0  0
  4  6  4  0  0  0
 10  4  4  0  0  0
  5  9  1  0  0  0
 11  5  1  0  0  0
  7  6  4  0  0  0
  8  7  4  0  0  0
  9  8  4  0  0  0
  9 10  4  0  0  0
 12 11  4  0  0  0
 16 11  4  0  0  0
 13 12  4  0  0  0
 14 13  4  0  0  0
 14 15  4  0  0  0
 15 16  4  0  0  0
 17 18  1  0  0  0
  1 20  1  0  0  0
  1 21  1  0  0  0
  1 22  1  0  0  0
  2 23  1  0  0  0
  4 24  1  0  0  0
  6 25  1  0  0  0
  7 26  1  0  0  0
  8 27  1  0  0  0
 10 28  1  0  0  0
 12 29  1  0  0  0
 13 30  1  0  0  0
 15 31  1  0  0  0
 16 32  1  0  0  0
 17 33  1  0  0  0
 17 34  1  0  0  0
 18 35  1  0  0  0
 18 36  1  0  0  0
 19 37  1  0  0  0
 19 38  1  0  0  0
 19 39  1  0  0  0
M  END
$$$$
