3ur0_ligand
  -I-interpret- 

 37 38  0  0  0  0  0  0  0  0999 V2000
  -50.0210   19.2320   32.8380 C   0  0  0  0  0
  -49.2540   20.5330   33.1390 C   0  0  0  0  0
  -48.6860   20.6740   34.2240 O   0  0  0  0  0
  -49.3030   21.4590   32.1560 N   0  0  0  0  0
  -48.6980   22.6730   32.1430 C   0  0  0  0  0
  -47.4000   22.7390   32.6600 C   0  0  0  0  0
  -46.6980   23.9350   32.6740 C   0  0  0  0  0
  -47.2700   25.0950   32.1560 C   0  0  0  0  0
  -46.3180   26.5950   32.2030 S   0  0  0  0  0
  -44.8920   26.2820   32.5700 O   0  0  0  0  0
  -46.3290   27.2580   30.8510 O   0  0  0  0  0
  -46.8780   27.4650   33.1920 O   0  0  0  0  0
  -49.2940   23.8480   31.6000 C   0  0  0  0  0
  -48.5690   25.0570   31.6210 C   0  0  0  0  0
  -49.1360   26.2350   31.1050 C   0  0  0  0  0
  -50.5880   23.8990   31.0380 C   0  0  0  0  0
  -51.6740   22.5940   30.9090 S   0  0  0  0  0
  -52.7820   23.0100   30.0980 O   0  0  0  0  0
  -50.9980   21.4170   30.2820 O   0  0  0  0  0
  -52.1540   22.2620   32.2940 O   0  0  0  0  0
  -51.1320   25.0680   30.5340 C   0  0  0  0  0
  -50.4240   26.2470   30.5620 C   0  0  0  0  0
  -51.2000   27.6810   29.8840 S   0  0  0  0  0
  -52.3990   27.9920   30.6030 O   0  0  0  0  0
  -51.5230   27.3820   28.4490 O   0  0  0  0  0
  -50.2510   28.8430   29.9640 O   0  0  0  0  0
  -49.3347   18.3868   32.8901 H   0  0  0  0  0
  -50.8158   19.1021   33.5725 H   0  0  0  0  0
  -50.4535   19.2895   31.8391 H   0  0  0  0  0
  -49.8558   21.2186   31.3332 H   0  0  0  0  0
  -46.9336   21.8376   33.0575 H   0  0  0  0  0
  -45.6923   23.9677   33.0930 H   0  0  0  0  0
  -47.2336   27.4635   30.6040 H   0  0  0  0  0
  -48.5588   27.1593   31.1288 H   0  0  0  0  0
  -51.4088   21.9845   32.8318 H   0  0  0  0  0
  -52.1356   25.0540   30.1089 H   0  0  0  0  0
  -49.4481   28.6328   29.4816 H   0  0  0  0  0
  1  2  1  0  0  0
  2  3  2  0  0  0
  2  4  1  0  0  0
  4  5  1  0  0  0
  5  6  4  0  0  0
  5 13  4  0  0  0
  6  7  4  0  0  0
  7  8  4  0  0  0
  8  9  1  0  0  0
  8 14  4  0  0  0
  9 10  2  0  0  0
  9 11  1  0  0  0
  9 12  2  0  0  0
 13 14  4  0  0  0
 13 16  4  0  0  0
 14 15  4  0  0  0
 15 22  4  0  0  0
 16 17  1  0  0  0
 16 21  4  0  0  0
 17 18  2  0  0  0
 17 19  2  0  0  0
 17 20  1  0  0  0
 21 22  4  0  0  0
 22 23  1  0  0  0
 23 24  2  0  0  0
 23 25  2  0  0  0
 23 26  1  0  0  0
  1 27  1  0  0  0
  1 28  1  0  0  0
  1 29  1  0  0  0
  4 30  1  0  0  0
  6 31  1  0  0  0
  7 32  1  0  0  0
 11 33  1  0  0  0
 15 34  1  0  0  0
 20 35  1  0  0  0
 21 36  1  0  0  0
 26 37  1  0  0  0
M  END
$$$$
