### 
### Created by X-TOOL on Mon Sep 10 21:12:56 2018
### 

@<TRIPOS>MOLECULE
2qqs_ligand
  159   159     1     0     0
SMALL
GAST_HUCK


@<TRIPOS>ATOM
      1 N          19.5220  -15.6920   14.6490 N.4       1 ARG         0.2379
      2 CA         18.0980  -15.9010   14.3670 C.3       1 ARG         0.0651
      3 C          17.8800  -15.9850   12.8610 C.2       1 ARG         0.2268
      4 O          18.7350  -15.5730   12.0740 O.2       1 ARG        -0.3907
      5 CB         17.2750  -14.7620   14.9650 C.3       1 ARG         0.0110
      6 CG         16.8070  -14.9740   16.4020 C.3       1 ARG        -0.0125
      7 CD         16.1210  -13.7230   16.9700 C.3       1 ARG         0.0629
      8 NE         14.8090  -13.9850   17.5690 N.pl3     1 ARG        -0.2723
      9 CZ         14.6110  -14.3550   18.8280 C.cat     1 ARG         0.2882
     10 NH1        15.6310  -14.5340   19.6610 N.pl3     1 ARG        -0.2849
     11 NH2        13.3810  -14.5610   19.2610 N.pl3     1 ARG        -0.2849
     12 N          16.7350  -16.5340   12.4660 N.am      1 HIS        -0.2598
     13 CA         16.3950  -16.6350   11.0600 C.3       1 HIS         0.1370
     14 C          15.5250  -15.4870   10.6400 C.2       1 HIS         0.2054
     15 O          14.9660  -14.8020   11.4770 O.2       1 HIS        -0.3942
     16 CB         15.7200  -17.9660   10.7150 C.3       1 HIS         0.0145
     17 CG         14.9310  -18.5740   11.8310 C.2       1 HIS        -0.0027
     18 ND1        13.5990  -18.9010   11.7040 N.2       1 HIS        -0.3252
     19 CD2        15.2970  -18.9680   13.0730 C.2       1 HIS         0.0291
     20 CE1        13.1710  -19.4470   12.8270 C.2       1 HIS         0.0907
     21 NE2        14.1830  -19.5020   13.6740 N.pl3     1 HIS        -0.2752
     22 N          15.4190  -15.2960    9.3330 N.am      1 ARG        -0.2636
     23 CA         14.6930  -14.1670    8.7640 C.3       1 ARG         0.1311
     24 C          13.1500  -14.1290    8.8020 C.2       1 ARG         0.2039
     25 O          12.5920  -13.0250    8.7090 O.2       1 ARG        -0.3944
     26 CB         15.1820  -13.8490    7.3360 C.3       1 ARG        -0.0092
     27 CG         14.5690  -12.5440    6.7580 C.3       1 ARG        -0.0156
     28 CD         15.5070  -11.8350    5.8100 C.3       1 ARG         0.0627
     29 NE         15.2320  -10.4020    5.7450 N.pl3     1 ARG        -0.2723
     30 CZ         15.8480   -9.4790    6.4780 C.cat     1 ARG         0.2882
     31 NH1        16.7860   -9.8200    7.3460 N.pl3     1 ARG        -0.2849
     32 NH2        15.5230   -8.2010    6.3360 N.pl3     1 ARG        -0.2849
     33 N          12.4390  -15.2550    8.9010 N.am      1 M3L        -0.2637
     34 CA         10.9630  -15.1070    8.9610 C.3       1 M3L         0.1310
     35 CB         10.1570  -15.9620    9.9380 C.3       1 M3L        -0.0122
     36 CG          8.7920  -15.2980   10.1150 C.3       1 M3L        -0.0440
     37 CD          8.3000  -15.2700   11.5460 C.3       1 M3L        -0.0123
     38 CE          7.1780  -16.2930   11.7520 C.3       1 M3L        -0.0309
     39 NZ          6.0900  -15.8630   12.6570 N.4       1 M3L         0.2369
     40 C          10.2360  -14.9750    7.6440 C.2       1 M3L         0.2039
     41 O          10.1380  -13.8630    7.1260 O.2       1 M3L        -0.3944
     42 CM1         5.6840  -14.4730   12.4500 C.3       1 M3L        -0.0418
     43 CM2         4.9480  -16.7130   12.3640 C.3       1 M3L        -0.0418
     44 CM3         6.4250  -16.0690   14.0610 C.3       1 M3L        -0.0418
     45 N           9.7160  -16.0840    7.0980 N.am      1 VAL        -0.2635
     46 CA          8.6710  -16.0280    6.0320 C.3       1 VAL         0.1332
     47 C           7.5000  -17.0670    6.2030 C.2       1 VAL         0.2041
     48 O           6.9150  -17.5390    5.2120 O.2       1 VAL        -0.3944
     49 CB          9.2470  -15.9890    4.5510 C.3       1 VAL        -0.0063
     50 CG1         8.3330  -15.1270    3.6550 C.3       1 VAL        -0.0584
     51 CG2        10.6930  -15.4370    4.4780 C.3       1 VAL        -0.0584
     52 N           7.1940  -17.4400    7.4760 N.am      1 LEU        -0.2637
     53 CA          5.9220  -18.1600    7.7850 C.3       1 LEU         0.1312
     54 C           5.0290  -17.2040    8.6290 C.2       1 LEU         0.2040
     55 O           5.5390  -16.1740    9.0720 O.2       1 LEU        -0.3944
     56 CB          6.1970  -19.4550    8.6080 C.3       1 LEU        -0.0101
     57 CG          7.0680  -20.6770    8.2230 C.3       1 LEU        -0.0425
     58 CD1         6.6860  -21.3130    6.8410 C.3       1 LEU        -0.0625
     59 CD2         8.5820  -20.3670    8.3370 C.3       1 LEU        -0.0625
     60 N           3.7650  -17.5390    8.9490 N.am      1 ARG        -0.2624
     61 CA          2.9990  -18.7560    8.5760 C.3       1 ARG         0.1421
     62 C           3.8130  -20.0420    8.2650 C.2       1 ARG         0.2571
     63 O           3.3430  -20.9970    7.6310 O.2       1 ARG        -0.3680
     64 CB          1.9980  -18.4020    7.4570 C.3       1 ARG        -0.0079
     65 CG          2.6330  -18.0690    6.1090 C.3       1 ARG        -0.0155
     66 CD          2.1200  -16.7560    5.5600 C.3       1 ARG         0.0627
     67 NE          3.1790  -16.0770    4.8130 N.pl3     1 ARG        -0.2723
     68 CZ          3.2420  -14.7640    4.6110 C.cat     1 ARG         0.2882
     69 NH1         2.3040  -13.9520    5.0910 N.pl3     1 ARG        -0.2849
     70 NH2         4.2600  -14.2600    3.9300 N.pl3     1 ARG        -0.2849
     71 H1         19.6626  -15.6369   15.6456 H         1 ARG         0.2015
     72 H2         19.8272  -14.8331   14.2187 H         1 ARG         0.2015
     73 H3         20.0549  -16.4623   14.2766 H         1 ARG         0.2015
     74 H4         17.7780  -16.8481   14.8258 H         1 ARG         0.1098
     75 H5         16.3839  -14.6210   14.3357 H         1 ARG         0.0347
     76 H6         17.8897  -13.8501   14.9398 H         1 ARG         0.0347
     77 H7         17.6783  -15.2171   17.0278 H         1 ARG         0.0302
     78 H8         16.0944  -15.8116   16.4243 H         1 ARG         0.0302
     79 H9         15.9900  -12.9986   16.1526 H         1 ARG         0.0689
     80 H10        16.7740  -13.2904   17.7423 H         1 ARG         0.0689
     81 H11        13.9796  -13.8737   16.9684 H         1 ARG         0.2642
     82 H12        15.4565  -14.8213   20.6346 H         1 ARG         0.2615
     83 H13        16.5960  -14.3854   19.3330 H         1 ARG         0.2615
     84 H14        12.5819  -14.4258   18.6254 H         1 ARG         0.2615
     85 H15        13.2205  -14.8570   20.2344 H         1 ARG         0.2615
     86 H16        16.0964  -16.8838   13.1515 H         1 HIS         0.1886
     87 H17        17.3323  -16.5782   10.4871 H         1 HIS         0.0817
     88 H18        16.5023  -18.6806   10.4195 H         1 HIS         0.0420
     89 H19        15.0397  -17.7958    9.8675 H         1 HIS         0.0420
     90 H20        16.2889  -18.8785   13.5135 H         1 HIS         0.0729
     91 H21        12.1569  -19.7929   13.0218 H         1 HIS         0.1199
     92 H22        14.1434  -19.8834   14.6300 H         1 HIS         0.2361
     93 H23        15.8531  -15.9505    8.7140 H         1 ARG         0.1883
     94 H24        14.9998  -13.3143    9.3875 H         1 ARG         0.0800
     95 H25        14.9074  -14.6862    6.6774 H         1 ARG         0.0313
     96 H26        16.2766  -13.7423    7.3565 H         1 ARG         0.0313
     97 H27        14.3313  -11.8666    7.5914 H         1 ARG         0.0301
     98 H28        13.6456  -12.7975    6.2167 H         1 ARG         0.0301
     99 H29        15.3899  -12.2659    4.8047 H         1 ARG         0.0689
    100 H30        16.5410  -11.9837    6.1546 H         1 ARG         0.0689
    101 H31        14.5091  -10.0835    5.0840 H         1 ARG         0.2642
    102 H32        17.2557   -9.0956    7.9078 H         1 ARG         0.2615
    103 H33        17.0468  -10.8099    7.4601 H         1 ARG         0.2615
    104 H34        14.7937   -7.9269    5.6623 H         1 ARG         0.2615
    105 H35        15.9999   -7.4826    6.8994 H         1 ARG         0.2615
    106 H36        12.8786  -16.1526    8.9331 H         1 M3L         0.1883
    107 H37        10.8676  -14.1009    9.3954 H         1 M3L         0.0800
    108 H38        10.6763  -16.0158   10.9062 H         1 M3L         0.0312
    109 H39        10.0308  -16.9768    9.5327 H         1 M3L         0.0312
    110 H40         8.0584  -15.8489    9.5081 H         1 M3L         0.0269
    111 H41         8.8624  -14.2615    9.7535 H         1 M3L         0.0269
    112 H42         7.9189  -14.2644   11.7774 H         1 M3L         0.0317
    113 H43         9.1356  -15.5096   12.2201 H         1 M3L         0.0317
    114 H44         7.6245  -17.2082   12.1680 H         1 M3L         0.0815
    115 H45         6.7354  -16.5147   10.7697 H         1 M3L         0.0815
    116 H46         4.8756  -14.2188   13.1514 H         1 M3L         0.0778
    117 H47         5.3272  -14.3451   11.4174 H         1 M3L         0.0778
    118 H48         6.5438  -13.8098   12.6257 H         1 M3L         0.0778
    119 H49         5.2275  -17.7665   12.5124 H         1 M3L         0.0778
    120 H50         4.6352  -16.5601   11.3206 H         1 M3L         0.0778
    121 H51         4.1171  -16.4558   13.0373 H         1 M3L         0.0778
    122 H52         7.2885  -15.4419   14.3277 H         1 M3L         0.0778
    123 H53         6.6753  -17.1272   14.2268 H         1 M3L         0.0778
    124 H54         5.5641  -15.7932   14.6877 H         1 M3L         0.0778
    125 H55        10.0379  -16.9764    7.4144 H         1 VAL         0.1883
    126 H56         8.1936  -15.0468    6.1710 H         1 VAL         0.0802
    127 H57         9.2538  -17.0181    4.1626 H         1 VAL         0.0343
    128 H58         8.7376  -15.1046    2.6324 H         1 VAL         0.0234
    129 H59         8.2884  -14.1029    4.0541 H         1 VAL         0.0234
    130 H60         7.3215  -15.5590    3.6397 H         1 VAL         0.0234
    131 H61        11.3508  -16.0469    5.1147 H         1 VAL         0.0234
    132 H62        10.7058  -14.3948    4.8296 H         1 VAL         0.0234
    133 H63        11.0489  -15.4776    3.4380 H         1 VAL         0.0234
    134 H64         7.8315  -17.2285    8.2168 H         1 LEU         0.1883
    135 H65         5.4103  -18.4248    6.8480 H         1 LEU         0.0800
    136 H66         5.1994  -19.8770    8.7995 H         1 LEU         0.0315
    137 H67         6.6302  -19.0945    9.5527 H         1 LEU         0.0315
    138 H68         6.8559  -21.4490    8.9773 H         1 LEU         0.0298
    139 H69         7.3443  -22.1705    6.6375 H         1 LEU         0.0232
    140 H70         6.8058  -20.5621    6.0461 H         1 LEU         0.0232
    141 H71         5.6401  -21.6525    6.8701 H         1 LEU         0.0232
    142 H72         8.7925  -19.9245    9.3218 H         1 LEU         0.0232
    143 H73         8.8717  -19.6583    7.5472 H         1 LEU         0.0232
    144 H74         9.1565  -21.2981    8.2230 H         1 LEU         0.0232
    145 H75         3.2740  -16.8775    9.5159 H         1 ARG         0.1885
    146 H76         2.3987  -19.0093    9.4623 H         1 ARG         0.0816
    147 O           5.0681  -20.1212    8.6978 O.3       1 ARG        -0.2910
    148 H77         1.4138  -17.5294    7.7844 H         1 ARG         0.0315
    149 H78         1.3258  -19.2611    7.3152 H         1 ARG         0.0315
    150 H79         2.3958  -18.8713    5.3949 H         1 ARG         0.0301
    151 H80         3.7236  -18.0011    6.2353 H         1 ARG         0.0301
    152 H81         1.7939  -16.1156    6.3928 H         1 ARG         0.0689
    153 H82         1.2687  -16.9490    4.8907 H         1 ARG         0.0689
    154 H83         3.9303  -16.6581    4.4146 H         1 ARG         0.2642
    155 H84         2.3675  -12.9373    4.9258 H         1 ARG         0.2615
    156 H85         1.5143  -14.3380    5.6279 H         1 ARG         0.2615
    157 H86         4.9890  -14.8843    3.5562 H         1 ARG         0.2615
    158 H87         4.3227  -13.2438    3.7742 H         1 ARG         0.2615
    159 H88         5.6514  -20.2302    7.9559 H         1 ARG         0.2540
@<TRIPOS>BOND
     1    1    2 1  
     2    2    3 1  
     3    2    5 1  
     4    3    4 2  
     5    3   12 am 
     6    5    6 1  
     7    6    7 1  
     8    7    8 1  
     9    8    9 ar 
    10    9   10 ar 
    11    9   11 ar 
    12   12   13 1  
    13   13   14 1  
    14   13   16 1  
    15   14   15 2  
    16   14   22 am 
    17   16   17 1  
    18   17   18 1  
    19   17   19 2  
    20   18   20 2  
    21   19   21 1  
    22   20   21 1  
    23   22   23 1  
    24   23   24 1  
    25   23   26 1  
    26   24   25 2  
    27   24   33 am 
    28   26   27 1  
    29   27   28 1  
    30   28   29 1  
    31   29   30 ar 
    32   30   31 ar 
    33   30   32 ar 
    34   33   34 1  
    35   34   35 1  
    36   34   40 1  
    37   35   36 1  
    38   36   37 1  
    39   37   38 1  
    40   38   39 1  
    41   39   42 1  
    42   39   43 1  
    43   39   44 1  
    44   40   41 2  
    45   40   45 am 
    46   45   46 1  
    47   46   47 1  
    48   46   49 1  
    49   47   48 2  
    50   47   52 am 
    51   49   50 1  
    52   49   51 1  
    53   52   53 1  
    54   53   54 1  
    55   53   56 1  
    56   54   55 2  
    57   54   60 am 
    58   56   57 1  
    59   57   58 1  
    60   57   59 1  
    61   60   61 1  
    62   61   62 1  
    63   61   64 1  
    64   62   63 2  
    65   64   65 1  
    66   65   66 1  
    67   66   67 1  
    68   67   68 ar 
    69   68   69 ar 
    70   68   70 ar 
    71    1   71 1  
    72    1   72 1  
    73    1   73 1  
    74    2   74 1  
    75    5   75 1  
    76    5   76 1  
    77    6   77 1  
    78    6   78 1  
    79    7   79 1  
    80    7   80 1  
    81    8   81 1  
    82   10   82 1  
    83   10   83 1  
    84   11   84 1  
    85   11   85 1  
    86   12   86 1  
    87   13   87 1  
    88   16   88 1  
    89   16   89 1  
    90   19   90 1  
    91   20   91 1  
    92   21   92 1  
    93   22   93 1  
    94   23   94 1  
    95   26   95 1  
    96   26   96 1  
    97   27   97 1  
    98   27   98 1  
    99   28   99 1  
   100   28  100 1  
   101   29  101 1  
   102   31  102 1  
   103   31  103 1  
   104   32  104 1  
   105   32  105 1  
   106   33  106 1  
   107   34  107 1  
   108   35  108 1  
   109   35  109 1  
   110   36  110 1  
   111   36  111 1  
   112   37  112 1  
   113   37  113 1  
   114   38  114 1  
   115   38  115 1  
   116   42  116 1  
   117   42  117 1  
   118   42  118 1  
   119   43  119 1  
   120   43  120 1  
   121   43  121 1  
   122   44  122 1  
   123   44  123 1  
   124   44  124 1  
   125   45  125 1  
   126   46  126 1  
   127   49  127 1  
   128   50  128 1  
   129   50  129 1  
   130   50  130 1  
   131   51  131 1  
   132   51  132 1  
   133   51  133 1  
   134   52  134 1  
   135   53  135 1  
   136   56  136 1  
   137   56  137 1  
   138   57  138 1  
   139   58  139 1  
   140   58  140 1  
   141   58  141 1  
   142   59  142 1  
   143   59  143 1  
   144   59  144 1  
   145   60  145 1  
   146   61  146 1  
   147   62  147 1  
   148   64  148 1  
   149   64  149 1  
   150   65  150 1  
   151   65  151 1  
   152   66  152 1  
   153   66  153 1  
   154   67  154 1  
   155   69  155 1  
   156   69  156 1  
   157   70  157 1  
   158   70  158 1  
   159  147  159 1  
@<TRIPOS>SUBSTRUCTURE
     1 ARG         1

