2qqs_ligand
  -I-interpret- 

155155  0  0  0  0  0  0  0  0999 V2000
   19.5220  -15.6920   14.6490 N   0  3  0  0  0
   18.0980  -15.9010   14.3670 C   0  0  0  0  0
   17.8800  -15.9850   12.8610 C   0  0  0  0  0
   18.7350  -15.5730   12.0740 O   0  0  0  0  0
   17.2750  -14.7620   14.9650 C   0  0  0  0  0
   16.8070  -14.9740   16.4020 C   0  0  0  0  0
   16.1210  -13.7230   16.9700 C   0  0  0  0  0
   14.8090  -13.9850   17.5690 N   0  0  0  0  0
   14.6110  -14.3550   18.8280 C   0  0  0  0  0
   15.6310  -14.5340   19.6610 N   0  0  0  0  0
   13.3810  -14.5610   19.2610 N   0  0  0  0  0
   16.7350  -16.5340   12.4660 N   0  0  0  0  0
   16.3950  -16.6350   11.0600 C   0  0  0  0  0
   15.5250  -15.4870   10.6400 C   0  0  0  0  0
   14.9660  -14.8020   11.4770 O   0  0  0  0  0
   15.7200  -17.9660   10.7150 C   0  0  0  0  0
   14.9310  -18.5740   11.8310 C   0  0  0  0  0
   13.5990  -18.9010   11.7040 N   0  0  0  0  0
   15.2970  -18.9680   13.0730 C   0  0  0  0  0
   13.1710  -19.4470   12.8270 C   0  0  0  0  0
   14.1830  -19.5020   13.6740 N   0  0  0  0  0
   15.4190  -15.2960    9.3330 N   0  0  0  0  0
   14.6930  -14.1670    8.7640 C   0  0  0  0  0
   13.1500  -14.1290    8.8020 C   0  0  0  0  0
   12.5920  -13.0250    8.7090 O   0  0  0  0  0
   15.1820  -13.8490    7.3360 C   0  0  0  0  0
   14.5690  -12.5440    6.7580 C   0  0  0  0  0
   15.5070  -11.8350    5.8100 C   0  0  0  0  0
   15.2320  -10.4020    5.7450 N   0  0  0  0  0
   15.8480   -9.4790    6.4780 C   0  0  0  0  0
   16.7860   -9.8200    7.3460 N   0  0  0  0  0
   15.5230   -8.2010    6.3360 N   0  0  0  0  0
   12.4390  -15.2550    8.9010 N   0  0  0  0  0
   10.9630  -15.1070    8.9610 C   0  0  0  0  0
   10.1570  -15.9620    9.9380 C   0  0  0  0  0
    8.7920  -15.2980   10.1150 C   0  0  0  0  0
    8.3000  -15.2700   11.5460 C   0  0  0  0  0
    7.1780  -16.2930   11.7520 C   0  0  0  0  0
    6.0900  -15.8630   12.6570 N   0  3  0  0  0
   10.2360  -14.9750    7.6440 C   0  0  0  0  0
   10.1380  -13.8630    7.1260 O   0  0  0  0  0
    5.6840  -14.4730   12.4500 C   0  0  0  0  0
    4.9480  -16.7130   12.3640 C   0  0  0  0  0
    6.4250  -16.0690   14.0610 C   0  0  0  0  0
    9.7160  -16.0840    7.0980 N   0  0  0  0  0
    8.6710  -16.0280    6.0320 C   0  0  0  0  0
    7.5000  -17.0670    6.2030 C   0  0  0  0  0
    6.9150  -17.5390    5.2120 O   0  0  0  0  0
    9.2470  -15.9890    4.5510 C   0  0  0  0  0
    8.3330  -15.1270    3.6550 C   0  0  0  0  0
   10.6930  -15.4370    4.4780 C   0  0  0  0  0
    7.1940  -17.4400    7.4760 N   0  0  0  0  0
    5.9220  -18.1600    7.7850 C   0  0  0  0  0
    5.0290  -17.2040    8.6290 C   0  0  0  0  0
    5.5390  -16.1740    9.0720 O   0  0  0  0  0
    6.1970  -19.4550    8.6080 C   0  0  0  0  0
    7.0680  -20.6770    8.2230 C   0  0  0  0  0
    6.6860  -21.3130    6.8410 C   0  0  0  0  0
    8.5820  -20.3670    8.3370 C   0  0  0  0  0
    3.7650  -17.5390    8.9490 N   0  0  0  0  0
    2.9990  -18.7560    8.5760 C   0  0  0  0  0
    3.8130  -20.0420    8.2650 C   0  0  0  0  0
    3.3430  -20.9970    7.6310 O   0  0  0  0  0
    1.9980  -18.4020    7.4570 C   0  0  0  0  0
    2.6330  -18.0690    6.1090 C   0  0  0  0  0
    2.1200  -16.7560    5.5600 C   0  0  0  0  0
    3.1790  -16.0770    4.8130 N   0  0  0  0  0
    3.2420  -14.7640    4.6110 C   0  0  0  0  0
    2.3040  -13.9520    5.0910 N   0  0  0  0  0
    4.2600  -14.2600    3.9300 N   0  0  0  0  0
    5.0681  -20.1212    8.6978 O   0  0  0  0  0
   20.0630  -16.4571   14.2460 H   0  0  0  0  0
   19.8226  -14.8081   14.2381 H   0  0  0  0  0
   19.6673  -15.6660   15.6583 H   0  0  0  0  0
   17.7733  -16.8371   14.8213 H   0  0  0  0  0
   16.3757  -14.6754   14.3552 H   0  0  0  0  0
   17.9212  -13.8842   14.9752 H   0  0  0  0  0
   17.6794  -15.1949   17.0170 H   0  0  0  0  0
   16.0872  -15.7925   16.4102 H   0  0  0  0  0
   15.9665  -13.0332   16.1403 H   0  0  0  0  0
   16.7641  -13.3300   17.7574 H   0  0  0  0  0
   13.9877  -13.8748   16.9743 H   0  0  0  0  0
   15.4587  -14.8273   20.6226 H   0  0  0  0  0
   16.5861  -14.3781   19.3387 H   0  0  0  0  0
   12.5902  -14.4356   18.6291 H   0  0  0  0  0
   16.0837  -16.8908   13.1652 H   0  0  0  0  0
   17.3328  -16.5942   10.5059 H   0  0  0  0  0
   16.5145  -18.6701   10.4676 H   0  0  0  0  0
   15.0201  -17.7660    9.9037 H   0  0  0  0  0
   16.2898  -18.8784   13.5139 H   0  0  0  0  0
   12.1560  -19.7933   13.0220 H   0  0  0  0  0
   15.8618  -15.9636    8.7016 H   0  0  0  0  0
   14.9546  -13.3959    9.4886 H   0  0  0  0  0
   14.8766  -14.6724    6.6904 H   0  0  0  0  0
   16.2631  -13.7166    7.3781 H   0  0  0  0  0
   14.3614  -11.8722    7.5909 H   0  0  0  0  0
   13.6695  -12.8117    6.2036 H   0  0  0  0  0
   15.3697  -12.2556    4.8139 H   0  0  0  0  0
   16.5265  -11.9721    6.1705 H   0  0  0  0  0
   14.5161  -10.0865    5.0905 H   0  0  0  0  0
   17.0442  -10.8003    7.4590 H   0  0  0  0  0
   15.9953   -7.4896    6.8939 H   0  0  0  0  0
   14.8008   -7.9295    5.6689 H   0  0  0  0  0
   12.8874  -16.1706    8.9337 H   0  0  0  0  0
   10.9882  -14.1238    9.4308 H   0  0  0  0  0
   10.6724  -16.0332   10.8958 H   0  0  0  0  0
   10.0403  -16.9742    9.5508 H   0  0  0  0  0
    8.0730  -15.8795    9.5379 H   0  0  0  0  0
    8.8917  -14.2631    9.7877 H   0  0  0  0  0
    7.9147  -14.2746   11.7671 H   0  0  0  0  0
    9.1291  -15.5175   12.2089 H   0  0  0  0  0
    7.6355  -17.1707   12.2085 H   0  0  0  0  0
    6.7242  -16.4599   10.7751 H   0  0  0  0  0
    6.5368  -13.8169   12.6243 H   0  0  0  0  0
    5.3307  -14.3476   11.4265 H   0  0  0  0  0
    4.8830  -14.2224   13.1455 H   0  0  0  0  0
    4.6602  -16.5856   11.3204 H   0  0  0  0  0
    5.2160  -17.7541   12.5439 H   0  0  0  0  0
    4.1145  -16.4344   13.0088 H   0  0  0  0  0
    6.6127  -17.1282   14.2368 H   0  0  0  0  0
    7.3178  -15.4946   14.3083 H   0  0  0  0  0
    5.5941  -15.7376   14.6839 H   0  0  0  0  0
   10.0443  -16.9942    7.4207 H   0  0  0  0  0
    8.2097  -15.0532    6.1907 H   0  0  0  0  0
    9.2719  -17.0203    4.1989 H   0  0  0  0  0
    7.3311  -15.5560    3.6407 H   0  0  0  0  0
    8.2896  -14.1126    4.0516 H   0  0  0  0  0
    8.7349  -15.1056    2.6420 H   0  0  0  0  0
   10.7122  -14.4194    4.8683 H   0  0  0  0  0
   11.3521  -16.0685    5.0737 H   0  0  0  0  0
   11.0283  -15.4361    3.4408 H   0  0  0  0  0
    7.8442  -17.2242    8.2317 H   0  0  0  0  0
    5.4322  -18.4460    6.8542 H   0  0  0  0  0
    5.2046  -19.9056    8.6194 H   0  0  0  0  0
    6.7689  -19.0501    9.4429 H   0  0  0  0  0
    6.8420  -21.4469    8.9607 H   0  0  0  0  0
    5.6495  -21.6490    6.8712 H   0  0  0  0  0
    6.8050  -20.5680    6.0543 H   0  0  0  0  0
    7.3389  -22.1625    6.6405 H   0  0  0  0  0
    8.8342  -19.5434    7.6690 H   0  0  0  0  0
    8.8183  -20.0889    9.3641 H   0  0  0  0  0
    9.1547  -21.2514    8.0578 H   0  0  0  0  0
    3.2642  -16.8643    9.5272 H   0  0  0  0  0
    2.4734  -19.0531    9.4835 H   0  0  0  0  0
    1.4626  -17.5102    7.7828 H   0  0  0  0  0
    1.3727  -19.2814    7.3029 H   0  0  0  0  0
    2.3780  -18.8600    5.4037 H   0  0  0  0  0
    3.7110  -17.9863    6.2475 H   0  0  0  0  0
    1.8019  -16.1216    6.3873 H   0  0  0  0  0
    1.2795  -16.9502    4.8937 H   0  0  0  0  0
    3.9231  -16.6524    4.4185 H   0  0  0  0  0
    2.3709  -12.9464    4.9339 H   0  0  0  0  0
    1.5179  -14.3350    5.6161 H   0  0  0  0  0
    4.9859  -14.8774    3.5662 H   0  0  0  0  0
    5.2944  -19.3158    9.1687 H   0  0  0  0  0
  1  2  1  0  0  0
  2  3  1  0  0  0
  2  5  1  0  0  0
  3  4  2  0  0  0
  3 12  1  0  0  0
  5  6  1  0  0  0
  6  7  1  0  0  0
  7  8  1  0  0  0
  8  9  1  0  0  0
  9 10  1  0  0  0
  9 11  2  0  0  0
 12 13  1  0  0  0
 13 14  1  0  0  0
 13 16  1  0  0  0
 14 15  2  0  0  0
 14 22  1  0  0  0
 16 17  1  0  0  0
 17 18  4  0  0  0
 17 19  4  0  0  0
 18 20  4  0  0  0
 19 21  4  0  0  0
 20 21  4  0  0  0
 22 23  1  0  0  0
 23 24  1  0  0  0
 23 26  1  0  0  0
 24 25  2  0  0  0
 24 33  1  0  0  0
 26 27  1  0  0  0
 27 28  1  0  0  0
 28 29  1  0  0  0
 29 30  1  0  0  0
 30 31  2  0  0  0
 30 32  1  0  0  0
 33 34  1  0  0  0
 34 35  1  0  0  0
 34 40  1  0  0  0
 35 36  1  0  0  0
 36 37  1  0  0  0
 37 38  1  0  0  0
 38 39  1  0  0  0
 39 42  1  0  0  0
 39 43  1  0  0  0
 39 44  1  0  0  0
 40 41  2  0  0  0
 40 45  1  0  0  0
 45 46  1  0  0  0
 46 47  1  0  0  0
 46 49  1  0  0  0
 47 48  2  0  0  0
 47 52  1  0  0  0
 49 50  1  0  0  0
 49 51  1  0  0  0
 52 53  1  0  0  0
 53 54  1  0  0  0
 53 56  1  0  0  0
 54 55  2  0  0  0
 54 60  1  0  0  0
 56 57  1  0  0  0
 57 58  1  0  0  0
 57 59  1  0  0  0
 60 61  1  0  0  0
 61 62  1  0  0  0
 61 64  1  0  0  0
 62 63  2  0  0  0
 64 65  1  0  0  0
 65 66  1  0  0  0
 66 67  1  0  0  0
 67 68  1  0  0  0
 68 69  1  0  0  0
 68 70  2  0  0  0
 62 71  1  0  0  0
  1 72  1  0  0  0
  1 73  1  0  0  0
  1 74  1  0  0  0
  2 75  1  0  0  0
  5 76  1  0  0  0
  5 77  1  0  0  0
  6 78  1  0  0  0
  6 79  1  0  0  0
  7 80  1  0  0  0
  7 81  1  0  0  0
  8 82  1  0  0  0
 10 83  1  0  0  0
 10 84  1  0  0  0
 11 85  1  0  0  0
 12 86  1  0  0  0
 13 87  1  0  0  0
 16 88  1  0  0  0
 16 89  1  0  0  0
 19 90  1  0  0  0
 20 91  1  0  0  0
 22 92  1  0  0  0
 23 93  1  0  0  0
 26 94  1  0  0  0
 26 95  1  0  0  0
 27 96  1  0  0  0
 27 97  1  0  0  0
 28 98  1  0  0  0
 28 99  1  0  0  0
 29100  1  0  0  0
 31101  1  0  0  0
 32102  1  0  0  0
 32103  1  0  0  0
 33104  1  0  0  0
 34105  1  0  0  0
 35106  1  0  0  0
 35107  1  0  0  0
 36108  1  0  0  0
 36109  1  0  0  0
 37110  1  0  0  0
 37111  1  0  0  0
 38112  1  0  0  0
 38113  1  0  0  0
 42114  1  0  0  0
 42115  1  0  0  0
 42116  1  0  0  0
 43117  1  0  0  0
 43118  1  0  0  0
 43119  1  0  0  0
 44120  1  0  0  0
 44121  1  0  0  0
 44122  1  0  0  0
 45123  1  0  0  0
 46124  1  0  0  0
 49125  1  0  0  0
 50126  1  0  0  0
 50127  1  0  0  0
 50128  1  0  0  0
 51129  1  0  0  0
 51130  1  0  0  0
 51131  1  0  0  0
 52132  1  0  0  0
 53133  1  0  0  0
 56134  1  0  0  0
 56135  1  0  0  0
 57136  1  0  0  0
 58137  1  0  0  0
 58138  1  0  0  0
 58139  1  0  0  0
 59140  1  0  0  0
 59141  1  0  0  0
 59142  1  0  0  0
 60143  1  0  0  0
 61144  1  0  0  0
 64145  1  0  0  0
 64146  1  0  0  0
 65147  1  0  0  0
 65148  1  0  0  0
 66149  1  0  0  0
 66150  1  0  0  0
 67151  1  0  0  0
 69152  1  0  0  0
 69153  1  0  0  0
 70154  1  0  0  0
 71155  1  0  0  0
M  END
$$$$
