3tkz_ligand
  -I-interpret- 

134136  0  0  0  0  0  0  0  0999 V2000
   10.5460   21.7990   29.1110 N   0  3  0  0  0
   10.3990   20.9960   27.8530 C   0  0  0  0  0
   11.4780   19.9000   27.7120 C   0  0  0  0  0
   12.6740   20.1310   27.9470 O   0  0  0  0  0
   10.2980   21.9050   26.5760 C   0  0  0  0  0
    9.8570   23.3290   26.9220 C   0  0  0  0  0
   11.5850   21.9210   25.8040 C   0  0  0  0  0
   11.0480   18.6970   27.3500 N   0  0  0  0  0
   11.9690   17.5780   27.1890 C   0  0  0  0  0
   12.4500   17.4070   25.7190 C   0  0  0  0  0
   11.6530   17.0370   24.8160 O   0  0  0  0  0
   11.3590   16.2590   27.6790 C   0  0  0  0  0
   10.8680   16.3940   29.1530 C   0  0  0  0  0
   12.3550   15.1030   27.4580 C   0  0  0  0  0
    9.5020   15.6620   29.4790 C   0  0  0  0  0
   13.7540   17.6540   25.5210 N   0  0  0  0  0
   14.4480   17.4250   24.2470 C   0  0  0  0  0
   14.9020   16.0040   24.1620 C   0  0  0  0  0
   15.2960   15.3870   25.1630 O   0  0  0  0  0
   15.6390   18.3620   23.9560 C   0  0  0  0  0
   15.1450   19.6810   23.4840 C   0  0  0  0  0
   14.6660   20.5970   24.3830 C   0  0  0  0  0
   15.0360   19.9740   22.1220 C   0  0  0  0  0
   14.1620   21.8070   23.9660 C   0  0  0  0  0
   14.5290   21.1890   21.7010 C   0  0  0  0  0
   14.0960   22.1110   22.6100 C   0  0  0  0  0
   13.5770   23.2210   22.3130 O   0  0  0  0  0
   14.3280   24.5730   21.7720 P   0  0  0  0  0
   15.0020   24.1170   20.5300 O   0  0  0  0  0
   13.4500   25.7890   21.6180 O   0  0  0  0  0
   15.4320   24.9050   22.8330 O   0  0  0  0  0
   14.8090   15.4560   22.9770 N   0  0  0  0  0
   15.4590   14.2250   22.6880 C   0  0  0  0  0
   16.5740   14.5890   21.7450 C   0  0  0  0  0
   16.4170   15.5230   20.9380 O   0  0  0  0  0
   14.5050   13.2410   22.0550 C   0  0  0  0  0
   13.6970   12.4550   23.0700 C   0  0  0  0  0
   13.4800   11.0850   22.8970 C   0  0  0  0  0
   13.1730   13.0880   24.2060 C   0  0  0  0  0
   12.7200   10.3480   23.8380 C   0  0  0  0  0
   12.4220   12.3690   25.1580 C   0  0  0  0  0
   12.2030   10.9940   24.9710 C   0  0  0  0  0
   17.6840   13.8640   21.8680 N   0  0  0  0  0
   18.9400   14.1400   21.1490 C   0  0  0  0  0
   19.3540   12.7880   20.6030 C   0  0  0  0  0
   19.0570   11.7680   21.2420 O   0  0  0  0  0
   20.0320   14.7620   22.0920 C   0  0  0  0  0
   19.6630   16.2040   22.5120 C   0  0  0  0  0
   20.2400   13.8960   23.3610 C   0  0  0  0  0
   19.9720   12.7450   19.3930 N   0  0  0  0  0
   20.3740   11.4760   18.7350 C   0  0  0  0  0
   21.4990   10.7700   19.5170 C   0  0  0  0  0
   22.1080   11.3970   20.3980 O   0  0  0  0  0
   20.8870   11.9180   17.3580 C   0  0  0  0  0
   20.4420   13.3080   17.1990 C   0  0  0  0  0
   20.2430   13.9230   18.5420 C   0  0  0  0  0
   21.7550    9.4990   19.1970 N   0  0  0  0  0
   22.6400    8.6390   20.0090 C   0  0  0  0  0
   24.1480    8.8180   19.7290 C   0  0  0  0  0
   24.6340    8.6800   18.5740 O   0  0  0  0  0
   22.2170    7.1690   19.8580 C   0  0  0  0  0
   22.4150    6.2360   21.0590 C   0  0  0  0  0
   22.1670    6.9640   22.4230 C   0  0  0  0  0
   21.5670    4.9580   20.9110 C   0  0  0  0  0
   24.9160    9.1109   20.6839 O   0  0  0  0  0
   10.6075   21.1683   29.9103 H   0  0  0  0  0
   11.3939   22.3633   29.0556 H   0  0  0  0  0
    9.7363   22.4096   29.2197 H   0  0  0  0  0
    9.4478   20.4706   27.9380 H   0  0  0  0  0
    9.5297   21.4655   25.9398 H   0  0  0  0  0
   10.6258   23.8091   27.5275 H   0  0  0  0  0
    9.7101   23.8960   26.0027 H   0  0  0  0  0
    8.9222   23.2927   27.4813 H   0  0  0  0  0
   11.4458   22.4817   24.8797 H   0  0  0  0  0
   12.3615   22.3948   26.4045 H   0  0  0  0  0
   11.8790   20.8980   25.5691 H   0  0  0  0  0
   10.0525   18.5526   27.1810 H   0  0  0  0  0
   12.8335   17.8211   27.8068 H   0  0  0  0  0
   10.4722   16.0195   27.0922 H   0  0  0  0  0
   10.7039   17.4566   29.3319 H   0  0  0  0  0
   11.6291   15.9296   29.7800 H   0  0  0  0  0
   12.5836   15.0202   26.3955 H   0  0  0  0  0
   13.2712   15.3033   28.0135 H   0  0  0  0  0
   11.9119   14.1712   27.8093 H   0  0  0  0  0
    8.7122   16.0721   28.8496 H   0  0  0  0  0
    9.6073   14.5949   29.2830 H   0  0  0  0  0
    9.2496   15.8169   30.5280 H   0  0  0  0  0
   14.2959   18.0230   26.3024 H   0  0  0  0  0
   13.7064   17.6560   23.4823 H   0  0  0  0  0
   16.2651   17.9163   23.1831 H   0  0  0  0  0
   16.2167   18.5017   24.8697 H   0  0  0  0  0
   14.6846   20.3629   25.4474 H   0  0  0  0  0
   15.3539   19.2372   21.3844 H   0  0  0  0  0
   13.8125   22.5314   24.7017 H   0  0  0  0  0
   14.4745   21.4126   20.6356 H   0  0  0  0  0
   13.0586   26.0092   22.4665 H   0  0  0  0  0
   15.0148   25.2023   23.6449 H   0  0  0  0  0
   14.2625   15.9186   22.2506 H   0  0  0  0  0
   15.8314   13.7375   23.5890 H   0  0  0  0  0
   15.0977   12.5285   21.4814 H   0  0  0  0  0
   13.8041   13.8079   21.4422 H   0  0  0  0  0
   13.9003   10.5782   22.0283 H   0  0  0  0  0
   13.3492   14.1532   24.3555 H   0  0  0  0  0
   12.5378    9.2846   23.6827 H   0  0  0  0  0
   12.0143   12.8761   26.0325 H   0  0  0  0  0
   11.6310   10.4286   25.7067 H   0  0  0  0  0
   17.6634   13.0650   22.5017 H   0  0  0  0  0
   18.8146   14.8811   20.3596 H   0  0  0  0  0
   20.9611   14.7877   21.5226 H   0  0  0  0  0
   19.5770   16.8292   21.6233 H   0  0  0  0  0
   18.7118   16.1939   23.0442 H   0  0  0  0  0
   20.4411   16.6017   23.1636 H   0  0  0  0  0
   19.3019   13.8301   23.9121 H   0  0  0  0  0
   20.5621   12.8966   23.0685 H   0  0  0  0  0
   21.0018   14.3546   23.9915 H   0  0  0  0  0
   19.5498   10.7649   18.6798 H   0  0  0  0  0
   20.4968   11.2812   16.5640 H   0  0  0  0  0
   21.9720   11.8367   17.2919 H   0  0  0  0  0
   19.5019   13.3276   16.6476 H   0  0  0  0  0
   21.1972   13.8706   16.6502 H   0  0  0  0  0
   21.1011   14.5054   18.8776 H   0  0  0  0  0
   19.4392   14.6590   18.5610 H   0  0  0  0  0
   21.3231    9.1072   18.3602 H   0  0  0  0  0
   22.5125    8.9609   21.0426 H   0  0  0  0  0
   23.9323    8.4594   17.9571 H   0  0  0  0  0
   22.8523    6.7647   19.0699 H   0  0  0  0  0
   21.1410    7.1939   19.6854 H   0  0  0  0  0
   23.4615    5.9314   21.0691 H   0  0  0  0  0
   22.8647    7.7956   22.5217 H   0  0  0  0  0
   21.1445    7.3406   22.4518 H   0  0  0  0  0
   22.3197    6.2608   23.2417 H   0  0  0  0  0
   20.5129    5.2282   20.8475 H   0  0  0  0  0
   21.8632    4.4299   20.0047 H   0  0  0  0  0
   21.7271    4.3150   21.7765 H   0  0  0  0  0
  1  2  1  0  0  0
  2  3  1  0  0  0
  2  5  1  0  0  0
  3  4  2  0  0  0
  3  8  1  0  0  0
  5  6  1  0  0  0
  5  7  1  0  0  0
  8  9  1  0  0  0
  9 10  1  0  0  0
  9 12  1  0  0  0
 10 11  2  0  0  0
 10 16  1  0  0  0
 12 13  1  0  0  0
 12 14  1  0  0  0
 13 15  1  0  0  0
 16 17  1  0  0  0
 17 18  1  0  0  0
 17 20  1  0  0  0
 18 19  2  0  0  0
 18 32  1  0  0  0
 20 21  1  0  0  0
 21 22  4  0  0  0
 21 23  4  0  0  0
 22 24  4  0  0  0
 23 25  4  0  0  0
 24 26  4  0  0  0
 25 26  4  0  0  0
 26 27  1  0  0  0
 27 28  1  0  0  0
 28 29  2  0  0  0
 28 30  1  0  0  0
 28 31  1  0  0  0
 32 33  1  0  0  0
 33 34  1  0  0  0
 33 36  1  0  0  0
 34 35  2  0  0  0
 34 43  1  0  0  0
 36 37  1  0  0  0
 37 38  4  0  0  0
 37 39  4  0  0  0
 38 40  4  0  0  0
 39 41  4  0  0  0
 40 42  4  0  0  0
 41 42  4  0  0  0
 43 44  1  0  0  0
 44 45  1  0  0  0
 44 47  1  0  0  0
 45 46  2  0  0  0
 45 50  1  0  0  0
 47 48  1  0  0  0
 47 49  1  0  0  0
 50 51  1  0  0  0
 50 56  1  0  0  0
 51 52  1  0  0  0
 51 54  1  0  0  0
 52 53  2  0  0  0
 52 57  1  0  0  0
 54 55  1  0  0  0
 55 56  1  0  0  0
 57 58  1  0  0  0
 58 59  1  0  0  0
 58 61  1  0  0  0
 59 60  1  0  0  0
 61 62  1  0  0  0
 62 63  1  0  0  0
 62 64  1  0  0  0
 59 65  2  0  0  0
  1 66  1  0  0  0
  1 67  1  0  0  0
  1 68  1  0  0  0
  2 69  1  0  0  0
  5 70  1  0  0  0
  6 71  1  0  0  0
  6 72  1  0  0  0
  6 73  1  0  0  0
  7 74  1  0  0  0
  7 75  1  0  0  0
  7 76  1  0  0  0
  8 77  1  0  0  0
  9 78  1  0  0  0
 12 79  1  0  0  0
 13 80  1  0  0  0
 13 81  1  0  0  0
 14 82  1  0  0  0
 14 83  1  0  0  0
 14 84  1  0  0  0
 15 85  1  0  0  0
 15 86  1  0  0  0
 15 87  1  0  0  0
 16 88  1  0  0  0
 17 89  1  0  0  0
 20 90  1  0  0  0
 20 91  1  0  0  0
 22 92  1  0  0  0
 23 93  1  0  0  0
 24 94  1  0  0  0
 25 95  1  0  0  0
 30 96  1  0  0  0
 31 97  1  0  0  0
 32 98  1  0  0  0
 33 99  1  0  0  0
 36100  1  0  0  0
 36101  1  0  0  0
 38102  1  0  0  0
 39103  1  0  0  0
 40104  1  0  0  0
 41105  1  0  0  0
 42106  1  0  0  0
 43107  1  0  0  0
 44108  1  0  0  0
 47109  1  0  0  0
 48110  1  0  0  0
 48111  1  0  0  0
 48112  1  0  0  0
 49113  1  0  0  0
 49114  1  0  0  0
 49115  1  0  0  0
 51116  1  0  0  0
 54117  1  0  0  0
 54118  1  0  0  0
 55119  1  0  0  0
 55120  1  0  0  0
 56121  1  0  0  0
 56122  1  0  0  0
 57123  1  0  0  0
 58124  1  0  0  0
 60125  1  0  0  0
 61126  1  0  0  0
 61127  1  0  0  0
 62128  1  0  0  0
 63129  1  0  0  0
 63130  1  0  0  0
 63131  1  0  0  0
 64132  1  0  0  0
 64133  1  0  0  0
 64134  1  0  0  0
M  END
$$$$
