### 
### Created by X-TOOL on Mon Sep 10 21:13:06 2018
### 

@<TRIPOS>MOLECULE
3tkz_ligand
  131   133     1     0     0
SMALL
GAST_HUCK


@<TRIPOS>ATOM
      1 N          10.5460   21.7990   29.1110 N.4       1 VAL         0.2381
      2 CA         10.3990   20.9960   27.8530 C.3       1 VAL         0.0673
      3 C          11.4780   19.9000   27.7120 C.2       1 VAL         0.2270
      4 O          12.6740   20.1310   27.9470 O.2       1 VAL        -0.3907
      5 CB         10.2980   21.9050   26.5760 C.3       1 VAL         0.0139
      6 CG1         9.8570   23.3290   26.9220 C.3       1 VAL        -0.0553
      7 CG2        11.5850   21.9210   25.8040 C.3       1 VAL        -0.0553
      8 N          11.0480   18.6970   27.3500 N.am      1 ILE        -0.2607
      9 CA         11.9690   17.5780   27.1890 C.3       1 ILE         0.1336
     10 C          12.4500   17.4070   25.7190 C.2       1 ILE         0.2044
     11 O          11.6530   17.0370   24.8160 O.2       1 ILE        -0.3944
     12 CB         11.3590   16.2590   27.6790 C.3       1 ILE        -0.0037
     13 CG1        10.8680   16.3940   29.1530 C.3       1 ILE        -0.0491
     14 CG2        12.3550   15.1030   27.4580 C.3       1 ILE        -0.0582
     15 CD1         9.5020   15.6620   29.4790 C.3       1 ILE        -0.0648
     16 N          13.7540   17.6540   25.5210 N.am      1 PTR        -0.2607
     17 CA         14.4480   17.4250   24.2470 C.3       1 PTR         0.1468
     18 C          14.9020   16.0040   24.1620 C.2       1 PTR         0.2075
     19 O          15.2960   15.3870   25.1630 O.2       1 PTR        -0.3941
     20 CB         15.6390   18.3620   23.9560 C.3       1 PTR         0.0400
     21 CG         15.1450   19.6810   23.4840 C.ar      1 PTR        -0.0004
     22 CD1        14.6660   20.5970   24.3830 C.ar      1 PTR        -0.0239
     23 CD2        15.0360   19.9740   22.1220 C.ar      1 PTR        -0.0239
     24 CE1        14.1620   21.8070   23.9660 C.ar      1 PTR         0.0115
     25 CE2        14.5290   21.1890   21.7010 C.ar      1 PTR         0.0115
     26 CZ         14.0960   22.1110   22.6100 C.ar      1 PTR         0.1728
     27 OH         13.5770   23.2210   22.3130 O.3       1 PTR        -0.2040
     28 P          14.3280   24.5730   21.7720 P.3       1 PTR         0.1348
     29 O1P        15.0020   24.1170   20.5300 O.co2     1 PTR        -0.6653
     30 O2P        13.4500   25.7890   21.6180 O.co2     1 PTR        -0.6653
     31 O3P        15.4320   24.9050   22.8330 O.co2     1 PTR        -0.6653
     32 N          14.8090   15.4560   22.9770 N.am      1 PHE        -0.2617
     33 CA         15.4590   14.2250   22.6880 C.3       1 PHE         0.1404
     34 C          16.5740   14.5890   21.7450 C.2       1 PHE         0.2060
     35 O          16.4170   15.5230   20.9380 O.2       1 PHE        -0.3942
     36 CB         14.5050   13.2410   22.0550 C.3       1 PHE         0.0214
     37 CG         13.6970   12.4550   23.0700 C.ar      1 PHE        -0.0386
     38 CD1        13.4800   11.0850   22.8970 C.ar      1 PHE        -0.0601
     39 CD2        13.1730   13.0880   24.2060 C.ar      1 PHE        -0.0601
     40 CE1        12.7200   10.3480   23.8380 C.ar      1 PHE        -0.0686
     41 CE2        12.4220   12.3690   25.1580 C.ar      1 PHE        -0.0686
     42 CZ         12.2030   10.9940   24.9710 C.ar      1 PHE        -0.0687
     43 N          17.6840   13.8640   21.8680 N.am      1 VAL        -0.2633
     44 CA         18.9400   14.1400   21.1490 C.3       1 VAL         0.1334
     45 C          19.3540   12.7880   20.6030 C.2       1 VAL         0.2066
     46 O          19.0570   11.7680   21.2420 O.2       1 VAL        -0.3942
     47 CB         20.0320   14.7620   22.0920 C.3       1 VAL        -0.0062
     48 CG1        19.6630   16.2040   22.5120 C.3       1 VAL        -0.0584
     49 CG2        20.2400   13.8960   23.3610 C.3       1 VAL        -0.0584
     50 N          19.9720   12.7450   19.3930 N.am      1 PRO        -0.2498
     51 CA         20.3740   11.4760   18.7350 C.3       1 PRO         0.1337
     52 C          21.4990   10.7700   19.5170 C.2       1 PRO         0.2035
     53 O          22.1080   11.3970   20.3980 O.2       1 PRO        -0.3944
     54 CB         20.8870   11.9180   17.3580 C.3       1 PRO        -0.0104
     55 CG         20.4420   13.3080   17.1990 C.3       1 PRO        -0.0281
     56 CD         20.2430   13.9230   18.5420 C.3       1 PRO         0.0369
     57 N          21.7550    9.4990   19.1970 N.am      1 LEU        -0.2695
     58 CA         22.6400    8.6390   20.0090 C.3       1 LEU         0.0946
     59 C          24.1480    8.8180   19.7290 C.2       1 LEU         0.0601
     60 O          24.6340    8.6800   18.5740 O.co2     1 LEU        -0.5666
     61 CB         22.2170    7.1690   19.8580 C.3       1 LEU        -0.0156
     62 CG         22.4150    6.2360   21.0590 C.3       1 LEU        -0.0431
     63 CD1        22.1670    6.9640   22.4230 C.3       1 LEU        -0.0625
     64 CD2        21.5670    4.9580   20.9110 C.3       1 LEU        -0.0625
     65 H          10.6075   21.1683   29.9103 H         1 VAL         0.2015
     66 H          11.3939   22.3633   29.0556 H         1 VAL         0.2015
     67 H           9.7363   22.4096   29.2197 H         1 VAL         0.2015
     68 H           9.4478   20.4706   27.9380 H         1 VAL         0.1101
     69 H           9.5297   21.4655   25.9398 H         1 VAL         0.0376
     70 H          10.6258   23.8091   27.5275 H         1 VAL         0.0236
     71 H           9.7101   23.8960   26.0027 H         1 VAL         0.0236
     72 H           8.9222   23.2927   27.4813 H         1 VAL         0.0236
     73 H          11.4458   22.4817   24.8797 H         1 VAL         0.0236
     74 H          12.3615   22.3948   26.4045 H         1 VAL         0.0236
     75 H          11.8790   20.8980   25.5691 H         1 VAL         0.0236
     76 H          10.0525   18.5526   27.1810 H         1 ILE         0.1885
     77 H          12.8335   17.8211   27.8068 H         1 ILE         0.0803
     78 H          10.4722   16.0195   27.0922 H         1 ILE         0.0345
     79 H          10.7039   17.4566   29.3319 H         1 ILE         0.0267
     80 H          11.6291   15.9296   29.7800 H         1 ILE         0.0267
     81 H          12.5836   15.0202   26.3955 H         1 ILE         0.0235
     82 H          13.2712   15.3033   28.0135 H         1 ILE         0.0235
     83 H          11.9119   14.1712   27.8093 H         1 ILE         0.0235
     84 H           8.7122   16.0721   28.8496 H         1 ILE         0.0230
     85 H           9.6073   14.5949   29.2830 H         1 ILE         0.0230
     86 H           9.2496   15.8169   30.5280 H         1 ILE         0.0230
     87 H          14.2959   18.0230   26.3024 H         1 PTR         0.1886
     88 H          13.7064   17.6560   23.4823 H         1 PTR         0.0840
     89 H          16.2651   17.9163   23.1831 H         1 PTR         0.0584
     90 H          16.2167   18.5017   24.8697 H         1 PTR         0.0584
     91 H          14.6846   20.3629   25.4474 H         1 PTR         0.0703
     92 H          15.3539   19.2372   21.3844 H         1 PTR         0.0703
     93 H          13.8125   22.5314   24.7017 H         1 PTR         0.0736
     94 H          14.4745   21.4126   20.6356 H         1 PTR         0.0736
     95 H          14.2625   15.9186   22.2506 H         1 PHE         0.1885
     96 H          15.8314   13.7375   23.5890 H         1 PHE         0.0823
     97 H          15.0977   12.5285   21.4814 H         1 PHE         0.0474
     98 H          13.8041   13.8079   21.4422 H         1 PHE         0.0474
     99 H          13.9003   10.5782   22.0283 H         1 PHE         0.0557
    100 H          13.3492   14.1532   24.3555 H         1 PHE         0.0557
    101 H          12.5378    9.2846   23.6827 H         1 PHE         0.0599
    102 H          12.0143   12.8761   26.0325 H         1 PHE         0.0599
    103 H          11.6310   10.4286   25.7067 H         1 PHE         0.0559
    104 H          17.6634   13.0650   22.5017 H         1 VAL         0.1883
    105 H          18.8146   14.8811   20.3596 H         1 VAL         0.0803
    106 H          20.9611   14.7877   21.5226 H         1 VAL         0.0343
    107 H          19.5770   16.8292   21.6233 H         1 VAL         0.0234
    108 H          18.7118   16.1939   23.0442 H         1 VAL         0.0234
    109 H          20.4411   16.6017   23.1636 H         1 VAL         0.0234
    110 H          19.3019   13.8301   23.9121 H         1 VAL         0.0234
    111 H          20.5621   12.8966   23.0685 H         1 VAL         0.0234
    112 H          21.0018   14.3546   23.9915 H         1 VAL         0.0234
    113 H          19.5498   10.7649   18.6798 H         1 PRO         0.0802
    114 H          20.4968   11.2812   16.5640 H         1 PRO         0.0313
    115 H          21.9720   11.8367   17.2919 H         1 PRO         0.0313
    116 H          19.5019   13.3276   16.6476 H         1 PRO         0.0287
    117 H          21.1972   13.8706   16.6502 H         1 PRO         0.0287
    118 H          21.1011   14.5054   18.8776 H         1 PRO         0.0524
    119 H          19.4392   14.6590   18.5610 H         1 PRO         0.0524
    120 H          21.3231    9.1072   18.3602 H         1 LEU         0.1875
    121 H          22.5125    8.9609   21.0426 H         1 LEU         0.0726
    122 O          24.9160    9.1109   20.6839 O.co2     1 LEU        -0.5666
    123 H          22.8523    6.7647   19.0699 H         1 LEU         0.0308
    124 H          21.1410    7.1939   19.6854 H         1 LEU         0.0308
    125 H          23.4615    5.9314   21.0691 H         1 LEU         0.0297
    126 H          22.8647    7.7956   22.5217 H         1 LEU         0.0232
    127 H          21.1445    7.3406   22.4518 H         1 LEU         0.0232
    128 H          22.3197    6.2608   23.2417 H         1 LEU         0.0232
    129 H          20.5129    5.2282   20.8475 H         1 LEU         0.0232
    130 H          21.8632    4.4299   20.0047 H         1 LEU         0.0232
    131 H          21.7271    4.3150   21.7765 H         1 LEU         0.0232
@<TRIPOS>BOND
     1    1    2 1  
     2    2    3 1  
     3    2    5 1  
     4    3    4 2  
     5    3    8 am 
     6    5    6 1  
     7    5    7 1  
     8    8    9 1  
     9    9   10 1  
    10    9   12 1  
    11   10   11 2  
    12   10   16 am 
    13   12   13 1  
    14   12   14 1  
    15   13   15 1  
    16   16   17 1  
    17   17   18 1  
    18   17   20 1  
    19   18   19 2  
    20   18   32 am 
    21   20   21 1  
    22   21   22 ar 
    23   21   23 ar 
    24   22   24 ar 
    25   23   25 ar 
    26   24   26 ar 
    27   25   26 ar 
    28   26   27 1  
    29   27   28 1  
    30   28   29 ar 
    31   28   30 ar 
    32   28   31 ar 
    33   32   33 1  
    34   33   34 1  
    35   33   36 1  
    36   34   35 2  
    37   34   43 am 
    38   36   37 1  
    39   37   38 ar 
    40   37   39 ar 
    41   38   40 ar 
    42   39   41 ar 
    43   40   42 ar 
    44   41   42 ar 
    45   43   44 1  
    46   44   45 1  
    47   44   47 1  
    48   45   46 2  
    49   45   50 am 
    50   47   48 1  
    51   47   49 1  
    52   50   51 1  
    53   50   56 1  
    54   51   52 1  
    55   51   54 1  
    56   52   53 2  
    57   52   57 am 
    58   54   55 1  
    59   55   56 1  
    60   57   58 1  
    61   58   59 1  
    62   58   61 1  
    63   59   60 ar 
    64   61   62 1  
    65   62   63 1  
    66   62   64 1  
    67    1   65 1  
    68    1   66 1  
    69    1   67 1  
    70    2   68 1  
    71    5   69 1  
    72    6   70 1  
    73    6   71 1  
    74    6   72 1  
    75    7   73 1  
    76    7   74 1  
    77    7   75 1  
    78    8   76 1  
    79    9   77 1  
    80   12   78 1  
    81   13   79 1  
    82   13   80 1  
    83   14   81 1  
    84   14   82 1  
    85   14   83 1  
    86   15   84 1  
    87   15   85 1  
    88   15   86 1  
    89   16   87 1  
    90   17   88 1  
    91   20   89 1  
    92   20   90 1  
    93   22   91 1  
    94   23   92 1  
    95   24   93 1  
    96   25   94 1  
    97   32   95 1  
    98   33   96 1  
    99   36   97 1  
   100   36   98 1  
   101   38   99 1  
   102   39  100 1  
   103   40  101 1  
   104   41  102 1  
   105   42  103 1  
   106   43  104 1  
   107   44  105 1  
   108   47  106 1  
   109   48  107 1  
   110   48  108 1  
   111   48  109 1  
   112   49  110 1  
   113   49  111 1  
   114   49  112 1  
   115   51  113 1  
   116   54  114 1  
   117   54  115 1  
   118   55  116 1  
   119   55  117 1  
   120   56  118 1  
   121   56  119 1  
   122   57  120 1  
   123   58  121 1  
   124   59  122 ar 
   125   61  123 1  
   126   61  124 1  
   127   62  125 1  
   128   63  126 1  
   129   63  127 1  
   130   63  128 1  
   131   64  129 1  
   132   64  130 1  
   133   64  131 1  
@<TRIPOS>SUBSTRUCTURE
     1 VAL         1

