4ui5_ligand
  -I-interpret- 

 34 36  0  0  0  0  0  0  0  0999 V2000
  -58.4460  -46.0880   15.4270 C   0  0  0  0  0
  -57.2670  -45.3500   15.8680 O   0  0  0  0  0
  -56.6120  -44.6340   14.9000 C   0  0  0  0  0
  -56.8200  -44.7550   13.5250 C   0  0  0  0  0
  -56.0630  -43.9740   12.6380 C   0  0  0  0  0
  -55.1330  -43.0440   13.1180 C   0  0  0  0  0
  -54.9190  -42.9310   14.4730 C   0  0  0  0  0
  -55.6510  -43.7240   15.3740 C   0  0  0  0  0
  -55.4100  -43.6270   16.7070 N   0  0  0  0  0
  -54.5020  -42.7600   17.2160 C   0  0  0  0  0
  -53.7920  -41.9340   16.3190 N   0  0  0  0  0
  -53.9970  -41.9880   14.9740 C   0  0  0  0  0
  -53.3660  -41.1920   14.2510 O   0  0  0  0  0
  -54.2540  -42.7020   18.5960 C   0  0  0  0  0
  -55.0780  -43.3980   19.4880 C   0  0  0  0  0
  -54.8200  -43.3950   20.8610 C   0  0  0  0  0
  -53.7280  -42.7180   21.3800 C   0  0  0  0  0
  -53.4800  -42.7130   22.7710 C   0  0  0  0  0
  -52.8710  -42.0610   20.5090 C   0  0  0  0  0
  -53.1110  -42.0600   19.1280 C   0  0  0  0  0
  -59.1770  -45.3911   15.0171 H   0  0  0  0  0
  -58.1573  -46.8066   14.6600 H   0  0  0  0  0
  -58.8813  -46.6156   16.2757 H   0  0  0  0  0
  -57.5658  -45.4518   13.1425 H   0  0  0  0  0
  -56.2007  -44.0928   11.5633 H   0  0  0  0  0
  -54.5810  -42.4124   12.4219 H   0  0  0  0  0
  -53.1050  -41.2771   16.6890 H   0  0  0  0  0
  -55.9353  -43.9516   19.1050 H   0  0  0  0  0
  -55.4876  -43.9332   21.5340 H   0  0  0  0  0
  -54.3298  -42.2680   23.2887 H   0  0  0  0  0
  -53.3376  -43.7368   23.1171 H   0  0  0  0  0
  -52.5820  -42.1304   22.9766 H   0  0  0  0  0
  -51.9995  -41.5387   20.9038 H   0  0  0  0  0
  -52.4111  -41.5604   18.4583 H   0  0  0  0  0
  1  2  1  0  0  0
  2  3  1  0  0  0
  3  4  4  0  0  0
  3  8  4  0  0  0
  4  5  4  0  0  0
  5  6  4  0  0  0
  6  7  4  0  0  0
  7  8  4  0  0  0
  7 12  1  0  0  0
  8  9  1  0  0  0
  9 10  2  0  0  0
 10 11  1  0  0  0
 10 14  1  0  0  0
 11 12  1  0  0  0
 12 13  2  0  0  0
 14 15  4  0  0  0
 14 20  4  0  0  0
 15 16  4  0  0  0
 16 17  4  0  0  0
 17 18  1  0  0  0
 17 19  4  0  0  0
 19 20  4  0  0  0
  1 21  1  0  0  0
  1 22  1  0  0  0
  1 23  1  0  0  0
  4 24  1  0  0  0
  5 25  1  0  0  0
  6 26  1  0  0  0
 11 27  1  0  0  0
 15 28  1  0  0  0
 16 29  1  0  0  0
 18 30  1  0  0  0
 18 31  1  0  0  0
 18 32  1  0  0  0
 19 33  1  0  0  0
 20 34  1  0  0  0
M  END
$$$$
