6hb7_ligand
  -I-interpret- 

 59 61  0  0  0  0  0  0  0  0999 V2000
  -57.8890    8.9920  -51.3170 C   0  0  0  0  0
  -58.0060    8.2890  -50.0260 N   0  0  0  0  0
  -59.0780    8.6180  -49.1830 C   0  0  0  0  0
  -59.8760    9.4800  -49.5320 O   0  0  0  0  0
  -59.1490    7.8800  -47.9410 C   0  0  0  0  0
  -58.2230    6.9460  -47.6470 C   0  0  0  0  0
  -57.1800    6.6840  -48.5170 N   0  0  0  0  0
  -56.1130    5.7030  -48.1860 C   0  0  0  0  0
  -56.6570    4.4020  -48.0710 O   0  0  0  0  0
  -55.6800    3.5880  -47.3730 C   0  0  0  0  0
  -56.3650    2.7480  -46.3210 C   0  0  0  0  0
  -56.9210    3.6770  -45.3230 O   0  0  0  0  0
  -56.7410    3.3500  -43.7760 S   0  0  0  0  0
  -57.2200    4.4760  -43.0530 O   0  0  0  0  0
  -57.3160    2.0650  -43.5930 O   0  0  0  0  0
  -55.1700    3.1500  -43.6260 N   0  0  0  0  0
  -54.4220    3.1570  -42.4830 C   0  0  0  0  0
  -54.9280    3.3700  -41.3830 O   0  0  0  0  0
  -52.9770    2.7980  -42.6880 C   0  0  0  0  0
  -52.1810    3.1390  -41.5080 N   0  3  0  0  0
  -53.0990    1.2670  -42.8390 C   0  0  0  0  0
  -51.7670    0.5660  -42.8710 C   0  0  0  0  0
  -50.8400    0.8450  -43.8750 C   0  0  0  0  0
  -49.6170    0.1900  -43.9190 C   0  0  0  0  0
  -49.2980   -0.7440  -42.9400 C   0  0  0  0  0
  -48.0870   -1.3680  -42.9740 O   0  0  0  0  0
  -50.2140   -1.0310  -41.9320 C   0  0  0  0  0
  -51.4300   -0.3650  -41.8950 C   0  0  0  0  0
  -54.6320    4.5680  -46.8160 C   0  0  0  0  0
  -53.4680    4.5930  -47.6400 O   0  0  0  0  0
  -55.3660    5.9100  -46.8840 C   0  0  0  0  0
  -54.4730    7.0030  -46.9730 O   0  0  0  0  0
  -57.0380    7.3330  -49.7330 C   0  0  0  0  0
  -56.1350    7.0900  -50.5210 O   0  0  0  0  0
  -56.9360    9.5196  -51.3569 H   0  0  0  0  0
  -57.9389    8.2673  -52.1297 H   0  0  0  0  0
  -58.7059    9.7069  -51.4153 H   0  0  0  0  0
  -59.9573    8.0807  -47.2378 H   0  0  0  0  0
  -58.2968    6.3903  -46.7122 H   0  0  0  0  0
  -55.4137    5.8443  -49.0101 H   0  0  0  0  0
  -55.1795    2.8681  -48.0205 H   0  0  0  0  0
  -55.6584    2.0604  -45.8562 H   0  0  0  0  0
  -57.1544    2.1417  -46.7654 H   0  0  0  0  0
  -54.6559    2.9971  -44.4936 H   0  0  0  0  0
  -52.4891    3.3091  -43.5179 H   0  0  0  0  0
  -51.2065    2.8862  -41.6720 H   0  0  0  0  0
  -52.2484    4.1414  -41.3320 H   0  0  0  0  0
  -52.5353    2.6262  -40.7006 H   0  0  0  0  0
  -53.6000    1.0675  -43.7862 H   0  0  0  0  0
  -53.6485    0.8927  -41.9752 H   0  0  0  0  0
  -51.0793    1.5879  -44.6359 H   0  0  0  0  0
  -48.9089    0.4073  -44.7187 H   0  0  0  0  0
  -48.0218   -1.9781  -42.2357 H   0  0  0  0  0
  -49.9763   -1.7771  -41.1738 H   0  0  0  0  0
  -52.1323   -0.5747  -41.0882 H   0  0  0  0  0
  -54.2826    4.3068  -45.8171 H   0  0  0  0  0
  -52.8306    5.2099  -47.2729 H   0  0  0  0  0
  -55.9783    6.1480  -46.0142 H   0  0  0  0  0
  -54.0152    7.1097  -46.1360 H   0  0  0  0  0
  1  2  1  0  0  0
  2  3  1  0  0  0
  2 33  1  0  0  0
  3  4  2  0  0  0
  3  5  1  0  0  0
  5  6  2  0  0  0
  6  7  1  0  0  0
  7  8  1  0  0  0
  7 33  1  0  0  0
  8  9  1  0  0  0
  8 31  1  0  0  0
  9 10  1  0  0  0
 10 11  1  0  0  0
 10 29  1  0  0  0
 11 12  1  0  0  0
 12 13  1  0  0  0
 13 14  2  0  0  0
 13 15  2  0  0  0
 13 16  1  0  0  0
 16 17  1  0  0  0
 17 18  2  0  0  0
 17 19  1  0  0  0
 19 20  1  0  0  0
 19 21  1  0  0  0
 21 22  1  0  0  0
 22 23  4  0  0  0
 22 28  4  0  0  0
 23 24  4  0  0  0
 24 25  4  0  0  0
 25 26  1  0  0  0
 25 27  4  0  0  0
 27 28  4  0  0  0
 29 30  1  0  0  0
 29 31  1  0  0  0
 31 32  1  0  0  0
 33 34  2  0  0  0
  1 35  1  0  0  0
  1 36  1  0  0  0
  1 37  1  0  0  0
  5 38  1  0  0  0
  6 39  1  0  0  0
  8 40  1  0  0  0
 10 41  1  0  0  0
 11 42  1  0  0  0
 11 43  1  0  0  0
 16 44  1  0  0  0
 19 45  1  0  0  0
 20 46  1  0  0  0
 20 47  1  0  0  0
 20 48  1  0  0  0
 21 49  1  0  0  0
 21 50  1  0  0  0
 23 51  1  0  0  0
 24 52  1  0  0  0
 26 53  1  0  0  0
 27 54  1  0  0  0
 28 55  1  0  0  0
 29 56  1  0  0  0
 30 57  1  0  0  0
 31 58  1  0  0  0
 32 59  1  0  0  0
M  END
$$$$
