1qbn_ligand
  -I-interpret- 

 48 51  0  0  0  0  0  0  0  0999 V2000
    8.4360   25.0980   19.7900 C   0  0  0  0  0
    9.2620   26.1940   19.3850 C   0  0  0  0  0
   10.6500   25.9330   19.2850 C   0  0  0  0  0
   11.0780   24.5730   19.2860 C   0  0  0  0  0
   10.2640   23.5490   19.5690 N   0  0  0  0  0
    8.9360   23.7950   19.7040 C   0  0  0  0  0
   12.3380   24.2640   18.8910 O   0  0  0  0  0
    8.1790   22.7170   20.0600 O   0  0  0  0  0
    8.7860   27.4790   19.4860 C   0  0  0  0  0
    9.5170   28.4530   19.4130 O   0  0  0  0  0
    7.4780   27.6860   19.6860 O   0  0  0  0  0
    8.7770   21.5570   20.5010 C   0  0  0  0  0
    8.5490   20.4910   19.6100 C   0  0  0  0  0
    9.0190   19.2080   19.8720 C   0  0  0  0  0
    9.7720   18.9710   21.0620 C   0  0  0  0  0
   10.0260   20.0430   21.9510 C   0  0  0  0  0
    9.5140   21.3370   21.6660 C   0  0  0  0  0
    8.7720   18.1590   18.9400 C   0  0  0  0  0
    8.0230   18.2430   17.8670 N   0  0  0  0  0
    9.3080   16.9500   19.0890 N   0  0  0  0  0
    9.8170   22.3350   22.5530 O   0  0  0  0  0
   13.4420   25.0430   18.8220 C   0  0  0  0  0
   13.5780   26.0610   19.7880 C   0  0  0  0  0
   14.7230   26.8870   19.7690 C   0  0  0  0  0
   15.6630   26.6870   18.7470 C   0  0  0  0  0
   15.5200   25.6990   17.7620 C   0  0  0  0  0
   14.3780   24.8600   17.7760 C   0  0  0  0  0
   16.4350   25.4490   16.7160 C   0  0  0  0  0
   17.5250   26.1450   16.3940 N   0  0  0  0  0
   16.5180   24.2260   16.1370 N   0  0  0  0  0
   17.6700   24.1240   15.3190 C   0  0  0  0  0
   18.2440   25.5550   15.3330 C   0  0  0  0  0
    7.4271   25.2770   20.1618 H   0  0  0  0  0
   11.3701   26.7478   19.2095 H   0  0  0  0  0
    7.0234   26.8412   19.7229 H   0  0  0  0  0
    7.9905   20.6754   18.6923 H   0  0  0  0  0
   10.1483   17.9724   21.2841 H   0  0  0  0  0
   10.6140   19.8756   22.8534 H   0  0  0  0  0
    7.5549   19.1201   17.6392 H   0  0  0  0  0
    9.1140   16.2183   18.4053 H   0  0  0  0  0
    9.9128   16.7551   19.8869 H   0  0  0  0  0
   10.3272   21.9712   23.2803 H   0  0  0  0  0
   12.8059   26.2091   20.5430 H   0  0  0  0  0
   14.8721   27.6571   20.5258 H   0  0  0  0  0
   16.5439   27.3282   18.7172 H   0  0  0  0  0
   14.2258   24.1009   17.0087 H   0  0  0  0  0
   18.0575   23.2452   14.8036 H   0  0  0  0  0
   19.0064   25.9958   14.6907 H   0  0  0  0  0
  1  6  4  0  0  0
  1  2  4  0  0  0
  2  9  1  0  0  0
  2  3  4  0  0  0
  3  4  4  0  0  0
  4  7  1  0  0  0
  4  5  4  0  0  0
  5  6  4  0  0  0
  6  8  1  0  0  0
  8 12  1  0  0  0
 12 17  4  0  0  0
 12 13  4  0  0  0
 13 14  4  0  0  0
 14 18  1  0  0  0
 14 15  4  0  0  0
 15 16  4  0  0  0
 16 17  4  0  0  0
 17 21  1  0  0  0
 18 20  1  0  0  0
 18 19  2  0  0  0
  7 22  1  0  0  0
 22 27  4  0  0  0
 22 23  4  0  0  0
 23 24  4  0  0  0
 24 25  4  0  0  0
 25 26  4  0  0  0
 26 28  1  0  0  0
 26 27  4  0  0  0
 28 30  4  0  0  0
 28 29  4  0  0  0
 29 32  4  0  0  0
 32 31  4  0  0  0
 31 30  4  0  0  0
  9 11  1  0  0  0
  9 10  2  0  0  0
  1 33  1  0  0  0
  3 34  1  0  0  0
 11 35  1  0  0  0
 13 36  1  0  0  0
 15 37  1  0  0  0
 16 38  1  0  0  0
 19 39  1  0  0  0
 20 40  1  0  0  0
 20 41  1  0  0  0
 21 42  1  0  0  0
 23 43  1  0  0  0
 24 44  1  0  0  0
 25 45  1  0  0  0
 27 46  1  0  0  0
 31 47  1  0  0  0
 32 48  1  0  0  0
M  END
$$$$
