3d91_ligand
  -I-interpret- 

 93 96  0  0  0  0  0  0  0  0999 V2000
   -0.7120    2.4160   -8.5340 O   0  0  0  0  0
    0.5450    2.8230   -7.9670 S   0  0  0  0  0
    0.8920    1.9090   -6.9370 O   0  0  0  0  0
    1.8020    2.7610   -9.0760 C   0  0  0  0  0
    3.1720    2.7680   -8.3870 C   0  0  0  0  0
    1.7560    3.9310  -10.0640 C   0  0  0  0  0
    1.6600    1.4730   -9.8610 C   0  0  0  0  0
    0.2970    4.3810   -7.4060 C   0  0  0  0  0
   -0.8670    4.5970   -6.4120 C   0  0  0  0  0
   -0.8190    6.0240   -5.8690 C   0  0  0  0  0
    0.4240    6.2650   -5.0360 C   0  0  0  0  0
    0.3630    6.1090   -3.6620 C   0  0  0  0  0
    1.5000    6.3480   -2.9190 C   0  0  0  0  0
    2.6800    6.7380   -3.5220 C   0  0  0  0  0
    2.7450    6.8790   -4.8850 C   0  0  0  0  0
    1.6100    6.6460   -5.6390 C   0  0  0  0  0
   -2.2160    4.5790   -7.0220 C   0  0  0  0  0
   -2.4010    4.9620   -8.1720 O   0  0  0  0  0
   -3.1750    4.1090   -6.2320 N   0  0  0  0  0
   -4.5450    4.0370   -6.7010 C   0  0  0  0  0
   -4.7460    2.6420   -7.2460 C   0  0  0  0  0
   -5.9630    2.5980   -8.1290 C   0  0  0  0  0
   -6.0110    2.5050   -9.4500 C   0  0  0  0  0
   -7.2130    2.4700   -9.9470 N   0  0  0  0  0
   -8.0240    2.5580   -8.8550 C   0  0  0  0  0
   -7.2360    2.6230   -7.7560 N   0  0  0  0  0
   -5.3800    4.2420   -5.5050 C   0  0  0  0  0
   -5.5070    3.3220   -4.7110 O   0  0  0  0  0
   -5.9100    5.4730   -5.3510 N   0  0  0  0  0
   -6.6730    5.7840   -4.1590 C   0  0  0  0  0
   -8.1830    5.7650   -4.4300 C   0  0  0  0  0
   -8.4830    6.7330   -5.3880 O   0  0  0  0  0
   -8.7130    4.4200   -5.0160 C   0  0  0  0  0
  -10.2300    4.2550   -4.9540 C   0  0  0  0  0
  -11.0300    4.9520   -6.0500 C   0  0  0  0  0
  -10.7920    3.4470   -6.1540 C   0  0  0  0  0
   -8.2020    3.5190   -4.0760 O   0  0  0  0  0
   -6.1200    7.1700   -3.8250 C   0  0  0  0  0
   -4.6950    7.1450   -3.2860 C   0  0  0  0  0
   -4.4040    8.5190   -2.6700 C   0  0  0  0  0
   -2.8840    8.6070   -2.5010 C   0  0  0  0  0
   -2.2990    7.4520   -1.6730 C   0  0  0  0  0
   -2.9480    6.0550   -1.8460 C   0  0  0  0  0
   -4.4390    6.0850   -2.1970 C   0  0  0  0  0
    3.2431    1.9136   -7.7139 H   0  0  0  0  0
    3.9567    2.7046   -9.1409 H   0  0  0  0  0
    3.2865    3.6908   -7.8182 H   0  0  0  0  0
    2.5740    3.8344  -10.7778 H   0  0  0  0  0
    0.8046    3.9186  -10.5958 H   0  0  0  0  0
    1.8567    4.8695   -9.5188 H   0  0  0  0  0
    0.7093    1.4769  -10.3941 H   0  0  0  0  0
    2.4787    1.3927  -10.5761 H   0  0  0  0  0
    1.6902    0.6260   -9.1756 H   0  0  0  0  0
    0.0498    4.9762   -8.2850 H   0  0  0  0  0
    1.2035    4.6477   -6.8627 H   0  0  0  0  0
   -0.7364    3.7903   -5.6907 H   0  0  0  0  0
   -1.6924    6.1802   -5.2359 H   0  0  0  0  0
   -0.8053    6.7127   -6.7137 H   0  0  0  0  0
   -0.5643    5.8036   -3.1774 H   0  0  0  0  0
    1.4669    6.2270   -1.8362 H   0  0  0  0  0
    3.5623    6.9343   -2.9129 H   0  0  0  0  0
    3.6783    7.1706   -5.3666 H   0  0  0  0  0
    1.6496    6.7638   -6.7219 H   0  0  0  0  0
   -2.9458    3.7965   -5.2885 H   0  0  0  0  0
   -4.7889    4.7678   -7.4721 H   0  0  0  0  0
   -4.8841    1.9511   -6.4143 H   0  0  0  0  0
   -3.8710    2.3586   -7.8309 H   0  0  0  0  0
   -5.1157    2.4613  -10.0702 H   0  0  0  0  0
   -9.1138    2.5733   -8.8648 H   0  0  0  0  0
   -5.7741    6.1824   -6.0712 H   0  0  0  0  0
   -6.5723    5.0716   -3.3402 H   0  0  0  0  0
   -8.6525    5.9353   -3.4611 H   0  0  0  0  0
   -9.4269    6.7269   -5.5628 H   0  0  0  0  0
   -8.4353    4.3140   -6.0647 H   0  0  0  0  0
  -10.3057    4.2236   -3.8671 H   0  0  0  0  0
  -10.9330    5.8315   -6.6865 H   0  0  0  0  0
  -11.8685    5.6446   -6.1224 H   0  0  0  0  0
  -11.3602    2.5351   -6.3377 H   0  0  0  0  0
  -10.4486    2.7173   -6.8873 H   0  0  0  0  0
   -8.4583    2.6261   -4.3180 H   0  0  0  0  0
   -6.7553    7.5969   -3.0490 H   0  0  0  0  0
   -6.1098    7.7489   -4.7485 H   0  0  0  0  0
   -4.0489    6.8946   -4.1274 H   0  0  0  0  0
   -4.9104    8.6320   -1.7114 H   0  0  0  0  0
   -4.7723    9.3199   -3.3110 H   0  0  0  0  0
   -2.6634    9.5356   -1.9746 H   0  0  0  0  0
   -2.4380    8.5602   -3.4945 H   0  0  0  0  0
   -2.4594    7.7252   -0.6301 H   0  0  0  0  0
   -1.2673    7.3419   -2.0070 H   0  0  0  0  0
   -2.8561    5.5404   -0.8895 H   0  0  0  0  0
   -2.4354    5.5659   -2.6744 H   0  0  0  0  0
   -4.7428    5.1059   -2.5673 H   0  0  0  0  0
   -5.0149    6.3358   -1.3062 H   0  0  0  0  0
  1  2  2  0  0  0
  2  3  2  0  0  0
  2  4  1  0  0  0
  2  8  1  0  0  0
  4  5  1  0  0  0
  4  6  1  0  0  0
  4  7  1  0  0  0
  8  9  1  0  0  0
  9 10  1  0  0  0
  9 17  1  0  0  0
 10 11  1  0  0  0
 11 12  4  0  0  0
 11 16  4  0  0  0
 12 13  4  0  0  0
 13 14  4  0  0  0
 14 15  4  0  0  0
 15 16  4  0  0  0
 17 18  2  0  0  0
 17 19  1  0  0  0
 19 20  1  0  0  0
 20 21  1  0  0  0
 20 27  1  0  0  0
 21 22  1  0  0  0
 22 23  4  0  0  0
 22 26  4  0  0  0
 23 24  4  0  0  0
 24 25  4  0  0  0
 25 26  4  0  0  0
 27 28  2  0  0  0
 27 29  1  0  0  0
 29 30  1  0  0  0
 30 31  1  0  0  0
 30 38  1  0  0  0
 31 32  1  0  0  0
 31 33  1  0  0  0
 33 34  1  0  0  0
 33 37  1  0  0  0
 34 35  1  0  0  0
 34 36  1  0  0  0
 35 36  1  0  0  0
 38 39  1  0  0  0
 39 40  1  0  0  0
 39 44  1  0  0  0
 40 41  1  0  0  0
 41 42  1  0  0  0
 42 43  1  0  0  0
 43 44  1  0  0  0
  5 45  1  0  0  0
  5 46  1  0  0  0
  5 47  1  0  0  0
  6 48  1  0  0  0
  6 49  1  0  0  0
  6 50  1  0  0  0
  7 51  1  0  0  0
  7 52  1  0  0  0
  7 53  1  0  0  0
  8 54  1  0  0  0
  8 55  1  0  0  0
  9 56  1  0  0  0
 10 57  1  0  0  0
 10 58  1  0  0  0
 12 59  1  0  0  0
 13 60  1  0  0  0
 14 61  1  0  0  0
 15 62  1  0  0  0
 16 63  1  0  0  0
 19 64  1  0  0  0
 20 65  1  0  0  0
 21 66  1  0  0  0
 21 67  1  0  0  0
 23 68  1  0  0  0
 25 69  1  0  0  0
 29 70  1  0  0  0
 30 71  1  0  0  0
 31 72  1  0  0  0
 32 73  1  0  0  0
 33 74  1  0  0  0
 34 75  1  0  0  0
 35 76  1  0  0  0
 35 77  1  0  0  0
 36 78  1  0  0  0
 36 79  1  0  0  0
 37 80  1  0  0  0
 38 81  1  0  0  0
 38 82  1  0  0  0
 39 83  1  0  0  0
 40 84  1  0  0  0
 40 85  1  0  0  0
 41 86  1  0  0  0
 41 87  1  0  0  0
 42 88  1  0  0  0
 42 89  1  0  0  0
 43 90  1  0  0  0
 43 91  1  0  0  0
 44 92  1  0  0  0
 44 93  1  0  0  0
M  END
$$$$
