### 
### Created by X-TOOL on Mon Sep 10 21:13:07 2018
### 

@<TRIPOS>MOLECULE
3amb_ligand
   61    65     1     0     0
SMALL
GAST_HUCK


@<TRIPOS>ATOM
      1 N1        -31.7510   -8.4810  -14.4850 N.4       1 VX6         0.4035
      2 C2        -30.3410   -8.6250  -14.0490 C.3       1 VX6        -0.0923
      3 C3        -30.1980   -9.7380  -13.0020 C.3       1 VX6         0.0128
      4 N4        -31.2820   -9.6310  -11.9610 N.pl3     1 VX6        -0.2962
      5 C5        -32.6870   -9.3550  -12.4020 C.3       1 VX6         0.0128
      6 C6        -32.6810   -8.1690  -13.3730 C.3       1 VX6        -0.0923
      7 C7        -31.8180   -7.3730  -15.4420 C.3       1 VX6        -0.1255
      8 C8        -30.9690   -9.7570  -10.5850 C.ar      1 VX6         0.1079
      9 C9        -31.9390   -9.6900   -9.5800 C.ar      1 VX6         0.0174
     10 C10       -31.5570   -9.8070   -8.2360 C.ar      1 VX6         0.1222
     11 N11       -30.2570   -9.9800   -7.9470 N.ar      1 VX6        -0.2565
     12 C12       -29.3410  -10.0380   -8.9290 C.ar      1 VX6         0.1445
     13 N13       -29.6900   -9.9290  -10.2220 N.ar      1 VX6        -0.2590
     14 N14       -32.5020   -9.7340   -7.2890 N.pl3     1 VX6        -0.2610
     15 C15       -32.3900   -9.8650   -5.9520 C.2       1 VX6         0.0964
     16 C17       -31.3160  -10.1340   -5.1750 C.2       1 VX6        -0.0260
     17 C18       -31.8230  -10.1420   -3.9400 C.2       1 VX6         0.0559
     18 N19       -33.1240   -9.8830   -3.9940 N.pl3     1 VX6        -0.2338
     19 N20       -33.4480   -9.7080   -5.1670 N.2       1 VX6        -0.2287
     20 C21       -31.0840  -10.3970   -2.6180 C.3       1 VX6        -0.0040
     21 S23       -27.6470  -10.2770   -8.5870 S.3       1 VX6        -0.0159
     22 C24       -27.4980   -9.9830   -6.8400 C.ar      1 VX6         0.0217
     23 C25       -27.4550   -8.6800   -6.3420 C.ar      1 VX6        -0.0596
     24 C26       -27.3360   -8.4440   -4.9640 C.ar      1 VX6        -0.0458
     25 C27       -27.2350   -9.5170   -4.0760 C.ar      1 VX6         0.0602
     26 C28       -27.2500  -10.8220   -4.5880 C.ar      1 VX6        -0.0458
     27 C29       -27.3850  -11.0570   -5.9610 C.ar      1 VX6        -0.0596
     28 N30       -27.0940   -9.2430   -2.7640 N.am      1 VX6        -0.2372
     29 C31       -27.1420  -10.0870   -1.7350 C.2       1 VX6         0.2051
     30 O32       -27.3650  -11.3040   -1.7980 O.2       1 VX6        -0.3854
     31 C33       -26.9200   -9.4060   -0.3990 C.3       1 VX6         0.0545
     32 C34       -27.8110   -9.9280    0.7480 C.3       1 VX6        -0.0304
     33 C35       -26.3100  -10.2760    0.7060 C.3       1 VX6        -0.0304
     34 H         -30.0151   -7.6843  -13.6051 H         1 VX6         0.0037
     35 H         -29.7320   -8.8811  -14.9160 H         1 VX6         0.0037
     36 H         -29.2287   -9.6400  -12.5132 H         1 VX6         0.0504
     37 H         -30.2816  -10.7038  -13.5003 H         1 VX6         0.0504
     38 H         -33.3044   -9.1178  -11.5356 H         1 VX6         0.0504
     39 H         -33.0960  -10.2348  -12.8987 H         1 VX6         0.0504
     40 H         -33.6850   -7.9998  -13.7621 H         1 VX6         0.0037
     41 H         -32.3563   -7.2655  -12.8570 H         1 VX6         0.0037
     42 H         -32.8380   -7.2772  -15.8142 H         1 VX6        -0.0019
     43 H         -31.5224   -6.4482  -14.9465 H         1 VX6        -0.0019
     44 H         -31.1433   -7.5724  -16.2745 H         1 VX6        -0.0019
     45 H         -32.9878   -9.5474   -9.8404 H         1 VX6         0.0505
     46 H         -33.4459   -9.5524   -7.6302 H         1 VX6         0.2116
     47 H         -30.2843  -10.3035   -5.4832 H         1 VX6         0.0218
     48 H         -33.7528   -9.8367   -3.1922 H         1 VX6         0.2453
     49 H         -30.6372  -11.3910   -2.6389 H         1 VX6         0.0437
     50 H         -30.3021   -9.6484   -2.4900 H         1 VX6         0.0437
     51 H         -31.7901  -10.3320   -1.7901 H         1 VX6         0.0437
     52 H         -27.5145   -7.8371   -7.0305 H         1 VX6         0.0535
     53 H         -27.3224   -7.4217   -4.5861 H         1 VX6         0.0489
     54 H         -27.1550  -11.6669   -3.9060 H         1 VX6         0.0489
     55 H         -27.4016  -12.0783   -6.3414 H         1 VX6         0.0535
     56 H         -26.9295   -8.2641   -2.5292 H         1 VX6         0.2236
     57 H         -26.6849   -8.4282   -0.8195 H         1 VX6         0.0543
     58 H         -28.7675  -10.4339    0.8792 H         1 VX6         0.0294
     59 H         -28.5452   -9.5446    1.4566 H         1 VX6         0.0294
     60 H         -25.4501  -10.2592    1.3756 H         1 VX6         0.0294
     61 H         -25.6747  -11.1575    0.7924 H         1 VX6         0.0294
@<TRIPOS>BOND
     1    1    2 1  
     2    1    6 1  
     3    1    7 1  
     4    2    3 1  
     5    3    4 1  
     6    4    5 1  
     7    4    8 1  
     8    5    6 1  
     9    8    9 ar 
    10    8   13 ar 
    11    9   10 ar 
    12   10   11 ar 
    13   10   14 1  
    14   11   12 ar 
    15   12   13 ar 
    16   12   21 1  
    17   14   15 1  
    18   15   16 1  
    19   15   19 2  
    20   16   17 2  
    21   17   18 1  
    22   17   20 1  
    23   18   19 1  
    24   21   22 1  
    25   22   23 ar 
    26   22   27 ar 
    27   23   24 ar 
    28   24   25 ar 
    29   25   26 ar 
    30   25   28 1  
    31   26   27 ar 
    32   28   29 am 
    33   29   30 2  
    34   29   31 1  
    35   31   32 1  
    36   31   33 1  
    37   32   33 1  
    38    2   34 1  
    39    2   35 1  
    40    3   36 1  
    41    3   37 1  
    42    5   38 1  
    43    5   39 1  
    44    6   40 1  
    45    6   41 1  
    46    7   42 1  
    47    7   43 1  
    48    7   44 1  
    49    9   45 1  
    50   14   46 1  
    51   16   47 1  
    52   18   48 1  
    53   20   49 1  
    54   20   50 1  
    55   20   51 1  
    56   23   52 1  
    57   24   53 1  
    58   26   54 1  
    59   27   55 1  
    60   28   56 1  
    61   31   57 1  
    62   32   58 1  
    63   32   59 1  
    64   33   60 1  
    65   33   61 1  
@<TRIPOS>SUBSTRUCTURE
     1 VX6         1

