3amb_ligand
  -I-interpret- 

 61 65  0  0  0  0  0  0  0  0999 V2000
  -31.7510   -8.4810  -14.4850 N   0  3  0  0  0
  -30.3410   -8.6250  -14.0490 C   0  0  0  0  0
  -30.1980   -9.7380  -13.0020 C   0  0  0  0  0
  -31.2820   -9.6310  -11.9610 N   0  0  0  0  0
  -32.6870   -9.3550  -12.4020 C   0  0  0  0  0
  -32.6810   -8.1690  -13.3730 C   0  0  0  0  0
  -31.8180   -7.3730  -15.4420 C   0  0  0  0  0
  -30.9690   -9.7570  -10.5850 C   0  0  0  0  0
  -31.9390   -9.6900   -9.5800 C   0  0  0  0  0
  -31.5570   -9.8070   -8.2360 C   0  0  0  0  0
  -30.2570   -9.9800   -7.9470 N   0  0  0  0  0
  -29.3410  -10.0380   -8.9290 C   0  0  0  0  0
  -29.6900   -9.9290  -10.2220 N   0  0  0  0  0
  -32.5020   -9.7340   -7.2890 N   0  0  0  0  0
  -32.3900   -9.8650   -5.9520 C   0  0  0  0  0
  -31.3160  -10.1340   -5.1750 C   0  0  0  0  0
  -31.8230  -10.1420   -3.9400 C   0  0  0  0  0
  -33.1240   -9.8830   -3.9940 N   0  0  0  0  0
  -33.4480   -9.7080   -5.1670 N   0  0  0  0  0
  -31.0840  -10.3970   -2.6180 C   0  0  0  0  0
  -27.6470  -10.2770   -8.5870 S   0  0  0  0  0
  -27.4980   -9.9830   -6.8400 C   0  0  0  0  0
  -27.4550   -8.6800   -6.3420 C   0  0  0  0  0
  -27.3360   -8.4440   -4.9640 C   0  0  0  0  0
  -27.2350   -9.5170   -4.0760 C   0  0  0  0  0
  -27.2500  -10.8220   -4.5880 C   0  0  0  0  0
  -27.3850  -11.0570   -5.9610 C   0  0  0  0  0
  -27.0940   -9.2430   -2.7640 N   0  0  0  0  0
  -27.1420  -10.0870   -1.7350 C   0  0  0  0  0
  -27.3650  -11.3040   -1.7980 O   0  0  0  0  0
  -26.9200   -9.4060   -0.3990 C   0  0  0  0  0
  -27.8110   -9.9280    0.7480 C   0  0  0  0  0
  -26.3100  -10.2760    0.7060 C   0  0  0  0  0
  -32.0366   -9.3740  -14.8866 H   0  0  0  0  0
  -30.0151   -7.6843  -13.6051 H   0  0  0  0  0
  -29.7320   -8.8811  -14.9160 H   0  0  0  0  0
  -29.2287   -9.6400  -12.5132 H   0  0  0  0  0
  -30.2816  -10.7038  -13.5003 H   0  0  0  0  0
  -33.3044   -9.1178  -11.5356 H   0  0  0  0  0
  -33.0960  -10.2348  -12.8987 H   0  0  0  0  0
  -33.6850   -7.9998  -13.7621 H   0  0  0  0  0
  -32.3563   -7.2655  -12.8570 H   0  0  0  0  0
  -32.8380   -7.2772  -15.8142 H   0  0  0  0  0
  -31.5224   -6.4482  -14.9465 H   0  0  0  0  0
  -31.1433   -7.5724  -16.2745 H   0  0  0  0  0
  -32.9878   -9.5474   -9.8404 H   0  0  0  0  0
  -33.4459   -9.5524   -7.6302 H   0  0  0  0  0
  -30.2843  -10.3035   -5.4832 H   0  0  0  0  0
  -30.6372  -11.3910   -2.6389 H   0  0  0  0  0
  -30.3021   -9.6484   -2.4900 H   0  0  0  0  0
  -31.7901  -10.3320   -1.7901 H   0  0  0  0  0
  -27.5145   -7.8371   -7.0305 H   0  0  0  0  0
  -27.3224   -7.4217   -4.5861 H   0  0  0  0  0
  -27.1550  -11.6669   -3.9060 H   0  0  0  0  0
  -27.4016  -12.0783   -6.3414 H   0  0  0  0  0
  -26.9295   -8.2641   -2.5292 H   0  0  0  0  0
  -26.6849   -8.4282   -0.8195 H   0  0  0  0  0
  -28.7675  -10.4339    0.8792 H   0  0  0  0  0
  -28.5452   -9.5446    1.4566 H   0  0  0  0  0
  -25.4501  -10.2592    1.3756 H   0  0  0  0  0
  -25.6747  -11.1575    0.7924 H   0  0  0  0  0
  1  2  1  0  0  0
  1  6  1  0  0  0
  1  7  1  0  0  0
  2  3  1  0  0  0
  3  4  1  0  0  0
  4  5  1  0  0  0
  4  8  1  0  0  0
  5  6  1  0  0  0
  8  9  4  0  0  0
  8 13  4  0  0  0
  9 10  4  0  0  0
 10 11  4  0  0  0
 10 14  1  0  0  0
 11 12  4  0  0  0
 12 13  4  0  0  0
 12 21  1  0  0  0
 14 15  1  0  0  0
 15 16  4  0  0  0
 15 19  4  0  0  0
 16 17  4  0  0  0
 17 18  4  0  0  0
 17 20  1  0  0  0
 18 19  4  0  0  0
 21 22  1  0  0  0
 22 23  4  0  0  0
 22 27  4  0  0  0
 23 24  4  0  0  0
 24 25  4  0  0  0
 25 26  4  0  0  0
 25 28  1  0  0  0
 26 27  4  0  0  0
 28 29  1  0  0  0
 29 30  2  0  0  0
 29 31  1  0  0  0
 31 32  1  0  0  0
 31 33  1  0  0  0
 32 33  1  0  0  0
  1 34  1  0  0  0
  2 35  1  0  0  0
  2 36  1  0  0  0
  3 37  1  0  0  0
  3 38  1  0  0  0
  5 39  1  0  0  0
  5 40  1  0  0  0
  6 41  1  0  0  0
  6 42  1  0  0  0
  7 43  1  0  0  0
  7 44  1  0  0  0
  7 45  1  0  0  0
  9 46  1  0  0  0
 14 47  1  0  0  0
 16 48  1  0  0  0
 20 49  1  0  0  0
 20 50  1  0  0  0
 20 51  1  0  0  0
 23 52  1  0  0  0
 24 53  1  0  0  0
 26 54  1  0  0  0
 27 55  1  0  0  0
 28 56  1  0  0  0
 31 57  1  0  0  0
 32 58  1  0  0  0
 32 59  1  0  0  0
 33 60  1  0  0  0
 33 61  1  0  0  0
M  END
$$$$
