4phu_ligand
  -I-interpret- 

 69 72  0  0  0  0  0  0  0  0999 V2000
  -54.9970   -0.8710   59.6860 C   0  0  0  0  0
  -56.3440    0.8570   60.7020 C   0  0  0  0  0
  -57.7790    1.0020   61.2050 C   0  0  0  0  0
  -57.7360    1.0580   62.7320 C   0  0  0  0  0
  -60.5810    1.2750   62.7050 C   0  0  0  0  0
  -54.6330   -2.2070   59.5990 C   0  0  0  0  0
  -53.1780   -4.0550   58.8160 C   0  0  0  0  0
  -51.5760   -2.0010   57.3990 C   0  0  0  0  0
  -49.2720   -2.7140   56.0140 C   0  0  0  0  0
  -49.1550   -2.0820   57.2450 C   0  0  0  0  0
  -47.7840   -1.7910   57.8180 C   0  0  0  0  0
  -46.1080   -2.9890   59.1470 C   0  0  0  0  0
  -44.0330   -1.9850   59.8090 C   0  0  0  0  0
  -42.2460   -3.6120   60.8170 C   0  0  0  0  0
  -52.3910    0.8440   57.5560 C   0  0  0  0  0
  -53.1530   -0.2560   58.2620 C   0  0  0  0  0
  -54.2530    0.0970   59.0140 C   0  0  0  0  0
  -56.0900   -0.5310   60.4250 O   0  0  0  0  0
  -59.2290    0.3370   63.4850 S   0  0  0  0  0
  -59.3430   -1.0340   63.1080 O   0  0  0  0  0
  -59.1770    0.6650   64.8730 O   0  0  0  0  0
  -53.5300   -2.5820   58.8620 C   0  0  0  0  0
  -52.7790   -1.6080   58.1840 C   0  0  0  0  0
  -51.6860   -2.6290   56.1520 C   0  0  0  0  0
  -50.5300   -2.9790   55.4760 C   0  0  0  0  0
  -47.3600   -2.9080   58.6180 O   0  0  0  0  0
  -45.3080   -1.8550   59.2730 C   0  0  0  0  0
  -43.5690   -3.2140   60.2190 C   0  0  0  0  0
  -41.2210   -3.3910   59.7090 C   0  0  0  0  0
  -39.8020   -3.3040   60.1950 C   0  0  0  0  0
  -39.4350   -3.0020   61.4670 O   0  0  0  0  0
  -38.9740   -3.5320   59.3430 O   0  0  0  0  0
  -42.4310   -5.1170   61.1530 C   0  0  0  0  0
  -43.6980   -5.4660   60.5480 O   0  0  0  0  0
  -44.3480   -4.3550   60.0980 C   0  0  0  0  0
  -45.6330   -4.2310   59.5640 C   0  0  0  0  0
  -50.3040   -1.7330   57.9500 C   0  0  0  0  0
  -55.6481    1.2165   61.4600 H   0  0  0  0  0
  -56.2085    1.4462   59.7950 H   0  0  0  0  0
  -58.3829    0.1570   60.8744 H   0  0  0  0  0
  -58.2298    1.9106   60.8057 H   0  0  0  0  0
  -57.6744    2.1039   63.0326 H   0  0  0  0  0
  -56.8733    0.4836   63.0695 H   0  0  0  0  0
  -60.5080    1.1821   61.6214 H   0  0  0  0  0
  -61.5385    0.8774   63.0413 H   0  0  0  0  0
  -60.5029    2.3250   62.9870 H   0  0  0  0  0
  -55.2223   -2.9642   60.1162 H   0  0  0  0  0
  -52.9810   -4.4119   59.8269 H   0  0  0  0  0
  -54.0108   -4.6131   58.3881 H   0  0  0  0  0
  -52.2898   -4.1959   58.2000 H   0  0  0  0  0
  -48.3756   -3.0042   55.4659 H   0  0  0  0  0
  -47.8282   -0.8941   58.4358 H   0  0  0  0  0
  -47.0742   -1.6317   57.0063 H   0  0  0  0  0
  -43.3950   -1.1065   59.9056 H   0  0  0  0  0
  -41.9272   -3.0647   61.7041 H   0  0  0  0  0
  -53.0562    1.3571   56.8615 H   0  0  0  0  0
  -52.0148    1.5540   58.2925 H   0  0  0  0  0
  -51.5549    0.4106   57.0072 H   0  0  0  0  0
  -54.5442    1.1451   59.0838 H   0  0  0  0  0
  -52.6651   -2.8385   55.7213 H   0  0  0  0  0
  -50.6049   -3.4705   54.5060 H   0  0  0  0  0
  -45.6774   -0.8799   58.9555 H   0  0  0  0  0
  -41.4586   -2.4387   59.2350 H   0  0  0  0  0
  -41.2805   -4.2485   59.0388 H   0  0  0  0  0
  -40.2204   -2.8533   61.9987 H   0  0  0  0  0
  -42.4251   -5.3010   62.2273 H   0  0  0  0  0
  -41.6122   -5.7263   60.7703 H   0  0  0  0  0
  -46.2685   -5.1119   59.4729 H   0  0  0  0  0
  -50.2215   -1.2538   58.9255 H   0  0  0  0  0
  1  6  4  0  0  0
 17  1  4  0  0  0
  1 18  1  0  0  0
  2  3  1  0  0  0
 18  2  1  0  0  0
  3  4  1  0  0  0
  4 19  1  0  0  0
 19  5  1  0  0  0
  6 22  4  0  0  0
 22  7  1  0  0  0
 23  8  1  0  0  0
  8 24  4  0  0  0
  8 37  4  0  0  0
 10  9  4  0  0  0
  9 25  4  0  0  0
 10 11  1  0  0  0
 37 10  4  0  0  0
 11 26  1  0  0  0
 26 12  1  0  0  0
 12 27  4  0  0  0
 12 36  4  0  0  0
 27 13  4  0  0  0
 13 28  4  0  0  0
 28 14  1  0  0  0
 14 29  1  0  0  0
 14 33  1  0  0  0
 16 15  1  0  0  0
 16 17  4  0  0  0
 16 23  4  0  0  0
 19 20  2  0  0  0
 19 21  2  0  0  0
 22 23  4  0  0  0
 24 25  4  0  0  0
 28 35  4  0  0  0
 29 30  1  0  0  0
 30 31  1  0  0  0
 30 32  2  0  0  0
 33 34  1  0  0  0
 34 35  1  0  0  0
 35 36  4  0  0  0
  2 38  1  0  0  0
  2 39  1  0  0  0
  3 40  1  0  0  0
  3 41  1  0  0  0
  4 42  1  0  0  0
  4 43  1  0  0  0
  5 44  1  0  0  0
  5 45  1  0  0  0
  5 46  1  0  0  0
  6 47  1  0  0  0
  7 48  1  0  0  0
  7 49  1  0  0  0
  7 50  1  0  0  0
  9 51  1  0  0  0
 11 52  1  0  0  0
 11 53  1  0  0  0
 13 54  1  0  0  0
 14 55  1  0  0  0
 15 56  1  0  0  0
 15 57  1  0  0  0
 15 58  1  0  0  0
 17 59  1  0  0  0
 24 60  1  0  0  0
 25 61  1  0  0  0
 27 62  1  0  0  0
 29 63  1  0  0  0
 29 64  1  0  0  0
 31 65  1  0  0  0
 33 66  1  0  0  0
 33 67  1  0  0  0
 36 68  1  0  0  0
 37 69  1  0  0  0
M  END
$$$$
