3whw_ligand
  -I-interpret- 

 66 74  0  0  0  0  0  0  0  0999 V2000
    3.9440  -24.0030   14.3440 N   0  0  0  0  0
    3.1430  -22.9450   14.1180 C   0  0  0  0  0
    3.6040  -21.8690   13.4930 N   0  0  0  0  0
    1.8510  -22.9650   14.5250 C   0  0  0  0  0
    1.3660  -24.0660   15.1620 C   0  0  0  0  0
    0.0620  -24.0440   15.5480 C   0  0  0  0  0
   -0.7480  -23.0000   15.3090 C   0  0  0  0  0
   -0.3190  -21.9860   14.5940 C   0  0  0  0  0
    1.0320  -21.9190   14.2380 C   0  0  0  0  0
    1.5230  -20.7990   13.6650 N   0  0  0  0  0
    2.8070  -20.8210   13.2820 C   0  0  0  0  0
   -0.5110  -25.2030   16.2330 C   0  0  0  0  0
    0.2300  -26.3200   16.5030 C   0  0  0  0  0
   -0.4040  -27.3640   17.1570 C   0  0  0  0  0
   -1.7420  -27.2340   17.5070 C   0  0  0  0  0
   -2.4250  -26.0740   17.2080 C   0  0  0  0  0
   -1.7660  -25.1310   16.5810 N   0  0  0  0  0
   -1.6900  -21.9100   18.6240 O   0  0  0  0  0
   -2.0920  -22.4150   17.6230 C   0  0  0  0  0
    3.3720  -19.6380   12.5840 C   0  0  0  0  0
   -5.7820  -22.7700   18.1830 O   0  0  0  0  0
   -5.5800  -23.5810   17.3030 C   0  0  0  0  0
   -4.7770  -23.2130   16.1090 C   0  0  0  0  0
   -4.3320  -24.1730   15.1240 C   0  0  0  0  0
   -4.3520  -21.8550   15.8640 C   0  0  0  0  0
   -3.5740  -21.9400   14.6260 C   0  0  0  0  0
   -3.5510  -23.3410   14.1610 C   0  0  0  0  0
   -6.1570  -24.9000   17.3980 O   0  0  0  0  0
   -6.8540  -25.2300   18.5250 C   0  0  0  0  0
   -8.2100  -25.0030   18.6440 C   0  0  0  0  0
   -8.9500  -24.4420   17.6430 O   0  0  0  0  0
   -9.0050  -23.0350   17.4130 C   0  0  0  0  0
   -8.8800  -25.3850   19.7890 C   0  0  0  0  0
   -8.1910  -25.9810   20.8300 C   0  0  0  0  0
   -6.8290  -26.2110   20.7180 C   0  0  0  0  0
   -6.1820  -25.8270   19.5570 C   0  0  0  0  0
   -4.8440  -26.0250   19.4240 O   0  0  0  0  0
   -4.2820  -27.2290   19.9320 C   0  0  0  0  0
   -2.7170  -23.2000   16.0670 Ru  0  0  0  0  0
    4.9155  -23.9826   14.0339 H   0  0  0  0  0
    3.5794  -24.8251   14.8253 H   0  0  0  0  0
    1.9987  -24.9323   15.3554 H   0  0  0  0  0
   -1.0096  -21.2031   14.2805 H   0  0  0  0  0
    0.2328  -25.9933   16.3344 H   0  0  0  0  0
    1.0233  -25.9912   17.1743 H   0  0  0  0  0
    0.5262  -26.7179   15.5324 H   0  0  0  0  0
    0.1239  -27.4597   18.1058 H   0  0  0  0  0
   -0.3808  -28.1916   16.4481 H   0  0  0  0  0
   -1.7436  -27.2774   18.5961 H   0  0  0  0  0
   -2.2504  -28.0056   16.9288 H   0  0  0  0  0
   -2.7105  -25.6448   18.1684 H   0  0  0  0  0
   -3.2276  -26.3708   16.5329 H   0  0  0  0  0
   -1.0669  -22.5395   17.2741 H   0  0  0  0  0
    4.2093  -19.2437   13.1597 H   0  0  0  0  0
    3.7176  -19.9331   11.5932 H   0  0  0  0  0
    2.6023  -18.8721   12.4886 H   0  0  0  0  0
   -3.4729  -23.5999   13.1051 H   0  0  0  0  0
   -9.3967  -22.5381   18.3005 H   0  0  0  0  0
   -8.0027  -22.6636   17.1997 H   0  0  0  0  0
   -9.6574  -22.8322   16.5637 H   0  0  0  0  0
   -9.9537  -25.2167   19.8729 H   0  0  0  0  0
   -8.7195  -26.2698   21.7385 H   0  0  0  0  0
   -6.2777  -26.6857   21.5297 H   0  0  0  0  0
   -4.4679  -27.2911   21.0042 H   0  0  0  0  0
   -4.7412  -28.0819   19.4323 H   0  0  0  0  0
   -3.2078  -27.2332   19.7474 H   0  0  0  0  0
  2  1  1  0  0  0
  2  3  4  0  0  0
  4  2  4  0  0  0
 11  3  4  0  0  0
  5  4  4  0  0  0
  9  4  4  0  0  0
  6  5  4  0  0  0
  7  6  4  0  0  0
 12  6  1  0  0  0
  7  8  4  0  0  0
  8  9  4  0  0  0
  9 10  4  0  0  0
 10 11  4  0  0  0
 11 20  1  0  0  0
 12 13  1  0  0  0
 17 12  1  0  0  0
 13 14  1  0  0  0
 15 14  1  0  0  0
 16 15  1  0  0  0
 17 16  1  0  0  0
 19 18  2  0  0  0
 22 21  2  0  0  0
 23 22  1  0  0  0
 22 28  1  0  0  0
 24 23  2  0  0  0
 23 25  1  0  0  0
 24 27  1  0  0  0
 26 25  2  0  0  0
 27 26  1  0  0  0
 28 29  1  0  0  0
 29 30  4  0  0  0
 29 36  4  0  0  0
 30 31  1  0  0  0
 30 33  4  0  0  0
 31 32  1  0  0  0
 33 34  4  0  0  0
 35 34  4  0  0  0
 36 35  4  0  0  0
 36 37  1  0  0  0
 37 38  1  0  0  0
 39  7  1  0  0  0
 39 17  1  0  0  0
 39 19  1  0  0  0
 39 24  1  0  0  0
 39 25  1  0  0  0
 39 26  1  0  0  0
 39 27  1  0  0  0
  1 40  1  0  0  0
  1 41  1  0  0  0
  5 42  1  0  0  0
  8 43  1  0  0  0
 12 44  1  0  0  0
 13 45  1  0  0  0
 13 46  1  0  0  0
 14 47  1  0  0  0
 14 48  1  0  0  0
 15 49  1  0  0  0
 15 50  1  0  0  0
 16 51  1  0  0  0
 16 52  1  0  0  0
 19 53  1  0  0  0
 20 54  1  0  0  0
 20 55  1  0  0  0
 20 56  1  0  0  0
 27 57  1  0  0  0
 32 58  1  0  0  0
 32 59  1  0  0  0
 32 60  1  0  0  0
 33 61  1  0  0  0
 34 62  1  0  0  0
 35 63  1  0  0  0
 38 64  1  0  0  0
 38 65  1  0  0  0
 38 66  1  0  0  0
M  END
$$$$
