### 
### Created by X-TOOL on Mon Sep 10 21:13:19 2018
### 

@<TRIPOS>MOLECULE
3whw_ligand
   68    76     1     0     0
SMALL
GAST_HUCK


@<TRIPOS>ATOM
      1 N2          3.9440  -24.0030   14.3440 N.pl3     1 RUX        -0.3139
      2 C3          3.1430  -22.9450   14.1180 C.ar      1 RUX         0.1213
      3 N           3.6040  -21.8690   13.4930 N.ar      1 RUX        -0.2682
      4 C2          1.8510  -22.9650   14.5250 C.ar      1 RUX         0.0253
      5 C7          1.3660  -24.0660   15.1620 C.ar      1 RUX        -0.0624
      6 C6          0.0620  -24.0440   15.5480 C.ar      1 RUX        -0.0120
      7 C5         -0.7480  -23.0000   15.3090 C.ar      1 RUX        -0.0599
      8 C4         -0.3190  -21.9860   14.5940 C.ar      1 RUX        -0.0510
      9 C1          1.0320  -21.9190   14.2380 C.ar      1 RUX         0.0218
     10 N1          1.5230  -20.7990   13.6650 N.ar      1 RUX        -0.3106
     11 C           2.8070  -20.8210   13.2820 C.ar      1 RUX         0.0598
     12 C8         -0.5110  -25.2030   16.2330 C.ar      1 RUX         0.0713
     13 C12         0.2300  -26.3200   16.5030 C.ar      1 RUX        -0.0442
     14 C11        -0.4040  -27.3640   17.1570 C.ar      1 RUX        -0.0785
     15 C10        -1.7420  -27.2340   17.5070 C.ar      1 RUX        -0.0439
     16 C9         -2.4250  -26.0740   17.2080 C.ar      1 RUX         0.0496
     17 N3         -1.7660  -25.1310   16.5810 N.pl3     1 RUX        -0.2665
     18 O11        -1.6900  -21.9100   18.6240 O.2       1 RUX        -0.3565
     19 C13        -2.0920  -22.4150   17.6230 C.2       1 RUX         0.0939
     20 C14         3.3720  -19.6380   12.5840 C.3       1 RUX        -0.0072
     21 O          -5.7820  -22.7700   18.1830 O.2       1 RUX        -0.3621
     22 C15        -5.5800  -23.5810   17.3030 C.2       1 RUX         0.2628
     23 C16        -4.7770  -23.2130   16.1090 C.2       1 RUX         0.0389
     24 C17        -4.3320  -24.1730   15.1240 C.2       1 RUX        -0.0476
     25 C18        -4.3520  -21.8550   15.8640 C.2       1 RUX        -0.0713
     26 C19        -3.5740  -21.9400   14.6260 C.2       1 RUX        -0.0718
     27 C20        -3.5510  -23.3410   14.1610 C.3       1 RUX         0.0048
     28 O1         -6.1570  -24.9000   17.3980 O.3       1 RUX        -0.2259
     29 C21        -6.8540  -25.2300   18.5250 C.ar      1 RUX         0.1772
     30 C22        -8.2100  -25.0030   18.6440 C.ar      1 RUX         0.1160
     31 O2         -8.9500  -24.4420   17.6430 O.3       1 RUX        -0.3273
     32 C23        -9.0050  -23.0350   17.4130 C.3       1 RUX         0.0567
     33 C24        -8.8800  -25.3850   19.7890 C.ar      1 RUX        -0.0511
     34 C25        -8.1910  -25.9810   20.8300 C.ar      1 RUX        -0.0891
     35 C26        -6.8290  -26.2110   20.7180 C.ar      1 RUX        -0.0511
     36 C27        -6.1820  -25.8270   19.5570 C.ar      1 RUX         0.1160
     37 O3         -4.8440  -26.0250   19.4240 O.3       1 RUX        -0.3273
     38 C28        -4.2820  -27.2290   19.9320 C.3       1 RUX         0.0567
     39 RU         -2.7170  -23.2000   16.0670 Ru        1 RUX         7.0000
     40 H1          3.5759  -24.8331   14.8301 H         1 RUX         0.1843
     41 H2          4.9250  -23.9824   14.0309 H         1 RUX         0.1843
     42 H3          1.9952  -24.9275   15.3543 H         1 RUX         0.0444
     43 H4         -1.7564  -22.9945   15.7066 H         1 RUX         0.0658
     44 H5         -1.0058  -21.2074   14.2822 H         1 RUX         0.0562
     45 H6          1.2733  -26.3862   16.2164 H         1 RUX         0.0594
     46 H7          0.1382  -28.2725   17.3930 H         1 RUX         0.0446
     47 H8         -2.2498  -28.0454   18.0158 H         1 RUX         0.0505
     48 H9         -3.4664  -25.9473   17.4810 H         1 RUX         0.1148
     49 H10        -2.2771  -24.2684   16.3453 H         1 RUX         0.2320
     50 H11        -3.1581  -22.4103   17.4009 H         1 RUX         0.1313
     51 H12        -1.3934  -22.8814   16.9299 H         1 RUX         0.1313
     52 H13         4.4291  -19.8245   12.3434 H         1 RUX         0.0443
     53 H14         3.2946  -18.7557   13.2364 H         1 RUX         0.0443
     54 H15         2.8109  -19.4577   11.6552 H         1 RUX         0.0443
     55 H16        -4.5209  -25.2450   15.0920 H         1 RUX         0.0713
     56 H17        -4.5619  -20.9700   16.4628 H         1 RUX         0.0417
     57 H18        -3.0891  -21.1021   14.1273 H         1 RUX         0.0589
     58 H19        -4.0041  -23.4074   13.1609 H         1 RUX         0.0735
     59 H20        -2.5123  -23.7004   14.1176 H         1 RUX         0.0735
     60 H21        -9.6632  -22.8290   16.5561 H         1 RUX         0.0573
     61 H22        -7.9940  -22.6589   17.1975 H         1 RUX         0.0573
     62 H23        -9.4003  -22.5323   18.3080 H         1 RUX         0.0573
     63 H24        -9.9478  -25.2176   19.8725 H         1 RUX         0.0425
     64 H25        -8.7166  -26.2682   21.7335 H         1 RUX         0.0477
     65 H26        -6.2807  -26.6831   21.5252 H         1 RUX         0.0425
     66 H27        -3.1978  -27.2345   19.7463 H         1 RUX         0.0573
     67 H28        -4.7446  -28.0906   19.4284 H         1 RUX         0.0573
     68 H29        -4.4689  -27.2929   21.0141 H         1 RUX         0.0573
@<TRIPOS>BOND
     1    2    1 1  
     2    2    3 ar 
     3    4    2 ar 
     4   11    3 ar 
     5    5    4 ar 
     6    9    4 ar 
     7    6    5 ar 
     8    7    6 ar 
     9   12    6 1  
    10    7    8 ar 
    11    8    9 ar 
    12    9   10 ar 
    13   10   11 ar 
    14   11   20 1  
    15   12   13 1  
    16   17   12 1  
    17   13   14 1  
    18   15   14 1  
    19   16   15 1  
    20   17   16 1  
    21   19   18 2  
    22   22   21 2  
    23   23   22 1  
    24   22   28 1  
    25   24   23 2  
    26   23   25 1  
    27   24   27 1  
    28   26   25 2  
    29   27   26 1  
    30   28   29 1  
    31   29   30 ar 
    32   29   36 ar 
    33   30   31 1  
    34   30   33 ar 
    35   31   32 1  
    36   33   34 ar 
    37   35   34 ar 
    38   36   35 ar 
    39   36   37 1  
    40   37   38 1  
    41   39    7 1  
    42   39   17 1  
    43   39   19 1  
    44   39   24 1  
    45   39   25 1  
    46   39   26 1  
    47   39   27 1  
    48    1   40 1  
    49    1   41 1  
    50    5   42 1  
    51    7   43 1  
    52    8   44 1  
    53   13   45 1  
    54   14   46 1  
    55   15   47 1  
    56   16   48 1  
    57   17   49 1  
    58   19   50 1  
    59   19   51 1  
    60   20   52 1  
    61   20   53 1  
    62   20   54 1  
    63   24   55 1  
    64   25   56 1  
    65   26   57 1  
    66   27   58 1  
    67   27   59 1  
    68   32   60 1  
    69   32   61 1  
    70   32   62 1  
    71   33   63 1  
    72   34   64 1  
    73   35   65 1  
    74   38   66 1  
    75   38   67 1  
    76   38   68 1  
@<TRIPOS>SUBSTRUCTURE
     1 RUX         1

