3r0t_ligand
  -I-interpret- 

 48 52  0  0  0  0  0  0  0  0999 V2000
   23.4210  -29.4780   10.4200 N   0  0  0  0  0
   23.4340  -28.4880   11.3390 C   0  0  0  0  0
   23.3100  -28.7500   12.6490 N   0  0  0  0  0
   23.1850  -30.0060   13.0720 C   0  0  0  0  0
   23.1470  -31.0450   12.1510 C   0  0  0  0  0
   23.2870  -30.7440   10.7970 C   0  0  0  0  0
   22.4640  -36.5470   15.3420 O   0  0  0  0  0
   22.0860  -37.2140   13.2680 O   0  0  0  0  0
   24.1160  -31.1230   20.2890 F   0  0  0  0  0
   22.0090  -30.9500   20.6960 F   0  0  0  0  0
   22.7140  -32.2580   19.1280 F   0  0  0  0  0
   22.5940  -27.5560   18.4090 C   0  0  0  0  0
   22.7770  -27.7610   17.0490 C   0  0  0  0  0
   22.6580  -28.6430   19.2690 C   0  0  0  0  0
   22.8000  -34.7250   12.2020 C   0  0  0  0  0
   22.9680  -33.4330   11.7210 C   0  0  0  0  0
   22.9730  -30.1300   17.4000 C   0  0  0  0  0
   22.7080  -33.8700   14.4480 C   0  0  0  0  0
   23.5000  -24.7620   11.5310 C   0  0  0  0  0
   24.8340  -25.3070   12.0630 C   0  0  0  0  0
   22.8850  -31.5200   14.8490 N   0  0  0  0  0
   22.9850  -29.1540   15.1960 N   0  0  0  0  0
   23.5800  -27.2160   10.9800 N   0  0  0  0  0
   22.4860  -36.3650   14.1010 C   0  0  0  0  0
   22.8770  -29.0440   16.5270 C   0  0  0  0  0
   22.7080  -34.9500   13.5740 C   0  0  0  0  0
   22.8430  -29.9250   18.7710 C   0  0  0  0  0
   23.0930  -30.2470   14.4320 C   0  0  0  0  0
   22.8740  -32.5680   13.9780 C   0  0  0  0  0
   22.9960  -32.3520   12.6090 C   0  0  0  0  0
   23.5980  -26.1970   12.0400 C   0  0  0  0  0
   22.9140  -31.1030   19.7470 C   0  0  0  0  0
   23.2865  -31.5415   10.0539 H   0  0  0  0  0
   22.1950  -36.8655   12.3801 H   0  0  0  0  0
   22.4027  -26.5553   18.7963 H   0  0  0  0  0
   22.8432  -26.9026   16.3806 H   0  0  0  0  0
   22.5622  -28.4888   20.3438 H   0  0  0  0  0
   22.7402  -35.5623   11.5068 H   0  0  0  0  0
   23.0782  -33.2609   10.6503 H   0  0  0  0  0
   23.1487  -31.1326   17.0101 H   0  0  0  0  0
   22.5764  -34.0431   15.5161 H   0  0  0  0  0
   23.1220  -24.2241   10.6616 H   0  0  0  0  0
   22.8614  -23.8880   11.6593 H   0  0  0  0  0
   25.6189  -25.0135   12.7600 H   0  0  0  0  0
   25.8801  -25.3504   11.7599 H   0  0  0  0  0
   22.9849  -28.2696   14.6878 H   0  0  0  0  0
   23.6766  -26.9549    9.9987 H   0  0  0  0  0
   23.0712  -26.7933   12.7850 H   0  0  0  0  0
  2  1  4  0  0  0
  6  1  4  0  0  0
  3  2  4  0  0  0
  2 23  1  0  0  0
  4  3  4  0  0  0
  4  5  4  0  0  0
 28  4  4  0  0  0
  5  6  4  0  0  0
  5 30  4  0  0  0
 24  7  2  0  0  0
 24  8  1  0  0  0
 32  9  1  0  0  0
 32 10  1  0  0  0
 32 11  1  0  0  0
 12 13  4  0  0  0
 14 12  4  0  0  0
 25 13  4  0  0  0
 27 14  4  0  0  0
 16 15  4  0  0  0
 26 15  4  0  0  0
 30 16  4  0  0  0
 17 25  4  0  0  0
 27 17  4  0  0  0
 18 26  4  0  0  0
 29 18  4  0  0  0
 20 19  1  0  0  0
 31 19  1  0  0  0
 31 20  1  0  0  0
 28 21  4  0  0  0
 21 29  4  0  0  0
 25 22  1  0  0  0
 22 28  1  0  0  0
 23 31  1  0  0  0
 26 24  1  0  0  0
 27 32  1  0  0  0
 29 30  4  0  0  0
  6 33  1  0  0  0
  8 34  1  0  0  0
 12 35  1  0  0  0
 13 36  1  0  0  0
 14 37  1  0  0  0
 15 38  1  0  0  0
 16 39  1  0  0  0
 17 40  1  0  0  0
 18 41  1  0  0  0
 19 42  1  0  0  0
 19 43  1  0  0  0
 20 44  1  0  0  0
 20 45  1  0  0  0
 22 46  1  0  0  0
 23 47  1  0  0  0
 31 48  1  0  0  0
M  END
$$$$
