5mnh_ligand
  -I-interpret- 

 17 17  0  0  0  0  0  0  0  0999 V2000
   -1.7930  -14.8770  -17.1720 C   0  0  0  0  0
   -1.3250  -15.5230  -16.0440 C   0  0  0  0  0
   -1.0530  -14.8210  -14.8880 C   0  0  0  0  0
   -1.2370  -13.4780  -14.8480 C   0  0  0  0  0
   -1.6700  -12.8190  -15.9720 C   0  0  0  0  0
   -1.9500  -13.5140  -17.1330 C   0  0  0  0  0
   -2.1320  -15.6410  -18.3840 C   0  0  0  0  0
   -1.7400  -16.8810  -18.5070 N   0  0  0  0  0
   -2.8330  -15.0940  -19.3410 N   0  0  0  0  0
   -1.1686  -16.6015  -16.0677 H   0  0  0  0  0
   -0.6895  -15.3468  -14.0051 H   0  0  0  0  0
   -1.0423  -12.9251  -13.9291 H   0  0  0  0  0
   -1.7942  -11.7364  -15.9482 H   0  0  0  0  0
   -2.2956  -12.9797  -18.0180 H   0  0  0  0  0
   -1.9818  -17.4117  -19.3439 H   0  0  0  0  0
   -3.0688  -15.6344  -20.1733 H   0  0  0  0  0
   -3.1446  -14.1265  -19.2559 H   0  0  0  0  0
  1  2  4  0  0  0
  1  6  4  0  0  0
  1  7  1  0  0  0
  2  3  4  0  0  0
  3  4  4  0  0  0
  4  5  4  0  0  0
  5  6  4  0  0  0
  7  8  2  0  0  0
  7  9  1  0  0  0
  2 10  1  0  0  0
  3 11  1  0  0  0
  4 12  1  0  0  0
  5 13  1  0  0  0
  6 14  1  0  0  0
  8 15  1  0  0  0
  9 16  1  0  0  0
  9 17  1  0  0  0
M  END
$$$$
