1mm7_ligand
  -I-interpret- 

 21 21  0  0  0  0  0  0  0  0999 V2000
   76.3200   25.9240   44.9670 C   0  0  0  0  0
   76.2290   26.2240   43.4660 C   0  0  0  0  0
   77.6700   26.5420   43.0440 C   0  0  0  0  0
   77.9500   24.8220   41.1760 C   0  0  0  0  0
   77.3830   26.2010   39.4900 C   0  0  0  0  0
   75.2300   27.3370   43.3670 N   0  3  0  0  0
   77.9110   26.1050   41.6570 N   0  0  0  0  0
   77.6320   24.9180   39.8630 N   0  0  0  0  0
   75.5970   26.5530   45.7490 O   0  0  0  0  0
   77.1170   25.0430   45.3260 O   0  0  0  0  0
   78.2130   23.8670   41.8330 O   0  0  0  0  0
   77.0700   26.6560   38.4150 O   0  0  0  0  0
   77.5450   26.9980   40.5930 O   0  0  0  0  0
   75.8820   25.4351   42.7987 H   0  0  0  0  0
   78.3570   26.0144   43.7056 H   0  0  0  0  0
   77.8281   27.6186   43.1083 H   0  0  0  0  0
   74.3171   27.0011   43.6738 H   0  0  0  0  0
   75.5258   28.1116   43.9610 H   0  0  0  0  0
   75.1696   27.6530   42.3991 H   0  0  0  0  0
   77.5849   24.1208   39.2284 H   0  0  0  0  0
   77.5708   24.6909   44.5568 H   0  0  0  0  0
  2  1  1  0  0  0
  1  9  2  0  0  0
  1 10  1  0  0  0
  3  2  1  0  0  0
  2  6  1  0  0  0
  7  3  1  0  0  0
 13  7  1  0  0  0
  5 13  1  0  0  0
  5 12  2  0  0  0
  4 11  2  0  0  0
  8  5  1  0  0  0
  8  4  1  0  0  0
  7  4  1  0  0  0
  2 14  1  0  0  0
  3 15  1  0  0  0
  3 16  1  0  0  0
  6 17  1  0  0  0
  6 18  1  0  0  0
  6 19  1  0  0  0
  8 20  1  0  0  0
 10 21  1  0  0  0
M  END
$$$$
