### 
### Created by X-TOOL on Mon Sep 10 21:13:05 2018
### 

@<TRIPOS>MOLECULE
2y56_ligand
   51    54     1     0     0
SMALL
GAST_HUCK


@<TRIPOS>ATOM
      1 O2         90.7710   31.5510  -29.0800 O.2       1 V11        -0.3568
      2 C1         90.2860   32.1450  -30.0350 C.2       1 V11         0.2635
      3 C2         89.6840   33.5320  -29.9070 C.ar      1 V11         0.0620
      4 C7         89.6070   34.3650  -31.0330 C.ar      1 V11        -0.0406
      5 C6         89.0260   35.6330  -30.9410 C.ar      1 V11        -0.0559
      6 C5         88.5190   36.0860  -29.7250 C.ar      1 V11        -0.0573
      7 C4         88.5700   35.2550  -28.6030 C.ar      1 V11        -0.0559
      8 C3         89.1430   33.9810  -28.6900 C.ar      1 V11        -0.0406
      9 O1         90.2410   31.4970  -31.3360 O.3       1 V11        -0.2743
     10 C8         90.8700   30.2260  -31.4360 C.3       1 V11         0.0834
     11 C12        92.3890   30.3660  -31.2880 C.3       1 V11        -0.0382
     12 C11        93.1250   30.6800  -32.5910 C.3       1 V11        -0.0970
     13 C13        92.5900   31.9870  -33.1770 C.3       1 V11        -0.0705
     14 C14        91.4430   31.5710  -34.0790 C.3       1 V11        -0.0705
     15 C10        91.3780   30.0470  -33.9420 C.3       1 V11        -0.0970
     16 C9         90.4570   29.6460  -32.7880 C.3       1 V11        -0.0382
     17 N          92.7230   29.6220  -33.5300 N.4       1 V11         0.4103
     18 C15        93.6240   29.5440  -34.6910 C.3       1 V11        -0.0751
     19 C16        94.4190   28.2510  -34.5710 C.3       1 V11         0.0707
     20 O3         95.5970   28.4900  -33.7900 O.3       1 V11        -0.3813
     21 C17        94.8060   27.7290  -35.9040 C.ar      1 V11        -0.0167
     22 C22        95.6810   28.4610  -36.7190 C.ar      1 V11        -0.0580
     23 C21        96.0750   27.9570  -37.9620 C.ar      1 V11        -0.0685
     24 C20        95.5840   26.7210  -38.3900 C.ar      1 V11        -0.0687
     25 C19        94.7100   25.9860  -37.5760 C.ar      1 V11        -0.0685
     26 C18        94.3230   26.4830  -36.3280 C.ar      1 V11        -0.0580
     27 H          90.0037   34.0205  -31.9880 H         1 V11         0.0672
     28 H          88.9694   36.2697  -31.8239 H         1 V11         0.0630
     29 H          88.0850   37.0830  -29.6494 H         1 V11         0.0654
     30 H          88.1609   35.6011  -27.6538 H         1 V11         0.0630
     31 H          89.1697   33.3356  -27.8120 H         1 V11         0.0672
     32 H          90.5603   29.5520  -30.6373 H         1 V11         0.0646
     33 H          92.7651   29.4071  -30.9315 H         1 V11         0.0276
     34 H          92.5685   31.2007  -30.6104 H         1 V11         0.0276
     35 H          94.2003   30.7481  -32.4259 H         1 V11         0.0054
     36 H          93.3600   32.5292  -33.7259 H         1 V11         0.0248
     37 H          92.2626   32.6754  -32.3979 H         1 V11         0.0248
     38 H          91.6031   31.8812  -35.1116 H         1 V11         0.0248
     39 H          90.5052   32.0466  -33.7919 H         1 V11         0.0248
     40 H          91.0265   29.6085  -34.8759 H         1 V11         0.0054
     41 H          89.4637   30.0323  -33.0167 H         1 V11         0.0276
     42 H          90.4995   28.5603  -32.7016 H         1 V11         0.0276
     43 H          94.2952   30.4026  -34.7096 H         1 V11         0.0065
     44 H          93.0510   29.5533  -35.6182 H         1 V11         0.0065
     45 H          93.7895   27.5055  -34.0850 H         1 V11         0.0736
     46 H          96.0995   27.6756  -33.7134 H         1 V11         0.2129
     47 H          96.0558   29.4275  -36.3819 H         1 V11         0.0557
     48 H          96.7600   28.5240  -38.5924 H         1 V11         0.0599
     49 H          95.8817   26.3261  -39.3613 H         1 V11         0.0559
     50 H          94.3308   25.0230  -37.9179 H         1 V11         0.0599
     51 H          93.6520   25.9072  -35.6905 H         1 V11         0.0557
@<TRIPOS>BOND
     1    1    2 2  
     2    2    3 1  
     3    2    9 1  
     4    3    4 ar 
     5    3    8 ar 
     6    4    5 ar 
     7    5    6 ar 
     8    6    7 ar 
     9    7    8 ar 
    10    9   10 1  
    11   10   11 1  
    12   10   16 1  
    13   11   12 1  
    14   12   13 1  
    15   12   17 1  
    16   13   14 1  
    17   14   15 1  
    18   15   16 1  
    19   15   17 1  
    20   17   18 1  
    21   18   19 1  
    22   19   20 1  
    23   19   21 1  
    24   21   22 ar 
    25   21   26 ar 
    26   22   23 ar 
    27   23   24 ar 
    28   24   25 ar 
    29   25   26 ar 
    30    4   27 1  
    31    5   28 1  
    32    6   29 1  
    33    7   30 1  
    34    8   31 1  
    35   10   32 1  
    36   11   33 1  
    37   11   34 1  
    38   12   35 1  
    39   13   36 1  
    40   13   37 1  
    41   14   38 1  
    42   14   39 1  
    43   15   40 1  
    44   16   41 1  
    45   16   42 1  
    46   18   43 1  
    47   18   44 1  
    48   19   45 1  
    49   20   46 1  
    50   22   47 1  
    51   23   48 1  
    52   24   49 1  
    53   25   50 1  
    54   26   51 1  
@<TRIPOS>SUBSTRUCTURE
     1 V11         1

