2y56_ligand
  -I-interpret- 

 52 55  0  0  0  0  0  0  0  0999 V2000
   90.7710   31.5510  -29.0800 O   0  0  0  0  0
   90.2860   32.1450  -30.0350 C   0  0  0  0  0
   89.6840   33.5320  -29.9070 C   0  0  0  0  0
   89.6070   34.3650  -31.0330 C   0  0  0  0  0
   89.0260   35.6330  -30.9410 C   0  0  0  0  0
   88.5190   36.0860  -29.7250 C   0  0  0  0  0
   88.5700   35.2550  -28.6030 C   0  0  0  0  0
   89.1430   33.9810  -28.6900 C   0  0  0  0  0
   90.2410   31.4970  -31.3360 O   0  0  0  0  0
   90.8700   30.2260  -31.4360 C   0  0  0  0  0
   92.3890   30.3660  -31.2880 C   0  0  0  0  0
   93.1250   30.6800  -32.5910 C   0  0  0  0  0
   92.5900   31.9870  -33.1770 C   0  0  0  0  0
   91.4430   31.5710  -34.0790 C   0  0  0  0  0
   91.3780   30.0470  -33.9420 C   0  0  0  0  0
   90.4570   29.6460  -32.7880 C   0  0  0  0  0
   92.7230   29.6220  -33.5300 N   0  3  0  0  0
   93.6240   29.5440  -34.6910 C   0  0  0  0  0
   94.4190   28.2510  -34.5710 C   0  0  0  0  0
   95.5970   28.4900  -33.7900 O   0  0  0  0  0
   94.8060   27.7290  -35.9040 C   0  0  0  0  0
   95.6810   28.4610  -36.7190 C   0  0  0  0  0
   96.0750   27.9570  -37.9620 C   0  0  0  0  0
   95.5840   26.7210  -38.3900 C   0  0  0  0  0
   94.7100   25.9860  -37.5760 C   0  0  0  0  0
   94.3230   26.4830  -36.3280 C   0  0  0  0  0
   90.0037   34.0205  -31.9880 H   0  0  0  0  0
   88.9694   36.2697  -31.8239 H   0  0  0  0  0
   88.0850   37.0830  -29.6494 H   0  0  0  0  0
   88.1609   35.6011  -27.6538 H   0  0  0  0  0
   89.1697   33.3356  -27.8120 H   0  0  0  0  0
   90.5603   29.5520  -30.6373 H   0  0  0  0  0
   92.7651   29.4071  -30.9315 H   0  0  0  0  0
   92.5685   31.2007  -30.6104 H   0  0  0  0  0
   94.2003   30.7481  -32.4259 H   0  0  0  0  0
   93.3600   32.5292  -33.7259 H   0  0  0  0  0
   92.2626   32.6754  -32.3979 H   0  0  0  0  0
   91.6031   31.8812  -35.1116 H   0  0  0  0  0
   90.5052   32.0466  -33.7919 H   0  0  0  0  0
   91.0265   29.6085  -34.8759 H   0  0  0  0  0
   89.4637   30.0323  -33.0167 H   0  0  0  0  0
   90.4995   28.5603  -32.7016 H   0  0  0  0  0
   92.7519   28.6925  -33.1110 H   0  0  0  0  0
   94.2952   30.4026  -34.7096 H   0  0  0  0  0
   93.0510   29.5533  -35.6182 H   0  0  0  0  0
   93.7895   27.5055  -34.0850 H   0  0  0  0  0
   96.0995   27.6756  -33.7134 H   0  0  0  0  0
   96.0558   29.4275  -36.3819 H   0  0  0  0  0
   96.7600   28.5240  -38.5924 H   0  0  0  0  0
   95.8817   26.3261  -39.3613 H   0  0  0  0  0
   94.3308   25.0230  -37.9179 H   0  0  0  0  0
   93.6520   25.9072  -35.6905 H   0  0  0  0  0
  1  2  2  0  0  0
  2  3  1  0  0  0
  2  9  1  0  0  0
  3  4  4  0  0  0
  3  8  4  0  0  0
  4  5  4  0  0  0
  5  6  4  0  0  0
  6  7  4  0  0  0
  7  8  4  0  0  0
  9 10  1  0  0  0
 10 11  1  0  0  0
 10 16  1  0  0  0
 11 12  1  0  0  0
 12 13  1  0  0  0
 12 17  1  0  0  0
 13 14  1  0  0  0
 14 15  1  0  0  0
 15 16  1  0  0  0
 15 17  1  0  0  0
 17 18  1  0  0  0
 18 19  1  0  0  0
 19 20  1  0  0  0
 19 21  1  0  0  0
 21 22  4  0  0  0
 21 26  4  0  0  0
 22 23  4  0  0  0
 23 24  4  0  0  0
 24 25  4  0  0  0
 25 26  4  0  0  0
  4 27  1  0  0  0
  5 28  1  0  0  0
  6 29  1  0  0  0
  7 30  1  0  0  0
  8 31  1  0  0  0
 10 32  1  0  0  0
 11 33  1  0  0  0
 11 34  1  0  0  0
 12 35  1  0  0  0
 13 36  1  0  0  0
 13 37  1  0  0  0
 14 38  1  0  0  0
 14 39  1  0  0  0
 15 40  1  0  0  0
 16 41  1  0  0  0
 16 42  1  0  0  0
 17 43  1  0  0  0
 18 44  1  0  0  0
 18 45  1  0  0  0
 19 46  1  0  0  0
 20 47  1  0  0  0
 22 48  1  0  0  0
 23 49  1  0  0  0
 24 50  1  0  0  0
 25 51  1  0  0  0
 26 52  1  0  0  0
M  END
$$$$
