4deb_ligand
  -I-interpret- 

 41 43  0  0  0  0  0  0  0  0999 V2000
   -2.8300  -32.8940    6.7300 N   0  0  0  0  0
   -3.8160  -30.8470    6.3360 N   0  0  0  0  0
   -3.6850  -31.8290    8.5330 N   0  0  0  0  0
   -4.8000  -28.8050    6.0810 N   0  0  0  0  0
   -1.8240  -33.6930    0.4960 N   0  0  0  0  0
   -1.4210  -34.0600    5.2980 C   0  0  0  0  0
   -1.0090  -34.4330    4.0010 C   0  0  0  0  0
   -1.6730  -33.9280    2.8640 C   0  0  0  0  0
   -2.7600  -33.0370    3.0450 C   0  0  0  0  0
   -3.1710  -32.6670    4.3460 C   0  0  0  0  0
   -2.4980  -33.1790    5.4940 C   0  0  0  0  0
   -3.4500  -31.8440    7.1890 C   0  0  0  0  0
   -4.4610  -29.7690    6.8760 C   0  0  0  0  0
   -4.7530  -29.6500    8.2440 C   0  0  0  0  0
   -4.3340  -30.7270    9.0260 C   0  0  0  0  0
   -5.7620  -28.8360    5.2290 C   0  0  0  0  0
   -5.5480  -29.2580    3.8700 C   0  0  0  0  0
   -6.6370  -29.2670    2.9430 C   0  0  0  0  0
   -7.9390  -28.8510    3.3700 C   0  0  0  0  0
   -8.1420  -28.4260    4.7340 C   0  0  0  0  0
   -7.0500  -28.4260    5.6430 C   0  0  0  0  0
   -9.4970  -27.9630    5.2470 C   0  0  0  0  0
   -1.2760  -34.2990    1.5980 C   0  0  0  0  0
   -0.4490  -35.1850    1.4340 O   0  0  0  0  0
   -9.3080  -26.8420    6.0810 F   0  0  0  0  0
  -10.3290  -27.5920    4.1840 F   0  0  0  0  0
  -10.1030  -28.9950    5.9780 F   0  0  0  0  0
   -2.5668  -33.5897    7.4279 H   0  0  0  0  0
   -4.2553  -27.9444    6.1356 H   0  0  0  0  0
   -1.5402  -33.9834   -0.4397 H   0  0  0  0  0
   -2.5153  -32.9521    0.6123 H   0  0  0  0  0
   -0.8944  -34.4625    6.1633 H   0  0  0  0  0
   -0.1700  -35.1176    3.8768 H   0  0  0  0  0
   -3.2819  -32.6349    2.1766 H   0  0  0  0  0
   -4.0106  -31.9836    4.4728 H   0  0  0  0  0
   -5.2666  -28.7844    8.6624 H   0  0  0  0  0
   -4.5355  -30.6896   10.0966 H   0  0  0  0  0
   -4.5552  -29.5710    3.5469 H   0  0  0  0  0
   -6.4764  -29.5896    1.9143 H   0  0  0  0  0
   -8.7728  -28.8554    2.6680 H   0  0  0  0  0
   -7.2074  -28.1057    6.6729 H   0  0  0  0  0
 11  1  1  0  0  0
  1 12  1  0  0  0
 12  2  4  0  0  0
  2 13  4  0  0  0
 12  3  4  0  0  0
  3 15  4  0  0  0
 13  4  1  0  0  0
  4 16  1  0  0  0
 23  5  1  0  0  0
  7  6  4  0  0  0
  6 11  4  0  0  0
  8  7  4  0  0  0
  8  9  4  0  0  0
  8 23  1  0  0  0
  9 10  4  0  0  0
 10 11  4  0  0  0
 13 14  4  0  0  0
 14 15  4  0  0  0
 16 17  4  0  0  0
 16 21  4  0  0  0
 17 18  4  0  0  0
 18 19  4  0  0  0
 19 20  4  0  0  0
 20 21  4  0  0  0
 20 22  1  0  0  0
 22 25  1  0  0  0
 22 26  1  0  0  0
 22 27  1  0  0  0
 23 24  2  0  0  0
  1 28  1  0  0  0
  4 29  1  0  0  0
  5 30  1  0  0  0
  5 31  1  0  0  0
  6 32  1  0  0  0
  7 33  1  0  0  0
  9 34  1  0  0  0
 10 35  1  0  0  0
 14 36  1  0  0  0
 15 37  1  0  0  0
 17 38  1  0  0  0
 18 39  1  0  0  0
 19 40  1  0  0  0
 21 41  1  0  0  0
M  END
$$$$
