3ms2_ligand
  -I-interpret- 

 45 46  0  0  0  0  0  0  0  0999 V2000
   19.3350   14.9500   56.0300 C   0  0  0  0  0
   18.8510   13.6940   55.4910 N   0  0  0  0  0
   18.4110   12.8680   57.9660 S   0  0  0  0  0
   20.6050   15.3410   55.2690 C   0  0  0  0  0
   17.9330   11.6030   55.6760 N   0  0  0  0  0
   21.6850   14.4590   55.5860 O   0  0  0  0  0
   20.9460   16.7850   55.6180 C   0  0  0  0  0
   17.9240   11.5120   54.4310 N   0  0  0  0  0
   22.1210   17.2090   54.9230 O   0  0  0  0  0
   19.7860   17.6680   55.1760 C   0  0  0  0  0
   20.0570   19.0310   55.4920 O   0  0  0  0  0
   18.4500   17.2430   55.7890 C   0  0  0  0  0
   18.2440   15.8270   55.7350 O   0  0  0  0  0
   17.3240   17.8390   54.9590 C   0  0  0  0  0
   16.7780   18.9530   55.6660 O   0  0  0  0  0
   18.3920   12.7150   56.2660 C   0  0  0  0  0
   17.5070   10.4650   53.8810 C   0  0  0  0  0
   17.4810   10.2820   52.4130 C   0  0  0  0  0
   18.1800   11.1320   51.5460 C   0  0  0  0  0
   18.1250   10.9010   50.1690 C   0  0  0  0  0
   17.3800    9.8250   49.6590 C   0  0  0  0  0
   16.6870    8.9830   50.5240 C   0  0  0  0  0
   16.7410    9.2180   51.8980 C   0  0  0  0  0
   17.2990    9.5630   48.1750 C   0  0  0  0  0
   19.5979   14.9479   57.0878 H   0  0  0  0  0
   18.8629   13.5560   54.4804 H   0  0  0  0  0
   20.4355   15.2558   54.1956 H   0  0  0  0  0
   21.4405   13.5597   55.3554 H   0  0  0  0  0
   21.1203   16.8609   56.6913 H   0  0  0  0  0
   22.8639   16.6625   55.1896 H   0  0  0  0  0
   19.6931   17.5509   54.0963 H   0  0  0  0  0
   19.3196   19.5767   55.2089 H   0  0  0  0  0
   18.4619   17.5792   56.8258 H   0  0  0  0  0
   16.5499   17.0902   54.7912 H   0  0  0  0  0
   17.7077   18.1647   53.9921 H   0  0  0  0  0
   16.0650   19.3387   55.1517 H   0  0  0  0  0
   16.4515   10.4453   54.1525 H   0  0  0  0  0
   18.2192    9.7095   54.2129 H   0  0  0  0  0
   18.7609   11.9651   51.9416 H   0  0  0  0  0
   18.6631   11.5593   49.4870 H   0  0  0  0  0
   16.1074    8.1476   50.1313 H   0  0  0  0  0
   16.1978    8.5616   52.5778 H   0  0  0  0  0
   16.8629   10.4294   47.6777 H   0  0  0  0  0
   18.3005    9.3838   47.7838 H   0  0  0  0  0
   16.6753    8.6873   47.9955 H   0  0  0  0  0
  2  1  1  0  0  0
  1  4  1  0  0  0
  1 13  1  0  0  0
 16  2  1  0  0  0
 16  3  2  0  0  0
  4  6  1  0  0  0
  4  7  1  0  0  0
  5  8  2  0  0  0
  5 16  1  0  0  0
  7  9  1  0  0  0
  7 10  1  0  0  0
  8 17  1  0  0  0
 10 11  1  0  0  0
 10 12  1  0  0  0
 12 13  1  0  0  0
 12 14  1  0  0  0
 14 15  1  0  0  0
 17 18  1  0  0  0
 18 19  4  0  0  0
 18 23  4  0  0  0
 19 20  4  0  0  0
 20 21  4  0  0  0
 21 22  4  0  0  0
 21 24  1  0  0  0
 22 23  4  0  0  0
  1 25  1  0  0  0
  2 26  1  0  0  0
  4 27  1  0  0  0
  6 28  1  0  0  0
  7 29  1  0  0  0
  9 30  1  0  0  0
 10 31  1  0  0  0
 11 32  1  0  0  0
 12 33  1  0  0  0
 14 34  1  0  0  0
 14 35  1  0  0  0
 15 36  1  0  0  0
 17 37  1  0  0  0
 17 38  1  0  0  0
 19 39  1  0  0  0
 20 40  1  0  0  0
 22 41  1  0  0  0
 23 42  1  0  0  0
 24 43  1  0  0  0
 24 44  1  0  0  0
 24 45  1  0  0  0
M  END
$$$$
