4py2_ligand
  -I-interpret- 

 40 41  0  0  0  0  0  0  0  0999 V2000
   29.2100   10.1610   11.3400 C   0  0  0  0  0
   28.0730   10.6210   10.6760 C   0  0  0  0  0
   27.9960   10.5410    8.9770 Cl  0  0  0  0  0
   26.9640   11.1640   11.3400 C   0  0  0  0  0
   26.9420   11.2550   12.7420 C   0  0  0  0  0
   25.4560   11.9760   13.4590 Cl  0  0  0  0  0
   28.1110   10.7770   13.4300 C   0  0  0  0  0
   29.2260   10.2470   12.7390 C   0  0  0  0  0
   30.5320    9.7260   13.4270 C   0  0  0  0  0
   30.4350    8.3640   13.9220 N   0  3  0  0  0
   30.5350    7.3270   12.8840 C   0  0  0  0  0
   30.7850    5.9300   13.5430 C   0  0  0  0  0
   30.6890    4.7270   12.5720 C   0  0  0  0  0
   29.3190    4.5200   12.2400 N   0  0  0  0  0
   28.9360    3.6960   11.1580 C   0  0  0  0  0
   29.7820    3.1350   10.4930 O   0  0  0  0  0
   27.5280    3.5470   10.9450 N   0  0  0  0  0
   26.9660    2.7970    9.8900 C   0  0  0  0  0
   25.4530    2.8810    9.5500 C   0  0  0  0  0
   25.2010    2.0470    8.3930 C   0  0  0  0  0
   26.5860    1.3340    7.8870 S   0  0  0  0  0
   27.6640    1.9220    8.9470 C   0  0  0  0  0
   30.0564    9.7491   10.7904 H   0  0  0  0  0
   26.1103   11.5191   10.7628 H   0  0  0  0  0
   28.1388   10.8246   14.5186 H   0  0  0  0  0
   30.7243   10.3694   14.2855 H   0  0  0  0  0
   31.3219    9.7419   12.6760 H   0  0  0  0  0
   29.5147    8.2680   14.3511 H   0  0  0  0  0
   31.2179    8.2227   14.5604 H   0  0  0  0  0
   31.3667    7.5638   12.2204 H   0  0  0  0  0
   29.6033    7.2948   12.3192 H   0  0  0  0  0
   30.0088    5.7918   14.2957 H   0  0  0  0  0
   31.8029    5.9416   13.9327 H   0  0  0  0  0
   31.0953    3.8336   13.0462 H   0  0  0  0  0
   31.2632    4.9322   11.6685 H   0  0  0  0  0
   28.5973    4.9777   12.7968 H   0  0  0  0  0
   26.8931    4.0108   11.5948 H   0  0  0  0  0
   24.7087    3.4669   10.0894 H   0  0  0  0  0
   24.2260    1.9126    7.9245 H   0  0  0  0  0
   28.7315    1.7019    8.9555 H   0  0  0  0  0
  1  2  4  0  0  0
  1  8  4  0  0  0
  2  3  1  0  0  0
  2  4  4  0  0  0
  4  5  4  0  0  0
  5  6  1  0  0  0
  5  7  4  0  0  0
  7  8  4  0  0  0
  8  9  1  0  0  0
  9 10  1  0  0  0
 10 11  1  0  0  0
 11 12  1  0  0  0
 12 13  1  0  0  0
 13 14  1  0  0  0
 14 15  1  0  0  0
 15 16  2  0  0  0
 15 17  1  0  0  0
 17 18  1  0  0  0
 18 19  4  0  0  0
 18 22  4  0  0  0
 19 20  4  0  0  0
 20 21  4  0  0  0
 21 22  4  0  0  0
  1 23  1  0  0  0
  4 24  1  0  0  0
  7 25  1  0  0  0
  9 26  1  0  0  0
  9 27  1  0  0  0
 10 28  1  0  0  0
 10 29  1  0  0  0
 11 30  1  0  0  0
 11 31  1  0  0  0
 12 32  1  0  0  0
 12 33  1  0  0  0
 13 34  1  0  0  0
 13 35  1  0  0  0
 14 36  1  0  0  0
 17 37  1  0  0  0
 19 38  1  0  0  0
 20 39  1  0  0  0
 22 40  1  0  0  0
M  END
$$$$
