2viq_ligand
  -I-interpret- 

 56 57  0  0  0  0  0  0  0  0999 V2000
   28.2120   13.5920   32.1640 C   0  0  0  0  0
   29.4890   13.2290   32.8760 C   0  0  0  0  0
   21.6030   11.6100   29.5870 C   0  0  0  0  0
   20.0960   11.6150   29.6850 C   0  0  0  0  0
   25.2580   13.4490   32.1480 C   0  0  0  0  0
   23.9380   13.5030   31.7460 C   0  0  0  0  0
   23.4550   12.6240   30.7840 C   0  0  0  0  0
   24.3260   11.6990   30.2170 C   0  0  0  0  0
   25.6550   11.6270   30.6150 C   0  0  0  0  0
   26.5450   10.6840   30.0530 N   0  0  0  0  0
   26.9450   10.6390   28.7700 C   0  0  0  0  0
   26.5510   11.4340   27.9530 O   0  0  0  0  0
   27.8950    9.5370   28.3950 C   0  0  0  0  0
   29.0130    9.7940   27.6080 C   0  0  0  0  0
   29.8980    8.7830   27.2490 C   0  0  0  0  0
   31.1010    9.0880   26.3950 C   0  0  0  0  0
   29.6430    7.4730   27.6970 C   0  0  0  0  0
   30.4700    6.4250   27.3710 O   0  0  0  0  0
   31.6520    6.2260   28.1760 C   0  0  0  0  0
   32.1140    4.7920   27.9960 C   0  0  0  0  0
   32.8370    4.5820   26.7140 N   0  3  0  0  0
   28.5140    7.2000   28.4890 C   0  0  0  0  0
   28.2420    5.7980   28.9690 C   0  0  0  0  0
   22.1350   12.6920   30.4070 O   0  0  0  0  0
   27.6590    8.2390   28.8250 C   0  0  0  0  0
   27.4570   12.3870   31.9140 O   0  0  0  0  0
   26.1280   12.5140   31.5980 C   0  0  0  0  0
   28.4439   14.0841   31.2195 H   0  0  0  0  0
   27.6261   14.2723   32.7821 H   0  0  0  0  0
   29.2505   12.7403   33.8207 H   0  0  0  0  0
   30.0715   12.5514   32.2518 H   0  0  0  0  0
   30.0657   14.1336   33.0689 H   0  0  0  0  0
   21.9046   11.7525   28.5493 H   0  0  0  0  0
   21.9914   10.6551   29.9410 H   0  0  0  0  0
   19.8003   11.4695   30.7240 H   0  0  0  0  0
   19.7131   12.5708   29.3273 H   0  0  0  0  0
   19.6908   10.8083   29.0742 H   0  0  0  0  0
   25.6213   14.1457   32.9034 H   0  0  0  0  0
   23.2689   14.2417   32.1872 H   0  0  0  0  0
   23.9595   11.0194   29.4476 H   0  0  0  0  0
   26.9189    9.9709   30.6791 H   0  0  0  0  0
   29.1997   10.8115   27.2647 H   0  0  0  0  0
   30.7724    9.4965   25.4393 H   0  0  0  0  0
   31.7319    9.8159   26.9051 H   0  0  0  0  0
   31.6660    8.1715   26.2249 H   0  0  0  0  0
   31.4269    6.4177   29.2251 H   0  0  0  0  0
   32.4375    6.9142   27.8639 H   0  0  0  0  0
   31.2311    4.1527   27.9922 H   0  0  0  0  0
   32.7987    4.5551   28.8104 H   0  0  0  0  0
   33.1245    3.6059   26.6431 H   0  0  0  0  0
   32.2202    4.8134   25.9353 H   0  0  0  0  0
   33.6606    5.1831   26.6871 H   0  0  0  0  0
   28.1236    5.1377   28.1098 H   0  0  0  0  0
   29.0777    5.4558   29.5794 H   0  0  0  0  0
   27.3286    5.7897   29.5637 H   0  0  0  0  0
   26.7832    8.0316   29.4398 H   0  0  0  0  0
  1  2  1  0  0  0
 26  1  1  0  0  0
  3  4  1  0  0  0
 24  3  1  0  0  0
  5  6  4  0  0  0
 27  5  4  0  0  0
  6  7  4  0  0  0
  8  7  4  0  0  0
  7 24  1  0  0  0
  9  8  4  0  0  0
  9 10  1  0  0  0
 27  9  4  0  0  0
 10 11  1  0  0  0
 11 12  2  0  0  0
 11 13  1  0  0  0
 13 14  4  0  0  0
 13 25  4  0  0  0
 14 15  4  0  0  0
 15 16  1  0  0  0
 15 17  4  0  0  0
 17 18  1  0  0  0
 22 17  4  0  0  0
 18 19  1  0  0  0
 19 20  1  0  0  0
 20 21  1  0  0  0
 22 23  1  0  0  0
 25 22  4  0  0  0
 26 27  1  0  0  0
  1 28  1  0  0  0
  1 29  1  0  0  0
  2 30  1  0  0  0
  2 31  1  0  0  0
  2 32  1  0  0  0
  3 33  1  0  0  0
  3 34  1  0  0  0
  4 35  1  0  0  0
  4 36  1  0  0  0
  4 37  1  0  0  0
  5 38  1  0  0  0
  6 39  1  0  0  0
  8 40  1  0  0  0
 10 41  1  0  0  0
 14 42  1  0  0  0
 16 43  1  0  0  0
 16 44  1  0  0  0
 16 45  1  0  0  0
 19 46  1  0  0  0
 19 47  1  0  0  0
 20 48  1  0  0  0
 20 49  1  0  0  0
 21 50  1  0  0  0
 21 51  1  0  0  0
 21 52  1  0  0  0
 23 53  1  0  0  0
 23 54  1  0  0  0
 23 55  1  0  0  0
 25 56  1  0  0  0
M  END
$$$$
