4h75_ligand
  -I-interpret- 

146145  0  0  0  0  0  0  0  0999 V2000
    7.2660    9.7800   -6.1910 N   0  3  0  0  0
    7.6850    9.4970   -4.8200 C   0  0  0  0  0
    9.1550    9.0930   -4.7930 C   0  0  0  0  0
    9.7340    8.7830   -5.8350 O   0  0  0  0  0
    6.8210    8.3980   -4.2170 C   0  0  0  0  0
    9.7550    9.0990   -3.6050 N   0  0  0  0  0
   11.1550    8.7260   -3.4610 C   0  0  0  0  0
   11.3330    7.2730   -3.7930 C   0  0  0  0  0
   10.4280    6.4590   -3.6000 O   0  0  0  0  0
   11.6440    8.9280   -2.0290 C   0  0  0  0  0
   11.7420   10.3520   -1.6250 C   0  0  0  0  0
   12.0970   10.5050   -0.1510 C   0  0  0  0  0
   11.8270   11.8890    0.2080 N   0  0  0  0  0
   12.6560   12.8890   -0.0550 C   0  0  0  0  0
   13.8240   12.6360   -0.6350 N   0  0  0  0  0
   12.3320   14.1320    0.2800 N   0  0  0  0  0
   12.5170    6.9490   -4.2840 N   0  0  0  0  0
   12.8820    5.5650   -4.4820 C   0  0  0  0  0
   13.5560    5.0880   -3.2130 C   0  0  0  0  0
   14.4630    5.7500   -2.6870 O   0  0  0  0  0
   13.8260    5.3990   -5.6760 C   0  0  0  0  0
   13.3130    6.1400   -6.7920 O   0  0  0  0  0
   13.9420    3.9290   -6.0560 C   0  0  0  0  0
   13.0880    3.9530   -2.7070 N   0  0  0  0  0
   13.6820    3.3210   -1.5000 C   0  0  0  0  0
   12.7270    2.2170   -1.0480 C   0  0  0  0  0
   12.9920    1.6940    0.3560 C   0  0  0  0  0
   12.6330    2.6950    1.4550 C   0  0  0  0  0
   12.9680    2.0770    2.8090 C   0  0  0  0  0
   12.7530    2.9800    3.9540 N   0  3  0  0  0
   15.0190    2.7380   -1.8460 C   0  0  0  0  0
   15.1500    2.0210   -2.8450 O   0  0  0  0  0
   13.0960    2.2260    5.1750 C   0  0  0  0  0
   11.3600    3.4300    4.0390 C   0  0  0  0  0
   13.6000    4.1740    3.8510 C   0  0  0  0  0
   16.0360    3.0600   -1.0490 N   0  0  0  0  0
   17.3330    2.4090   -1.1890 C   0  0  0  0  0
   17.2600    1.0530   -0.4800 C   0  0  0  0  0
   16.9870    0.9880    0.7180 O   0  0  0  0  0
   18.4360    3.2750   -0.5770 C   0  0  0  0  0
   18.5080    4.6890   -1.1630 C   0  0  0  0  0
   19.6580    5.5020   -0.5820 C   0  0  0  0  0
   19.9340    5.4570    0.6250 O   0  0  0  0  0
   20.3360    6.2420   -1.4400 N   0  0  0  0  0
   17.4910   -0.0270   -1.2160 N   0  0  0  0  0
   17.2930   -1.3710   -0.6660 C   0  0  0  0  0
   18.3910   -1.7600    0.3170 C   0  0  0  0  0
   18.1920   -2.6150    1.1840 O   0  0  0  0  0
   17.2040   -2.4420   -1.7750 C   0  0  0  0  0
   18.2910   -2.2640   -2.6900 O   0  0  0  0  0
   15.8760   -2.3340   -2.5310 C   0  0  0  0  0
   19.5550   -1.1380    0.1690 N   0  0  0  0  0
   20.6600   -1.3720    1.0870 C   0  0  0  0  0
   20.9800   -0.0970    1.8540 C   0  0  0  0  0
   20.6760    1.0070    1.3950 O   0  0  0  0  0
   21.8800   -1.8690    0.3380 C   0  0  0  0  0
   21.5990   -0.2510    3.0190 N   0  0  0  0  0
   21.8700    0.8920    3.8810 C   0  0  0  0  0
   22.8140    0.5440    5.0340 C   0  0  0  0  0
   23.0500   -0.6270    5.3450 O   0  0  0  0  0
   20.5590    1.4290    4.4460 C   0  0  0  0  0
   20.1430    0.7630    5.7480 C   0  0  0  0  0
   19.0500   -0.2590    5.5760 C   0  0  0  0  0
   18.4230   -0.5600    6.8600 N   0  0  0  0  0
   19.0190   -1.2250    7.8410 C   0  0  0  0  0
   18.3720   -1.4540    8.9780 N   0  0  0  0  0
   20.2620   -1.6630    7.6860 N   0  0  0  0  0
   23.3560    1.4350    5.6920 O   0  0  0  0  0
    7.8540   10.5173   -6.5796 H   0  0  0  0  0
    7.3602    8.9355   -6.7552 H   0  0  0  0  0
    6.2924   10.0841   -6.1918 H   0  0  0  0  0
    7.5599   10.4002   -4.2228 H   0  0  0  0  0
    6.9482    7.4809   -4.7921 H   0  0  0  0  0
    7.1233    8.2255   -3.1841 H   0  0  0  0  0
    5.7751    8.7036   -4.2446 H   0  0  0  0  0
    9.2230    9.3706   -2.7782 H   0  0  0  0  0
   11.7273    9.3606   -4.1377 H   0  0  0  0  0
   12.6453    8.5022   -1.9644 H   0  0  0  0  0
   10.9198    8.4517   -1.3680 H   0  0  0  0  0
   10.7723   10.8209   -1.7922 H   0  0  0  0  0
   12.5298   10.8200   -2.2153 H   0  0  0  0  0
   13.1445   10.2582    0.0218 H   0  0  0  0  0
   11.5057    9.8244    0.4616 H   0  0  0  0  0
   10.9524   12.1010    0.6881 H   0  0  0  0  0
   14.4751   13.3980   -0.8243 H   0  0  0  0  0
   14.0697   11.6797   -0.8911 H   0  0  0  0  0
   11.4421   14.3203    0.7416 H   0  0  0  0  0
   13.1807    7.6848   -4.5259 H   0  0  0  0  0
   11.9904    4.9762   -4.6973 H   0  0  0  0  0
   14.8129    5.7731   -5.4037 H   0  0  0  0  0
   13.9037    6.0371   -7.5417 H   0  0  0  0  0
   14.3350    3.3661   -5.2094 H   0  0  0  0  0
   12.9574    3.5454   -6.3234 H   0  0  0  0  0
   14.6163    3.8270   -6.9063 H   0  0  0  0  0
   12.2950    3.5001   -3.1614 H   0  0  0  0  0
   13.8234    4.0521   -0.7040 H   0  0  0  0  0
   12.8596    1.3789   -1.7322 H   0  0  0  0  0
   11.7234    2.6423   -1.0472 H   0  0  0  0  0
   14.0597    1.4892    0.4342 H   0  0  0  0  0
   12.3700    0.8106    0.5003 H   0  0  0  0  0
   11.5697    2.9300    1.4085 H   0  0  0  0  0
   13.2011    3.6150    1.3175 H   0  0  0  0  0
   14.0279    1.8232    2.7937 H   0  0  0  0  0
   12.3064    1.2215    2.9450 H   0  0  0  0  0
   12.4531    1.3491    5.2516 H   0  0  0  0  0
   14.1382    1.9108    5.1251 H   0  0  0  0  0
   12.9492    2.8631    6.0472 H   0  0  0  0  0
   11.0959    3.9647    3.1266 H   0  0  0  0  0
   10.7068    2.5654    4.1570 H   0  0  0  0  0
   11.2455    4.0932    4.8964 H   0  0  0  0  0
   14.6478    3.8742    3.8344 H   0  0  0  0  0
   13.3596    4.7104    2.9331 H   0  0  0  0  0
   13.4195    4.8211    4.7093 H   0  0  0  0  0
   15.9058    3.7721   -0.3304 H   0  0  0  0  0
   17.5710    2.2690   -2.2435 H   0  0  0  0  0
   19.3875    2.7867   -0.7877 H   0  0  0  0  0
   18.2191    3.3743    0.4866 H   0  0  0  0  0
   17.5771    5.2017   -0.9209 H   0  0  0  0  0
   18.6674    4.6005   -2.2376 H   0  0  0  0  0
   21.1218    6.8065   -1.1170 H   0  0  0  0  0
   20.0740    6.2491   -2.4258 H   0  0  0  0  0
   17.8110    0.0799   -2.1786 H   0  0  0  0  0
   16.3434   -1.3332   -0.1322 H   0  0  0  0  0
   17.2597   -3.4285   -1.3148 H   0  0  0  0  0
   18.2384   -2.9285   -3.3808 H   0  0  0  0  0
   15.0501   -2.4792   -1.8346 H   0  0  0  0  0
   15.7986   -1.3474   -2.9878 H   0  0  0  0  0
   15.8377   -3.0989   -3.3066 H   0  0  0  0  0
   19.6771   -0.4832   -0.6035 H   0  0  0  0  0
   20.3658   -2.1420    1.8002 H   0  0  0  0  0
   21.6379   -2.8029   -0.1692 H   0  0  0  0  0
   22.1826   -1.1229   -0.3967 H   0  0  0  0  0
   22.6940   -2.0375    1.0431 H   0  0  0  0  0
   21.8889   -1.1832    3.3146 H   0  0  0  0  0
   22.3618    1.6491    3.2702 H   0  0  0  0  0
   22.5695   -1.2158    4.7584 H   0  0  0  0  0
   19.7789    1.2290    3.7114 H   0  0  0  0  0
   20.7004    2.4902    4.6510 H   0  0  0  0  0
   19.7625    1.5424    6.4083 H   0  0  0  0  0
   21.0162    0.2458    6.1456 H   0  0  0  0  0
   19.4819   -1.1738    5.1702 H   0  0  0  0  0
   18.2952    0.1409    4.8989 H   0  0  0  0  0
   17.4669   -0.2388    7.0121 H   0  0  0  0  0
   18.8305   -1.9663    9.7315 H   0  0  0  0  0
   17.4165   -1.1176    9.0978 H   0  0  0  0  0
   20.7591   -1.4883    6.8126 H   0  0  0  0  0
  1  2  1  0  0  0
  2  3  1  0  0  0
  2  5  1  0  0  0
  3  4  2  0  0  0
  3  6  1  0  0  0
  6  7  1  0  0  0
  7  8  1  0  0  0
  7 10  1  0  0  0
  8  9  2  0  0  0
  8 17  1  0  0  0
 10 11  1  0  0  0
 11 12  1  0  0  0
 12 13  1  0  0  0
 13 14  1  0  0  0
 14 15  1  0  0  0
 14 16  2  0  0  0
 17 18  1  0  0  0
 18 19  1  0  0  0
 18 21  1  0  0  0
 19 20  2  0  0  0
 19 24  1  0  0  0
 21 22  1  0  0  0
 21 23  1  0  0  0
 24 25  1  0  0  0
 25 26  1  0  0  0
 25 31  1  0  0  0
 26 27  1  0  0  0
 27 28  1  0  0  0
 28 29  1  0  0  0
 29 30  1  0  0  0
 30 33  1  0  0  0
 30 34  1  0  0  0
 30 35  1  0  0  0
 31 32  2  0  0  0
 31 36  1  0  0  0
 36 37  1  0  0  0
 37 38  1  0  0  0
 37 40  1  0  0  0
 38 39  2  0  0  0
 38 45  1  0  0  0
 40 41  1  0  0  0
 41 42  1  0  0  0
 42 43  2  0  0  0
 42 44  1  0  0  0
 45 46  1  0  0  0
 46 47  1  0  0  0
 46 49  1  0  0  0
 47 48  2  0  0  0
 47 52  1  0  0  0
 49 50  1  0  0  0
 49 51  1  0  0  0
 52 53  1  0  0  0
 53 54  1  0  0  0
 53 56  1  0  0  0
 54 55  2  0  0  0
 54 57  1  0  0  0
 57 58  1  0  0  0
 58 59  1  0  0  0
 58 61  1  0  0  0
 59 60  1  0  0  0
 59 68  2  0  0  0
 61 62  1  0  0  0
 62 63  1  0  0  0
 63 64  1  0  0  0
 64 65  1  0  0  0
 65 66  1  0  0  0
 65 67  2  0  0  0
  1 69  1  0  0  0
  1 70  1  0  0  0
  1 71  1  0  0  0
  2 72  1  0  0  0
  5 73  1  0  0  0
  5 74  1  0  0  0
  5 75  1  0  0  0
  6 76  1  0  0  0
  7 77  1  0  0  0
 10 78  1  0  0  0
 10 79  1  0  0  0
 11 80  1  0  0  0
 11 81  1  0  0  0
 12 82  1  0  0  0
 12 83  1  0  0  0
 13 84  1  0  0  0
 15 85  1  0  0  0
 15 86  1  0  0  0
 16 87  1  0  0  0
 17 88  1  0  0  0
 18 89  1  0  0  0
 21 90  1  0  0  0
 22 91  1  0  0  0
 23 92  1  0  0  0
 23 93  1  0  0  0
 23 94  1  0  0  0
 24 95  1  0  0  0
 25 96  1  0  0  0
 26 97  1  0  0  0
 26 98  1  0  0  0
 27 99  1  0  0  0
 27100  1  0  0  0
 28101  1  0  0  0
 28102  1  0  0  0
 29103  1  0  0  0
 29104  1  0  0  0
 33105  1  0  0  0
 33106  1  0  0  0
 33107  1  0  0  0
 34108  1  0  0  0
 34109  1  0  0  0
 34110  1  0  0  0
 35111  1  0  0  0
 35112  1  0  0  0
 35113  1  0  0  0
 36114  1  0  0  0
 37115  1  0  0  0
 40116  1  0  0  0
 40117  1  0  0  0
 41118  1  0  0  0
 41119  1  0  0  0
 44120  1  0  0  0
 44121  1  0  0  0
 45122  1  0  0  0
 46123  1  0  0  0
 49124  1  0  0  0
 50125  1  0  0  0
 51126  1  0  0  0
 51127  1  0  0  0
 51128  1  0  0  0
 52129  1  0  0  0
 53130  1  0  0  0
 56131  1  0  0  0
 56132  1  0  0  0
 56133  1  0  0  0
 57134  1  0  0  0
 58135  1  0  0  0
 60136  1  0  0  0
 61137  1  0  0  0
 61138  1  0  0  0
 62139  1  0  0  0
 62140  1  0  0  0
 63141  1  0  0  0
 63142  1  0  0  0
 64143  1  0  0  0
 66144  1  0  0  0
 66145  1  0  0  0
 67146  1  0  0  0
M  END
$$$$
