3udm_ligand
  -I-interpret- 

 43 46  0  0  0  0  0  0  0  0999 V2000
   16.8290   41.7660   43.1790 C   0  0  0  0  0
   26.5550   37.4100   40.1960 C   0  0  0  0  0
   17.3590   41.0580   44.2530 C   0  0  0  0  0
   16.6240   41.1110   41.9540 C   0  0  0  0  0
   27.0940   37.5700   41.4730 C   0  0  0  0  0
   25.2340   36.9890   40.0620 C   0  0  0  0  0
   17.7450   39.7210   44.0880 C   0  0  0  0  0
   16.9880   39.7670   41.7980 C   0  0  0  0  0
   26.3380   37.3120   42.5990 C   0  0  0  0  0
   24.4650   36.7690   41.1950 C   0  0  0  0  0
   17.5490   39.0570   42.8720 C   0  0  0  0  0
   25.0190   36.9060   42.4660 C   0  0  0  0  0
   23.0040   36.1210   42.7310 C   0  0  0  0  0
   19.8050   36.4910   41.2360 C   0  0  0  0  0
   22.0600   37.4630   40.9000 C   0  0  0  0  0
   22.7270   35.1310   40.4290 C   0  0  0  0  0
   20.9150   36.7330   40.2390 C   0  0  0  0  0
   23.0460   36.3690   41.2550 C   0  0  0  0  0
   18.0070   37.6090   42.6950 C   0  0  0  0  0
   24.0630   36.6240   43.3840 N   0  0  0  0  0
   21.5010   35.4910   39.7780 N   0  3  0  0  0
   21.8840   36.1080   43.3340 O   0  0  0  0  0
   19.3780   35.3660   41.4160 O   0  0  0  0  0
   19.1120   37.6330   41.7830 O   0  0  0  0  0
   16.5750   42.8204   43.2876 H   0  0  0  0  0
   27.1611   37.6123   39.3129 H   0  0  0  0  0
   17.4739   41.5430   45.2223 H   0  0  0  0  0
   16.1787   41.6517   41.1189 H   0  0  0  0  0
   28.1260   37.9032   41.5831 H   0  0  0  0  0
   24.8067   36.8332   39.0714 H   0  0  0  0  0
   18.2056   39.1895   44.9207 H   0  0  0  0  0
   16.8352   39.2707   40.8396 H   0  0  0  0  0
   26.7770   37.4272   43.5900 H   0  0  0  0  0
   21.7372   38.0248   41.7765 H   0  0  0  0  0
   22.4998   38.2152   40.2451 H   0  0  0  0  0
   22.6372   34.2288   41.0340 H   0  0  0  0  0
   23.5202   34.8730   39.7273 H   0  0  0  0  0
   20.4649   37.2943   39.4202 H   0  0  0  0  0
   17.1973   36.9911   42.3067 H   0  0  0  0  0
   18.3026   37.1764   43.6508 H   0  0  0  0  0
   24.1354   36.7682   44.3912 H   0  0  0  0  0
   20.8283   34.7515   39.9804 H   0  0  0  0  0
   21.7143   35.6121   38.7879 H   0  0  0  0  0
  3  1  4  0  0  0
  4  1  4  0  0  0
  2  5  4  0  0  0
  6  2  4  0  0  0
  7  3  4  0  0  0
  8  4  4  0  0  0
  9  5  4  0  0  0
 10  6  4  0  0  0
 11  7  4  0  0  0
 11  8  4  0  0  0
 12  9  4  0  0  0
 10 12  4  0  0  0
 18 10  1  0  0  0
 19 11  1  0  0  0
 20 12  1  0  0  0
 18 13  1  0  0  0
 13 20  1  0  0  0
 13 22  2  0  0  0
 14 17  1  0  0  0
 14 23  2  0  0  0
 24 14  1  0  0  0
 17 15  1  0  0  0
 15 18  1  0  0  0
 16 18  1  0  0  0
 21 16  1  0  0  0
 17 21  1  0  0  0
 19 24  1  0  0  0
  1 25  1  0  0  0
  2 26  1  0  0  0
  3 27  1  0  0  0
  4 28  1  0  0  0
  5 29  1  0  0  0
  6 30  1  0  0  0
  7 31  1  0  0  0
  8 32  1  0  0  0
  9 33  1  0  0  0
 15 34  1  0  0  0
 15 35  1  0  0  0
 16 36  1  0  0  0
 16 37  1  0  0  0
 17 38  1  0  0  0
 19 39  1  0  0  0
 19 40  1  0  0  0
 20 41  1  0  0  0
 21 42  1  0  0  0
 21 43  1  0  0  0
M  END
$$$$
