5nwg_ligand
  -I-interpret- 

 39 41  0  0  0  0  0  0  0  0999 V2000
    6.8000   37.5890    3.6710 O   0  0  0  0  0
    6.9850   38.0800    4.9530 C   0  0  0  0  0
    5.6310   38.0070    5.6090 C   0  0  0  0  0
    5.8880   38.9660    6.6960 N   0  0  0  0  0
    6.0120   40.4040    6.3720 C   0  0  0  0  0
    6.0450   38.5820    7.9890 C   0  0  0  0  0
    6.6470   39.3860    8.9470 C   0  0  0  0  0
    6.7890   38.9760   10.2750 C   0  0  0  0  0
    5.5820   37.3510    8.4190 C   0  0  0  0  0
    5.7160   36.9310    9.7380 C   0  0  0  0  0
    6.3440   37.7130   10.6900 C   0  0  0  0  0
    6.3920   37.3100   12.0350 C   0  0  0  0  0
    5.5840   36.3340   12.4990 N   0  0  0  0  0
    5.5800   35.9940   13.8110 C   0  0  0  0  0
    4.7440   34.9620   14.2520 C   0  0  0  0  0
    4.7170   34.6100   15.5980 C   0  0  0  0  0
    3.7170   33.3340   16.1460 Cl  0  0  0  0  0
    5.5100   35.2800   16.5150 C   0  0  0  0  0
    6.3390   36.3070   16.0850 C   0  0  0  0  0
    6.3860   36.6730   14.7400 C   0  0  0  0  0
    7.2440   37.6970   14.2880 C   0  0  0  0  0
    8.0210   38.3440   15.0220 O   0  0  0  0  0
    7.2080   37.9920   12.9320 N   0  0  0  0  0
    7.6351   37.6100    3.1979 H   0  0  0  0  0
    7.3685   39.1002    4.9393 H   0  0  0  0  0
    7.7269   37.4990    5.5008 H   0  0  0  0  0
    5.3104   37.0132    5.9216 H   0  0  0  0  0
    4.7815   38.2379    4.9662 H   0  0  0  0  0
    5.2598   40.9660    6.9255 H   0  0  0  0  0
    7.0062   40.7534    6.6503 H   0  0  0  0  0
    5.8610   40.5484    5.3022 H   0  0  0  0  0
    7.0204   40.3673    8.6542 H   0  0  0  0  0
    7.2521   39.6472   10.9983 H   0  0  0  0  0
    5.0969   36.6895    7.7012 H   0  0  0  0  0
    5.3155   35.9599   10.0290 H   0  0  0  0  0
    4.1121   34.4323   13.5390 H   0  0  0  0  0
    5.4832   35.0023   17.5687 H   0  0  0  0  0
    6.9614   36.8343   16.8080 H   0  0  0  0  0
    7.8047   38.7400   12.5785 H   0  0  0  0  0
  1  2  1  0  0  0
  2  3  1  0  0  0
  3  4  1  0  0  0
  4  5  1  0  0  0
  4  6  1  0  0  0
  6  7  4  0  0  0
  6  9  4  0  0  0
  7  8  4  0  0  0
  8 11  4  0  0  0
  9 10  4  0  0  0
 10 11  4  0  0  0
 11 12  1  0  0  0
 12 13  2  0  0  0
 12 23  1  0  0  0
 13 14  1  0  0  0
 14 15  4  0  0  0
 14 20  4  0  0  0
 15 16  4  0  0  0
 16 17  1  0  0  0
 16 18  4  0  0  0
 18 19  4  0  0  0
 19 20  4  0  0  0
 20 21  1  0  0  0
 21 22  2  0  0  0
 21 23  1  0  0  0
  1 24  1  0  0  0
  2 25  1  0  0  0
  2 26  1  0  0  0
  3 27  1  0  0  0
  3 28  1  0  0  0
  5 29  1  0  0  0
  5 30  1  0  0  0
  5 31  1  0  0  0
  7 32  1  0  0  0
  8 33  1  0  0  0
  9 34  1  0  0  0
 10 35  1  0  0  0
 15 36  1  0  0  0
 18 37  1  0  0  0
 19 38  1  0  0  0
 23 39  1  0  0  0
M  END
$$$$
