6m8d_ligand
  -I-interpret- 

 34 36  0  0  0  0  0  0  0  0999 V2000
    3.5030   31.5150   30.4830 C   0  0  0  0  0
    3.6550   30.0890   30.3600 O   0  0  0  0  0
    3.9010   29.5670   29.1110 C   0  0  0  0  0
    4.4200   28.2700   29.0870 C   0  0  0  0  0
    4.7100   27.6280   27.8880 C   0  0  0  0  0
    4.6420   27.6560   30.2790 O   0  0  0  0  0
    3.6580   30.2160   27.8900 C   0  0  0  0  0
    3.9470   29.5690   26.6810 C   0  0  0  0  0
    4.4690   28.2620   26.6610 C   0  0  0  0  0
    4.7800   27.6000   25.4630 C   0  0  0  0  0
    5.7760   26.6590   25.5630 O   0  0  0  0  0
    6.2140   25.9580   24.4650 C   0  0  0  0  0
    7.2350   25.0220   24.6150 C   0  0  0  0  0
    7.7050   24.3140   23.5140 C   0  0  0  0  0
    8.6990   23.3950   23.6390 O   0  0  0  0  0
    7.1450   24.5490   22.2680 C   0  0  0  0  0
    6.1300   25.4810   22.1270 C   0  0  0  0  0
    5.5950   25.7050   20.9050 O   0  0  0  0  0
    5.6310   26.2040   23.2200 C   0  0  0  0  0
    4.5990   27.1560   23.1060 C   0  0  0  0  0
    4.0130   27.3510   22.0420 O   0  0  0  0  0
    4.1670   27.8480   24.2320 C   0  0  0  0  0
    4.4157   32.0068   30.1465 H   0  0  0  0  0
    2.6642   31.8439   29.8696 H   0  0  0  0  0
    3.3144   31.7704   31.5257 H   0  0  0  0  0
    5.1289   26.6218   27.9023 H   0  0  0  0  0
    4.9963   26.7774   30.1240 H   0  0  0  0  0
    3.2441   31.2243   27.8824 H   0  0  0  0  0
    3.7643   30.0870   25.7395 H   0  0  0  0  0
    7.6674   24.8438   25.5996 H   0  0  0  0  0
    8.8886   23.0115   22.7796 H   0  0  0  0  0
    7.5039   23.9995   21.3977 H   0  0  0  0  0
    4.9092   26.3731   20.9748 H   0  0  0  0  0
    3.3592   28.5758   24.1553 H   0  0  0  0  0
  1  2  1  0  0  0
  2  3  1  0  0  0
  3  4  4  0  0  0
  3  7  4  0  0  0
  4  5  4  0  0  0
  4  6  1  0  0  0
  5  9  4  0  0  0
  7  8  4  0  0  0
  8  9  4  0  0  0
  9 10  1  0  0  0
 10 11  1  0  0  0
 10 22  2  0  0  0
 11 12  1  0  0  0
 12 13  4  0  0  0
 12 19  4  0  0  0
 13 14  4  0  0  0
 14 15  1  0  0  0
 14 16  4  0  0  0
 16 17  4  0  0  0
 17 18  1  0  0  0
 17 19  4  0  0  0
 19 20  1  0  0  0
 20 21  2  0  0  0
 20 22  1  0  0  0
  1 23  1  0  0  0
  1 24  1  0  0  0
  1 25  1  0  0  0
  5 26  1  0  0  0
  6 27  1  0  0  0
  7 28  1  0  0  0
  8 29  1  0  0  0
 13 30  1  0  0  0
 15 31  1  0  0  0
 16 32  1  0  0  0
 18 33  1  0  0  0
 22 34  1  0  0  0
M  END
$$$$
