1lqe_ligand
  -I-interpret- 

 63 66  0  0  0  0  0  0  0  0999 V2000
   19.5150    6.9410   32.1460 C   0  0  0  0  0
   19.5270    7.1310   30.7400 C   0  0  0  0  0
   20.3170    6.3180   29.9190 C   0  0  0  0  0
   21.1170    5.3200   30.5040 C   0  0  0  0  0
   21.1490    5.1150   31.9240 C   0  0  0  0  0
   20.3250    5.9390   32.7460 C   0  0  0  0  0
   22.0850    4.0790   32.1910 C   0  0  0  0  0
   21.9960    4.4270   29.9650 N   0  0  0  0  0
   22.5900    3.6990   30.9250 C   0  0  0  0  0
   22.1110    4.1210   28.5670 C   0  0  0  0  0
   23.6260    2.7910   30.6180 C   0  0  0  0  0
   24.8580    2.9790   31.1060 N   0  0  0  0  0
   25.7630    1.8360   31.0880 C   0  0  0  0  0
   26.9050    2.0080   30.1040 C   0  0  0  0  0
   23.4660    1.7930   29.6200 O   0  0  0  0  0
   20.9470    3.3010   28.1190 C   0  0  0  0  0
   19.5690    3.0770   26.1630 C   0  0  0  0  0
   20.5050    3.7710   26.9000 C   0  0  0  0  0
   20.3720    2.1460   28.7280 C   0  0  0  0  0
   19.4040    1.4170   27.9680 C   0  0  0  0  0
   19.0190    1.8670   26.6690 C   0  0  0  0  0
   19.3260    3.7140   24.8750 C   0  0  0  0  0
   19.5020    5.0390   24.7510 N   0  0  0  0  0
   18.9960    2.9600   23.8200 N   0  0  0  0  0
   28.0690    3.0930   28.2700 C   0  0  0  0  0
   29.1510    2.1580   28.3840 C   0  0  0  0  0
   29.0950    1.1910   29.4200 C   0  0  0  0  0
   27.9710    1.1070   30.2490 C   0  0  0  0  0
   26.9470    3.0220   29.1230 C   0  0  0  0  0
   30.2840    2.1270   27.4630 N   0  3  0  0  0
   30.3200    0.8860   26.6670 C   0  0  0  0  0
   31.5800    2.2060   28.1560 C   0  0  0  0  0
   30.3550    3.2500   26.5230 C   0  0  0  0  0
   18.8795    7.5685   32.7710 H   0  0  0  0  0
   18.9159    7.9166   30.2955 H   0  0  0  0  0
   20.3123    6.4568   28.8379 H   0  0  0  0  0
   20.3164    5.8013   33.8272 H   0  0  0  0  0
   22.3557    3.6659   33.1627 H   0  0  0  0  0
   23.0288    3.5571   28.4004 H   0  0  0  0  0
   22.1305    5.0514   27.9994 H   0  0  0  0  0
   25.1514    3.8836   31.4749 H   0  0  0  0  0
   25.1895    0.9600   30.7849 H   0  0  0  0  0
   26.1927    1.7339   32.0845 H   0  0  0  0  0
   20.9031    4.7086   26.5120 H   0  0  0  0  0
   20.6587    1.8319   29.7316 H   0  0  0  0  0
   18.9579    0.5131   28.3829 H   0  0  0  0  0
   18.3122    1.2903   26.0724 H   0  0  0  0  0
   19.3843    5.4862   23.8419 H   0  0  0  0  0
   19.7534    5.5986   25.5659 H   0  0  0  0  0
   18.8743    3.3907   22.9034 H   0  0  0  0  0
   28.1144    3.8731   27.5101 H   0  0  0  0  0
   29.9322    0.5095   29.5712 H   0  0  0  0  0
   27.9229    0.3336   31.0155 H   0  0  0  0  0
   26.1291    3.7360   29.0262 H   0  0  0  0  0
   30.4025    0.0292   27.3357 H   0  0  0  0  0
   29.4042    0.8047   26.0815 H   0  0  0  0  0
   31.1798    0.9101   25.9975 H   0  0  0  0  0
   31.6325    3.1369   28.7205 H   0  0  0  0  0
   31.6786    1.3606   28.8369 H   0  0  0  0  0
   32.3853    2.1788   27.4220 H   0  0  0  0  0
   29.4549    3.2652   25.9085 H   0  0  0  0  0
   30.4322    4.1839   27.0798 H   0  0  0  0  0
   31.2305    3.1328   25.8844 H   0  0  0  0  0
  2  1  4  0  0  0
  6  1  4  0  0  0
  3  2  4  0  0  0
  4  3  4  0  0  0
  4  5  4  0  0  0
  8  4  4  0  0  0
  5  6  4  0  0  0
  7  5  4  0  0  0
  9  7  4  0  0  0
  8  9  4  0  0  0
 10  8  1  0  0  0
  9 11  1  0  0  0
 16 10  1  0  0  0
 11 12  1  0  0  0
 11 15  2  0  0  0
 12 13  1  0  0  0
 13 14  1  0  0  0
 14 28  4  0  0  0
 14 29  4  0  0  0
 16 18  4  0  0  0
 19 16  4  0  0  0
 20 19  4  0  0  0
 21 20  4  0  0  0
 22 23  1  0  0  0
 22 24  2  0  0  0
 25 26  4  0  0  0
 29 25  4  0  0  0
 27 26  4  0  0  0
 26 30  1  0  0  0
 28 27  4  0  0  0
 30 31  1  0  0  0
 30 32  1  0  0  0
 30 33  1  0  0  0
 17 22  1  0  0  0
 21 17  4  0  0  0
 18 17  4  0  0  0
  1 34  1  0  0  0
  2 35  1  0  0  0
  3 36  1  0  0  0
  6 37  1  0  0  0
  7 38  1  0  0  0
 10 39  1  0  0  0
 10 40  1  0  0  0
 12 41  1  0  0  0
 13 42  1  0  0  0
 13 43  1  0  0  0
 18 44  1  0  0  0
 19 45  1  0  0  0
 20 46  1  0  0  0
 21 47  1  0  0  0
 23 48  1  0  0  0
 23 49  1  0  0  0
 24 50  1  0  0  0
 25 51  1  0  0  0
 27 52  1  0  0  0
 28 53  1  0  0  0
 29 54  1  0  0  0
 31 55  1  0  0  0
 31 56  1  0  0  0
 31 57  1  0  0  0
 32 58  1  0  0  0
 32 59  1  0  0  0
 32 60  1  0  0  0
 33 61  1  0  0  0
 33 62  1  0  0  0
 33 63  1  0  0  0
M  END
$$$$
