6g8n_ligand
  -I-interpret- 

 71 71  0  0  0  0  0  0  0  0999 V2000
   63.2080 -136.4880   41.9040 C   0  0  0  0  0
   64.0740 -135.2790   41.8900 C   0  0  0  0  0
   64.1040 -134.6960   40.5060 C   0  0  0  0  0
   63.3050 -134.3690   42.8070 C   0  0  0  0  0
   63.9950 -133.0350   42.9590 C   0  0  0  0  0
   61.9690 -141.7490   41.9960 C   0  0  0  0  0
   62.4400 -141.8560   40.5650 C   0  0  0  0  0
   59.0220 -140.1760   45.0540 C   0  0  0  0  0
   57.9950 -139.1120   45.1530 C   0  0  0  0  0
   56.9700 -139.4510   44.1030 C   0  0  0  0  0
   57.5790 -143.0990   46.7660 C   0  0  0  0  0
   63.1880 -136.9710   43.3090 C   0  0  0  0  0
   62.3730 -136.5480   44.1100 O   0  0  0  0  0
   63.6240 -137.5990   40.9850 C   0  0  0  0  0
   64.7310 -138.2180   41.5710 O   0  0  0  0  0
   62.5090 -138.6020   41.0130 C   0  0  0  0  0
   61.7130 -138.6240   40.0940 O   0  0  0  0  0
   62.4240 -139.3890   42.0720 N   0  0  0  0  0
   61.3820 -140.4020   42.2130 C   0  0  0  0  0
   60.8800 -142.7380   42.2760 C   0  0  0  0  0
   60.8420 -140.4500   43.5900 C   0  0  0  0  0
   61.5160 -140.8590   44.5090 O   0  0  0  0  0
   59.5840 -140.1410   43.7250 N   0  0  0  0  0
   57.3850 -139.2360   46.5250 C   0  0  0  0  0
   58.2970 -141.4570   45.2450 C   0  0  0  0  0
   57.8200 -142.0310   44.2900 O   0  0  0  0  0
   58.2020 -141.8490   46.5250 O   0  0  0  0  0
   57.3860 -143.2520   48.1360 C   0  0  0  0  0
   57.2850 -144.5020   48.6900 C   0  0  0  0  0
   57.0850 -144.6640   50.0500 C   0  0  0  0  0
   56.9780 -143.5750   50.8800 C   0  0  0  0  0
   57.0740 -142.3150   50.3310 C   0  0  0  0  0
   57.2750 -142.1620   48.9720 C   0  0  0  0  0
   62.2274 -136.1953   41.5287 H   0  0  0  0  0
   65.1098 -135.4531   42.1814 H   0  0  0  0  0
   63.0842 -134.5877   40.1366 H   0  0  0  0  0
   64.5870 -133.7193   40.5350 H   0  0  0  0  0
   64.6625 -135.3595   39.8457 H   0  0  0  0  0
   63.2386 -134.8396   43.7879 H   0  0  0  0  0
   62.3156 -134.2019   42.3811 H   0  0  0  0  0
   64.9907 -133.1878   43.3753 H   0  0  0  0  0
   64.0773 -132.5567   41.9830 H   0  0  0  0  0
   63.4135 -132.4007   43.6280 H   0  0  0  0  0
   62.8250 -141.9344   42.6448 H   0  0  0  0  0
   61.5938 -141.7108   39.8935 H   0  0  0  0  0
   63.1928 -141.0913   40.3735 H   0  0  0  0  0
   62.8722 -142.8428   40.3989 H   0  0  0  0  0
   59.8208 -140.0541   45.7855 H   0  0  0  0  0
   58.3813 -138.1030   45.0087 H   0  0  0  0  0
   57.4454 -139.4588   43.1222 H   0  0  0  0  0
   56.5492 -140.4345   44.3120 H   0  0  0  0  0
   56.1762 -138.7042   44.1175 H   0  0  0  0  0
   58.2120 -143.9036   46.3917 H   0  0  0  0  0
   56.6180 -143.1359   46.2529 H   0  0  0  0  0
   63.9154 -137.7171   43.6289 H   0  0  0  0  0
   63.8427 -137.2431   39.9782 H   0  0  0  0  0
   65.4726 -137.6084   41.5742 H   0  0  0  0  0
   63.1117 -139.2846   42.8180 H   0  0  0  0  0
   60.6041 -140.1453   41.4939 H   0  0  0  0  0
   60.0363 -142.5447   41.6136 H   0  0  0  0  0
   61.2545 -143.7472   42.1044 H   0  0  0  0  0
   60.5593 -142.6395   43.3131 H   0  0  0  0  0
   59.0151 -139.8830   42.9187 H   0  0  0  0  0
   56.9366 -140.2235   46.6340 H   0  0  0  0  0
   58.1603 -139.1024   47.2794 H   0  0  0  0  0
   56.6183 -138.4715   46.6508 H   0  0  0  0  0
   57.3633 -145.3810   48.0502 H   0  0  0  0  0
   57.0115 -145.6682   50.4674 H   0  0  0  0  0
   56.8204 -143.7048   51.9507 H   0  0  0  0  0
   56.9912 -141.4361   50.9703 H   0  0  0  0  0
   57.3472 -141.1584   48.5528 H   0  0  0  0  0
  1  2  1  0  0  0
  1 12  1  0  0  0
 14  1  1  0  0  0
  2  3  1  0  0  0
  2  4  1  0  0  0
  4  5  1  0  0  0
  6  7  1  0  0  0
 19  6  1  0  0  0
  6 20  1  0  0  0
  8  9  1  0  0  0
  8 23  1  0  0  0
 25  8  1  0  0  0
  9 10  1  0  0  0
  9 24  1  0  0  0
 27 11  1  0  0  0
 11 28  1  0  0  0
 12 13  2  0  0  0
 14 15  1  0  0  0
 16 14  1  0  0  0
 16 17  2  0  0  0
 18 16  1  0  0  0
 19 18  1  0  0  0
 21 19  1  0  0  0
 21 22  2  0  0  0
 23 21  1  0  0  0
 25 26  2  0  0  0
 25 27  1  0  0  0
 28 29  4  0  0  0
 28 33  4  0  0  0
 29 30  4  0  0  0
 30 31  4  0  0  0
 31 32  4  0  0  0
 32 33  4  0  0  0
  1 34  1  0  0  0
  2 35  1  0  0  0
  3 36  1  0  0  0
  3 37  1  0  0  0
  3 38  1  0  0  0
  4 39  1  0  0  0
  4 40  1  0  0  0
  5 41  1  0  0  0
  5 42  1  0  0  0
  5 43  1  0  0  0
  6 44  1  0  0  0
  7 45  1  0  0  0
  7 46  1  0  0  0
  7 47  1  0  0  0
  8 48  1  0  0  0
  9 49  1  0  0  0
 10 50  1  0  0  0
 10 51  1  0  0  0
 10 52  1  0  0  0
 11 53  1  0  0  0
 11 54  1  0  0  0
 12 55  1  0  0  0
 14 56  1  0  0  0
 15 57  1  0  0  0
 18 58  1  0  0  0
 19 59  1  0  0  0
 20 60  1  0  0  0
 20 61  1  0  0  0
 20 62  1  0  0  0
 23 63  1  0  0  0
 24 64  1  0  0  0
 24 65  1  0  0  0
 24 66  1  0  0  0
 29 67  1  0  0  0
 30 68  1  0  0  0
 31 69  1  0  0  0
 32 70  1  0  0  0
 33 71  1  0  0  0
M  END
$$$$
