1b56_ligand
  -I-interpret- 

 50 49  0  0  0  0  0  0  0  0999 V2000
   46.9440   22.4560   32.6530 C   0  0  0  0  0
   47.6130   21.6520   32.0150 O   0  0  0  0  0
   45.7460   22.2220   32.7550 O   0  0  0  0  0
   47.4950   23.6320   33.1280 C   0  0  0  0  0
   47.4530   24.6280   32.1700 C   0  0  0  0  0
   48.6580   24.6830   31.5030 C   0  0  0  0  0
   48.3540   25.0960   30.2210 C   0  0  0  0  0
   49.0230   26.2680   29.9430 C   0  0  0  0  0
   48.9680   26.4820   28.5830 C   0  0  0  0  0
   47.7520   27.0350   28.2800 C   0  0  0  0  0
   47.9110   27.5620   27.0260 C   0  0  0  0  0
   46.7070   28.1150   26.6530 C   0  0  0  0  0
   46.1320   27.2050   25.8000 C   0  0  0  0  0
   44.9410   27.7410   25.3400 C   0  0  0  0  0
   44.3090   26.8400   24.4940 C   0  0  0  0  0
   43.5990   25.9230   25.2540 C   0  0  0  0  0
   44.2780   24.7150   25.2800 C   0  0  0  0  0
   43.6350   23.8680   26.1590 C   0  0  0  0  0
   48.5294   21.9378   32.0034 H   0  0  0  0  0
   48.5364   23.4464   33.3908 H   0  0  0  0  0
   46.9210   23.9593   33.9949 H   0  0  0  0  0
   47.2639   25.5864   32.6536 H   0  0  0  0  0
   46.6561   24.4114   31.4586 H   0  0  0  0  0
   49.1574   23.7141   31.5017 H   0  0  0  0  0
   49.3515   25.3693   31.9889 H   0  0  0  0  0
   47.2801   25.2635   30.1392 H   0  0  0  0  0
   48.6587   24.3274   29.5107 H   0  0  0  0  0
   50.0604   26.1942   30.2694 H   0  0  0  0  0
   48.5584   27.0997   30.4726 H   0  0  0  0  0
   49.0906   25.5380   28.0521 H   0  0  0  0  0
   49.7695   27.1553   28.2791 H   0  0  0  0  0
   47.4590   27.7940   29.0053 H   0  0  0  0  0
   46.9508   26.2966   28.3116 H   0  0  0  0  0
   48.2080   26.7853   26.3213 H   0  0  0  0  0
   48.6940   28.3202   27.0280 H   0  0  0  0  0
   46.8451   29.0823   26.1700 H   0  0  0  0  0
   46.0718   28.3078   27.5176 H   0  0  0  0  0
   45.9453   26.2663   26.3217 H   0  0  0  0  0
   46.7999   26.9995   24.9634 H   0  0  0  0  0
   45.1497   28.6603   24.7928 H   0  0  0  0  0
   44.2911   27.9511   26.1894 H   0  0  0  0  0
   45.0536   26.3185   23.8925 H   0  0  0  0  0
   43.6263   27.3749   23.8337 H   0  0  0  0  0
   42.6129   25.7745   24.8140 H   0  0  0  0  0
   43.4930   26.3006   26.2710 H   0  0  0  0  0
   45.3068   24.8742   25.6031 H   0  0  0  0  0
   44.2912   24.2750   24.2829 H   0  0  0  0  0
   43.6308   24.3137   27.1537 H   0  0  0  0  0
   42.6092   23.7109   25.8255 H   0  0  0  0  0
   44.1588   22.9126   26.1898 H   0  0  0  0  0
  1  2  1  0  0  0
  1  3  2  0  0  0
  1  4  1  0  0  0
  4  5  1  0  0  0
  5  6  1  0  0  0
  6  7  1  0  0  0
  7  8  1  0  0  0
  8  9  1  0  0  0
  9 10  1  0  0  0
 10 11  1  0  0  0
 11 12  1  0  0  0
 12 13  1  0  0  0
 13 14  1  0  0  0
 14 15  1  0  0  0
 15 16  1  0  0  0
 16 17  1  0  0  0
 17 18  1  0  0  0
  2 19  1  0  0  0
  4 20  1  0  0  0
  4 21  1  0  0  0
  5 22  1  0  0  0
  5 23  1  0  0  0
  6 24  1  0  0  0
  6 25  1  0  0  0
  7 26  1  0  0  0
  7 27  1  0  0  0
  8 28  1  0  0  0
  8 29  1  0  0  0
  9 30  1  0  0  0
  9 31  1  0  0  0
 10 32  1  0  0  0
 10 33  1  0  0  0
 11 34  1  0  0  0
 11 35  1  0  0  0
 12 36  1  0  0  0
 12 37  1  0  0  0
 13 38  1  0  0  0
 13 39  1  0  0  0
 14 40  1  0  0  0
 14 41  1  0  0  0
 15 42  1  0  0  0
 15 43  1  0  0  0
 16 44  1  0  0  0
 16 45  1  0  0  0
 17 46  1  0  0  0
 17 47  1  0  0  0
 18 48  1  0  0  0
 18 49  1  0  0  0
 18 50  1  0  0  0
M  END
$$$$
