3m3r_ligand
  -I-interpret- 

147154  0  0  0  0  0  0  0  0999 V2000
   32.7870   37.6620   28.4920 C   0  0  0  0  0
   32.3440   38.3590   27.1560 C   0  0  0  0  0
   30.9550   38.0770   26.9350 O   0  0  0  0  0
   33.2350   37.8800   25.9920 C   0  0  0  0  0
   32.8550   38.5440   24.8060 O   0  0  0  0  0
   34.6560   38.2110   26.3070 C   0  0  0  0  0
   35.4670   37.7580   25.2130 O   0  0  0  0  0
   35.1070   37.5020   27.5940 C   0  0  0  0  0
   34.2150   37.9440   28.7250 O   0  0  0  0  0
   36.5210   37.8300   28.0240 C   0  0  0  0  0
   36.8250   37.1190   29.2260 O   0  0  0  0  0
   36.3850   38.6190   24.6070 C   0  0  0  0  0
   36.2470   38.6100   23.0600 C   0  0  0  0  0
   34.9270   39.0270   22.7590 O   0  0  0  0  0
   36.6090   37.1960   22.5830 C   0  0  0  0  0
   36.5360   37.1550   21.1630 O   0  0  0  0  0
   38.0280   36.8450   22.9680 C   0  0  0  0  0
   38.2300   35.5170   22.5040 O   0  0  0  0  0
   38.1720   37.0980   24.5220 C   0  0  0  0  0
   37.7150   38.1830   24.9370 O   0  0  0  0  0
   39.5970   36.7940   24.9510 C   0  0  0  0  0
   39.4210   36.1880   26.2300 O   0  0  0  0  0
   39.3450   35.1200   21.7580 C   0  0  0  0  0
   38.9180   34.2240   20.5720 C   0  0  0  0  0
   38.0180   34.9530   19.7250 O   0  0  0  0  0
   38.2780   32.9420   21.0950 C   0  0  0  0  0
   37.9030   32.1080   20.0010 O   0  0  0  0  0
   39.2710   32.2420   21.9750 C   0  0  0  0  0
   38.6880   31.0630   22.4580 O   0  0  0  0  0
   39.6570   33.1700   23.1540 C   0  0  0  0  0
   40.2180   34.3790   22.6210 O   0  0  0  0  0
   40.7110   32.5090   24.0750 C   0  0  0  0  0
   40.6890   32.8770   25.3950 O   0  0  0  0  0
   39.3040   29.8100   22.2040 C   0  0  0  0  0
   38.2390   28.8630   21.4870 C   0  0  0  0  0
   37.8130   29.4280   20.2920 O   0  0  0  0  0
   37.0720   28.6340   22.4520 C   0  0  0  0  0
   36.0970   27.8050   21.8720 O   0  0  0  0  0
   37.6080   27.9910   23.7180 C   0  0  0  0  0
   36.5200   27.8210   24.6300 O   0  0  0  0  0
   38.6600   28.8990   24.3610 C   0  0  0  0  0
   39.7090   29.2400   23.4360 O   0  0  0  0  0
   39.3150   28.1450   25.5520 C   0  0  0  0  0
   40.2590   29.0110   26.1190 O   0  0  0  0  0
   36.2960   26.5220   25.2050 C   0  0  0  0  0
   34.8350   26.1340   24.9720 C   0  0  0  0  0
   34.5230   26.0950   23.5830 O   0  0  0  0  0
   33.9250   27.1590   25.6890 C   0  0  0  0  0
   32.5500   26.8150   25.5060 O   0  0  0  0  0
   34.2610   27.1530   27.1670 C   0  0  0  0  0
   33.3920   28.1750   27.6970 O   0  0  0  0  0
   35.7610   27.5280   27.3760 C   0  0  0  0  0
   36.5740   26.5840   26.6030 O   0  0  0  0  0
   36.1550   27.4810   28.8080 C   0  0  0  0  0
   36.7360   28.6830   29.2580 O   0  0  0  0  0
   32.6310   27.9490   28.9080 C   0  0  0  0  0
   31.2320   28.3820   28.6090 C   0  0  0  0  0
   30.8410   27.8090   27.3500 O   0  0  0  0  0
   31.1080   29.9150   28.5040 C   0  0  0  0  0
   29.6950   30.2390   28.5330 O   0  0  0  0  0
   31.7500   30.6170   29.6180 C   0  0  0  0  0
   31.6730   32.0430   29.3320 O   0  0  0  0  0
   33.2010   30.2300   29.7000 C   0  0  0  0  0
   33.2680   28.7680   29.9490 O   0  0  0  0  0
   33.9770   30.8740   30.8190 C   0  0  0  0  0
   34.9850   31.4610   30.2770 O   0  0  0  0  0
   31.0310   32.8780   30.3360 C   0  0  0  0  0
   30.0230   33.7540   29.5690 C   0  0  0  0  0
   29.0900   32.9430   28.8600 O   0  0  0  0  0
   30.7930   34.6600   28.5710 C   0  0  0  0  0
   29.8500   35.5220   27.9320 O   0  0  0  0  0
   31.8460   35.4910   29.3250 C   0  0  0  0  0
   32.5290   36.2970   28.3390 O   0  0  0  0  0
   32.8440   34.5340   30.0050 C   0  0  0  0  0
   32.0660   33.6660   30.9560 O   0  0  0  0  0
   33.9020   35.2720   30.8360 C   0  0  0  0  0
   35.0930   34.4870   30.8250 O   0  0  0  0  0
   32.2430   38.0322   29.3610 H   0  0  0  0  0
   32.4673   39.4400   27.2222 H   0  0  0  0  0
   30.4426   38.3923   27.6831 H   0  0  0  0  0
   33.1224   36.8042   25.8574 H   0  0  0  0  0
   31.9412   38.3328   24.6011 H   0  0  0  0  0
   34.7567   39.2864   26.4534 H   0  0  0  0  0
   35.0536   36.4351   27.3772 H   0  0  0  0  0
   36.6095   38.9018   28.2013 H   0  0  0  0  0
   37.2187   37.5366   27.2396 H   0  0  0  0  0
   37.7214   37.3255   29.5006 H   0  0  0  0  0
   36.1899   39.6282   24.9699 H   0  0  0  0  0
   36.9164   39.2943   22.5386 H   0  0  0  0  0
   34.8040   39.0338   21.8069 H   0  0  0  0  0
   35.9150   36.4933   23.0441 H   0  0  0  0  0
   36.7613   36.2732   20.8575 H   0  0  0  0  0
   38.8157   37.4504   22.5195 H   0  0  0  0  0
   37.5093   36.3967   25.0290 H   0  0  0  0  0
   40.2276   37.6824   24.9862 H   0  0  0  0  0
   40.1236   36.1506   24.2461 H   0  0  0  0  0
   40.2785   35.9544   26.5929 H   0  0  0  0  0
   39.8482   36.0006   21.3589 H   0  0  0  0  0
   39.7916   33.9441   19.9832 H   0  0  0  0  0
   37.7526   34.3973   18.9886 H   0  0  0  0  0
   37.3807   33.1734   21.6689 H   0  0  0  0  0
   37.5011   31.3034   20.3366 H   0  0  0  0  0
   40.1714   31.9985   21.4111 H   0  0  0  0  0
   38.7600   33.3704   23.7399 H   0  0  0  0  0
   41.6830   32.8198   23.6919 H   0  0  0  0  0
   40.4987   31.4400   24.0568 H   0  0  0  0  0
   41.3806   32.4086   25.8682 H   0  0  0  0  0
   40.1770   29.9310   21.5627 H   0  0  0  0  0
   38.6917   27.9028   21.2398 H   0  0  0  0  0
   37.1737   28.8463   19.8743 H   0  0  0  0  0
   36.6053   29.5915   22.6833 H   0  0  0  0  0
   35.3772   27.6760   22.4939 H   0  0  0  0  0
   38.0648   27.0307   23.4788 H   0  0  0  0  0
   38.1577   29.8114   24.6823 H   0  0  0  0  0
   39.7921   27.2265   25.2101 H   0  0  0  0  0
   38.5627   27.8609   26.2879 H   0  0  0  0  0
   40.6853   28.5762   26.8612 H   0  0  0  0  0
   36.9457   25.7772   24.7454 H   0  0  0  0  0
   34.6689   25.1353   25.3759 H   0  0  0  0  0
   33.6019   25.8493   23.4699 H   0  0  0  0  0
   34.0914   28.1512   25.2696 H   0  0  0  0  0
   31.9977   27.4587   25.9556 H   0  0  0  0  0
   34.1216   26.1850   27.6483 H   0  0  0  0  0
   35.9195   28.5520   27.0378 H   0  0  0  0  0
   36.8962   26.6901   28.9230 H   0  0  0  0  0
   35.2533   27.3074   29.3953 H   0  0  0  0  0
   36.9700   28.5966   30.1850 H   0  0  0  0  0
   32.6073   26.9133   29.2468 H   0  0  0  0  0
   30.5920   28.0463   29.4249 H   0  0  0  0  0
   29.9430   28.0777   27.1425 H   0  0  0  0  0
   31.6017   30.2310   27.5850 H   0  0  0  0  0
   29.5846   31.1905   28.4691 H   0  0  0  0  0
   31.2571   30.3646   30.5569 H   0  0  0  0  0
   33.6449   30.5592   28.7605 H   0  0  0  0  0
   34.3041   30.1294   31.5447 H   0  0  0  0  0
   33.3572   31.5872   31.3624 H   0  0  0  0  0
   35.5100   31.8873   30.9584 H   0  0  0  0  0
   30.5116   32.3206   31.1155 H   0  0  0  0  0
   29.4730   34.3688   30.2815 H   0  0  0  0  0
   28.4713   33.5061   28.3892 H   0  0  0  0  0
   31.3058   34.0516   27.8260 H   0  0  0  0  0
   30.3088   36.0911   27.3097 H   0  0  0  0  0
   31.3905   36.1214   30.0887 H   0  0  0  0  0
   33.3526   33.9723   29.2214 H   0  0  0  0  0
   33.5503   35.4105   31.8584 H   0  0  0  0  0
   34.0952   36.2575   30.4124 H   0  0  0  0  0
   35.7715   34.9297   31.3400 H   0  0  0  0  0
  1  2  1  0  0  0
  1  9  1  0  0  0
  1 73  1  0  0  0
  2  3  1  0  0  0
  2  4  1  0  0  0
  4  5  1  0  0  0
  4  6  1  0  0  0
  6  7  1  0  0  0
  6  8  1  0  0  0
  7 12  1  0  0  0
  8  9  1  0  0  0
  8 10  1  0  0  0
 10 11  1  0  0  0
 12 13  1  0  0  0
 12 20  1  0  0  0
 13 14  1  0  0  0
 13 15  1  0  0  0
 15 16  1  0  0  0
 15 17  1  0  0  0
 17 18  1  0  0  0
 17 19  1  0  0  0
 18 23  1  0  0  0
 19 20  1  0  0  0
 19 21  1  0  0  0
 21 22  1  0  0  0
 23 24  1  0  0  0
 23 31  1  0  0  0
 24 25  1  0  0  0
 24 26  1  0  0  0
 26 27  1  0  0  0
 26 28  1  0  0  0
 28 29  1  0  0  0
 28 30  1  0  0  0
 29 34  1  0  0  0
 30 31  1  0  0  0
 30 32  1  0  0  0
 32 33  1  0  0  0
 34 35  1  0  0  0
 34 42  1  0  0  0
 35 36  1  0  0  0
 35 37  1  0  0  0
 37 38  1  0  0  0
 37 39  1  0  0  0
 39 40  1  0  0  0
 39 41  1  0  0  0
 40 45  1  0  0  0
 41 42  1  0  0  0
 41 43  1  0  0  0
 43 44  1  0  0  0
 45 46  1  0  0  0
 45 53  1  0  0  0
 46 47  1  0  0  0
 46 48  1  0  0  0
 48 49  1  0  0  0
 48 50  1  0  0  0
 50 51  1  0  0  0
 50 52  1  0  0  0
 51 56  1  0  0  0
 52 53  1  0  0  0
 52 54  1  0  0  0
 54 55  1  0  0  0
 56 57  1  0  0  0
 56 64  1  0  0  0
 57 58  1  0  0  0
 57 59  1  0  0  0
 59 60  1  0  0  0
 59 61  1  0  0  0
 61 62  1  0  0  0
 61 63  1  0  0  0
 62 67  1  0  0  0
 63 64  1  0  0  0
 63 65  1  0  0  0
 65 66  1  0  0  0
 67 68  1  0  0  0
 67 75  1  0  0  0
 68 69  1  0  0  0
 68 70  1  0  0  0
 70 71  1  0  0  0
 70 72  1  0  0  0
 72 73  1  0  0  0
 72 74  1  0  0  0
 74 75  1  0  0  0
 74 76  1  0  0  0
 76 77  1  0  0  0
  1 78  1  0  0  0
  2 79  1  0  0  0
  3 80  1  0  0  0
  4 81  1  0  0  0
  5 82  1  0  0  0
  6 83  1  0  0  0
  8 84  1  0  0  0
 10 85  1  0  0  0
 10 86  1  0  0  0
 11 87  1  0  0  0
 12 88  1  0  0  0
 13 89  1  0  0  0
 14 90  1  0  0  0
 15 91  1  0  0  0
 16 92  1  0  0  0
 17 93  1  0  0  0
 19 94  1  0  0  0
 21 95  1  0  0  0
 21 96  1  0  0  0
 22 97  1  0  0  0
 23 98  1  0  0  0
 24 99  1  0  0  0
 25100  1  0  0  0
 26101  1  0  0  0
 27102  1  0  0  0
 28103  1  0  0  0
 30104  1  0  0  0
 32105  1  0  0  0
 32106  1  0  0  0
 33107  1  0  0  0
 34108  1  0  0  0
 35109  1  0  0  0
 36110  1  0  0  0
 37111  1  0  0  0
 38112  1  0  0  0
 39113  1  0  0  0
 41114  1  0  0  0
 43115  1  0  0  0
 43116  1  0  0  0
 44117  1  0  0  0
 45118  1  0  0  0
 46119  1  0  0  0
 47120  1  0  0  0
 48121  1  0  0  0
 49122  1  0  0  0
 50123  1  0  0  0
 52124  1  0  0  0
 54125  1  0  0  0
 54126  1  0  0  0
 55127  1  0  0  0
 56128  1  0  0  0
 57129  1  0  0  0
 58130  1  0  0  0
 59131  1  0  0  0
 60132  1  0  0  0
 61133  1  0  0  0
 63134  1  0  0  0
 65135  1  0  0  0
 65136  1  0  0  0
 66137  1  0  0  0
 67138  1  0  0  0
 68139  1  0  0  0
 69140  1  0  0  0
 70141  1  0  0  0
 71142  1  0  0  0
 72143  1  0  0  0
 74144  1  0  0  0
 76145  1  0  0  0
 76146  1  0  0  0
 77147  1  0  0  0
M  END
$$$$
