### 
### Created by X-TOOL on Mon Sep 10 21:13:04 2018
### 

@<TRIPOS>MOLECULE
3m3r_ligand
  147   154     1     0     0
SMALL
GAST_HUCK


@<TRIPOS>ATOM
      1 C11        32.7870   37.6620   28.4920 C.3       1 BCD         0.1884
      2 C21        32.3440   38.3590   27.1560 C.3       1 BCD         0.1341
      3 O21        30.9550   38.0770   26.9350 O.3       1 BCD        -0.3841
      4 C31        33.2350   37.8800   25.9920 C.3       1 BCD         0.1144
      5 O31        32.8550   38.5440   24.8060 O.3       1 BCD        -0.3864
      6 C41        34.6560   38.2110   26.3070 C.3       1 BCD         0.1184
      7 O41        35.4670   37.7580   25.2130 O.3       1 BCD        -0.3401
      8 C51        35.1070   37.5020   27.5940 C.3       1 BCD         0.1134
      9 O51        34.2150   37.9440   28.7250 O.3       1 BCD        -0.3405
     10 C61        36.5210   37.8300   28.0240 C.3       1 BCD         0.0730
     11 O61        36.8250   37.1190   29.2260 O.3       1 BCD        -0.3924
     12 C12        36.3850   38.6190   24.6070 C.3       1 BCD         0.1884
     13 C22        36.2470   38.6100   23.0600 C.3       1 BCD         0.1341
     14 O22        34.9270   39.0270   22.7590 O.3       1 BCD        -0.3841
     15 C32        36.6090   37.1960   22.5830 C.3       1 BCD         0.1144
     16 O32        36.5360   37.1550   21.1630 O.3       1 BCD        -0.3864
     17 C42        38.0280   36.8450   22.9680 C.3       1 BCD         0.1184
     18 O42        38.2300   35.5170   22.5040 O.3       1 BCD        -0.3401
     19 C52        38.1720   37.0980   24.5220 C.3       1 BCD         0.1134
     20 O52        37.7150   38.1830   24.9370 O.3       1 BCD        -0.3405
     21 C62        39.5970   36.7940   24.9510 C.3       1 BCD         0.0730
     22 O62        39.4210   36.1880   26.2300 O.3       1 BCD        -0.3924
     23 C13        39.3450   35.1200   21.7580 C.3       1 BCD         0.1884
     24 C23        38.9180   34.2240   20.5720 C.3       1 BCD         0.1341
     25 O23        38.0180   34.9530   19.7250 O.3       1 BCD        -0.3841
     26 C33        38.2780   32.9420   21.0950 C.3       1 BCD         0.1144
     27 O33        37.9030   32.1080   20.0010 O.3       1 BCD        -0.3864
     28 C43        39.2710   32.2420   21.9750 C.3       1 BCD         0.1184
     29 O43        38.6880   31.0630   22.4580 O.3       1 BCD        -0.3401
     30 C53        39.6570   33.1700   23.1540 C.3       1 BCD         0.1134
     31 O53        40.2180   34.3790   22.6210 O.3       1 BCD        -0.3405
     32 C63        40.7110   32.5090   24.0750 C.3       1 BCD         0.0730
     33 O63        40.6890   32.8770   25.3950 O.3       1 BCD        -0.3924
     34 C14        39.3040   29.8100   22.2040 C.3       1 BCD         0.1884
     35 C24        38.2390   28.8630   21.4870 C.3       1 BCD         0.1341
     36 O24        37.8130   29.4280   20.2920 O.3       1 BCD        -0.3841
     37 C34        37.0720   28.6340   22.4520 C.3       1 BCD         0.1144
     38 O34        36.0970   27.8050   21.8720 O.3       1 BCD        -0.3864
     39 C44        37.6080   27.9910   23.7180 C.3       1 BCD         0.1184
     40 O44        36.5200   27.8210   24.6300 O.3       1 BCD        -0.3401
     41 C54        38.6600   28.8990   24.3610 C.3       1 BCD         0.1134
     42 O54        39.7090   29.2400   23.4360 O.3       1 BCD        -0.3405
     43 C64        39.3150   28.1450   25.5520 C.3       1 BCD         0.0730
     44 O64        40.2590   29.0110   26.1190 O.3       1 BCD        -0.3924
     45 C15        36.2960   26.5220   25.2050 C.3       1 BCD         0.1884
     46 C25        34.8350   26.1340   24.9720 C.3       1 BCD         0.1341
     47 O25        34.5230   26.0950   23.5830 O.3       1 BCD        -0.3841
     48 C35        33.9250   27.1590   25.6890 C.3       1 BCD         0.1144
     49 O35        32.5500   26.8150   25.5060 O.3       1 BCD        -0.3864
     50 C45        34.2610   27.1530   27.1670 C.3       1 BCD         0.1184
     51 O45        33.3920   28.1750   27.6970 O.3       1 BCD        -0.3401
     52 C55        35.7610   27.5280   27.3760 C.3       1 BCD         0.1134
     53 O55        36.5740   26.5840   26.6030 O.3       1 BCD        -0.3405
     54 C65        36.1550   27.4810   28.8080 C.3       1 BCD         0.0730
     55 O65        36.7360   28.6830   29.2580 O.3       1 BCD        -0.3924
     56 C16        32.6310   27.9490   28.9080 C.3       1 BCD         0.1884
     57 C26        31.2320   28.3820   28.6090 C.3       1 BCD         0.1341
     58 O26        30.8410   27.8090   27.3500 O.3       1 BCD        -0.3841
     59 C36        31.1080   29.9150   28.5040 C.3       1 BCD         0.1144
     60 O36        29.6950   30.2390   28.5330 O.3       1 BCD        -0.3864
     61 C46        31.7500   30.6170   29.6180 C.3       1 BCD         0.1184
     62 O46        31.6730   32.0430   29.3320 O.3       1 BCD        -0.3401
     63 C56        33.2010   30.2300   29.7000 C.3       1 BCD         0.1134
     64 O56        33.2680   28.7680   29.9490 O.3       1 BCD        -0.3405
     65 C66        33.9770   30.8740   30.8190 C.3       1 BCD         0.0730
     66 O66        34.9850   31.4610   30.2770 O.3       1 BCD        -0.3924
     67 C17        31.0310   32.8780   30.3360 C.3       1 BCD         0.1884
     68 C27        30.0230   33.7540   29.5690 C.3       1 BCD         0.1341
     69 O27        29.0900   32.9430   28.8600 O.3       1 BCD        -0.3841
     70 C37        30.7930   34.6600   28.5710 C.3       1 BCD         0.1144
     71 O37        29.8500   35.5220   27.9320 O.3       1 BCD        -0.3864
     72 C47        31.8460   35.4910   29.3250 C.3       1 BCD         0.1184
     73 O47        32.5290   36.2970   28.3390 O.3       1 BCD        -0.3401
     74 C57        32.8440   34.5340   30.0050 C.3       1 BCD         0.1134
     75 O57        32.0660   33.6660   30.9560 O.3       1 BCD        -0.3405
     76 C67        33.9020   35.2720   30.8360 C.3       1 BCD         0.0730
     77 O67        35.0930   34.4870   30.8250 O.3       1 BCD        -0.3924
     78 H          32.2430   38.0322   29.3610 H         1 BCD         0.0938
     79 H          32.4673   39.4400   27.2222 H         1 BCD         0.0671
     80 H          30.8292   37.1277   26.8675 H         1 BCD         0.2101
     81 H          33.1224   36.8042   25.8574 H         1 BCD         0.0648
     82 H          33.4099   38.2456   24.0817 H         1 BCD         0.2100
     83 H          34.7567   39.2864   26.4534 H         1 BCD         0.0651
     84 H          35.0536   36.4351   27.3772 H         1 BCD         0.0647
     85 H          36.6095   38.9018   28.2013 H         1 BCD         0.0584
     86 H          37.2187   37.5366   27.2396 H         1 BCD         0.0584
     87 H          36.2098   37.3801   29.9152 H         1 BCD         0.2095
     88 H          36.1899   39.6282   24.9699 H         1 BCD         0.0938
     89 H          36.9164   39.2943   22.5386 H         1 BCD         0.0671
     90 H          34.3013   38.4188   23.1593 H         1 BCD         0.2101
     91 H          35.9150   36.4933   23.0441 H         1 BCD         0.0648
     92 H          36.7613   36.2732   20.8574 H         1 BCD         0.2100
     93 H          38.8157   37.4504   22.5195 H         1 BCD         0.0651
     94 H          37.5093   36.3967   25.0290 H         1 BCD         0.0647
     95 H          40.2276   37.6824   24.9862 H         1 BCD         0.0584
     96 H          40.1236   36.1506   24.2461 H         1 BCD         0.0584
     97 H          40.2785   35.9544   26.5929 H         1 BCD         0.2095
     98 H          39.8482   36.0006   21.3589 H         1 BCD         0.0938
     99 H          39.7916   33.9441   19.9832 H         1 BCD         0.0671
    100 H          37.2426   35.2095   20.2295 H         1 BCD         0.2101
    101 H          37.3807   33.1734   21.6689 H         1 BCD         0.0648
    102 H          37.5011   31.3034   20.3366 H         1 BCD         0.2100
    103 H          40.1714   31.9985   21.4111 H         1 BCD         0.0651
    104 H          38.7600   33.3704   23.7399 H         1 BCD         0.0647
    105 H          41.6830   32.8198   23.6919 H         1 BCD         0.0584
    106 H          40.4987   31.4400   24.0568 H         1 BCD         0.0584
    107 H          41.3806   32.4086   25.8682 H         1 BCD         0.2095
    108 H          40.1770   29.9310   21.5627 H         1 BCD         0.0938
    109 H          38.6917   27.9028   21.2398 H         1 BCD         0.0671
    110 H          37.4053   30.2789   20.4691 H         1 BCD         0.2101
    111 H          36.6053   29.5915   22.6833 H         1 BCD         0.0648
    112 H          35.3772   27.6760   22.4939 H         1 BCD         0.2100
    113 H          38.0648   27.0307   23.4788 H         1 BCD         0.0651
    114 H          38.1577   29.8114   24.6823 H         1 BCD         0.0647
    115 H          39.7921   27.2265   25.2101 H         1 BCD         0.0584
    116 H          38.5627   27.8609   26.2879 H         1 BCD         0.0584
    117 H          40.9179   29.2404   25.4595 H         1 BCD         0.2095
    118 H          36.9457   25.7772   24.7454 H         1 BCD         0.0938
    119 H          34.6689   25.1353   25.3759 H         1 BCD         0.0671
    120 H          34.6739   26.9613   23.1978 H         1 BCD         0.2101
    121 H          34.0914   28.1512   25.2696 H         1 BCD         0.0648
    122 H          31.9977   27.4587   25.9556 H         1 BCD         0.2100
    123 H          34.1216   26.1850   27.6483 H         1 BCD         0.0651
    124 H          35.9195   28.5520   27.0378 H         1 BCD         0.0647
    125 H          36.8962   26.6901   28.9230 H         1 BCD         0.0584
    126 H          35.2533   27.3074   29.3953 H         1 BCD         0.0584
    127 H          36.9700   28.5966   30.1850 H         1 BCD         0.2095
    128 H          32.6073   26.9133   29.2468 H         1 BCD         0.0938
    129 H          30.5920   28.0463   29.4249 H         1 BCD         0.0671
    130 H          31.4354   28.1162   26.6615 H         1 BCD         0.2101
    131 H          31.6017   30.2310   27.5850 H         1 BCD         0.0648
    132 H          29.5846   31.1905   28.4691 H         1 BCD         0.2100
    133 H          31.2571   30.3646   30.5569 H         1 BCD         0.0651
    134 H          33.6449   30.5592   28.7605 H         1 BCD         0.0647
    135 H          34.3041   30.1294   31.5447 H         1 BCD         0.0584
    136 H          33.3572   31.5872   31.3624 H         1 BCD         0.0584
    137 H          35.5222   30.8121   29.8165 H         1 BCD         0.2095
    138 H          30.5116   32.3206   31.1155 H         1 BCD         0.0938
    139 H          29.4730   34.3688   30.2815 H         1 BCD         0.0671
    140 H          29.5609   32.3889   28.2333 H         1 BCD         0.2101
    141 H          31.3058   34.0516   27.8260 H         1 BCD         0.0648
    142 H          30.3088   36.0911   27.3097 H         1 BCD         0.2100
    143 H          31.3905   36.1214   30.0887 H         1 BCD         0.0651
    144 H          33.3526   33.9723   29.2214 H         1 BCD         0.0647
    145 H          33.5503   35.4105   31.8584 H         1 BCD         0.0584
    146 H          34.0952   36.2575   30.4124 H         1 BCD         0.0584
    147 H          34.9106   33.6255   31.2073 H         1 BCD         0.2095
@<TRIPOS>BOND
     1    1    2 1  
     2    1    9 1  
     3    1   73 1  
     4    2    3 1  
     5    2    4 1  
     6    4    5 1  
     7    4    6 1  
     8    6    7 1  
     9    6    8 1  
    10    7   12 1  
    11    8    9 1  
    12    8   10 1  
    13   10   11 1  
    14   12   13 1  
    15   12   20 1  
    16   13   14 1  
    17   13   15 1  
    18   15   16 1  
    19   15   17 1  
    20   17   18 1  
    21   17   19 1  
    22   18   23 1  
    23   19   20 1  
    24   19   21 1  
    25   21   22 1  
    26   23   24 1  
    27   23   31 1  
    28   24   25 1  
    29   24   26 1  
    30   26   27 1  
    31   26   28 1  
    32   28   29 1  
    33   28   30 1  
    34   29   34 1  
    35   30   31 1  
    36   30   32 1  
    37   32   33 1  
    38   34   35 1  
    39   34   42 1  
    40   35   36 1  
    41   35   37 1  
    42   37   38 1  
    43   37   39 1  
    44   39   40 1  
    45   39   41 1  
    46   40   45 1  
    47   41   42 1  
    48   41   43 1  
    49   43   44 1  
    50   45   46 1  
    51   45   53 1  
    52   46   47 1  
    53   46   48 1  
    54   48   49 1  
    55   48   50 1  
    56   50   51 1  
    57   50   52 1  
    58   51   56 1  
    59   52   53 1  
    60   52   54 1  
    61   54   55 1  
    62   56   57 1  
    63   56   64 1  
    64   57   58 1  
    65   57   59 1  
    66   59   60 1  
    67   59   61 1  
    68   61   62 1  
    69   61   63 1  
    70   62   67 1  
    71   63   64 1  
    72   63   65 1  
    73   65   66 1  
    74   67   68 1  
    75   67   75 1  
    76   68   69 1  
    77   68   70 1  
    78   70   71 1  
    79   70   72 1  
    80   72   73 1  
    81   72   74 1  
    82   74   75 1  
    83   74   76 1  
    84   76   77 1  
    85    1   78 1  
    86    2   79 1  
    87    3   80 1  
    88    4   81 1  
    89    5   82 1  
    90    6   83 1  
    91    8   84 1  
    92   10   85 1  
    93   10   86 1  
    94   11   87 1  
    95   12   88 1  
    96   13   89 1  
    97   14   90 1  
    98   15   91 1  
    99   16   92 1  
   100   17   93 1  
   101   19   94 1  
   102   21   95 1  
   103   21   96 1  
   104   22   97 1  
   105   23   98 1  
   106   24   99 1  
   107   25  100 1  
   108   26  101 1  
   109   27  102 1  
   110   28  103 1  
   111   30  104 1  
   112   32  105 1  
   113   32  106 1  
   114   33  107 1  
   115   34  108 1  
   116   35  109 1  
   117   36  110 1  
   118   37  111 1  
   119   38  112 1  
   120   39  113 1  
   121   41  114 1  
   122   43  115 1  
   123   43  116 1  
   124   44  117 1  
   125   45  118 1  
   126   46  119 1  
   127   47  120 1  
   128   48  121 1  
   129   49  122 1  
   130   50  123 1  
   131   52  124 1  
   132   54  125 1  
   133   54  126 1  
   134   55  127 1  
   135   56  128 1  
   136   57  129 1  
   137   58  130 1  
   138   59  131 1  
   139   60  132 1  
   140   61  133 1  
   141   63  134 1  
   142   65  135 1  
   143   65  136 1  
   144   66  137 1  
   145   67  138 1  
   146   68  139 1  
   147   69  140 1  
   148   70  141 1  
   149   71  142 1  
   150   72  143 1  
   151   74  144 1  
   152   76  145 1  
   153   76  146 1  
   154   77  147 1  
@<TRIPOS>SUBSTRUCTURE
     1 BCD         1

