6cgt_ligand
  -I-interpret- 

133140  0  0  0  0  0  0  0  0999 V2000
   14.4730   19.4970    5.4140 C   0  0  0  0  0
   13.5670   20.3150    6.4470 C   0  0  0  0  0
   13.8030   19.9070    7.9330 C   0  0  0  0  0
   13.7680   18.4120    8.0500 C   0  0  0  0  0
   14.8490   17.8800    7.1490 C   0  0  0  0  0
   15.1800   16.4330    7.3090 C   0  0  0  0  0
   15.7920   19.8940    5.5670 O   0  0  0  0  0
   13.8460   21.6980    6.3150 O   0  0  0  0  0
   12.7990   20.4840    8.7490 O   0  0  0  0  0
   13.9770   18.0040    9.4240 O   0  0  0  0  0
   14.4650   18.0930    5.7920 O   0  0  0  0  0
   14.1120   15.6310    6.9180 O   0  0  0  0  0
   12.8790   17.4470   10.0880 C   0  0  0  0  0
   12.6740   18.1060   11.4230 C   0  0  0  0  0
   13.6560   17.6120   12.5040 C   0  0  0  0  0
   13.6860   16.1160   12.5560 C   0  0  0  0  0
   14.0470   15.5790   11.1850 C   0  0  0  0  0
   14.0860   14.0610   11.1560 C   0  0  0  0  0
   12.8650   19.4720   11.2220 O   0  0  0  0  0
   13.2360   18.0970   13.7610 O   0  0  0  0  0
   14.6650   15.6490   13.5320 N   0  3  0  0  0
   13.0540   15.9880   10.2000 O   0  0  0  0  0
   14.3140   15.3700   14.9640 C   0  0  0  0  0
   15.2220   14.2660   15.4960 C   0  0  0  0  0
   16.5920   14.5650   15.2320 O   0  0  0  0  0
   14.8630   12.9310   14.8740 C   0  0  0  0  0
   15.8930   12.0030   15.2180 O   0  0  0  0  0
   13.4850   12.4050   15.3990 C   0  0  0  0  0
   13.0640   11.2600   14.6050 O   0  0  0  0  0
   12.3570   13.5040   15.3480 C   0  0  0  0  0
   12.0810   14.2170   14.1500 O   0  0  0  0  0
   11.2870   13.3320   16.4070 C   0  0  0  0  0
   12.8390   14.9360   15.1510 C   0  0  0  0  0
   11.8060   12.7650   17.5900 O   0  0  0  0  0
   12.5240   10.1460   15.2520 C   0  0  0  0  0
   13.3290    8.9560   14.9150 C   0  0  0  0  0
   13.3130    8.7180   13.4120 C   0  0  0  0  0
   11.8840    8.5140   12.9370 C   0  0  0  0  0
   11.0430    9.7530   13.3900 C   0  0  0  0  0
    9.5520    9.6590   13.0730 C   0  0  0  0  0
   14.6530    9.1590   15.3540 O   0  0  0  0  0
   14.0820    7.5910   13.1010 O   0  0  0  0  0
   11.8760    8.4180   11.4760 O   0  0  0  0  0
   11.1560    9.9620   14.8210 O   0  0  0  0  0
    8.9290    8.5350   13.7090 O   0  0  0  0  0
   12.1100    7.1900   10.8730 C   0  0  0  0  0
   12.2540    7.3900    9.3340 C   0  0  0  0  0
   10.9240    7.8860    8.7410 C   0  0  0  0  0
    9.7620    6.9920    9.2100 C   0  0  0  0  0
    9.7600    6.8470   10.7170 C   0  0  0  0  0
    8.6810    5.9330   11.2270 C   0  0  0  0  0
   13.2870    8.3360    9.0630 O   0  0  0  0  0
   11.0030    7.8520    7.3110 O   0  0  0  0  0
    8.5230    7.6070    8.7960 N   0  3  0  0  0
   11.0340    6.3060   11.1580 O   0  0  0  0  0
    7.4520    6.8440    8.1480 C   0  0  0  0  0
    7.5420    6.9980    6.6160 C   0  0  0  0  0
    8.7630    6.4390    6.0920 O   0  0  0  0  0
    7.4480    8.5120    6.2890 C   0  0  0  0  0
    7.8320    8.7350    4.9200 O   0  0  0  0  0
    5.9600    9.0500    6.5590 C   0  0  0  0  0
    5.9560   10.4780    6.5650 O   0  0  0  0  0
    5.3230    8.5590    7.9310 C   0  0  0  0  0
    5.9700    8.7760    9.2320 O   0  0  0  0  0
    3.8030    8.2800    7.7990 C   0  0  0  0  0
    6.1010    7.4320    8.6390 C   0  0  0  0  0
    3.5230    7.4460    6.6760 O   0  0  0  0  0
   14.0961   19.6634    4.4049 H   0  0  0  0  0
   12.5295   20.0851    6.2043 H   0  0  0  0  0
   14.7771   20.2683    8.2629 H   0  0  0  0  0
   12.7971   18.0160    7.7523 H   0  0  0  0  0
   15.7471   18.4266    7.4367 H   0  0  0  0  0
   15.3977   16.2381    8.3591 H   0  0  0  0  0
   16.0405   16.1997    6.6820 H   0  0  0  0  0
   15.8751   20.8213    5.3327 H   0  0  0  0  0
   13.7053   21.9661    5.4040 H   0  0  0  0  0
   12.8310   21.4399    8.6660 H   0  0  0  0  0
   14.3490   14.7075    7.0300 H   0  0  0  0  0
   11.9729   17.6281    9.5098 H   0  0  0  0  0
   11.6754   17.8635   11.7865 H   0  0  0  0  0
   14.6534   17.9775   12.2594 H   0  0  0  0  0
   12.7016   15.7562   12.8552 H   0  0  0  0  0
   15.0334   15.9813   10.9540 H   0  0  0  0  0
   14.8310   13.7043   11.8672 H   0  0  0  0  0
   13.1059   13.6684   11.4270 H   0  0  0  0  0
   14.3489   13.7247   10.1531 H   0  0  0  0  0
   12.7433   19.9367   12.0532 H   0  0  0  0  0
   13.8435   17.7929   14.4393 H   0  0  0  0  0
   15.3192   16.4287   13.5989 H   0  0  0  0  0
   14.9337   14.7325   13.1740 H   0  0  0  0  0
   14.4539   16.3000   15.5151 H   0  0  0  0  0
   15.0758   14.2058   16.5745 H   0  0  0  0  0
   17.1443   13.8585   15.5746 H   0  0  0  0  0
   14.7779   13.0460   13.7934 H   0  0  0  0  0
   15.6907   11.1459   14.8358 H   0  0  0  0  0
   13.6277   12.1231   16.4422 H   0  0  0  0  0
   10.5211   12.6633   16.0143 H   0  0  0  0  0
   10.8822   14.3151   16.6475 H   0  0  0  0  0
   12.7483   15.8712   15.7035 H   0  0  0  0  0
   11.1010   12.6719   18.2349 H   0  0  0  0  0
   12.5392   10.2945   16.3317 H   0  0  0  0  0
   12.9065    8.0808   15.4086 H   0  0  0  0  0
   13.7354    9.5879   12.9091 H   0  0  0  0  0
   11.4624    7.6008   13.3569 H   0  0  0  0  0
   11.4639   10.5806   12.8191 H   0  0  0  0  0
    9.4428    9.5404   11.9950 H   0  0  0  0  0
    9.0707   10.5650   13.4413 H   0  0  0  0  0
   15.1824    8.3880   15.1377 H   0  0  0  0  0
   14.0674    7.4470   12.1520 H   0  0  0  0  0
    7.9964    8.5167   13.4820 H   0  0  0  0  0
   13.0314    6.7574   11.2628 H   0  0  0  0  0
   12.5133    6.4358    8.8754 H   0  0  0  0  0
   10.7426    8.9060    9.0800 H   0  0  0  0  0
    9.8757    6.0010    8.7705 H   0  0  0  0  0
    9.5788    7.8455   11.1149 H   0  0  0  0  0
    7.7067    6.3240   10.9337 H   0  0  0  0  0
    8.8179    4.9387   10.8019 H   0  0  0  0  0
    8.7387    5.8759   12.3140 H   0  0  0  0  0
   13.3702    8.4542    8.1139 H   0  0  0  0  0
   10.1740    8.1611    6.9384 H   0  0  0  0  0
    8.8138    8.2687    8.0763 H   0  0  0  0  0
    8.1021    7.9106    9.6741 H   0  0  0  0  0
    7.5377    5.7863    8.3970 H   0  0  0  0  0
    6.7251    6.4505    6.1459 H   0  0  0  0  0
    8.7828    6.5534    5.1390 H   0  0  0  0  0
    8.1284    9.0629    6.9383 H   0  0  0  0  0
    7.7728    9.6722    4.7208 H   0  0  0  0  0
    5.3547    8.6384    5.7514 H   0  0  0  0  0
    5.0640   10.7937    6.7268 H   0  0  0  0  0
    3.2871    9.2303    7.6618 H   0  0  0  0  0
    3.4647    7.7708    8.7014 H   0  0  0  0  0
    5.8772    6.4089    8.9412 H   0  0  0  0  0
    2.5770    7.2919    6.6212 H   0  0  0  0  0
  1  2  1  0  0  0
  1  7  1  0  0  0
  1 11  1  0  0  0
  2  3  1  0  0  0
  2  8  1  0  0  0
  3  4  1  0  0  0
  3  9  1  0  0  0
  4  5  1  0  0  0
  4 10  1  0  0  0
  5  6  1  0  0  0
  5 11  1  0  0  0
  6 12  1  0  0  0
 10 13  1  0  0  0
 13 14  1  0  0  0
 13 22  1  0  0  0
 14 15  1  0  0  0
 14 19  1  0  0  0
 15 16  1  0  0  0
 15 20  1  0  0  0
 16 17  1  0  0  0
 16 21  1  0  0  0
 17 18  1  0  0  0
 17 22  1  0  0  0
 21 23  1  0  0  0
 23 24  1  0  0  0
 23 33  1  0  0  0
 24 25  1  0  0  0
 24 26  1  0  0  0
 26 27  1  0  0  0
 26 28  1  0  0  0
 28 29  1  0  0  0
 28 30  1  0  0  0
 29 35  1  0  0  0
 30 31  1  0  0  0
 30 32  1  0  0  0
 30 33  1  0  0  0
 31 33  1  0  0  0
 32 34  1  0  0  0
 35 36  1  0  0  0
 35 44  1  0  0  0
 36 37  1  0  0  0
 36 41  1  0  0  0
 37 38  1  0  0  0
 37 42  1  0  0  0
 38 39  1  0  0  0
 38 43  1  0  0  0
 39 40  1  0  0  0
 39 44  1  0  0  0
 40 45  1  0  0  0
 43 46  1  0  0  0
 46 47  1  0  0  0
 46 55  1  0  0  0
 47 48  1  0  0  0
 47 52  1  0  0  0
 48 49  1  0  0  0
 48 53  1  0  0  0
 49 50  1  0  0  0
 49 54  1  0  0  0
 50 51  1  0  0  0
 50 55  1  0  0  0
 54 56  1  0  0  0
 56 57  1  0  0  0
 56 66  1  0  0  0
 57 58  1  0  0  0
 57 59  1  0  0  0
 59 60  1  0  0  0
 59 61  1  0  0  0
 61 62  1  0  0  0
 61 63  1  0  0  0
 63 64  1  0  0  0
 63 65  1  0  0  0
 63 66  1  0  0  0
 64 66  1  0  0  0
 65 67  1  0  0  0
  1 68  1  0  0  0
  2 69  1  0  0  0
  3 70  1  0  0  0
  4 71  1  0  0  0
  5 72  1  0  0  0
  6 73  1  0  0  0
  6 74  1  0  0  0
  7 75  1  0  0  0
  8 76  1  0  0  0
  9 77  1  0  0  0
 12 78  1  0  0  0
 13 79  1  0  0  0
 14 80  1  0  0  0
 15 81  1  0  0  0
 16 82  1  0  0  0
 17 83  1  0  0  0
 18 84  1  0  0  0
 18 85  1  0  0  0
 18 86  1  0  0  0
 19 87  1  0  0  0
 20 88  1  0  0  0
 21 89  1  0  0  0
 21 90  1  0  0  0
 23 91  1  0  0  0
 24 92  1  0  0  0
 25 93  1  0  0  0
 26 94  1  0  0  0
 27 95  1  0  0  0
 28 96  1  0  0  0
 32 97  1  0  0  0
 32 98  1  0  0  0
 33 99  1  0  0  0
 34100  1  0  0  0
 35101  1  0  0  0
 36102  1  0  0  0
 37103  1  0  0  0
 38104  1  0  0  0
 39105  1  0  0  0
 40106  1  0  0  0
 40107  1  0  0  0
 41108  1  0  0  0
 42109  1  0  0  0
 45110  1  0  0  0
 46111  1  0  0  0
 47112  1  0  0  0
 48113  1  0  0  0
 49114  1  0  0  0
 50115  1  0  0  0
 51116  1  0  0  0
 51117  1  0  0  0
 51118  1  0  0  0
 52119  1  0  0  0
 53120  1  0  0  0
 54121  1  0  0  0
 54122  1  0  0  0
 56123  1  0  0  0
 57124  1  0  0  0
 58125  1  0  0  0
 59126  1  0  0  0
 60127  1  0  0  0
 61128  1  0  0  0
 62129  1  0  0  0
 65130  1  0  0  0
 65131  1  0  0  0
 66132  1  0  0  0
 67133  1  0  0  0
M  END
$$$$
