6czv_ligand
  -I-interpret- 

 39 41  0  0  0  0  0  0  0  0999 V2000
   -6.6380   -7.0920   -0.1030 O   0  0  0  0  0
   -7.8560   -6.5860   -0.2490 C   0  0  0  0  0
   -8.6410   -6.5110    0.9010 N   0  0  0  0  0
   -8.2420   -7.0320    2.2330 C   0  0  0  0  0
   -7.8940   -5.8700    3.1590 C   0  0  0  0  0
   -7.0290   -4.8690    2.7360 C   0  0  0  0  0
   -6.7240   -3.7700    3.5220 C   0  0  0  0  0
   -7.3010   -3.6810    4.7820 C   0  0  0  0  0
   -8.1980   -4.6660    5.1800 C   0  0  0  0  0
   -8.5150   -5.7460    4.3940 C   0  0  0  0  0
   -9.8540   -5.9490    0.7780 C   0  0  0  0  0
  -10.3110   -5.4760   -0.4350 C   0  0  0  0  0
   -9.5270   -5.5460   -1.6090 C   0  0  0  0  0
   -8.2710   -6.1160   -1.5280 C   0  0  0  0  0
  -11.6630   -4.8590   -0.4820 C   0  0  0  0  0
  -12.8240   -5.3450    0.0300 C   0  0  0  0  0
  -13.1240   -6.6170    0.7550 C   0  0  0  0  0
  -13.8350   -4.4440   -0.2230 O   0  0  0  0  0
  -13.3040   -3.3680   -0.8740 N   0  0  0  0  0
  -12.0020   -3.5650   -1.0630 C   0  0  0  0  0
  -11.0790   -2.6530   -1.7620 C   0  0  0  0  0
   -6.5120   -7.3616    0.8097 H   0  0  0  0  0
   -7.3708   -7.6775    2.1215 H   0  0  0  0  0
   -9.0688   -7.5989    2.6609 H   0  0  0  0  0
   -6.5734   -4.9513    1.7492 H   0  0  0  0  0
   -6.0483   -2.9948    3.1607 H   0  0  0  0  0
   -7.0550   -2.8534    5.4474 H   0  0  0  0  0
   -8.6700   -4.5768    6.1585 H   0  0  0  0  0
   -9.2376   -6.4888    4.7320 H   0  0  0  0  0
  -10.4929   -5.8644    1.6571 H   0  0  0  0  0
   -9.3522   -4.5096   -1.8979 H   0  0  0  0  0
  -10.0881   -6.1867   -2.2893 H   0  0  0  0  0
   -7.6269   -6.2021   -2.4031 H   0  0  0  0  0
  -12.8774   -7.4648    0.1159 H   0  0  0  0  0
  -12.5290   -6.6628    1.6671 H   0  0  0  0  0
  -14.1836   -6.6478    1.0089 H   0  0  0  0  0
  -10.2746   -2.3637   -1.0857 H   0  0  0  0  0
  -10.6599   -3.1588   -2.6318 H   0  0  0  0  0
  -11.6223   -1.7645   -2.0836 H   0  0  0  0  0
  1  2  1  0  0  0
  2  3  1  0  0  0
  2 14  2  0  0  0
  3  4  1  0  0  0
  3 11  1  0  0  0
  4  5  1  0  0  0
  5  6  4  0  0  0
  5 10  4  0  0  0
  6  7  4  0  0  0
  7  8  4  0  0  0
  8  9  4  0  0  0
  9 10  4  0  0  0
 11 12  2  0  0  0
 12 13  1  0  0  0
 12 15  1  0  0  0
 13 14  1  0  0  0
 15 16  4  0  0  0
 15 20  4  0  0  0
 16 17  1  0  0  0
 16 18  4  0  0  0
 18 19  4  0  0  0
 19 20  4  0  0  0
 20 21  1  0  0  0
  1 22  1  0  0  0
  4 23  1  0  0  0
  4 24  1  0  0  0
  6 25  1  0  0  0
  7 26  1  0  0  0
  8 27  1  0  0  0
  9 28  1  0  0  0
 10 29  1  0  0  0
 11 30  1  0  0  0
 13 31  1  0  0  0
 13 32  1  0  0  0
 14 33  1  0  0  0
 17 34  1  0  0  0
 17 35  1  0  0  0
 17 36  1  0  0  0
 21 37  1  0  0  0
 21 38  1  0  0  0
 21 39  1  0  0  0
M  END
$$$$
