3vjc_ligand
  -I-interpret- 

 95 97  0  0  0  0  0  0  0  0999 V2000
   15.7190   65.0890   51.9800 C   0  0  0  0  0
   14.2120   52.1260   54.0460 C   0  0  0  0  0
   12.1350   65.8550   49.5260 C   0  0  0  0  0
   19.5350   53.4300   50.7880 C   0  0  0  0  0
   14.9990   53.8410   51.5800 C   0  0  0  0  0
   17.2520   64.8110   48.8050 C   0  0  0  0  0
   12.7620   63.8630   50.7180 O   0  0  0  0  0
   18.7320   56.7470   54.3970 O   0  0  0  0  0
   18.7920   63.1290   57.5370 O   0  0  0  0  0
   20.3410   58.7270   56.2600 O   0  0  0  0  0
   21.2470   59.0500   53.2180 O   0  0  0  0  0
   20.0280   61.4140   58.0960 O   0  0  0  0  0
   22.0160   60.1040   56.0020 O   0  0  0  0  0
   20.6930   60.5370   51.7290 O   0  0  0  0  0
   16.1700   60.0230   55.1360 O   0  0  0  0  0
   20.7520   61.9630   54.9020 O   0  0  0  0  0
   18.1600   56.1490   52.1670 C   0  0  0  0  0
   18.4010   54.8610   52.3690 C   0  0  0  0  0
   18.5760   61.5280   44.7620 C   0  0  0  0  0
   18.1010   62.8350   44.6490 C   0  0  0  0  0
   18.1380   60.7250   45.8130 C   0  0  0  0  0
   17.2240   63.3360   45.6050 C   0  0  0  0  0
   17.2630   61.2240   46.7830 C   0  0  0  0  0
   15.3540   51.8370   53.0880 C   0  0  0  0  0
   16.2240   62.5930   52.0680 C   0  0  0  0  0
   16.6700   62.8430   53.4950 C   0  0  0  0  0
   15.8190   63.1270   47.6590 C   0  0  0  0  0
   17.2890   52.7250   51.7480 C   0  0  0  0  0
   14.4630   64.7800   49.5380 O   0  0  0  0  0
   18.1600   58.4850   52.9320 O   0  0  0  0  0
   17.9110   62.1480   55.3740 O   0  0  0  0  0
   18.7220   61.5400   53.2970 O   0  0  0  0  0
   13.0830   64.7800   49.9870 C   0  0  0  0  0
   18.3880   57.0970   53.2710 C   0  0  0  0  0
   15.7490   63.8770   51.3840 C   0  0  0  0  0
   19.2290   61.9780   57.3180 C   0  0  0  0  0
   20.8110   59.8110   55.8530 C   0  0  0  0  0
   20.5040   59.9770   52.8400 C   0  0  0  0  0
   16.8060   62.5350   46.6710 C   0  0  0  0  0
   18.1520   53.8840   51.2480 C   0  0  0  0  0
   15.9870   53.0860   52.4710 C   0  0  0  0  0
   16.4360   63.5300   48.9930 C   0  0  0  0  0
   16.9840   60.2980   53.9980 C   0  0  0  0  0
   15.2770   63.6870   49.9720 C   0  0  0  0  0
   18.7750   61.2570   56.0790 C   0  0  0  0  0
   18.2400   59.4210   53.9980 C   0  0  0  0  0
   19.9270   60.8260   55.1660 C   0  0  0  0  0
   17.5330   61.7240   54.0580 C   0  0  0  0  0
   19.4030   60.3960   53.7940 C   0  0  0  0  0
   16.0470   65.1962   53.0139 H   0  0  0  0  0
   15.3668   65.9597   51.4269 H   0  0  0  0  0
   14.5767   52.7403   54.8693 H   0  0  0  0  0
   13.4212   52.6577   53.5168 H   0  0  0  0  0
   13.8211   51.1867   54.4372 H   0  0  0  0  0
   11.3145   65.4004   48.9709 H   0  0  0  0  0
   11.7395   66.3849   50.3925 H   0  0  0  0  0
   12.6671   66.5552   48.8820 H   0  0  0  0  0
   20.1041   54.2940   50.4448 H   0  0  0  0  0
   20.0563   52.9573   51.6204 H   0  0  0  0  0
   19.4286   52.7157   49.9715 H   0  0  0  0  0
   14.6687   53.1885   50.7717 H   0  0  0  0  0
   14.1388   54.1498   52.1739 H   0  0  0  0  0
   15.4880   54.7208   51.1617 H   0  0  0  0  0
   18.0419   64.6333   48.0753 H   0  0  0  0  0
   16.5987   65.6074   48.4485 H   0  0  0  0  0
   17.6945   65.1015   49.7578 H   0  0  0  0  0
   18.1956   63.3837   56.8291 H   0  0  0  0  0
   19.4043   58.6881   56.0536 H   0  0  0  0  0
   20.0335   61.2228   51.6013 H   0  0  0  0  0
   15.3909   60.5835   55.1137 H   0  0  0  0  0
   20.2314   62.6397   54.4631 H   0  0  0  0  0
   17.7993   56.5004   51.2003 H   0  0  0  0  0
   18.7740   54.5132   53.3323 H   0  0  0  0  0
   19.2855   61.1375   44.0325 H   0  0  0  0  0
   18.4162   63.4612   43.8144 H   0  0  0  0  0
   18.4823   59.6930   45.8801 H   0  0  0  0  0
   16.8603   64.3602   45.5222 H   0  0  0  0  0
   16.9432   60.5961   47.6147 H   0  0  0  0  0
   14.9446   51.2460   52.2687 H   0  0  0  0  0
   16.1323   51.3308   53.6590 H   0  0  0  0  0
   15.3918   61.8894   52.0888 H   0  0  0  0  0
   17.0738   62.2024   51.5083 H   0  0  0  0  0
   15.7750   62.9128   54.1133 H   0  0  0  0  0
   17.2673   63.7548   53.4994 H   0  0  0  0  0
   15.0738   62.3595   47.8681 H   0  0  0  0  0
   15.4137   64.0317   47.2058 H   0  0  0  0  0
   17.8984   52.1956   52.4805 H   0  0  0  0  0
   16.9906   52.1715   50.8577 H   0  0  0  0  0
   17.6036   54.3249   50.4155 H   0  0  0  0  0
   16.2461   53.7752   53.2747 H   0  0  0  0  0
   17.1306   62.7870   49.3849 H   0  0  0  0  0
   16.3517   60.1242   53.1273 H   0  0  0  0  0
   14.6886   62.7695   49.9773 H   0  0  0  0  0
   18.2728   60.3365   56.3767 H   0  0  0  0  0
   18.3615   58.8482   54.9174 H   0  0  0  0  0
 35  1  2  0  0  0
 24  2  1  0  0  0
 33  3  1  0  0  0
 40  4  1  0  0  0
 41  5  1  0  0  0
 42  6  1  0  0  0
 33  7  2  0  0  0
 34  8  2  0  0  0
 36  9  1  0  0  0
 37 10  1  0  0  0
 38 11  2  0  0  0
 36 12  2  0  0  0
 37 13  2  0  0  0
 38 14  1  0  0  0
 43 15  1  0  0  0
 47 16  1  0  0  0
 17 18  2  0  0  0
 34 17  1  0  0  0
 18 40  1  0  0  0
 20 19  4  0  0  0
 21 19  4  0  0  0
 22 20  4  0  0  0
 23 21  4  0  0  0
 39 22  4  0  0  0
 39 23  4  0  0  0
 41 24  1  0  0  0
 26 25  1  0  0  0
 25 35  1  0  0  0
 48 26  1  0  0  0
 27 39  1  0  0  0
 42 27  1  0  0  0
 40 28  1  0  0  0
 28 41  1  0  0  0
 29 33  1  0  0  0
 44 29  1  0  0  0
 30 34  1  0  0  0
 46 30  1  0  0  0
 45 31  1  0  0  0
 31 48  1  0  0  0
 48 32  1  0  0  0
 32 49  1  0  0  0
 35 44  1  0  0  0
 45 36  1  0  0  0
 47 37  1  0  0  0
 49 38  1  0  0  0
 44 42  1  0  0  0
 43 46  1  0  0  0
 48 43  1  0  0  0
 45 47  1  0  0  0
 46 49  1  0  0  0
 47 49  1  0  0  0
  1 50  1  0  0  0
  1 51  1  0  0  0
  2 52  1  0  0  0
  2 53  1  0  0  0
  2 54  1  0  0  0
  3 55  1  0  0  0
  3 56  1  0  0  0
  3 57  1  0  0  0
  4 58  1  0  0  0
  4 59  1  0  0  0
  4 60  1  0  0  0
  5 61  1  0  0  0
  5 62  1  0  0  0
  5 63  1  0  0  0
  6 64  1  0  0  0
  6 65  1  0  0  0
  6 66  1  0  0  0
  9 67  1  0  0  0
 10 68  1  0  0  0
 14 69  1  0  0  0
 15 70  1  0  0  0
 16 71  1  0  0  0
 17 72  1  0  0  0
 18 73  1  0  0  0
 19 74  1  0  0  0
 20 75  1  0  0  0
 21 76  1  0  0  0
 22 77  1  0  0  0
 23 78  1  0  0  0
 24 79  1  0  0  0
 24 80  1  0  0  0
 25 81  1  0  0  0
 25 82  1  0  0  0
 26 83  1  0  0  0
 26 84  1  0  0  0
 27 85  1  0  0  0
 27 86  1  0  0  0
 28 87  1  0  0  0
 28 88  1  0  0  0
 40 89  1  0  0  0
 41 90  1  0  0  0
 42 91  1  0  0  0
 43 92  1  0  0  0
 44 93  1  0  0  0
 45 94  1  0  0  0
 46 95  1  0  0  0
M  END
$$$$
