### 
### Created by X-TOOL on Mon Sep 10 21:13:03 2018
### 

@<TRIPOS>MOLECULE
3m59_ligand
  145   145     1     0     0
SMALL
GAST_HUCK


@<TRIPOS>ATOM
      1 C          28.3640  -40.2350   20.3670 C.2       1 ACE         0.1752
      2 O          28.1770  -41.1920   19.5890 O.2       1 ACE        -0.3972
      3 CH3        28.4260  -40.4040   21.8700 C.3       1 ACE         0.0258
      4 N          28.7350  -39.0160   19.9230 N.am      1 SER        -0.2637
      5 CA         28.5010  -38.6490   18.5240 C.3       1 SER         0.1538
      6 C          29.6710  -38.9820   17.6040 C.2       1 SER         0.2062
      7 O          30.8210  -38.9330   18.0080 O.2       1 SER        -0.3943
      8 CB         28.1190  -37.1820   18.4140 C.3       1 SER         0.0843
      9 OG         26.7290  -37.0320   18.6940 O.3       1 SER        -0.3903
     10 N          29.3760  -39.2970   16.3460 N.am      1 LYS        -0.2637
     11 CA         30.4260  -39.6540   15.4070 C.3       1 LYS         0.1310
     12 C          30.9100  -38.4080   14.6290 C.2       1 LYS         0.2040
     13 O          31.0330  -38.4160   13.4010 O.2       1 LYS        -0.3944
     14 CB         29.9550  -40.7480   14.4390 C.3       1 LYS        -0.0122
     15 CG         29.3430  -41.9760   15.1500 C.3       1 LYS        -0.0440
     16 CD         29.2130  -43.1480   14.1770 C.3       1 LYS        -0.0124
     17 CE         28.9060  -44.4720   14.9020 C.3       1 LYS        -0.0354
     18 NZ         27.7310  -44.3180   15.7960 N.4       1 LYS         0.2185
     19 N          31.2230  -37.3670   15.3860 N.am      1 SER        -0.2616
     20 CA         31.7510  -36.1230   14.8130 C.3       1 SER         0.1539
     21 C          32.7160  -35.4760   15.8250 C.2       1 SER         0.2062
     22 O          32.6710  -35.7760   17.0320 O.2       1 SER        -0.3943
     23 CB         30.6210  -35.1810   14.4620 C.3       1 SER         0.0843
     24 OG         29.8510  -34.8090   15.6100 O.3       1 SER        -0.3903
     25 N          33.6130  -34.6450   15.3170 N.am      1 MLY        -0.2637
     26 CA         34.6260  -33.9730   16.1510 C.3       1 MLY         0.1310
     27 CB         35.7220  -33.4040   15.2640 C.3       1 MLY        -0.0125
     28 CG         36.4590  -34.4420   14.4240 C.3       1 MLY        -0.0507
     29 CD         37.5510  -33.8310   13.5400 C.3       1 MLY        -0.0716
     30 CE         36.9600  -33.3430   12.2430 C.3       1 MLY        -0.1138
     31 NZ         37.9600  -32.9030   11.2560 N.4       1 MLY         0.3986
     32 CH1        37.2180  -32.1520   10.2100 C.3       1 MLY        -0.1260
     33 CH2        38.7580  -33.9390   10.6070 C.3       1 MLY        -0.1260
     34 C          34.0600  -32.8440   16.9640 C.2       1 MLY         0.2040
     35 O          33.0850  -32.1780   16.5760 O.2       1 MLY        -0.3944
     36 N          34.6500  -32.6230   18.1420 N.am      1 ASP        -0.2622
     37 CA         34.4500  -31.3550   18.8610 C.3       1 ASP         0.1423
     38 C          33.0220  -31.1260   19.3300 C.2       1 ASP         0.2056
     39 O          32.5860  -29.9810   19.4340 O.2       1 ASP        -0.3943
     40 CB         34.9180  -30.1570   17.9760 C.3       1 ASP         0.0406
     41 CG         35.3470  -28.9360   18.8030 C.2       1 ASP         0.0393
     42 OD1        36.0680  -29.1150   19.8070 O.co2     1 ASP        -0.5688
     43 OD2        34.9690  -27.7930   18.4530 O.co2     1 ASP        -0.5688
     44 N          32.2710  -32.1890   19.6470 N.am      1 ARG        -0.2636
     45 CA         30.9590  -31.9710   20.2370 C.3       1 ARG         0.1311
     46 C          31.1440  -31.5630   21.6930 C.2       1 ARG         0.2039
     47 O          32.0730  -32.0180   22.3540 O.2       1 ARG        -0.3944
     48 CB         30.0520  -33.2150   20.1440 C.3       1 ARG        -0.0092
     49 CG         28.6080  -32.8800   20.5020 C.3       1 ARG        -0.0156
     50 CD         27.6280  -34.0220   20.2260 C.3       1 ARG         0.0627
     51 NE         26.2400  -33.5430   20.2930 N.pl3     1 ARG        -0.2723
     52 CZ         25.1830  -34.2070   19.8100 C.cat     1 ARG         0.2882
     53 NH1        25.3460  -35.3880   19.2060 N.pl3     1 ARG        -0.2849
     54 NH2        23.9550  -33.6940   19.9230 N.pl3     1 ARG        -0.2849
     55 N          30.2840  -30.6770   22.1770 N.am      1 LYS        -0.2640
     56 CA         30.2960  -30.3030   23.5960 C.3       1 LYS         0.1282
     57 C          29.4950  -31.3620   24.3620 C.2       1 LYS         0.2032
     58 O          28.2690  -31.4080   24.2410 O.2       1 LYS        -0.3944
     59 CB         29.6640  -28.9200   23.7910 C.3       1 LYS        -0.0244
     60 N          30.1830  -32.2330   25.1010 N.am      1 TYR        -0.2679
     61 CA         29.5070  -33.2140   25.9580 C.3       1 TYR         0.1025
     62 C          29.3680  -32.6690   27.3810 C.2       1 TYR         0.0619
     63 O          29.0607  -31.4643   27.5855 O.co2     1 TYR        -0.5665
     64 CB         30.2530  -34.5590   25.9780 C.3       1 TYR         0.0108
     65 CG         30.4270  -35.1870   24.6140 C.ar      1 TYR        -0.0499
     66 CD1        29.3330  -35.7370   23.9310 C.ar      1 TYR        -0.0686
     67 CD2        31.6840  -35.2310   24.0030 C.ar      1 TYR        -0.0686
     68 CE1        29.4910  -36.3130   22.6770 C.ar      1 TYR        -0.0398
     69 CE2        31.8510  -35.8000   22.7540 C.ar      1 TYR        -0.0398
     70 CZ         30.7540  -36.3340   22.0970 C.ar      1 TYR         0.0805
     71 OH         30.9230  -36.8870   20.8660 O.3       1 TYR        -0.3376
     72 H          27.4835  -40.8193   22.2268 H         1 ACE         0.0467
     73 H          29.2421  -41.0801   22.1250 H         1 ACE         0.0467
     74 H          28.5969  -39.4339   22.3367 H         1 ACE         0.0467
     75 H          29.1768  -38.3523   20.5591 H         1 SER         0.1883
     76 H          27.6677  -39.2613   18.1795 H         1 SER         0.0823
     77 H          28.3274  -36.8264   17.4049 H         1 SER         0.0606
     78 H          28.6993  -36.6002   19.1301 H         1 SER         0.0606
     79 H          26.2193  -37.5447   18.0624 H         1 SER         0.2097
     80 H          28.4038  -39.2879   16.0375 H         1 LYS         0.1883
     81 H          31.2654  -40.0506   15.9782 H         1 LYS         0.0800
     82 H          30.8271  -41.0917   13.8827 H         1 LYS         0.0312
     83 H          29.1801  -40.3151   13.8064 H         1 LYS         0.0312
     84 H          28.3528  -41.7129   15.5220 H         1 LYS         0.0269
     85 H          29.9942  -42.2697   15.9733 H         1 LYS         0.0269
     86 H          30.1613  -43.2602   13.6514 H         1 LYS         0.0317
     87 H          28.3893  -42.9345   13.4958 H         1 LYS         0.0317
     88 H          29.7712  -44.7552   15.5015 H         1 LYS         0.0813
     89 H          28.6864  -45.2388   14.1591 H         1 LYS         0.0813
     90 H          27.5444  -45.2039   16.2659 H         1 LYS         0.1994
     91 H          27.9263  -43.5976   16.4911 H         1 LYS         0.1994
     92 H          26.9178  -44.0471   15.2431 H         1 LYS         0.1994
     93 H          31.0934  -37.4317   16.3957 H         1 SER         0.1884
     94 H          32.2931  -36.3433   13.8934 H         1 SER         0.0823
     95 H          29.9601  -35.6905   13.7608 H         1 SER         0.0606
     96 H          31.0539  -34.2758   14.0361 H         1 SER         0.0606
     97 H          29.4714  -35.5958   16.0080 H         1 SER         0.2097
     98 H          33.6027  -34.4634   14.3133 H         1 MLY         0.1883
     99 H          35.0126  -34.7279   16.8357 H         1 MLY         0.0800
    100 H          36.4593  -32.9451   15.9228 H         1 MLY         0.0312
    101 H          35.2438  -32.7131   14.5697 H         1 MLY         0.0312
    102 H          35.7292  -34.9179   13.7690 H         1 MLY         0.0267
    103 H          36.9386  -35.1426   15.1076 H         1 MLY         0.0267
    104 H          38.3024  -34.5909   13.3255 H         1 MLY         0.0246
    105 H          38.0041  -32.9894   14.0640 H         1 MLY         0.0246
    106 H          36.3359  -32.4805   12.4768 H         1 MLY         0.0017
    107 H          36.4162  -34.1781   11.8015 H         1 MLY         0.0017
    108 H          36.4779  -32.8070    9.7503 H         1 MLY        -0.0019
    109 H          36.7164  -31.2977   10.6647 H         1 MLY        -0.0019
    110 H          37.9173  -31.8024    9.4505 H         1 MLY        -0.0019
    111 H          39.3170  -34.4916   11.3621 H         1 MLY        -0.0019
    112 H          38.0985  -34.6208   10.0700 H         1 MLY        -0.0019
    113 H          39.4522  -33.4754    9.9061 H         1 MLY        -0.0019
    114 H          35.2472  -33.3431   18.5485 H         1 ASP         0.1884
    115 H          35.0580  -31.4228   19.7631 H         1 ASP         0.0819
    116 H          34.0777  -29.8569   17.3500 H         1 ASP         0.0478
    117 H          35.7806  -30.4872   17.3972 H         1 ASP         0.0478
    118 H          32.6130  -33.1349   19.4777 H         1 ARG         0.1883
    119 H          30.4601  -31.1814   19.6751 H         1 ARG         0.0800
    120 H          30.4180  -33.9631   20.8472 H         1 ARG         0.0313
    121 H          30.0772  -33.5855   19.1192 H         1 ARG         0.0313
    122 H          28.3061  -32.0338   19.8848 H         1 ARG         0.0301
    123 H          28.5760  -32.6731   21.5717 H         1 ARG         0.0301
    124 H          27.7698  -34.7977   20.9785 H         1 ARG         0.0689
    125 H          27.8173  -34.4151   19.2271 H         1 ARG         0.0689
    126 H          26.0704  -32.6414   20.7388 H         1 ARG         0.2642
    127 H          26.2796  -35.7878   19.1112 H         1 ARG         0.2615
    128 H          24.5368  -35.8895   18.8398 H         1 ARG         0.2615
    129 H          23.8191  -32.7919   20.3792 H         1 ARG         0.2615
    130 H          23.1531  -34.2044   19.5531 H         1 ARG         0.2615
    131 H          29.6020  -30.2478   21.5517 H         1 LYS         0.1883
    132 H          31.3204  -30.2557   23.9654 H         1 LYS         0.0797
    133 H          30.2294  -28.1804   23.2241 H         1 LYS         0.0277
    134 H          28.6330  -28.9400   23.4378 H         1 LYS         0.0277
    135 H          29.6818  -28.6597   24.8493 H         1 LYS         0.0277
    136 H          31.2024  -32.2171   25.0699 H         1 TYR         0.1877
    137 H          28.5150  -33.3883   25.5413 H         1 TYR         0.0747
    138 O          29.5635  -33.4355   28.3617 O.co2     1 TYR        -0.5665
    139 H          29.6592  -35.2488   26.5778 H         1 TYR         0.0446
    140 H          31.2499  -34.3695   26.3759 H         1 TYR         0.0446
    141 H          28.3449  -35.7122   24.3904 H         1 TYR         0.0530
    142 H          32.5463  -34.8098   24.5198 H         1 TYR         0.0530
    143 H          28.6361  -36.7427   22.1548 H         1 TYR         0.0525
    144 H          32.8370  -35.8283   22.2902 H         1 TYR         0.0525
    145 H          31.2644  -36.2232   20.2624 H         1 TYR         0.2458
@<TRIPOS>BOND
     1    1    2 2  
     2    1    3 1  
     3    1    4 am 
     4    4    5 1  
     5    5    6 1  
     6    5    8 1  
     7    6    7 2  
     8    6   10 am 
     9    8    9 1  
    10   10   11 1  
    11   11   12 1  
    12   11   14 1  
    13   12   13 2  
    14   12   19 am 
    15   14   15 1  
    16   15   16 1  
    17   16   17 1  
    18   17   18 1  
    19   19   20 1  
    20   20   21 1  
    21   20   23 1  
    22   21   22 2  
    23   21   25 am 
    24   23   24 1  
    25   25   26 1  
    26   26   27 1  
    27   26   34 1  
    28   27   28 1  
    29   28   29 1  
    30   29   30 1  
    31   30   31 1  
    32   31   32 1  
    33   31   33 1  
    34   34   35 2  
    35   34   36 am 
    36   36   37 1  
    37   37   38 1  
    38   37   40 1  
    39   38   39 2  
    40   38   44 am 
    41   40   41 1  
    42   41   42 ar 
    43   41   43 ar 
    44   44   45 1  
    45   45   46 1  
    46   45   48 1  
    47   46   47 2  
    48   46   55 am 
    49   48   49 1  
    50   49   50 1  
    51   50   51 1  
    52   51   52 ar 
    53   52   53 ar 
    54   52   54 ar 
    55   55   56 1  
    56   56   57 1  
    57   56   59 1  
    58   57   58 2  
    59   57   60 am 
    60   60   61 1  
    61   61   62 1  
    62   61   64 1  
    63   62   63 ar 
    64   64   65 1  
    65   65   66 ar 
    66   65   67 ar 
    67   66   68 ar 
    68   67   69 ar 
    69   68   70 ar 
    70   69   70 ar 
    71   70   71 1  
    72    3   72 1  
    73    3   73 1  
    74    3   74 1  
    75    4   75 1  
    76    5   76 1  
    77    8   77 1  
    78    8   78 1  
    79    9   79 1  
    80   10   80 1  
    81   11   81 1  
    82   14   82 1  
    83   14   83 1  
    84   15   84 1  
    85   15   85 1  
    86   16   86 1  
    87   16   87 1  
    88   17   88 1  
    89   17   89 1  
    90   18   90 1  
    91   18   91 1  
    92   18   92 1  
    93   19   93 1  
    94   20   94 1  
    95   23   95 1  
    96   23   96 1  
    97   24   97 1  
    98   25   98 1  
    99   26   99 1  
   100   27  100 1  
   101   27  101 1  
   102   28  102 1  
   103   28  103 1  
   104   29  104 1  
   105   29  105 1  
   106   30  106 1  
   107   30  107 1  
   108   32  108 1  
   109   32  109 1  
   110   32  110 1  
   111   33  111 1  
   112   33  112 1  
   113   33  113 1  
   114   36  114 1  
   115   37  115 1  
   116   40  116 1  
   117   40  117 1  
   118   44  118 1  
   119   45  119 1  
   120   48  120 1  
   121   48  121 1  
   122   49  122 1  
   123   49  123 1  
   124   50  124 1  
   125   50  125 1  
   126   51  126 1  
   127   53  127 1  
   128   53  128 1  
   129   54  129 1  
   130   54  130 1  
   131   55  131 1  
   132   56  132 1  
   133   59  133 1  
   134   59  134 1  
   135   59  135 1  
   136   60  136 1  
   137   61  137 1  
   138   62  138 ar 
   139   64  139 1  
   140   64  140 1  
   141   66  141 1  
   142   67  142 1  
   143   68  143 1  
   144   69  144 1  
   145   71  145 1  
@<TRIPOS>SUBSTRUCTURE
     1 ACE         1

