3m59_ligand
  -I-interpret- 

147147  0  0  0  0  0  0  0  0999 V2000
   28.3640  -40.2350   20.3670 C   0  0  0  0  0
   28.1770  -41.1920   19.5890 O   0  0  0  0  0
   28.4260  -40.4040   21.8700 C   0  0  0  0  0
   28.7350  -39.0160   19.9230 N   0  0  0  0  0
   28.5010  -38.6490   18.5240 C   0  0  0  0  0
   29.6710  -38.9820   17.6040 C   0  0  0  0  0
   30.8210  -38.9330   18.0080 O   0  0  0  0  0
   28.1190  -37.1820   18.4140 C   0  0  0  0  0
   26.7290  -37.0320   18.6940 O   0  0  0  0  0
   29.3760  -39.2970   16.3460 N   0  0  0  0  0
   30.4260  -39.6540   15.4070 C   0  0  0  0  0
   30.9100  -38.4080   14.6290 C   0  0  0  0  0
   31.0330  -38.4160   13.4010 O   0  0  0  0  0
   29.9550  -40.7480   14.4390 C   0  0  0  0  0
   29.3430  -41.9760   15.1500 C   0  0  0  0  0
   29.2130  -43.1480   14.1770 C   0  0  0  0  0
   28.9060  -44.4720   14.9020 C   0  0  0  0  0
   27.7310  -44.3180   15.7960 N   0  3  0  0  0
   31.2230  -37.3670   15.3860 N   0  0  0  0  0
   31.7510  -36.1230   14.8130 C   0  0  0  0  0
   32.7160  -35.4760   15.8250 C   0  0  0  0  0
   32.6710  -35.7760   17.0320 O   0  0  0  0  0
   30.6210  -35.1810   14.4620 C   0  0  0  0  0
   29.8510  -34.8090   15.6100 O   0  0  0  0  0
   33.6130  -34.6450   15.3170 N   0  0  0  0  0
   34.6260  -33.9730   16.1510 C   0  0  0  0  0
   35.7220  -33.4040   15.2640 C   0  0  0  0  0
   36.4590  -34.4420   14.4240 C   0  0  0  0  0
   37.5510  -33.8310   13.5400 C   0  0  0  0  0
   36.9600  -33.3430   12.2430 C   0  0  0  0  0
   37.9600  -32.9030   11.2560 N   0  3  0  0  0
   37.2180  -32.1520   10.2100 C   0  0  0  0  0
   38.7580  -33.9390   10.6070 C   0  0  0  0  0
   34.0600  -32.8440   16.9640 C   0  0  0  0  0
   33.0850  -32.1780   16.5760 O   0  0  0  0  0
   34.6500  -32.6230   18.1420 N   0  0  0  0  0
   34.4500  -31.3550   18.8610 C   0  0  0  0  0
   33.0220  -31.1260   19.3300 C   0  0  0  0  0
   32.5860  -29.9810   19.4340 O   0  0  0  0  0
   34.9180  -30.1570   17.9760 C   0  0  0  0  0
   35.3470  -28.9360   18.8030 C   0  0  0  0  0
   36.0680  -29.1150   19.8070 O   0  0  0  0  0
   34.9690  -27.7930   18.4530 O   0  0  0  0  0
   32.2710  -32.1890   19.6470 N   0  0  0  0  0
   30.9590  -31.9710   20.2370 C   0  0  0  0  0
   31.1440  -31.5630   21.6930 C   0  0  0  0  0
   32.0730  -32.0180   22.3540 O   0  0  0  0  0
   30.0520  -33.2150   20.1440 C   0  0  0  0  0
   28.6080  -32.8800   20.5020 C   0  0  0  0  0
   27.6280  -34.0220   20.2260 C   0  0  0  0  0
   26.2400  -33.5430   20.2930 N   0  0  0  0  0
   25.1830  -34.2070   19.8100 C   0  0  0  0  0
   25.3460  -35.3880   19.2060 N   0  0  0  0  0
   23.9550  -33.6940   19.9230 N   0  0  0  0  0
   30.2840  -30.6770   22.1770 N   0  0  0  0  0
   30.2960  -30.3030   23.5960 C   0  0  0  0  0
   29.4950  -31.3620   24.3620 C   0  0  0  0  0
   28.2690  -31.4080   24.2410 O   0  0  0  0  0
   29.6640  -28.9200   23.7910 C   0  0  0  0  0
   30.1830  -32.2330   25.1010 N   0  0  0  0  0
   29.5070  -33.2140   25.9580 C   0  0  0  0  0
   29.3680  -32.6690   27.3810 C   0  0  0  0  0
   29.0607  -31.4643   27.5855 O   0  0  0  0  0
   30.2530  -34.5590   25.9780 C   0  0  0  0  0
   30.4270  -35.1870   24.6140 C   0  0  0  0  0
   29.3330  -35.7370   23.9310 C   0  0  0  0  0
   31.6840  -35.2310   24.0030 C   0  0  0  0  0
   29.4910  -36.3130   22.6770 C   0  0  0  0  0
   31.8510  -35.8000   22.7540 C   0  0  0  0  0
   30.7540  -36.3340   22.0970 C   0  0  0  0  0
   30.9230  -36.8870   20.8660 O   0  0  0  0  0
   29.5635  -33.4355   28.3617 O   0  0  0  0  0
   27.4835  -40.8193   22.2268 H   0  0  0  0  0
   29.2421  -41.0801   22.1250 H   0  0  0  0  0
   28.5969  -39.4339   22.3367 H   0  0  0  0  0
   29.1768  -38.3523   20.5591 H   0  0  0  0  0
   27.6677  -39.2613   18.1795 H   0  0  0  0  0
   28.3274  -36.8264   17.4049 H   0  0  0  0  0
   28.6993  -36.6002   19.1301 H   0  0  0  0  0
   26.4879  -36.1054   18.6245 H   0  0  0  0  0
   28.4038  -39.2879   16.0375 H   0  0  0  0  0
   31.2654  -40.0506   15.9782 H   0  0  0  0  0
   30.8271  -41.0917   13.8827 H   0  0  0  0  0
   29.1801  -40.3151   13.8064 H   0  0  0  0  0
   28.3528  -41.7129   15.5220 H   0  0  0  0  0
   29.9942  -42.2697   15.9733 H   0  0  0  0  0
   30.1613  -43.2602   13.6514 H   0  0  0  0  0
   28.3893  -42.9345   13.4958 H   0  0  0  0  0
   29.7712  -44.7552   15.5015 H   0  0  0  0  0
   28.6864  -45.2388   14.1591 H   0  0  0  0  0
   27.5444  -45.2039   16.2659 H   0  0  0  0  0
   27.9263  -43.5976   16.4911 H   0  0  0  0  0
   26.9178  -44.0471   15.2431 H   0  0  0  0  0
   31.0934  -37.4317   16.3957 H   0  0  0  0  0
   32.2931  -36.3433   13.8934 H   0  0  0  0  0
   29.9601  -35.6905   13.7608 H   0  0  0  0  0
   31.0539  -34.2758   14.0361 H   0  0  0  0  0
   29.1475  -34.2130   15.3426 H   0  0  0  0  0
   33.6027  -34.4634   14.3133 H   0  0  0  0  0
   35.0126  -34.7279   16.8357 H   0  0  0  0  0
   36.4593  -32.9451   15.9228 H   0  0  0  0  0
   35.2438  -32.7131   14.5697 H   0  0  0  0  0
   35.7292  -34.9179   13.7690 H   0  0  0  0  0
   36.9386  -35.1426   15.1076 H   0  0  0  0  0
   38.3024  -34.5909   13.3255 H   0  0  0  0  0
   38.0041  -32.9894   14.0640 H   0  0  0  0  0
   36.3359  -32.4805   12.4768 H   0  0  0  0  0
   36.4162  -34.1781   11.8015 H   0  0  0  0  0
   38.6467  -32.3562   11.7755 H   0  0  0  0  0
   36.4779  -32.8070    9.7503 H   0  0  0  0  0
   36.7164  -31.2977   10.6647 H   0  0  0  0  0
   37.9173  -31.8024    9.4505 H   0  0  0  0  0
   39.3170  -34.4916   11.3621 H   0  0  0  0  0
   38.0985  -34.6208   10.0700 H   0  0  0  0  0
   39.4522  -33.4754    9.9061 H   0  0  0  0  0
   35.2472  -33.3431   18.5485 H   0  0  0  0  0
   35.0580  -31.4228   19.7631 H   0  0  0  0  0
   34.0777  -29.8569   17.3500 H   0  0  0  0  0
   35.7806  -30.4872   17.3972 H   0  0  0  0  0
   34.4271  -27.8641   17.6638 H   0  0  0  0  0
   32.6130  -33.1349   19.4777 H   0  0  0  0  0
   30.4601  -31.1814   19.6751 H   0  0  0  0  0
   30.4180  -33.9631   20.8472 H   0  0  0  0  0
   30.0772  -33.5855   19.1192 H   0  0  0  0  0
   28.3061  -32.0338   19.8848 H   0  0  0  0  0
   28.5760  -32.6731   21.5717 H   0  0  0  0  0
   27.7698  -34.7977   20.9785 H   0  0  0  0  0
   27.8173  -34.4151   19.2271 H   0  0  0  0  0
   26.0704  -32.6414   20.7388 H   0  0  0  0  0
   24.5372  -35.8880   18.8370 H   0  0  0  0  0
   26.2792  -35.7893   19.1141 H   0  0  0  0  0
   23.8191  -32.7919   20.3792 H   0  0  0  0  0
   29.6020  -30.2478   21.5517 H   0  0  0  0  0
   31.3204  -30.2557   23.9654 H   0  0  0  0  0
   30.2294  -28.1804   23.2241 H   0  0  0  0  0
   28.6330  -28.9400   23.4378 H   0  0  0  0  0
   29.6818  -28.6597   24.8493 H   0  0  0  0  0
   31.2024  -32.2171   25.0699 H   0  0  0  0  0
   28.5150  -33.3883   25.5413 H   0  0  0  0  0
   28.9466  -31.0170   26.7438 H   0  0  0  0  0
   29.6592  -35.2488   26.5778 H   0  0  0  0  0
   31.2499  -34.3695   26.3759 H   0  0  0  0  0
   28.3449  -35.7122   24.3904 H   0  0  0  0  0
   32.5463  -34.8098   24.5198 H   0  0  0  0  0
   28.6361  -36.7427   22.1548 H   0  0  0  0  0
   32.8370  -35.8283   22.2902 H   0  0  0  0  0
   31.8462  -36.8217   20.6111 H   0  0  0  0  0
  1  2  2  0  0  0
  1  3  1  0  0  0
  1  4  1  0  0  0
  4  5  1  0  0  0
  5  6  1  0  0  0
  5  8  1  0  0  0
  6  7  2  0  0  0
  6 10  1  0  0  0
  8  9  1  0  0  0
 10 11  1  0  0  0
 11 12  1  0  0  0
 11 14  1  0  0  0
 12 13  2  0  0  0
 12 19  1  0  0  0
 14 15  1  0  0  0
 15 16  1  0  0  0
 16 17  1  0  0  0
 17 18  1  0  0  0
 19 20  1  0  0  0
 20 21  1  0  0  0
 20 23  1  0  0  0
 21 22  2  0  0  0
 21 25  1  0  0  0
 23 24  1  0  0  0
 25 26  1  0  0  0
 26 27  1  0  0  0
 26 34  1  0  0  0
 27 28  1  0  0  0
 28 29  1  0  0  0
 29 30  1  0  0  0
 30 31  1  0  0  0
 31 32  1  0  0  0
 31 33  1  0  0  0
 34 35  2  0  0  0
 34 36  1  0  0  0
 36 37  1  0  0  0
 37 38  1  0  0  0
 37 40  1  0  0  0
 38 39  2  0  0  0
 38 44  1  0  0  0
 40 41  1  0  0  0
 41 42  2  0  0  0
 41 43  1  0  0  0
 44 45  1  0  0  0
 45 46  1  0  0  0
 45 48  1  0  0  0
 46 47  2  0  0  0
 46 55  1  0  0  0
 48 49  1  0  0  0
 49 50  1  0  0  0
 50 51  1  0  0  0
 51 52  1  0  0  0
 52 53  1  0  0  0
 52 54  2  0  0  0
 55 56  1  0  0  0
 56 57  1  0  0  0
 56 59  1  0  0  0
 57 58  2  0  0  0
 57 60  1  0  0  0
 60 61  1  0  0  0
 61 62  1  0  0  0
 61 64  1  0  0  0
 62 63  1  0  0  0
 64 65  1  0  0  0
 65 66  4  0  0  0
 65 67  4  0  0  0
 66 68  4  0  0  0
 67 69  4  0  0  0
 68 70  4  0  0  0
 69 70  4  0  0  0
 70 71  1  0  0  0
 62 72  2  0  0  0
  3 73  1  0  0  0
  3 74  1  0  0  0
  3 75  1  0  0  0
  4 76  1  0  0  0
  5 77  1  0  0  0
  8 78  1  0  0  0
  8 79  1  0  0  0
  9 80  1  0  0  0
 10 81  1  0  0  0
 11 82  1  0  0  0
 14 83  1  0  0  0
 14 84  1  0  0  0
 15 85  1  0  0  0
 15 86  1  0  0  0
 16 87  1  0  0  0
 16 88  1  0  0  0
 17 89  1  0  0  0
 17 90  1  0  0  0
 18 91  1  0  0  0
 18 92  1  0  0  0
 18 93  1  0  0  0
 19 94  1  0  0  0
 20 95  1  0  0  0
 23 96  1  0  0  0
 23 97  1  0  0  0
 24 98  1  0  0  0
 25 99  1  0  0  0
 26100  1  0  0  0
 27101  1  0  0  0
 27102  1  0  0  0
 28103  1  0  0  0
 28104  1  0  0  0
 29105  1  0  0  0
 29106  1  0  0  0
 30107  1  0  0  0
 30108  1  0  0  0
 31109  1  0  0  0
 32110  1  0  0  0
 32111  1  0  0  0
 32112  1  0  0  0
 33113  1  0  0  0
 33114  1  0  0  0
 33115  1  0  0  0
 36116  1  0  0  0
 37117  1  0  0  0
 40118  1  0  0  0
 40119  1  0  0  0
 43120  1  0  0  0
 44121  1  0  0  0
 45122  1  0  0  0
 48123  1  0  0  0
 48124  1  0  0  0
 49125  1  0  0  0
 49126  1  0  0  0
 50127  1  0  0  0
 50128  1  0  0  0
 51129  1  0  0  0
 53130  1  0  0  0
 53131  1  0  0  0
 54132  1  0  0  0
 55133  1  0  0  0
 56134  1  0  0  0
 59135  1  0  0  0
 59136  1  0  0  0
 59137  1  0  0  0
 60138  1  0  0  0
 61139  1  0  0  0
 63140  1  0  0  0
 64141  1  0  0  0
 64142  1  0  0  0
 66143  1  0  0  0
 67144  1  0  0  0
 68145  1  0  0  0
 69146  1  0  0  0
 71147  1  0  0  0
M  END
$$$$
