1w6h_ligand
  -I-interpret- 

 91 92  0  0  0  0  0  0  0  0999 V2000
   14.2640    6.8750   19.9020 C   0  0  0  0  0
   13.7890    8.2290   19.9480 C   0  0  0  0  0
   14.0280    9.1180   18.8510 C   0  0  0  0  0
   14.7430    8.6620   17.6970 C   0  0  0  0  0
   15.2170    7.3120   17.6370 C   0  0  0  0  0
   14.9730    6.4280   18.7380 C   0  0  0  0  0
   14.1040    5.9980   21.0050 C   0  0  0  0  0
   12.5740    5.4380   22.8140 C   0  0  0  0  0
   12.8720    6.1410   21.6480 O   0  0  0  0  0
   15.0000    9.6050   16.5400 Br  0  0  0  0  0
   12.2500    6.3350   23.8870 C   0  0  0  0  0
   11.4420    5.6770   24.8960 C   0  0  0  0  0
   10.9070    6.5970   25.8690 C   0  0  0  0  0
    9.7050    7.2010   25.4400 C   0  0  0  0  0
    9.7560    8.4300   24.8620 O   0  0  0  0  0
   12.2070    4.7630   25.5740 O   0  0  0  0  0
    3.7740   10.0710   28.1230 N   0  0  0  0  0
   13.3970    6.8510   24.4110 N   0  0  0  0  0
    6.0460    9.0780   25.7220 N   0  0  0  0  0
    5.5330   10.0410   26.5260 C   0  0  0  0  0
    5.4980   11.2590   25.8510 C   0  0  0  0  0
    6.4320   12.1360   26.4170 C   0  0  0  0  0
    7.2770   12.6290   25.4230 C   0  0  0  0  0
    5.7760   13.2050   27.0540 C   0  0  0  0  0
    4.2390    9.6740   26.9320 C   0  0  0  0  0
    3.4520    8.9040   26.1080 O   0  0  0  0  0
    8.5090    6.5850   25.6400 N   0  0  0  0  0
    7.3150    7.1340   25.2760 C   0  0  0  0  0
    6.3240    6.1300   25.1810 C   0  0  0  0  0
    6.8750    8.1260   26.1710 C   0  0  0  0  0
    7.2510    8.1040   27.4860 O   0  0  0  0  0
   15.7150    9.1100   23.7350 N   0  0  0  0  0
   14.9870    8.6100   24.7720 C   0  0  0  0  0
   14.7300    9.6360   25.7780 C   0  0  0  0  0
   14.1080    9.1060   26.9140 C   0  0  0  0  0
   15.9100   10.2630   26.2060 C   0  0  0  0  0
   13.7750    8.1310   24.2140 C   0  0  0  0  0
   13.0020    8.9670   23.4720 O   0  0  0  0  0
   17.4720    8.8050   22.0370 C   0  0  0  0  0
   17.5300   10.1250   20.0540 C   0  0  0  0  0
   18.5230    9.2800   19.4950 C   0  0  0  0  0
   18.4650    7.9480   21.4990 C   0  0  0  0  0
   18.9740    8.2150   20.2090 C   0  0  0  0  0
   16.8870    8.5860   23.2980 C   0  0  0  0  0
   17.4320    7.4850   23.9110 O   0  0  0  0  0
   17.0340    9.8710   21.3010 N   0  0  0  0  0
   13.2433    8.5824   20.8229 H   0  0  0  0  0
   13.6646   10.1447   18.8945 H   0  0  0  0  0
   15.7596    6.9594   16.7599 H   0  0  0  0  0
   15.3318    5.3998   18.6902 H   0  0  0  0  0
   14.8838    6.2329   21.7295 H   0  0  0  0  0
   14.1625    4.9775   20.6266 H   0  0  0  0  0
   13.4462    4.8505   23.1007 H   0  0  0  0  0
   11.7147    4.7947   22.6245 H   0  0  0  0  0
   11.6504    7.1570   23.4961 H   0  0  0  0  0
   10.6137    5.2037   24.3687 H   0  0  0  0  0
   11.6425    7.3862   26.0249 H   0  0  0  0  0
   10.6950    6.0369   26.7798 H   0  0  0  0  0
   11.6695    4.3294   26.2408 H   0  0  0  0  0
    2.8357    9.8024   28.4195 H   0  0  0  0  0
    4.3580   10.6421   28.7339 H   0  0  0  0  0
   13.9936    6.2454   24.9747 H   0  0  0  0  0
    5.7905    9.0780   24.7345 H   0  0  0  0  0
    6.1665   10.1496   27.4063 H   0  0  0  0  0
    4.5002   11.6901   25.9326 H   0  0  0  0  0
    5.7416   11.0985   24.8008 H   0  0  0  0  0
    7.0197   11.5929   27.1571 H   0  0  0  0  0
    7.8010   11.7991   24.9489 H   0  0  0  0  0
    6.6867   13.1613   24.6771 H   0  0  0  0  0
    8.0014   13.3106   25.8689 H   0  0  0  0  0
    5.1750   13.7475   26.3242 H   0  0  0  0  0
    5.1302   12.8160   27.8413 H   0  0  0  0  0
    6.5163   13.8769   27.4884 H   0  0  0  0  0
    8.5050    5.6669   26.0843 H   0  0  0  0  0
    7.4751    7.6064   24.3068 H   0  0  0  0  0
    6.6227    5.3961   24.4324 H   0  0  0  0  0
    6.2116    5.6395   26.1479 H   0  0  0  0  0
    5.3764    6.5830   24.8897 H   0  0  0  0  0
   15.3542    9.9343   23.2546 H   0  0  0  0  0
   15.5284    7.8118   25.2798 H   0  0  0  0  0
   14.0771   10.3598   25.2903 H   0  0  0  0  0
   13.1556    8.6585   26.6298 H   0  0  0  0  0
   14.7506    8.3451   27.3569 H   0  0  0  0  0
   13.9350    9.9030   27.6371 H   0  0  0  0  0
   16.5776    9.5195   26.6414 H   0  0  0  0  0
   16.3978   10.7367   25.3541 H   0  0  0  0  0
   15.6680   11.0182   26.9538 H   0  0  0  0  0
   17.1617   10.9797   19.4865 H   0  0  0  0  0
   18.9211    9.4832   18.5009 H   0  0  0  0  0
   18.8301    7.0959   22.0723 H   0  0  0  0  0
   19.7349    7.5615   19.7824 H   0  0  0  0  0
  1  2  4  0  0  0
  1  6  4  0  0  0
  7  1  1  0  0  0
  2  3  4  0  0  0
  3  4  4  0  0  0
  5  4  4  0  0  0
  4 10  1  0  0  0
  6  5  4  0  0  0
  9  7  1  0  0  0
  8  9  1  0  0  0
 11  8  1  0  0  0
 11 12  1  0  0  0
 18 11  1  0  0  0
 12 13  1  0  0  0
 12 16  1  0  0  0
 13 14  1  0  0  0
 14 15  2  0  0  0
 14 27  1  0  0  0
 25 17  1  0  0  0
 37 18  1  0  0  0
 19 20  1  0  0  0
 30 19  1  0  0  0
 20 21  1  0  0  0
 20 25  1  0  0  0
 21 22  1  0  0  0
 22 23  1  0  0  0
 22 24  1  0  0  0
 25 26  2  0  0  0
 27 28  1  0  0  0
 28 29  1  0  0  0
 28 30  1  0  0  0
 30 31  2  0  0  0
 32 33  1  0  0  0
 44 32  1  0  0  0
 33 34  1  0  0  0
 33 37  1  0  0  0
 34 35  1  0  0  0
 34 36  1  0  0  0
 37 38  2  0  0  0
 39 42  4  0  0  0
 39 44  1  0  0  0
 46 39  4  0  0  0
 40 41  4  0  0  0
 40 46  4  0  0  0
 41 43  4  0  0  0
 42 43  4  0  0  0
 44 45  2  0  0  0
  2 47  1  0  0  0
  3 48  1  0  0  0
  5 49  1  0  0  0
  6 50  1  0  0  0
  7 51  1  0  0  0
  7 52  1  0  0  0
  8 53  1  0  0  0
  8 54  1  0  0  0
 11 55  1  0  0  0
 12 56  1  0  0  0
 13 57  1  0  0  0
 13 58  1  0  0  0
 16 59  1  0  0  0
 17 60  1  0  0  0
 17 61  1  0  0  0
 18 62  1  0  0  0
 19 63  1  0  0  0
 20 64  1  0  0  0
 21 65  1  0  0  0
 21 66  1  0  0  0
 22 67  1  0  0  0
 23 68  1  0  0  0
 23 69  1  0  0  0
 23 70  1  0  0  0
 24 71  1  0  0  0
 24 72  1  0  0  0
 24 73  1  0  0  0
 27 74  1  0  0  0
 28 75  1  0  0  0
 29 76  1  0  0  0
 29 77  1  0  0  0
 29 78  1  0  0  0
 32 79  1  0  0  0
 33 80  1  0  0  0
 34 81  1  0  0  0
 35 82  1  0  0  0
 35 83  1  0  0  0
 35 84  1  0  0  0
 36 85  1  0  0  0
 36 86  1  0  0  0
 36 87  1  0  0  0
 40 88  1  0  0  0
 41 89  1  0  0  0
 42 90  1  0  0  0
 43 91  1  0  0  0
M  END
$$$$
