2hwi_ligand
  -I-interpret- 

 41 43  0  0  0  0  0  0  0  0999 V2000
    9.5050   36.6530   76.2440 C   0  0  0  0  0
   10.3280   37.3950   75.3650 C   0  0  0  0  0
    9.7640   38.3840   74.5220 C   0  0  0  0  0
    8.3630   38.5840   74.5000 C   0  0  0  0  0
    7.5190   37.7950   75.3320 C   0  0  0  0  0
    8.0850   36.8340   76.2360 C   0  0  0  0  0
   10.5820   39.1600   73.7560 F   0  0  0  0  0
    7.1750   35.9860   77.1850 C   0  0  0  0  0
    6.5690   36.9180   78.2590 C   0  0  0  0  0
    5.3080   37.3670   77.9640 O   0  0  0  0  0
    7.1580   37.2340   79.2790 O   0  0  0  0  0
    6.1020   35.2110   76.4660 N   0  0  0  0  0
    6.3700   34.0990   75.6060 C   0  0  0  0  0
    7.9640   33.5430   75.2530 S   0  0  0  0  0
    7.3000   32.3270   74.2520 C   0  0  0  0  0
    5.8080   32.3890   74.2370 C   0  0  0  0  0
    5.3580   33.4400   75.0340 N   0  0  0  0  0
    5.0890   31.6280   73.6130 O   0  0  0  0  0
    8.1610   31.3270   73.4920 C   0  0  0  0  0
    9.6660   31.1930   73.4490 C   0  0  0  0  0
   10.6040   31.7100   74.3380 C   0  0  0  0  0
   11.8550   31.3140   73.9120 C   0  0  0  0  0
   11.6960   30.5450   72.7700 C   0  0  0  0  0
   10.3500   30.4890   72.4930 O   0  0  0  0  0
   12.7710   29.8600   71.9420 C   0  0  0  0  0
   13.1250   30.6360   70.6690 C   0  0  0  0  0
    9.9553   35.9381   76.9326 H   0  0  0  0  0
   11.4009   37.2050   75.3361 H   0  0  0  0  0
    7.9305   39.3416   73.8465 H   0  0  0  0  0
    6.4375   37.9212   75.2824 H   0  0  0  0  0
    7.8034   35.2281   77.6527 H   0  0  0  0  0
    5.0290   37.0028   77.1208 H   0  0  0  0  0
    5.1313   35.4943   76.5994 H   0  0  0  0  0
    7.6118   30.6020   72.8913 H   0  0  0  0  0
   10.3883   32.3198   75.2154 H   0  0  0  0  0
   12.8026   31.5624   74.3899 H   0  0  0  0  0
   12.3900   28.8836   71.6426 H   0  0  0  0  0
   13.6710   29.7932   72.5532 H   0  0  0  0  0
   12.2361   30.7342   70.0459 H   0  0  0  0  0
   13.4923   31.6261   70.9389 H   0  0  0  0  0
   13.8976   30.0977   70.1199 H   0  0  0  0  0
  1  2  4  0  0  0
  1  6  4  0  0  0
  2  3  4  0  0  0
  3  4  4  0  0  0
  3  7  1  0  0  0
  4  5  4  0  0  0
  5  6  4  0  0  0
  6  8  1  0  0  0
  8  9  1  0  0  0
  8 12  1  0  0  0
  9 10  1  0  0  0
  9 11  2  0  0  0
 12 13  1  0  0  0
 13 14  1  0  0  0
 13 17  2  0  0  0
 14 15  1  0  0  0
 15 16  1  0  0  0
 15 19  2  0  0  0
 16 17  1  0  0  0
 16 18  2  0  0  0
 19 20  1  0  0  0
 20 21  4  0  0  0
 20 24  4  0  0  0
 21 22  4  0  0  0
 22 23  4  0  0  0
 23 24  4  0  0  0
 23 25  1  0  0  0
 25 26  1  0  0  0
  1 27  1  0  0  0
  2 28  1  0  0  0
  4 29  1  0  0  0
  5 30  1  0  0  0
  8 31  1  0  0  0
 10 32  1  0  0  0
 12 33  1  0  0  0
 19 34  1  0  0  0
 21 35  1  0  0  0
 22 36  1  0  0  0
 25 37  1  0  0  0
 25 38  1  0  0  0
 26 39  1  0  0  0
 26 40  1  0  0  0
 26 41  1  0  0  0
M  END
$$$$
