4jlg_ligand
  -I-interpret- 

 60 63  0  0  0  0  0  0  0  0999 V2000
  -19.1350    0.5040   -8.7550 F   0  0  0  0  0
  -18.3150    0.9600   -9.7730 C   0  0  0  0  0
  -18.2630    2.2420   -9.7070 F   0  0  0  0  0
  -18.8660    0.6330  -10.8360 F   0  0  0  0  0
  -17.0030    0.3870   -9.7230 C   0  0  0  0  0
  -16.5220   -0.2050   -8.5520 C   0  0  0  0  0
  -16.1710    0.3900  -10.8500 C   0  0  0  0  0
  -14.8870   -0.1890  -10.8020 C   0  0  0  0  0
  -14.4250   -0.7730   -9.6250 C   0  0  0  0  0
  -15.2410   -0.7820   -8.4900 C   0  0  0  0  0
  -14.7910   -1.3760   -7.2960 C   0  0  0  0  0
  -14.0300   -0.4020   -6.3710 C   0  0  0  0  0
  -13.3710   -1.1680   -5.2130 C   0  0  0  0  0
  -13.8660   -1.1290   -4.0890 O   0  0  0  0  0
  -12.2420   -1.8480   -5.4920 N   0  0  0  0  0
  -11.5590   -1.9850   -6.8070 C   0  0  0  0  0
  -10.1950   -2.5540   -6.5060 C   0  0  0  0  0
  -10.3810   -3.3380   -5.2180 C   0  0  0  0  0
  -11.5030   -2.6230   -4.4710 C   0  0  0  0  0
  -14.9390    0.6090   -5.7820 N   0  0  0  0  0
  -14.3470    2.1290   -5.8790 S   0  0  0  0  0
  -12.8440    2.1680   -5.5540 O   0  0  0  0  0
  -15.0960    2.9750   -4.8490 O   0  0  0  0  0
  -14.5980    2.8460   -7.4810 C   0  0  0  0  0
  -15.6460    3.7460   -7.7210 C   0  0  0  0  0
  -15.8390    4.3000   -8.9920 C   0  0  0  0  0
  -16.9090    5.1940   -9.1770 C   0  0  0  0  0
  -17.3090    5.2470  -10.6510 C   0  0  0  0  0
  -16.1180    5.5350  -11.4760 N   0  3  0  0  0
  -15.1170    4.4530  -11.3490 C   0  0  0  0  0
  -14.9760    3.9400  -10.0440 C   0  0  0  0  0
  -13.9250    3.0450   -9.7870 C   0  0  0  0  0
  -13.1120    2.6960  -10.7210 F   0  0  0  0  0
  -13.7440    2.5030   -8.5220 C   0  0  0  0  0
  -17.1553   -0.2199   -7.6649 H   0  0  0  0  0
  -16.5212    0.8460  -11.7760 H   0  0  0  0  0
  -14.2534   -0.1797  -11.6889 H   0  0  0  0  0
  -13.4319   -1.2209   -9.5890 H   0  0  0  0  0
  -14.1015   -2.1753   -7.5678 H   0  0  0  0  0
  -15.6693   -1.7244   -6.7526 H   0  0  0  0  0
  -13.2775    0.0943   -6.9838 H   0  0  0  0  0
  -11.4837   -1.0241   -7.3161 H   0  0  0  0  0
  -12.1198   -2.6350   -7.4786 H   0  0  0  0  0
   -9.4420   -1.7728   -6.4019 H   0  0  0  0  0
   -9.8288   -3.1839   -7.3167 H   0  0  0  0  0
   -9.4634   -3.3687   -4.6305 H   0  0  0  0  0
  -10.6305   -4.3806   -5.4150 H   0  0  0  0  0
  -12.1563   -3.3337   -3.9649 H   0  0  0  0  0
  -11.1068   -1.9725   -3.6913 H   0  0  0  0  0
  -15.8392    0.3803   -5.3605 H   0  0  0  0  0
  -16.3189    4.0177   -6.9077 H   0  0  0  0  0
  -16.6001    6.1890   -8.8566 H   0  0  0  0  0
  -17.7618    4.8540   -8.5894 H   0  0  0  0  0
  -18.0504    6.0324  -10.7977 H   0  0  0  0  0
  -17.7317    4.2869  -10.9469 H   0  0  0  0  0
  -15.7001    6.4089  -11.1566 H   0  0  0  0  0
  -16.4036    5.6059  -12.4526 H   0  0  0  0  0
  -14.1527    4.8747  -11.6327 H   0  0  0  0  0
  -15.4529    3.6310  -11.9811 H   0  0  0  0  0
  -12.9268    1.8039   -8.3442 H   0  0  0  0  0
  1  2  1  0  0  0
  2  3  1  0  0  0
  2  4  1  0  0  0
  2  5  1  0  0  0
  5  6  4  0  0  0
  5  7  4  0  0  0
  6 10  4  0  0  0
  7  8  4  0  0  0
  8  9  4  0  0  0
  9 10  4  0  0  0
 10 11  1  0  0  0
 11 12  1  0  0  0
 12 13  1  0  0  0
 12 20  1  0  0  0
 13 14  2  0  0  0
 13 15  1  0  0  0
 15 16  1  0  0  0
 15 19  1  0  0  0
 16 17  1  0  0  0
 17 18  1  0  0  0
 18 19  1  0  0  0
 20 21  1  0  0  0
 21 22  2  0  0  0
 21 23  2  0  0  0
 21 24  1  0  0  0
 24 25  4  0  0  0
 24 34  4  0  0  0
 25 26  4  0  0  0
 26 27  1  0  0  0
 26 31  4  0  0  0
 27 28  1  0  0  0
 28 29  1  0  0  0
 29 30  1  0  0  0
 30 31  1  0  0  0
 31 32  4  0  0  0
 32 33  1  0  0  0
 32 34  4  0  0  0
  6 35  1  0  0  0
  7 36  1  0  0  0
  8 37  1  0  0  0
  9 38  1  0  0  0
 11 39  1  0  0  0
 11 40  1  0  0  0
 12 41  1  0  0  0
 16 42  1  0  0  0
 16 43  1  0  0  0
 17 44  1  0  0  0
 17 45  1  0  0  0
 18 46  1  0  0  0
 18 47  1  0  0  0
 19 48  1  0  0  0
 19 49  1  0  0  0
 20 50  1  0  0  0
 25 51  1  0  0  0
 27 52  1  0  0  0
 27 53  1  0  0  0
 28 54  1  0  0  0
 28 55  1  0  0  0
 29 56  1  0  0  0
 29 57  1  0  0  0
 30 58  1  0  0  0
 30 59  1  0  0  0
 34 60  1  0  0  0
M  END
$$$$
