6ccm_ligand
  -I-interpret- 

 32 34  0  0  0  0  0  0  0  0999 V2000
  170.6960  171.6500   56.7610 C   0  0  0  0  0
  171.1400  175.9270   58.3710 C   0  0  0  0  0
  169.1930  176.1810   56.7380 C   0  0  0  0  0
  168.6010  176.7550   55.6050 C   0  0  0  0  0
  170.4850  176.5710   57.1370 C   0  0  0  0  0
  170.5410  168.3900   55.1360 C   0  0  0  0  0
  170.5900  178.1100   55.2410 C   0  0  0  0  0
  169.2910  177.7240   54.8540 C   0  0  0  0  0
  171.1850  177.5340   56.3790 C   0  0  0  0  0
  171.5990  172.3470   56.0460 N   0  0  0  0  0
  170.2160  172.3160   57.7220 N   0  0  0  0  0
  171.6290  173.6210   56.7420 N   0  0  0  0  0
  172.2240  171.8520   54.9600 C   0  0  0  0  0
  170.8410  173.6050   57.7590 C   0  0  0  0  0
  171.8660  170.4570   54.6170 C   0  0  0  0  0
  170.4060  170.4150   56.4390 N   0  0  0  0  0
  170.9560  169.8230   55.3930 C   0  0  0  0  0
  170.6270  174.5720   58.6060 N   0  0  0  0  0
  172.9890  172.5160   54.2830 O   0  0  0  0  0
  166.9020  176.2020   55.1290 Br  0  0  0  0  0
  170.9106  176.5394   59.2431 H   0  0  0  0  0
  172.2145  175.8646   58.1988 H   0  0  0  0  0
  168.6509  175.4298   57.3123 H   0  0  0  0  0
  170.1078  168.3118   54.1388 H   0  0  0  0  0
  171.4147  167.7420   55.2058 H   0  0  0  0  0
  169.8028  168.0881   55.8789 H   0  0  0  0  0
  171.1337  178.8543   54.6592 H   0  0  0  0  0
  168.8237  178.1736   53.9779 H   0  0  0  0  0
  172.1903  177.8328   56.6761 H   0  0  0  0  0
  172.3222  169.9548   53.7639 H   0  0  0  0  0
  169.7386  169.8962   57.0098 H   0  0  0  0  0
  170.0902  174.3827   59.4524 H   0  0  0  0  0
 10  1  4  0  0  0
  1 11  4  0  0  0
  1 16  1  0  0  0
  2  5  1  0  0  0
 18  2  1  0  0  0
  3  4  4  0  0  0
  5  3  4  0  0  0
  4  8  4  0  0  0
  4 20  1  0  0  0
  5  9  4  0  0  0
 17  6  1  0  0  0
  7  8  4  0  0  0
  9  7  4  0  0  0
 10 12  4  0  0  0
 13 10  1  0  0  0
 14 11  4  0  0  0
 12 14  4  0  0  0
 15 13  1  0  0  0
 13 19  2  0  0  0
 14 18  1  0  0  0
 15 17  2  0  0  0
 16 17  1  0  0  0
  2 21  1  0  0  0
  2 22  1  0  0  0
  3 23  1  0  0  0
  6 24  1  0  0  0
  6 25  1  0  0  0
  6 26  1  0  0  0
  7 27  1  0  0  0
  8 28  1  0  0  0
  9 29  1  0  0  0
 15 30  1  0  0  0
 16 31  1  0  0  0
 18 32  1  0  0  0
M  END
$$$$
