2q8i_ligand
  -I-interpret- 

 42 44  0  0  0  0  0  0  0  0999 V2000
  -48.8340   21.5200   66.0020 C   0  0  0  0  0
  -49.9830   21.3490   66.9130 C   0  0  0  0  0
  -50.7330   22.5800   67.2160 C   0  0  0  0  0
  -51.8400   22.5770   68.0540 C   0  0  0  0  0
  -52.2250   21.3570   68.5790 C   0  0  0  0  0
  -51.5200   20.0860   68.2780 C   0  0  0  0  0
  -50.3600   20.0250   67.4620 C   0  0  0  0  0
  -49.7260   18.6810   67.1680 C   0  0  0  0  0
  -49.2710   17.8950   68.3810 C   0  0  0  0  0
  -48.5860   18.5240   69.5770 C   0  0  0  0  0
  -47.6430   19.4450   69.3540 C   0  0  0  0  0
  -46.9190   20.1300   70.4400 C   0  0  0  0  0
  -46.2860   21.3070   70.2840 C   0  0  0  0  0
  -46.2740   22.0750   68.9770 C   0  0  0  0  0
  -45.1850   21.6570   67.9610 C   0  0  0  0  0
  -45.4880   22.2520   66.5600 C   0  0  0  0  0
  -46.4270   21.3820   65.7310 C   0  0  0  0  0
  -45.7410   20.0360   65.4190 C   0  0  0  0  0
  -47.5910   21.0780   66.5160 O   0  0  0  0  0
  -48.9640   22.0170   64.9020 O   0  0  0  0  0
  -50.2380   23.6910   66.6010 O   0  0  0  0  0
  -53.2750   21.2510   69.4170 O   0  0  0  0  0
  -52.0140   18.5270   68.9210 Cl  0  0  0  0  0
  -49.4560   16.7000   68.3340 O   0  0  0  0  0
  -45.0380   22.7570   68.8420 O   0  0  0  0  0
  -52.3808   23.4942   68.2874 H   0  0  0  0  0
  -48.8334   18.8819   66.5756 H   0  0  0  0  0
  -50.4897   18.0785   66.6763 H   0  0  0  0  0
  -48.8549   18.2333   70.5925 H   0  0  0  0  0
  -47.3986   19.7008   68.3230 H   0  0  0  0  0
  -46.8952   19.6577   71.4221 H   0  0  0  0  0
  -45.7564   21.7285   71.1384 H   0  0  0  0  0
  -47.3425   22.2767   68.9019 H   0  0  0  0  0
  -44.6685   20.7286   67.7170 H   0  0  0  0  0
  -44.5437   22.3273   66.0208 H   0  0  0  0  0
  -45.9740   23.2164   66.7077 H   0  0  0  0  0
  -46.6852   21.9124   64.8144 H   0  0  0  0  0
  -44.8242   20.2183   64.8583 H   0  0  0  0  0
  -45.5023   19.5264   66.3525 H   0  0  0  0  0
  -46.4135   19.4156   64.8265 H   0  0  0  0  0
  -50.7711   24.4525   66.8409 H   0  0  0  0  0
  -53.3869   20.3327   69.6735 H   0  0  0  0  0
  1  2  1  0  0  0
  1 19  1  0  0  0
  1 20  2  0  0  0
  2  3  4  0  0  0
  2  7  4  0  0  0
  3  4  4  0  0  0
  3 21  1  0  0  0
  4  5  4  0  0  0
  5  6  4  0  0  0
  5 22  1  0  0  0
  6  7  4  0  0  0
  6 23  1  0  0  0
  7  8  1  0  0  0
  8  9  1  0  0  0
  9 10  1  0  0  0
  9 24  2  0  0  0
 10 11  2  0  0  0
 11 12  1  0  0  0
 12 13  2  0  0  0
 13 14  1  0  0  0
 14 15  1  0  0  0
 14 25  1  0  0  0
 15 16  1  0  0  0
 15 25  1  0  0  0
 16 17  1  0  0  0
 17 18  1  0  0  0
 17 19  1  0  0  0
  4 26  1  0  0  0
  8 27  1  0  0  0
  8 28  1  0  0  0
 10 29  1  0  0  0
 11 30  1  0  0  0
 12 31  1  0  0  0
 13 32  1  0  0  0
 14 33  1  0  0  0
 15 34  1  0  0  0
 16 35  1  0  0  0
 16 36  1  0  0  0
 17 37  1  0  0  0
 18 38  1  0  0  0
 18 39  1  0  0  0
 18 40  1  0  0  0
 21 41  1  0  0  0
 22 42  1  0  0  0
M  END
$$$$
