6ez9_ligand
  -I-interpret- 

 40 39  0  0  0  0  0  0  0  0999 V2000
   13.8170   48.7010   40.9080 O   0  0  0  0  0
   13.8910   47.5060   40.6200 C   0  0  0  0  0
   13.0740   46.9000   39.8960 O   0  0  0  0  0
   15.1730   46.7800   41.0760 C   0  0  0  0  0
   14.9130   45.3230   41.4820 C   0  0  0  0  0
   16.2640   44.5960   41.7560 C   0  0  0  0  0
   17.1320   44.6390   40.4860 C   0  0  0  0  0
   18.0870   45.4630   40.4240 O   0  0  0  0  0
   16.8530   43.7790   39.6300 O   0  0  0  0  0
   16.9960   45.2400   42.8530 N   0  0  0  0  0
   18.1810   44.7770   43.2700 C   0  0  0  0  0
   18.6540   43.7560   42.7710 O   0  0  0  0  0
   18.7790   45.4590   44.2650 O   0  0  0  0  0
   20.1650   45.2980   44.5900 C   0  0  0  0  0
   20.3040   45.8330   46.0240 C   0  0  0  0  0
   19.8580   46.9880   46.2450 O   0  0  0  0  0
   20.8110   45.0550   46.8620 O   0  0  0  0  0
   20.9820   46.1300   43.5940 C   0  0  0  0  0
   22.4740   46.2230   43.9760 C   0  0  0  0  0
   23.1970   47.0480   42.9140 C   0  0  0  0  0
   23.1080   44.8240   44.0550 C   0  0  0  0  0
   13.3396   45.9810   39.8156 H   0  0  0  0  0
   15.5650   47.3061   41.9465 H   0  0  0  0  0
   15.8718   46.7756   40.2395 H   0  0  0  0  0
   14.3896   44.8135   40.6730 H   0  0  0  0  0
   14.3069   45.3061   42.3878 H   0  0  0  0  0
   16.0476   43.5651   42.0362 H   0  0  0  0  0
   18.0829   46.0155   41.2091 H   0  0  0  0  0
   16.5928   46.0590   43.3081 H   0  0  0  0  0
   20.5183   44.2685   44.5318 H   0  0  0  0  0
   19.5264   47.3639   45.4262 H   0  0  0  0  0
   20.5746   47.1410   43.5900 H   0  0  0  0  0
   20.9161   45.6447   42.6202 H   0  0  0  0  0
   22.5632   46.6945   44.9547 H   0  0  0  0  0
   23.0908   46.5624   41.9439 H   0  0  0  0  0
   22.7608   48.0460   42.8718 H   0  0  0  0  0
   24.2537   47.1225   43.1707 H   0  0  0  0  0
   22.5885   44.2331   44.8094 H   0  0  0  0  0
   23.0236   44.3330   43.0855 H   0  0  0  0  0
   24.1596   44.9178   44.3259 H   0  0  0  0  0
  1  2  2  0  0  0
  2  3  1  0  0  0
  2  4  1  0  0  0
  4  5  1  0  0  0
  5  6  1  0  0  0
  6  7  1  0  0  0
  6 10  1  0  0  0
  7  8  1  0  0  0
  7  9  2  0  0  0
 10 11  1  0  0  0
 11 12  2  0  0  0
 11 13  1  0  0  0
 13 14  1  0  0  0
 14 15  1  0  0  0
 14 18  1  0  0  0
 15 16  1  0  0  0
 15 17  2  0  0  0
 18 19  1  0  0  0
 19 20  1  0  0  0
 19 21  1  0  0  0
  3 22  1  0  0  0
  4 23  1  0  0  0
  4 24  1  0  0  0
  5 25  1  0  0  0
  5 26  1  0  0  0
  6 27  1  0  0  0
  8 28  1  0  0  0
 10 29  1  0  0  0
 14 30  1  0  0  0
 16 31  1  0  0  0
 18 32  1  0  0  0
 18 33  1  0  0  0
 19 34  1  0  0  0
 20 35  1  0  0  0
 20 36  1  0  0  0
 20 37  1  0  0  0
 21 38  1  0  0  0
 21 39  1  0  0  0
 21 40  1  0  0  0
M  END
$$$$
