3arr_ligand
  -I-interpret- 

 38 39  0  0  0  0  0  0  0  0999 V2000
   -3.8740   -4.6480    1.4710 C   0  0  0  0  0
   -4.5260   -5.4420    2.5370 C   0  0  0  0  0
   -4.9330   -4.9340    3.5680 O   0  0  0  0  0
   -4.6190   -6.9250    2.2560 C   0  0  0  0  0
   -5.5250   -7.7640    3.0860 C   0  0  0  0  0
   -5.0270   -9.2130    2.8430 C   0  0  0  0  0
   -5.1150   -9.6490    1.3820 C   0  0  0  0  0
   -5.3180  -11.1670    1.2920 N   0  0  0  0  0
   -4.2390  -12.0330    1.3250 C   0  0  0  0  0
   -3.0700  -11.6690    1.4390 O   0  0  0  0  0
   -4.5030  -13.3880    1.2140 C   0  0  0  0  0
   -3.7000  -14.3700    1.2480 N   0  0  0  0  0
   -2.2430  -14.1340    1.4030 C   0  0  0  0  0
   -4.4170  -15.5300    1.0830 C   0  0  0  0  0
   -5.7420  -15.2370    0.9740 N   0  0  0  0  0
   -5.7720  -13.9160    1.0980 C   0  0  0  0  0
   -6.8230  -13.1190    1.0470 N   0  0  0  0  0
   -8.1490  -13.7810    0.9090 C   0  0  0  0  0
   -6.6310  -11.7590    1.2050 C   0  0  0  0  0
   -7.6060  -11.0530    1.1080 O   0  0  0  0  0
   -4.5674   -3.8885    1.1097 H   0  0  0  0  0
   -2.9824   -4.1663    1.8723 H   0  0  0  0  0
   -3.5939   -5.3066    0.6489 H   0  0  0  0  0
   -3.6193   -7.3108    2.4559 H   0  0  0  0  0
   -5.0220   -6.9935    1.2455 H   0  0  0  0  0
   -6.5720   -7.6365    2.8108 H   0  0  0  0  0
   -5.4917   -7.4881    4.1400 H   0  0  0  0  0
   -5.6638   -9.8805    3.4235 H   0  0  0  0  0
   -3.9774   -9.2524    3.1345 H   0  0  0  0  0
   -4.1879   -9.3828    0.8743 H   0  0  0  0  0
   -5.9606   -9.1479    0.9109 H   0  0  0  0  0
   -1.8838  -13.5285    0.5709 H   0  0  0  0  0
   -2.0588  -13.6104    2.3411 H   0  0  0  0  0
   -1.7201  -15.0904    1.4105 H   0  0  0  0  0
   -3.9902  -16.5322    1.0451 H   0  0  0  0  0
   -8.1691  -14.3627   -0.0126 H   0  0  0  0  0
   -8.3145  -14.4410    1.7605 H   0  0  0  0  0
   -8.9310  -13.0223    0.8784 H   0  0  0  0  0
  1  2  1  0  0  0
  2  3  2  0  0  0
  2  4  1  0  0  0
  4  5  1  0  0  0
  5  6  1  0  0  0
  6  7  1  0  0  0
  7  8  1  0  0  0
  8  9  1  0  0  0
  8 19  1  0  0  0
  9 10  2  0  0  0
  9 11  1  0  0  0
 11 12  4  0  0  0
 11 16  4  0  0  0
 12 13  1  0  0  0
 12 14  4  0  0  0
 14 15  4  0  0  0
 15 16  4  0  0  0
 16 17  1  0  0  0
 17 18  1  0  0  0
 17 19  1  0  0  0
 19 20  2  0  0  0
  1 21  1  0  0  0
  1 22  1  0  0  0
  1 23  1  0  0  0
  4 24  1  0  0  0
  4 25  1  0  0  0
  5 26  1  0  0  0
  5 27  1  0  0  0
  6 28  1  0  0  0
  6 29  1  0  0  0
  7 30  1  0  0  0
  7 31  1  0  0  0
 13 32  1  0  0  0
 13 33  1  0  0  0
 13 34  1  0  0  0
 14 35  1  0  0  0
 18 36  1  0  0  0
 18 37  1  0  0  0
 18 38  1  0  0  0
M  END
$$$$
