6eox_ligand
  -I-interpret- 

 45 47  0  0  0  0  0  0  0  0999 V2000
    2.2550   -9.8510    5.6620 O   0  0  0  0  0
    2.1190  -10.6150    4.6730 C   0  0  0  0  0
    3.1130  -11.1200    4.0820 O   0  0  0  0  0
    0.7300  -11.0220    4.2310 C   0  0  0  0  0
    0.8340  -11.9460    3.0090 C   0  0  0  0  0
    1.1260  -11.3180    1.8340 C   0  0  0  0  0
    1.3170  -12.0610    0.7100 C   0  0  0  0  0
    1.1880  -13.4570    0.7740 C   0  0  0  0  0
    0.9090  -14.1150    1.9260 C   0  0  0  0  0
    0.7380  -13.3210    3.0730 C   0  0  0  0  0
    0.4240  -14.1720    4.4140 S   0  0  0  0  0
   -0.7060  -13.6000    5.1150 O   0  0  0  0  0
    0.1430  -15.5190    4.0510 O   0  0  0  0  0
    1.7250  -14.2680    5.3010 C   0  0  0  0  0
    1.8540  -13.6770    6.5230 C   0  0  0  0  0
    2.9360  -13.8560    7.3050 C   0  0  0  0  0
    3.9870  -14.6270    6.8510 C   0  0  0  0  0
    3.8640  -15.2400    5.5860 C   0  0  0  0  0
    2.6960  -15.0500    4.8250 C   0  0  0  0  0
    5.1910  -14.8960    7.6230 C   0  0  0  0  0
    5.1670  -15.0360    9.0250 C   0  0  0  0  0
    6.3570  -15.3840    9.6950 C   0  0  0  0  0
    7.5380  -15.5690    8.9910 C   0  0  0  0  0
    8.7230  -15.8220    9.6320 O   0  0  0  0  0
    8.9690  -17.0040   10.4100 C   0  0  0  0  0
    7.5510  -15.4380    7.6090 C   0  0  0  0  0
    6.3760  -15.1080    6.9550 C   0  0  0  0  0
    2.8073  -11.6705    3.3574 H   0  0  0  0  0
    0.1568  -10.1331    3.9675 H   0  0  0  0  0
    0.2290  -11.5481    5.0436 H   0  0  0  0  0
    1.2056  -10.2316    1.7956 H   0  0  0  0  0
    1.5683  -11.5755   -0.2330 H   0  0  0  0  0
    1.3175  -14.0361   -0.1403 H   0  0  0  0  0
    0.8220  -15.2010    1.9608 H   0  0  0  0  0
    1.0498  -13.0343    6.8812 H   0  0  0  0  0
    2.9814  -13.3943    8.2914 H   0  0  0  0  0
    4.6727  -15.8599    5.1990 H   0  0  0  0  0
    2.5853  -15.5368    3.8560 H   0  0  0  0  0
    4.2435  -14.8778    9.5819 H   0  0  0  0  0
    6.3494  -15.5091   10.7778 H   0  0  0  0  0
    8.2516  -17.0541   11.2291 H   0  0  0  0  0
    8.8605  -17.8839    9.7759 H   0  0  0  0  0
    9.9810  -16.9678   10.8134 H   0  0  0  0  0
    8.4722  -15.5926    7.0473 H   0  0  0  0  0
    6.3898  -15.0124    5.8693 H   0  0  0  0  0
  1  2  2  0  0  0
  2  3  1  0  0  0
  2  4  1  0  0  0
  4  5  1  0  0  0
  5  6  4  0  0  0
  5 10  4  0  0  0
  6  7  4  0  0  0
  7  8  4  0  0  0
  8  9  4  0  0  0
  9 10  4  0  0  0
 10 11  1  0  0  0
 11 12  2  0  0  0
 11 13  2  0  0  0
 11 14  1  0  0  0
 14 15  4  0  0  0
 14 19  4  0  0  0
 15 16  4  0  0  0
 16 17  4  0  0  0
 17 18  4  0  0  0
 17 20  1  0  0  0
 18 19  4  0  0  0
 20 21  4  0  0  0
 20 27  4  0  0  0
 21 22  4  0  0  0
 22 23  4  0  0  0
 23 24  1  0  0  0
 23 26  4  0  0  0
 24 25  1  0  0  0
 26 27  4  0  0  0
  3 28  1  0  0  0
  4 29  1  0  0  0
  4 30  1  0  0  0
  6 31  1  0  0  0
  7 32  1  0  0  0
  8 33  1  0  0  0
  9 34  1  0  0  0
 15 35  1  0  0  0
 16 36  1  0  0  0
 18 37  1  0  0  0
 19 38  1  0  0  0
 21 39  1  0  0  0
 22 40  1  0  0  0
 25 41  1  0  0  0
 25 42  1  0  0  0
 25 43  1  0  0  0
 26 44  1  0  0  0
 27 45  1  0  0  0
M  END
$$$$
