5cf5_ligand
  -I-interpret- 

 59 64  0  0  0  0  0  0  0  0999 V2000
   -0.9730   48.3170   -1.2310 C   0  0  0  0  0
    0.5290   45.8440    0.9710 C   0  0  0  0  0
   -0.4790   46.8640    1.4210 C   0  0  0  0  0
   -0.0690   49.3950   -3.2020 C   0  0  0  0  0
   -1.2030   47.1430   -3.4630 C   0  0  0  0  0
   -0.7780   45.7530   -3.1410 C   0  0  0  0  0
   -0.1490   46.4820   -4.2810 C   0  0  0  0  0
   -0.7490   50.2080   -4.2500 C   0  0  0  0  0
   -1.9830   47.4410   -0.5970 C   0  0  0  0  0
   -3.7720   46.1910   -0.0610 C   0  0  0  0  0
   -2.8030   46.0360    0.9410 C   0  0  0  0  0
   -2.8740   45.2950    2.0550 N   0  0  0  0  0
   -4.0110   44.6230    2.2770 C   0  0  0  0  0
   -5.0580   44.6450    1.3200 C   0  0  0  0  0
   -4.9450   45.4310    0.1760 C   0  0  0  0  0
   -6.2500   43.9380    1.3040 N   0  0  0  0  0
   -6.8090   44.2900    0.1710 C   0  0  0  0  0
   -6.0910   45.1910   -0.5520 N   0  0  0  0  0
   -3.2320   47.0850   -1.0230 C   0  0  0  0  0
   -1.7120   46.8050    0.6100 N   0  0  0  0  0
   -6.4710   45.7550   -1.8440 C   0  0  0  0  0
   -4.2010   44.0190    3.5140 N   0  0  0  0  0
   -0.8070   48.2730   -2.5740 N   0  0  0  0  0
   -0.3740   49.1240   -0.5230 O   0  0  0  0  0
   -0.4820   50.7950   -2.9020 C   0  0  0  0  0
   -3.3210   44.0530    4.5570 C   0  0  0  0  0
   -3.6320   43.4970    5.6970 N   0  0  0  0  0
   -1.8310   44.9360    4.5570 S   0  0  0  0  0
   -2.6740   43.7770    6.6500 C   0  0  0  0  0
   -1.6250   44.5420    6.2340 C   0  0  0  0  0
   -2.8460   43.1790    8.0080 C   0  0  0  0  0
   -0.4740   45.1240    7.0090 C   0  0  0  0  0
    0.1014   44.8459    1.0662 H   0  0  0  0  0
    0.7923   46.0300   -0.0702 H   0  0  0  0  0
    1.4218   45.9189    1.5918 H   0  0  0  0  0
   -0.0398   47.8552    1.3080 H   0  0  0  0  0
   -0.7393   46.6561    2.4588 H   0  0  0  0  0
    0.8678   48.8410   -3.1425 H   0  0  0  0  0
   -2.1641   47.6163   -3.6638 H   0  0  0  0  0
   -1.2344   44.7833   -2.9421 H   0  0  0  0  0
   -0.4699   45.1725   -2.2714 H   0  0  0  0  0
    0.8487   46.7008   -4.6615 H   0  0  0  0  0
    0.0843   46.3118   -5.3320 H   0  0  0  0  0
   -1.5782   50.1113   -4.9508 H   0  0  0  0  0
   -0.6118   50.4710   -5.2989 H   0  0  0  0  0
   -7.7680   43.8940   -0.1630 H   0  0  0  0  0
   -3.7236   47.4251   -1.9345 H   0  0  0  0  0
   -6.5321   46.8402   -1.7615 H   0  0  0  0  0
   -5.7226   45.4877   -2.5900 H   0  0  0  0  0
   -7.4410   45.3568   -2.1417 H   0  0  0  0  0
   -5.0718   43.5068    3.6545 H   0  0  0  0  0
   -0.0523   51.7010   -2.4747 H   0  0  0  0  0
   -1.0191   51.3412   -2.1266 H   0  0  0  0  0
   -3.7864   43.5229    8.4386 H   0  0  0  0  0
   -2.8584   42.0922    7.9261 H   0  0  0  0  0
   -2.0182   43.4871    8.6468 H   0  0  0  0  0
    0.4649   44.8163    6.5487 H   0  0  0  0  0
   -0.5450   46.2117    7.0005 H   0  0  0  0  0
   -0.5111   44.7642    8.0372 H   0  0  0  0  0
  9  1  1  0  0  0
  1 23  1  0  0  0
  1 24  2  0  0  0
  3  2  1  0  0  0
 20  3  1  0  0  0
  4  8  1  0  0  0
 23  4  1  0  0  0
  4 25  1  0  0  0
  5  6  1  0  0  0
  5  7  1  0  0  0
 23  5  1  0  0  0
  7  6  1  0  0  0
 25  8  1  0  0  0
 19  9  4  0  0  0
  9 20  4  0  0  0
 10 11  4  0  0  0
 10 15  4  0  0  0
 10 19  4  0  0  0
 11 12  4  0  0  0
 11 20  4  0  0  0
 12 13  4  0  0  0
 13 14  4  0  0  0
 13 22  1  0  0  0
 14 15  4  0  0  0
 14 16  4  0  0  0
 15 18  4  0  0  0
 16 17  4  0  0  0
 17 18  4  0  0  0
 18 21  1  0  0  0
 22 26  1  0  0  0
 26 27  4  0  0  0
 26 28  4  0  0  0
 27 29  4  0  0  0
 28 30  4  0  0  0
 29 30  4  0  0  0
 29 31  1  0  0  0
 30 32  1  0  0  0
  2 33  1  0  0  0
  2 34  1  0  0  0
  2 35  1  0  0  0
  3 36  1  0  0  0
  3 37  1  0  0  0
  4 38  1  0  0  0
  5 39  1  0  0  0
  6 40  1  0  0  0
  6 41  1  0  0  0
  7 42  1  0  0  0
  7 43  1  0  0  0
  8 44  1  0  0  0
  8 45  1  0  0  0
 17 46  1  0  0  0
 19 47  1  0  0  0
 21 48  1  0  0  0
 21 49  1  0  0  0
 21 50  1  0  0  0
 22 51  1  0  0  0
 25 52  1  0  0  0
 25 53  1  0  0  0
 31 54  1  0  0  0
 31 55  1  0  0  0
 31 56  1  0  0  0
 32 57  1  0  0  0
 32 58  1  0  0  0
 32 59  1  0  0  0
M  END
$$$$
