4uiy_ligand
  -I-interpret- 

 52 55  0  0  0  0  0  0  0  0999 V2000
   24.5560   47.6670    2.0950 C   0  0  0  0  0
   24.9060   48.7100    1.1290 N   0  0  0  0  0
   26.1580   49.2090    1.0820 C   0  0  0  0  0
   26.5270   50.1520    0.1930 C   0  0  0  0  0
   27.8920   50.7320    0.2200 C   0  0  0  0  0
   28.5850   50.8400    1.4230 C   0  0  0  0  0
   29.8350   51.4350    1.4630 C   0  0  0  0  0
   30.3800   51.9620    0.3130 C   0  0  0  0  0
   29.6830   51.8990   -0.8850 C   0  0  0  0  0
   28.4400   51.2810   -0.9250 C   0  0  0  0  0
   30.2320   52.5060   -2.1270 C   0  0  0  0  0
   29.4780   53.5510   -2.5310 F   0  0  0  0  0
   30.2930   51.6630   -3.1090 F   0  0  0  0  0
   31.4880   52.9680   -1.9680 F   0  0  0  0  0
   25.4930   50.6400   -0.7300 C   0  0  0  0  0
   25.6640   51.8170   -1.9870 S   0  0  0  0  0
   24.0210   51.6700   -2.4200 C   0  0  0  0  0
   23.3970   50.7590   -1.6570 C   0  0  0  0  0
   24.2090   50.1230   -0.6980 C   0  0  0  0  0
   23.9190   49.1130    0.2470 C   0  0  0  0  0
   22.7380   48.6460    0.3060 O   0  0  0  0  0
   23.4390   52.4820   -3.5100 C   0  0  0  0  0
   23.9120   53.5910   -3.7180 N   0  0  0  0  0
   22.3300   51.9210   -4.0840 N   0  0  0  0  0
   21.5820   52.4600   -5.1870 C   0  0  0  0  0
   21.6880   51.4890   -6.3380 C   0  0  0  0  0
   21.0050   52.0530   -7.5530 C   0  0  0  0  0
   19.2780   52.1150   -7.2510 S   0  0  0  0  0
   18.6270   52.7320   -8.3710 O   0  0  0  0  0
   18.8240   50.8150   -6.8480 O   0  0  0  0  0
   19.2040   53.2070   -5.8670 C   0  0  0  0  0
   20.1360   52.6890   -4.7720 C   0  0  0  0  0
   23.7315   48.0129    2.7185 H   0  0  0  0  0
   24.2561   46.7651    1.5613 H   0  0  0  0  0
   25.4207   47.4492    2.7219 H   0  0  0  0  0
   26.8987   48.8358    1.7892 H   0  0  0  0  0
   28.1403   50.4534    2.3400 H   0  0  0  0  0
   30.3861   51.4861    2.4021 H   0  0  0  0  0
   31.3636   52.4308    0.3443 H   0  0  0  0  0
   27.8922   51.2282   -1.8659 H   0  0  0  0  0
   22.3379   50.5280   -1.7714 H   0  0  0  0  0
   24.6856   53.9308   -3.1467 H   0  0  0  0  0
   22.0038   51.0375   -3.6923 H   0  0  0  0  0
   21.9823   53.4256   -5.4959 H   0  0  0  0  0
   21.2077   50.5507   -6.0604 H   0  0  0  0  0
   22.7400   51.3173   -6.5659 H   0  0  0  0  0
   21.2068   51.4208   -8.4177 H   0  0  0  0  0
   21.3811   53.0556   -7.7568 H   0  0  0  0  0
   18.1827   53.2515   -5.4889 H   0  0  0  0  0
   19.5150   54.2065   -6.1711 H   0  0  0  0  0
   20.1558   53.4550   -3.9968 H   0  0  0  0  0
   19.7451   51.7176   -4.4691 H   0  0  0  0  0
  1  2  1  0  0  0
  2  3  1  0  0  0
  2 20  1  0  0  0
  3  4  2  0  0  0
  4  5  1  0  0  0
  4 15  1  0  0  0
  5  6  4  0  0  0
  5 10  4  0  0  0
  6  7  4  0  0  0
  7  8  4  0  0  0
  8  9  4  0  0  0
  9 10  4  0  0  0
  9 11  1  0  0  0
 11 12  1  0  0  0
 11 13  1  0  0  0
 11 14  1  0  0  0
 15 16  4  0  0  0
 15 19  4  0  0  0
 16 17  4  0  0  0
 17 18  4  0  0  0
 17 22  1  0  0  0
 18 19  4  0  0  0
 19 20  1  0  0  0
 20 21  2  0  0  0
 22 23  2  0  0  0
 22 24  1  0  0  0
 24 25  1  0  0  0
 25 26  1  0  0  0
 25 32  1  0  0  0
 26 27  1  0  0  0
 27 28  1  0  0  0
 28 29  2  0  0  0
 28 30  2  0  0  0
 28 31  1  0  0  0
 31 32  1  0  0  0
  1 33  1  0  0  0
  1 34  1  0  0  0
  1 35  1  0  0  0
  3 36  1  0  0  0
  6 37  1  0  0  0
  7 38  1  0  0  0
  8 39  1  0  0  0
 10 40  1  0  0  0
 18 41  1  0  0  0
 23 42  1  0  0  0
 24 43  1  0  0  0
 25 44  1  0  0  0
 26 45  1  0  0  0
 26 46  1  0  0  0
 27 47  1  0  0  0
 27 48  1  0  0  0
 31 49  1  0  0  0
 31 50  1  0  0  0
 32 51  1  0  0  0
 32 52  1  0  0  0
M  END
$$$$
