1o3k_ligand
  -I-interpret- 

 33 35  0  0  0  0  0  0  0  0999 V2000
   43.9150   -3.0920   26.1460 C   0  0  0  0  0
   44.2420   -1.7110   26.2460 C   0  0  0  0  0
   44.1100   -1.0170   27.4450 C   0  0  0  0  0
   43.6600   -1.7010   28.5350 C   0  0  0  0  0
   43.3340   -3.0220   28.4660 C   0  0  0  0  0
   43.4450   -3.7550   27.2920 C   0  0  0  0  0
   44.0690   -3.7710   24.9270 C   0  0  0  0  0
   43.8060   -5.0600   24.8600 N   0  0  0  0  0
   44.4790   -3.0860   23.8770 N   0  0  0  0  0
   43.4580   -1.2820   29.7430 N   0  0  0  0  0
   42.9180   -3.4080   29.7040 N   0  0  0  0  0
   43.0100   -2.2650   30.4850 C   0  0  0  0  0
   42.7980   -2.1530   31.8580 C   0  0  0  0  0
   42.5490   -3.2970   32.6470 C   0  0  0  0  0
   42.3350   -3.1720   34.0260 C   0  0  0  0  0
   42.0340   -4.3620   34.9380 C   0  0  0  0  0
   42.3730   -1.9330   34.6090 C   0  0  0  0  0
   42.6160   -0.8230   33.8360 C   0  0  0  0  0
   42.8320   -0.8830   32.4640 C   0  0  0  0  0
   43.0550    0.2890   31.7380 O   0  0  0  0  0
   42.6340    0.8430   34.7960 Br  0  0  0  0  0
   44.6043   -1.1844   25.3631 H   0  0  0  0  0
   44.3590    0.0421   27.5107 H   0  0  0  0  0
   43.1761   -4.8109   27.2605 H   0  0  0  0  0
   43.9178   -5.5581   23.9769 H   0  0  0  0  0
   44.6011   -3.5538   22.9788 H   0  0  0  0  0
   44.6740   -2.0885   23.9632 H   0  0  0  0  0
   42.5231   -4.2821   32.1811 H   0  0  0  0  0
   41.1187   -4.8512   34.6047 H   0  0  0  0  0
   42.8620   -5.0696   34.8951 H   0  0  0  0  0
   41.9075   -4.0105   35.9620 H   0  0  0  0  0
   42.2111   -1.8279   35.6818 H   0  0  0  0  0
   43.0398    1.0412   32.3343 H   0  0  0  0  0
  1  2  4  0  0  0
  1  6  4  0  0  0
  1  7  1  0  0  0
  2  3  4  0  0  0
  3  4  4  0  0  0
  4  5  4  0  0  0
  4 10  4  0  0  0
  5  6  4  0  0  0
  5 11  4  0  0  0
  7  8  2  0  0  0
  7  9  1  0  0  0
 10 12  4  0  0  0
 11 12  4  0  0  0
 12 13  1  0  0  0
 13 14  4  0  0  0
 13 19  4  0  0  0
 14 15  4  0  0  0
 15 16  1  0  0  0
 15 17  4  0  0  0
 17 18  4  0  0  0
 18 19  4  0  0  0
 18 21  1  0  0  0
 19 20  1  0  0  0
  2 22  1  0  0  0
  3 23  1  0  0  0
  6 24  1  0  0  0
  8 25  1  0  0  0
  9 26  1  0  0  0
  9 27  1  0  0  0
 14 28  1  0  0  0
 16 29  1  0  0  0
 16 30  1  0  0  0
 16 31  1  0  0  0
 17 32  1  0  0  0
 20 33  1  0  0  0
M  END
$$$$
