4qps_ligand
  -I-interpret- 

 45 48  0  0  0  0  0  0  0  0999 V2000
  -20.1430   -7.5940   13.2670 C   0  0  0  0  0
  -19.1820   -8.4440   10.8020 C   0  0  0  0  0
  -19.8340   -6.6870   12.2770 C   0  0  0  0  0
  -17.1300   -3.0650   16.2790 C   0  0  0  0  0
  -17.4810   -1.7900   15.8930 C   0  0  0  0  0
  -18.8920   -4.0690    8.9830 C   0  0  0  0  0
  -16.5120   -7.3770   16.9770 C   0  0  0  0  0
  -17.1450   -4.1250   15.3970 C   0  0  0  0  0
  -17.8280   -2.7060   13.6960 C   0  0  0  0  0
  -16.4880   -5.8810   16.9740 C   0  0  0  0  0
  -17.4440   -7.7790   18.0830 C   0  0  0  0  0
  -19.9650   -8.9360   13.0050 C   0  0  0  0  0
  -19.4970   -9.3690   11.7800 C   0  0  0  0  0
  -17.4990   -3.9840   14.0790 C   0  0  0  0  0
  -18.5190   -2.1670   10.1240 C   0  0  0  0  0
  -18.4630   -0.8720   12.6780 C   0  0  0  0  0
  -19.3390   -7.0940   11.0470 C   0  0  0  0  0
  -17.8330   -1.6350   14.5620 C   0  0  0  0  0
  -18.8420   -4.8110   10.1460 C   0  0  0  0  0
  -18.4750   -2.8950   11.3000 C   0  0  0  0  0
  -18.7380   -2.7400    8.9380 N   0  0  0  0  0
  -18.2220   -0.4990   13.9120 N   0  0  0  0  0
  -18.6190   -4.2230   11.3280 N   0  0  0  0  0
  -19.0140   -6.1950   10.0120 N   0  0  0  0  0
  -16.8250   -5.4400   15.7390 N   0  0  0  0  0
  -18.2360   -2.2020   12.4930 N   0  0  0  0  0
  -16.1980   -5.2020   17.9490 O   0  0  0  0  0
  -20.5190   -7.2589   14.2337 H   0  0  0  0  0
  -18.8087   -8.7811    9.8350 H   0  0  0  0  0
  -19.9822   -5.6236   12.4650 H   0  0  0  0  0
  -16.8315   -3.2412   17.3124 H   0  0  0  0  0
  -17.4817   -0.9539   16.5923 H   0  0  0  0  0
  -19.0673   -4.5967    8.0455 H   0  0  0  0  0
  -15.5141   -7.7856   17.1362 H   0  0  0  0  0
  -16.8507   -7.7664   16.0169 H   0  0  0  0  0
  -17.0704   -7.3905   19.0304 H   0  0  0  0  0
  -18.4356   -7.3709   17.8872 H   0  0  0  0  0
  -17.5004   -8.8665   18.1317 H   0  0  0  0  0
  -20.1978   -9.6680   13.7784 H   0  0  0  0  0
  -19.3766  -10.4347   11.5852 H   0  0  0  0  0
  -17.5179   -4.8250   13.3858 H   0  0  0  0  0
  -18.3697   -1.0881   10.1674 H   0  0  0  0  0
  -18.8046   -0.1972   11.8931 H   0  0  0  0  0
  -18.8927   -6.5882    9.0787 H   0  0  0  0  0
  -16.8471   -6.1320   14.9900 H   0  0  0  0  0
  3  1  4  0  0  0
  1 12  4  0  0  0
  2 13  4  0  0  0
 17  2  4  0  0  0
 17  3  4  0  0  0
  5  4  4  0  0  0
  8  4  4  0  0  0
 18  5  4  0  0  0
 19  6  4  0  0  0
 21  6  4  0  0  0
 10  7  1  0  0  0
  7 11  1  0  0  0
 14  8  4  0  0  0
  8 25  1  0  0  0
  9 14  4  0  0  0
  9 18  4  0  0  0
 26  9  4  0  0  0
 25 10  1  0  0  0
 10 27  2  0  0  0
 13 12  4  0  0  0
 20 15  4  0  0  0
 15 21  4  0  0  0
 16 22  4  0  0  0
 26 16  4  0  0  0
 24 17  1  0  0  0
 22 18  4  0  0  0
 23 19  4  0  0  0
 19 24  1  0  0  0
 20 23  4  0  0  0
 20 26  1  0  0  0
  1 28  1  0  0  0
  2 29  1  0  0  0
  3 30  1  0  0  0
  4 31  1  0  0  0
  5 32  1  0  0  0
  6 33  1  0  0  0
  7 34  1  0  0  0
  7 35  1  0  0  0
 11 36  1  0  0  0
 11 37  1  0  0  0
 11 38  1  0  0  0
 12 39  1  0  0  0
 13 40  1  0  0  0
 14 41  1  0  0  0
 15 42  1  0  0  0
 16 43  1  0  0  0
 24 44  1  0  0  0
 25 45  1  0  0  0
M  END
$$$$
