4kao_ligand
  -I-interpret- 

 59 62  0  0  0  0  0  0  0  0999 V2000
    4.6260  -13.0950   15.8830 N   0  0  0  0  0
    3.8280  -11.9720   15.7770 C   0  0  0  0  0
    3.1130  -12.1710   14.6260 C   0  0  0  0  0
    3.5140  -13.4050   14.0940 C   0  0  0  0  0
    4.4360  -13.9820   14.8460 N   0  0  0  0  0
    3.8110  -10.9310   16.6820 N   0  0  0  0  0
    2.7710  -10.0310   16.7830 C   0  0  0  0  0
    3.0220  -14.0850   12.8290 C   0  0  0  0  0
    1.4990  -14.0200   12.7700 C   0  0  0  0  0
    3.6020  -13.3800   11.6070 C   0  0  0  0  0
    3.4630  -15.5440   12.8240 C   0  0  0  0  0
    5.5720  -13.4230   16.8960 C   0  0  0  0  0
    6.8570  -13.8050   16.5560 C   0  0  0  0  0
    7.7580  -14.1570   17.5400 C   0  0  0  0  0
    7.4070  -14.1350   18.8790 C   0  0  0  0  0
    6.1200  -13.7420   19.2060 C   0  0  0  0  0
    5.2090  -13.3890   18.2310 C   0  0  0  0  0
    8.3920  -14.5350   19.9470 C   0  0  0  0  0
    1.6910  -10.2500   16.2520 O   0  0  0  0  0
    3.0440   -8.9060   17.5100 N   0  0  0  0  0
    2.1750   -7.8110   17.7120 C   0  0  0  0  0
    1.9470   -7.3040   18.9810 C   0  0  0  0  0
    1.0630   -6.2590   19.1620 C   0  0  0  0  0
    0.3820   -5.6920   18.0910 C   0  0  0  0  0
    0.6350   -6.2040   16.8240 C   0  0  0  0  0
    1.5170   -7.2470   16.6330 C   0  0  0  0  0
   -0.6080   -4.6110   18.2970 C   0  0  0  0  0
   -1.1890   -4.3940   19.5390 C   0  0  0  0  0
   -2.1430   -3.4140   19.6940 C   0  0  0  0  0
   -2.4970   -2.6650   18.6010 C   0  0  0  0  0
   -1.9590   -2.8350   17.3930 N   0  0  0  0  0
   -1.0340   -3.7910   17.2620 C   0  0  0  0  0
    2.3700  -11.4955   14.2020 H   0  0  0  0  0
    4.6084  -10.8213   17.3085 H   0  0  0  0  0
    1.1811  -12.9774   12.7633 H   0  0  0  0  0
    1.1504  -14.5133   11.8627 H   0  0  0  0  0
    1.0811  -14.5230   13.6420 H   0  0  0  0  0
    3.2490  -13.8747   10.7021 H   0  0  0  0  0
    3.2796  -12.3388   11.6028 H   0  0  0  0  0
    4.6904  -13.4246   11.6459 H   0  0  0  0  0
    3.0411  -16.0527   13.6907 H   0  0  0  0  0
    3.1111  -16.0255   11.9116 H   0  0  0  0  0
    4.5511  -15.5935   12.8661 H   0  0  0  0  0
    7.1586  -13.8280   15.5088 H   0  0  0  0  0
    8.7666  -14.4585   17.2573 H   0  0  0  0  0
    5.8206  -13.7108   20.2536 H   0  0  0  0  0
    4.2016  -13.0828   18.5131 H   0  0  0  0  0
    8.7044  -15.5664   19.7834 H   0  0  0  0  0
    9.2614  -13.8791   19.9017 H   0  0  0  0  0
    7.9201  -14.4478   20.9257 H   0  0  0  0  0
    3.9633   -8.8522   17.9486 H   0  0  0  0  0
    2.4668   -7.7312   19.8386 H   0  0  0  0  0
    0.8955   -5.8702   20.1664 H   0  0  0  0  0
    0.1254   -5.7720   15.9627 H   0  0  0  0  0
    1.6966   -7.6287   15.6279 H   0  0  0  0  0
   -0.8891   -5.0010   20.3932 H   0  0  0  0  0
   -2.6070   -3.2371   20.6643 H   0  0  0  0  0
   -3.2557   -1.8925   18.7261 H   0  0  0  0  0
   -0.5856   -3.9357   16.2791 H   0  0  0  0  0
  1  2  4  0  0  0
  1  5  4  0  0  0
  1 12  1  0  0  0
  2  3  4  0  0  0
  2  6  1  0  0  0
  3  4  4  0  0  0
  4  5  4  0  0  0
  4  8  1  0  0  0
  6  7  1  0  0  0
  7 19  2  0  0  0
  7 20  1  0  0  0
  8  9  1  0  0  0
  8 10  1  0  0  0
  8 11  1  0  0  0
 12 13  4  0  0  0
 12 17  4  0  0  0
 13 14  4  0  0  0
 14 15  4  0  0  0
 15 16  4  0  0  0
 15 18  1  0  0  0
 16 17  4  0  0  0
 20 21  1  0  0  0
 21 22  4  0  0  0
 21 26  4  0  0  0
 22 23  4  0  0  0
 23 24  4  0  0  0
 24 25  4  0  0  0
 24 27  1  0  0  0
 25 26  4  0  0  0
 27 28  4  0  0  0
 27 32  4  0  0  0
 28 29  4  0  0  0
 29 30  4  0  0  0
 30 31  4  0  0  0
 31 32  4  0  0  0
  3 33  1  0  0  0
  6 34  1  0  0  0
  9 35  1  0  0  0
  9 36  1  0  0  0
  9 37  1  0  0  0
 10 38  1  0  0  0
 10 39  1  0  0  0
 10 40  1  0  0  0
 11 41  1  0  0  0
 11 42  1  0  0  0
 11 43  1  0  0  0
 13 44  1  0  0  0
 14 45  1  0  0  0
 16 46  1  0  0  0
 17 47  1  0  0  0
 18 48  1  0  0  0
 18 49  1  0  0  0
 18 50  1  0  0  0
 20 51  1  0  0  0
 22 52  1  0  0  0
 23 53  1  0  0  0
 25 54  1  0  0  0
 26 55  1  0  0  0
 28 56  1  0  0  0
 29 57  1  0  0  0
 30 58  1  0  0  0
 32 59  1  0  0  0
M  END
$$$$
