1b40_ligand
  -I-interpret- 

 68 68  0  0  0  0  0  0  0  0999 V2000
    6.9560   16.5790   15.1480 N   0  3  0  0  0
    6.5760   17.9380   14.6390 C   0  0  0  0  0
    5.3270   18.4650   15.3500 C   0  0  0  0  0
    4.4760   17.6870   15.8460 O   0  0  0  0  0
    6.3520   17.8970   13.1250 C   0  0  0  0  0
    5.4560   16.7990   12.6030 C   0  0  0  0  0
    5.2730   16.8330   11.0980 C   0  0  0  0  0
    6.4560   16.2780   10.3050 C   0  0  0  0  0
    6.7210   14.8680   10.7620 N   0  3  0  0  0
    5.2000   19.7800   15.4660 N   0  0  0  0  0
    4.0710   20.3970   16.1250 C   0  0  0  0  0
    2.7630   20.2960   15.3130 C   0  0  0  0  0
    2.7880   20.6020   14.1150 O   0  0  0  0  0
    4.3790   21.8900   16.3530 C   0  0  0  0  0
    5.4870   22.1170   17.3760 C   0  0  0  0  0
    6.8160   21.9900   17.0010 C   0  0  0  0  0
    5.1730   22.4340   18.6650 C   0  0  0  0  0
    7.8090   22.2020   17.9270 C   0  0  0  0  0
    6.1840   22.6350   19.6000 C   0  0  0  0  0
    7.5210   22.5190   19.2480 C   0  0  0  0  0
    1.6540   19.9130   15.9560 N   0  0  0  0  0
    0.3810   19.8730   15.2810 C   0  0  0  0  0
   -0.6880   20.6340   16.0880 C   0  0  0  0  0
   -1.7850   20.8460   15.5250 O   0  0  0  0  0
   -0.1240   18.4180   15.1220 C   0  0  0  0  0
   -1.1290   18.3540   13.9710 C   0  0  0  0  0
   -2.2490   17.3730   14.2250 C   0  0  0  0  0
   -3.3240   17.3910   13.1230 C   0  0  0  0  0
   -2.7190   16.9480   11.8380 N   0  3  0  0  0
   -0.4670   21.0262   17.2648 O   0  0  0  0  0
    7.7892   16.2543   14.6574 H   0  0  0  0  0
    7.1484   16.6334   16.1482 H   0  0  0  0  0
    6.1878   15.9285   14.9832 H   0  0  0  0  0
    7.3983   18.6205   14.8537 H   0  0  0  0  0
    7.3319   17.7225   12.6806 H   0  0  0  0  0
    5.8593   18.8348   12.8683 H   0  0  0  0  0
    4.4738   16.9341   13.0559 H   0  0  0  0  0
    5.9231   15.8470   12.8551 H   0  0  0  0  0
    5.1597   17.8790   10.8132 H   0  0  0  0  0
    4.4111   16.2072   10.8665 H   0  0  0  0  0
    7.3385   16.8951   10.4740 H   0  0  0  0  0
    6.2253   16.2858    9.2397 H   0  0  0  0  0
    7.5093   14.4852   10.2400 H   0  0  0  0  0
    6.9402   14.8703   11.7582 H   0  0  0  0  0
    5.8924   14.2968   10.5963 H   0  0  0  0  0
    5.9271   20.3792   15.0751 H   0  0  0  0  0
    3.9215   19.8617   17.0626 H   0  0  0  0  0
    3.4732   22.3630   16.7324 H   0  0  0  0  0
    4.7107   22.3106   15.4037 H   0  0  0  0  0
    7.0720   21.7230   15.9757 H   0  0  0  0  0
    4.1290   22.5300   18.9631 H   0  0  0  0  0
    8.8505   22.1191   17.6163 H   0  0  0  0  0
    5.9208   22.8880   20.6270 H   0  0  0  0  0
    8.3144   22.6708   19.9798 H   0  0  0  0  0
    1.7102   19.6453   16.9386 H   0  0  0  0  0
    0.5314   20.3321   14.3039 H   0  0  0  0  0
   -0.6060   18.0964   16.0452 H   0  0  0  0  0
    0.7188   17.7609   14.9072 H   0  0  0  0  0
   -0.5945   18.0265   13.0793 H   0  0  0  0  0
   -1.5715   19.3438   13.8591 H   0  0  0  0  0
   -2.7294   17.6522   15.1628 H   0  0  0  0  0
   -1.8158   16.3731   14.2507 H   0  0  0  0  0
   -3.7158   18.4021   13.0122 H   0  0  0  0  0
   -4.1365   16.7172   13.3950 H   0  0  0  0  0
   -3.4302   16.9595   11.1069 H   0  0  0  0  0
   -1.9597   17.5804   11.5852 H   0  0  0  0  0
   -2.3538   16.0015   11.9440 H   0  0  0  0  0
    0.4223   20.7735   17.5234 H   0  0  0  0  0
  2  1  1  0  0  0
  2  5  1  0  0  0
  3  2  1  0  0  0
  3  4  2  0  0  0
  5  6  1  0  0  0
  6  7  1  0  0  0
  7  8  1  0  0  0
  8  9  1  0  0  0
 11 10  1  0  0  0
 11 14  1  0  0  0
 12 11  1  0  0  0
 12 13  2  0  0  0
 14 15  1  0  0  0
 15 16  4  0  0  0
 15 17  4  0  0  0
 17 19  4  0  0  0
 19 20  4  0  0  0
 18 20  4  0  0  0
 16 18  4  0  0  0
 10  3  1  0  0  0
 21 22  1  0  0  0
 22 25  1  0  0  0
 22 23  1  0  0  0
 23 24  2  0  0  0
 25 26  1  0  0  0
 26 27  1  0  0  0
 27 28  1  0  0  0
 28 29  1  0  0  0
 12 21  1  0  0  0
 23 30  1  0  0  0
  1 31  1  0  0  0
  1 32  1  0  0  0
  1 33  1  0  0  0
  2 34  1  0  0  0
  5 35  1  0  0  0
  5 36  1  0  0  0
  6 37  1  0  0  0
  6 38  1  0  0  0
  7 39  1  0  0  0
  7 40  1  0  0  0
  8 41  1  0  0  0
  8 42  1  0  0  0
  9 43  1  0  0  0
  9 44  1  0  0  0
  9 45  1  0  0  0
 10 46  1  0  0  0
 11 47  1  0  0  0
 14 48  1  0  0  0
 14 49  1  0  0  0
 16 50  1  0  0  0
 17 51  1  0  0  0
 18 52  1  0  0  0
 19 53  1  0  0  0
 20 54  1  0  0  0
 21 55  1  0  0  0
 22 56  1  0  0  0
 25 57  1  0  0  0
 25 58  1  0  0  0
 26 59  1  0  0  0
 26 60  1  0  0  0
 27 61  1  0  0  0
 27 62  1  0  0  0
 28 63  1  0  0  0
 28 64  1  0  0  0
 29 65  1  0  0  0
 29 66  1  0  0  0
 29 67  1  0  0  0
 30 68  1  0  0  0
M  END
$$$$
