3le8_ligand
  -I-interpret- 

 46 49  0  0  0  0  0  0  0  0999 V2000
   18.6800   11.1590   -0.6510 C   0  0  0  0  0
   16.2250   10.4230   -1.2310 N   0  0  0  0  0
   18.3090   12.2840   -0.5210 O   0  0  0  0  0
   17.7310   10.1900   -1.2570 C   0  0  0  0  0
   11.0640    9.5750   -4.8030 C   0  0  0  0  0
   15.3190   12.5630    3.5510 O   0  0  0  0  0
   13.1810    9.2160    8.6200 C   0  0  0  0  0
   13.0790    7.9600    7.9790 C   0  0  0  0  0
   14.7260    9.8180   -4.5820 C   0  0  0  0  0
   13.6080   10.3240    7.8670 C   0  0  0  0  0
   13.4500    7.8470    6.6400 C   0  0  0  0  0
   15.7630    9.9440   -3.6410 C   0  0  0  0  0
   13.1230   10.3180   -2.8690 C   0  0  0  0  0
   14.1330   10.7590   -0.6210 C   0  0  0  0  0
   14.3850   11.1040    5.7230 C   0  0  0  0  0
   15.9930   11.0120    1.1780 C   0  0  0  0  0
   15.3370   10.5090    2.3940 N   0  0  0  0  0
   12.4150    9.8210   -5.1960 O   0  0  0  0  0
   14.3100    9.1300    4.5280 O   0  0  0  0  0
   15.0780   11.3280    3.4430 C   0  0  0  0  0
   13.3900    9.9870   -4.2210 C   0  0  0  0  0
   15.4330   10.7100   -0.1940 C   0  0  0  0  0
   14.6050   10.6150    4.5030 C   0  0  0  0  0
   13.9360   10.1640    6.5850 C   0  0  0  0  0
   14.1510   10.4450   -1.9580 C   0  0  0  0  0
   13.8450    8.9540    5.9690 C   0  0  0  0  0
   15.4440   10.2470   -2.3340 C   0  0  0  0  0
   19.8310   10.7280   -0.4130 O   0  0  0  0  0
   17.8641    9.2884   -0.6590 H   0  0  0  0  0
   17.9786   10.2139   -2.3182 H   0  0  0  0  0
   11.0188    8.6569   -4.2172 H   0  0  0  0  0
   10.7043   10.4096   -4.2012 H   0  0  0  0  0
   10.4415    9.4715   -5.6918 H   0  0  0  0  0
   12.9337    9.3232    9.6762 H   0  0  0  0  0
   12.7145    7.0901    8.5254 H   0  0  0  0  0
   14.9722    9.5828   -5.6175 H   0  0  0  0  0
   13.6705   11.3091    8.3294 H   0  0  0  0  0
   13.4223    6.8790    6.1396 H   0  0  0  0  0
   16.8020    9.8045   -3.9396 H   0  0  0  0  0
   12.0939   10.4739   -2.5455 H   0  0  0  0  0
   13.2569   10.9997   -0.0188 H   0  0  0  0  0
   14.5489   12.1465    5.9958 H   0  0  0  0  0
   16.9651   10.5190    1.1800 H   0  0  0  0  0
   15.9108   12.0955    1.2634 H   0  0  0  0  0
   15.0718    9.5256    2.4494 H   0  0  0  0  0
   19.8643    9.7871   -0.6007 H   0  0  0  0  0
  1  3  2  0  0  0
  4  1  1  0  0  0
  1 28  1  0  0  0
  2  4  1  0  0  0
 22  2  4  0  0  0
  2 27  4  0  0  0
 18  5  1  0  0  0
 20  6  2  0  0  0
  8  7  4  0  0  0
 10  7  4  0  0  0
 11  8  4  0  0  0
 12  9  4  0  0  0
 21  9  4  0  0  0
 24 10  4  0  0  0
 26 11  4  0  0  0
 27 12  4  0  0  0
 13 21  4  0  0  0
 25 13  4  0  0  0
 22 14  4  0  0  0
 14 25  4  0  0  0
 23 15  4  0  0  0
 15 24  4  0  0  0
 17 16  1  0  0  0
 16 22  1  0  0  0
 20 17  1  0  0  0
 21 18  1  0  0  0
 23 19  4  0  0  0
 19 26  4  0  0  0
 20 23  1  0  0  0
 24 26  4  0  0  0
 25 27  4  0  0  0
  4 29  1  0  0  0
  4 30  1  0  0  0
  5 31  1  0  0  0
  5 32  1  0  0  0
  5 33  1  0  0  0
  7 34  1  0  0  0
  8 35  1  0  0  0
  9 36  1  0  0  0
 10 37  1  0  0  0
 11 38  1  0  0  0
 12 39  1  0  0  0
 13 40  1  0  0  0
 14 41  1  0  0  0
 15 42  1  0  0  0
 16 43  1  0  0  0
 16 44  1  0  0  0
 17 45  1  0  0  0
 28 46  1  0  0  0
M  END
$$$$
