5dh5_ligand
  -I-interpret- 

 49 53  0  0  0  0  0  0  0  0999 V2000
    4.7900   12.9520   43.8720 C   0  0  0  0  0
    4.7240   12.6380   45.2190 C   0  0  0  0  0
    3.9060   13.5800   45.9560 N   0  0  0  0  0
    7.3980   11.0830   44.7530 C   0  0  0  0  0
    3.4910   15.3500   41.5520 C   0  0  0  0  0
    3.7600   15.5460   40.1120 C   0  0  0  0  0
    2.9480   14.6960   39.1720 C   0  0  0  0  0
    2.7050   16.1810   39.2520 C   0  0  0  0  0
    3.0510   17.1630   38.1800 C   0  0  0  0  0
    3.0620   17.8480   35.8870 C   0  0  0  0  0
    3.6190   13.5660   47.3620 N   0  0  0  0  0
    2.8320   14.6480   47.6440 C   0  0  0  0  0
    2.6270   15.3580   46.4560 C   0  0  0  0  0
    9.4660   11.0610   43.8170 N   0  0  0  0  0
    3.3050   14.6840   45.4140 C   0  0  0  0  0
    3.3990   14.9460   44.1000 N   0  0  0  0  0
    4.2550   14.2500   42.0200 O   0  0  0  0  0
    4.1210   14.0630   43.3900 C   0  0  0  0  0
    5.2960   11.5840   45.9620 N   0  0  0  0  0
    6.0380   10.6530   45.1300 C   0  0  0  0  0
    8.0430   12.2540   45.0990 C   0  0  0  0  0
    2.7460   16.9130   36.8540 C   0  0  0  0  0
    3.6770   19.0340   36.2240 C   0  0  0  0  0
    3.9520   19.2260   37.5620 C   0  0  0  0  0
    3.6420   18.3260   38.5110 N   0  0  0  0  0
    9.2680   12.1870   44.5070 N   0  0  0  0  0
    8.3270   10.3720   43.9560 C   0  0  0  0  0
   10.3090   13.1980   44.5680 C   0  0  0  0  0
    5.3678   12.3252   43.1928 H   0  0  0  0  0
    2.4301   15.1513   41.7037 H   0  0  0  0  0
    3.7666   16.2493   42.1028 H   0  0  0  0  0
    4.8179   15.7500   40.2775 H   0  0  0  0  0
    2.3737   13.7698   39.1942 H   0  0  0  0  0
    3.1100   13.9325   38.4112 H   0  0  0  0  0
    1.8159   16.7908   39.4126 H   0  0  0  0  0
    2.8215   17.6446   34.8435 H   0  0  0  0  0
    2.4337   14.9115   48.6238 H   0  0  0  0  0
    2.0447   16.2735   46.3516 H   0  0  0  0  0
    5.1991   11.4864   46.9727 H   0  0  0  0  0
    6.1518    9.7388   45.7126 H   0  0  0  0  0
    5.4762   10.5508   44.2015 H   0  0  0  0  0
    7.6533   13.0630   45.7168 H   0  0  0  0  0
    2.2573   15.9802   36.5726 H   0  0  0  0  0
    3.9328   19.7812   35.4728 H   0  0  0  0  0
    4.4437   20.1508   37.8638 H   0  0  0  0  0
    8.1396    9.3933   43.5142 H   0  0  0  0  0
   11.2046   12.7688   45.0172 H   0  0  0  0  0
   10.5368   13.5444   43.5599 H   0  0  0  0  0
    9.9640   14.0368   45.1725 H   0  0  0  0  0
  2  1  4  0  0  0
  1 18  4  0  0  0
  2  3  4  0  0  0
 19  2  1  0  0  0
  3 11  4  0  0  0
  3 15  4  0  0  0
 20  4  1  0  0  0
  4 21  4  0  0  0
  4 27  4  0  0  0
  5  6  1  0  0  0
 17  5  1  0  0  0
  6  7  1  0  0  0
  6  8  1  0  0  0
  8  7  1  0  0  0
  8  9  1  0  0  0
  9 22  4  0  0  0
  9 25  4  0  0  0
 22 10  4  0  0  0
 10 23  4  0  0  0
 11 12  4  0  0  0
 13 12  4  0  0  0
 15 13  4  0  0  0
 14 26  4  0  0  0
 27 14  4  0  0  0
 15 16  4  0  0  0
 18 16  4  0  0  0
 18 17  1  0  0  0
 19 20  1  0  0  0
 21 26  4  0  0  0
 23 24  4  0  0  0
 24 25  4  0  0  0
 26 28  1  0  0  0
  1 29  1  0  0  0
  5 30  1  0  0  0
  5 31  1  0  0  0
  6 32  1  0  0  0
  7 33  1  0  0  0
  7 34  1  0  0  0
  8 35  1  0  0  0
 10 36  1  0  0  0
 12 37  1  0  0  0
 13 38  1  0  0  0
 19 39  1  0  0  0
 20 40  1  0  0  0
 20 41  1  0  0  0
 21 42  1  0  0  0
 22 43  1  0  0  0
 23 44  1  0  0  0
 24 45  1  0  0  0
 27 46  1  0  0  0
 28 47  1  0  0  0
 28 48  1  0  0  0
 28 49  1  0  0  0
M  END
$$$$
