5ofx_ligand
  -I-interpret- 

 66 68  0  0  0  0  0  0  0  0999 V2000
  -54.3940  -58.9600  -96.6570 O   0  0  0  0  0
  -53.3480  -59.4830  -97.4250 C   0  0  0  0  0
  -53.9260  -60.3180  -98.6050 C   0  0  0  0  0
  -54.4750  -61.6910  -98.1180 C   0  0  0  0  0
  -55.8500  -61.6960  -97.8850 O   0  0  0  0  0
  -54.2000  -62.5410  -99.3910 C   0  0  0  0  0
  -54.0630  -63.8860  -99.0840 O   0  0  0  0  0
  -52.8630  -60.6010  -99.5350 O   0  0  0  0  0
  -52.8020  -61.9970  -99.7890 C   0  0  0  0  0
  -52.4510  -62.1610 -101.2880 C   0  0  0  0  0
  -53.4390  -61.5400 -102.0290 O   0  0  0  0  0
  -51.7940  -62.5020  -98.9340 O   0  0  0  0  0
  -50.6600  -61.7270  -98.6580 C   0  0  0  0  0
  -49.4260  -62.5820  -98.9020 C   0  0  0  0  0
  -49.3640  -62.8600 -100.2750 O   0  0  0  0  0
  -49.5790  -63.8610  -98.0700 C   0  0  0  0  0
  -48.3950  -64.5920  -98.2260 O   0  0  0  0  0
  -49.6460  -63.4150  -96.5900 C   0  0  0  0  0
  -49.9230  -64.5180  -95.7930 O   0  0  0  0  0
  -50.8200  -62.3910  -96.3870 C   0  0  0  0  0
  -50.7150  -61.3490  -97.3160 O   0  0  0  0  0
  -50.6620  -61.7050  -94.9740 C   0  0  0  0  0
  -51.9030  -61.0670  -94.6700 O   0  0  0  0  0
  -52.7290  -61.7730  -93.7510 C   0  0  0  0  0
  -52.0180  -61.7930  -92.5330 O   0  0  0  0  0
  -51.7480  -60.5690  -91.9030 C   0  0  0  0  0
  -51.0190  -60.8200  -90.5810 C   0  0  0  0  0
  -49.8270  -61.4420  -90.9550 O   0  0  0  0  0
  -52.9790  -59.6500  -91.7570 C   0  0  0  0  0
  -53.8860  -60.1530  -90.8020 O   0  0  0  0  0
  -53.7770  -59.5430  -93.0750 C   0  0  0  0  0
  -55.0150  -58.9220  -92.9010 O   0  0  0  0  0
  -54.0610  -60.9840  -93.5950 C   0  0  0  0  0
  -54.6400  -60.8750  -94.8610 O   0  0  0  0  0
  -54.0311  -58.4465  -95.9315 H   0  0  0  0  0
  -52.7277  -60.1248  -96.7994 H   0  0  0  0  0
  -52.7487  -58.6640  -97.8228 H   0  0  0  0  0
  -54.7320  -59.7406  -99.0579 H   0  0  0  0  0
  -54.0297  -62.0147  -97.1773 H   0  0  0  0  0
  -56.0426  -61.1757  -97.1015 H   0  0  0  0  0
  -54.9877  -62.4710 -100.1412 H   0  0  0  0  0
  -54.9177  -64.2447  -98.8342 H   0  0  0  0  0
  -52.3940  -63.2181 -101.5478 H   0  0  0  0  0
  -51.4819  -61.7091 -101.4993 H   0  0  0  0  0
  -53.2405  -61.6300 -102.9639 H   0  0  0  0  0
  -50.6206  -60.8412  -99.2920 H   0  0  0  0  0
  -48.5033  -62.0816  -98.6081 H   0  0  0  0  0
  -48.5914  -63.4002 -100.4564 H   0  0  0  0  0
  -50.4530  -64.4426  -98.3632 H   0  0  0  0  0
  -48.4523  -65.4042  -97.7174 H   0  0  0  0  0
  -48.6922  -62.9603  -96.3224 H   0  0  0  0  0
  -49.9653  -64.2446  -94.8737 H   0  0  0  0  0
  -51.7620  -62.9293  -96.4914 H   0  0  0  0  0
  -49.8512  -60.9767  -94.9906 H   0  0  0  0  0
  -50.4165  -62.4466  -94.2138 H   0  0  0  0  0
  -52.9631  -62.7865  -94.0769 H   0  0  0  0  0
  -51.0870  -60.0017  -92.5582 H   0  0  0  0  0
  -51.6063  -61.4359  -89.9000 H   0  0  0  0  0
  -50.8435  -59.8970  -90.0284 H   0  0  0  0  0
  -49.3077  -61.6339  -90.1707 H   0  0  0  0  0
  -52.5810  -58.6798  -91.4597 H   0  0  0  0  0
  -54.6387  -59.5610  -90.7343 H   0  0  0  0  0
  -53.1813  -58.9508  -93.7696 H   0  0  0  0  0
  -55.4716  -58.8791  -93.7444 H   0  0  0  0  0
  -54.7128  -61.5022  -92.8916 H   0  0  0  0  0
  -55.4661  -60.3907  -94.7932 H   0  0  0  0  0
  1  2  1  0  0  0
  2  3  1  0  0  0
  3  4  1  0  0  0
  3  8  1  0  0  0
  4  5  1  0  0  0
  4  6  1  0  0  0
  6  7  1  0  0  0
  6  9  1  0  0  0
  8  9  1  0  0  0
  9 10  1  0  0  0
  9 12  1  0  0  0
 10 11  1  0  0  0
 12 13  1  0  0  0
 13 14  1  0  0  0
 13 21  1  0  0  0
 14 15  1  0  0  0
 14 16  1  0  0  0
 16 17  1  0  0  0
 16 18  1  0  0  0
 18 19  1  0  0  0
 18 20  1  0  0  0
 20 21  1  0  0  0
 20 22  1  0  0  0
 22 23  1  0  0  0
 23 24  1  0  0  0
 24 25  1  0  0  0
 24 33  1  0  0  0
 25 26  1  0  0  0
 26 27  1  0  0  0
 26 29  1  0  0  0
 27 28  1  0  0  0
 29 30  1  0  0  0
 29 31  1  0  0  0
 31 32  1  0  0  0
 31 33  1  0  0  0
 33 34  1  0  0  0
  1 35  1  0  0  0
  2 36  1  0  0  0
  2 37  1  0  0  0
  3 38  1  0  0  0
  4 39  1  0  0  0
  5 40  1  0  0  0
  6 41  1  0  0  0
  7 42  1  0  0  0
 10 43  1  0  0  0
 10 44  1  0  0  0
 11 45  1  0  0  0
 13 46  1  0  0  0
 14 47  1  0  0  0
 15 48  1  0  0  0
 16 49  1  0  0  0
 17 50  1  0  0  0
 18 51  1  0  0  0
 19 52  1  0  0  0
 20 53  1  0  0  0
 22 54  1  0  0  0
 22 55  1  0  0  0
 24 56  1  0  0  0
 26 57  1  0  0  0
 27 58  1  0  0  0
 27 59  1  0  0  0
 28 60  1  0  0  0
 29 61  1  0  0  0
 30 62  1  0  0  0
 31 63  1  0  0  0
 32 64  1  0  0  0
 33 65  1  0  0  0
 34 66  1  0  0  0
M  END
$$$$
