4az2_ligand
  -I-interpret- 

 66 69  0  0  0  0  0  0  0  0999 V2000
   30.4020   13.2940   24.1520 N   0  0  0  0  0
   29.4670   13.7990   25.2030 C   0  0  0  0  0
   29.1270   15.2790   24.9440 C   0  0  0  0  0
   28.3660   15.8740   25.7070 O   0  0  0  0  0
   28.1650   12.9530   25.3460 C   0  0  0  0  0
   28.5550   11.6340   26.0070 C   0  0  0  0  0
   28.7050   11.5810   27.4570 C   0  0  0  0  0
   28.8520   10.4580   25.2160 C   0  0  0  0  0
   29.1620   10.3850   28.0920 C   0  0  0  0  0
   29.3030    9.2690   25.8610 C   0  0  0  0  0
   29.4600    9.2360   27.2820 C   0  0  0  0  0
   32.0500   13.2000   24.4410 S   0  0  0  0  0
   32.3020   14.2650   25.3840 O   0  0  0  0  0
   32.7500   13.1370   23.2370 O   0  0  0  0  0
   32.4710   11.6600   26.6110 C   0  0  0  0  0
   32.3400   11.7490   25.2160 C   0  0  0  0  0
   32.5770   10.5550   24.4440 C   0  0  0  0  0
   32.9460    9.3510   25.0250 C   0  0  0  0  0
   33.4770    8.0490   27.0660 C   0  0  0  0  0
   33.5990    8.0170   28.4400 C   0  0  0  0  0
   33.3620    9.1710   29.2380 C   0  0  0  0  0
   32.9980   10.3650   28.6510 C   0  0  0  0  0
   32.8570   10.4400   27.2300 C   0  0  0  0  0
   33.0980    9.2720   26.4330 C   0  0  0  0  0
   29.7300   15.8930   23.8630 N   0  0  0  0  0
   29.5070   17.3030   23.5000 C   0  0  0  0  0
   30.7560   18.2080   23.7690 C   0  0  0  0  0
   31.1850   18.1050   25.2770 C   0  0  0  0  0
   31.9300   17.8520   22.8110 C   0  0  0  0  0
   32.3940   18.9750   25.4330 N   0  0  0  0  0
   33.1550   18.7320   23.1060 C   0  0  0  0  0
   33.5990   18.6520   24.6080 C   0  0  0  0  0
   32.3420   20.0960   26.3190 C   0  0  0  0  0
   33.4560   20.8780   26.4390 N   0  0  0  0  0
   31.2690   20.3120   26.9520 N   0  0  0  0  0
   30.0322   13.0028   23.2471 H   0  0  0  0  0
   29.9914   13.7011   26.1535 H   0  0  0  0  0
   27.7136   12.7748   24.3700 H   0  0  0  0  0
   27.4277   13.4820   25.9498 H   0  0  0  0  0
   28.4674   12.4579   28.0592 H   0  0  0  0  0
   28.7314   10.4816   24.1329 H   0  0  0  0  0
   29.2827   10.3449   29.1746 H   0  0  0  0  0
   29.5289    8.3822   25.2689 H   0  0  0  0  0
   29.8124    8.3219   27.7598 H   0  0  0  0  0
   32.2743   12.5374   27.2271 H   0  0  0  0  0
   32.4617   10.6002   23.3611 H   0  0  0  0  0
   33.1180    8.4718   24.4041 H   0  0  0  0  0
   33.6670    7.1546   26.4727 H   0  0  0  0  0
   33.8841    7.0842   28.9264 H   0  0  0  0  0
   33.4689    9.1111   30.3211 H   0  0  0  0  0
   32.8189   11.2463   29.2668 H   0  0  0  0  0
   30.3635   15.3403   23.2854 H   0  0  0  0  0
   28.6868   17.6781   24.1121 H   0  0  0  0  0
   29.2927   17.3413   22.4320 H   0  0  0  0  0
   30.4835   19.2434   23.5643 H   0  0  0  0  0
   31.4073   17.0736   25.5509 H   0  0  0  0  0
   30.3804   18.4317   25.9358 H   0  0  0  0  0
   31.6113   18.0237   21.7829 H   0  0  0  0  0
   32.2021   16.8069   22.9590 H   0  0  0  0  0
   32.8886   19.7660   22.8872 H   0  0  0  0  0
   33.9816   18.3777   22.4901 H   0  0  0  0  0
   33.9776   17.6584   24.8477 H   0  0  0  0  0
   34.4072   19.3547   24.8110 H   0  0  0  0  0
   33.4486   21.6837   27.0645 H   0  0  0  0  0
   34.2950   20.6561   25.9031 H   0  0  0  0  0
   30.4680   19.6936   26.8240 H   0  0  0  0  0
  1  2  1  0  0  0
 12  1  1  0  0  0
  2  3  1  0  0  0
  2  5  1  0  0  0
  3  4  2  0  0  0
  3 25  1  0  0  0
  5  6  1  0  0  0
  6  7  4  0  0  0
  6  8  4  0  0  0
  7  9  4  0  0  0
  8 10  4  0  0  0
  9 11  4  0  0  0
 10 11  4  0  0  0
 12 13  2  0  0  0
 12 14  2  0  0  0
 16 12  1  0  0  0
 16 15  4  0  0  0
 15 23  4  0  0  0
 17 16  4  0  0  0
 18 17  4  0  0  0
 24 18  4  0  0  0
 19 20  4  0  0  0
 19 24  4  0  0  0
 20 21  4  0  0  0
 21 22  4  0  0  0
 22 23  4  0  0  0
 23 24  4  0  0  0
 25 26  1  0  0  0
 26 27  1  0  0  0
 27 28  1  0  0  0
 27 29  1  0  0  0
 28 30  1  0  0  0
 29 31  1  0  0  0
 30 32  1  0  0  0
 30 33  1  0  0  0
 31 32  1  0  0  0
 33 34  1  0  0  0
 33 35  2  0  0  0
  1 36  1  0  0  0
  2 37  1  0  0  0
  5 38  1  0  0  0
  5 39  1  0  0  0
  7 40  1  0  0  0
  8 41  1  0  0  0
  9 42  1  0  0  0
 10 43  1  0  0  0
 11 44  1  0  0  0
 15 45  1  0  0  0
 17 46  1  0  0  0
 18 47  1  0  0  0
 19 48  1  0  0  0
 20 49  1  0  0  0
 21 50  1  0  0  0
 22 51  1  0  0  0
 25 52  1  0  0  0
 26 53  1  0  0  0
 26 54  1  0  0  0
 27 55  1  0  0  0
 28 56  1  0  0  0
 28 57  1  0  0  0
 29 58  1  0  0  0
 29 59  1  0  0  0
 31 60  1  0  0  0
 31 61  1  0  0  0
 32 62  1  0  0  0
 32 63  1  0  0  0
 34 64  1  0  0  0
 34 65  1  0  0  0
 35 66  1  0  0  0
M  END
$$$$
