6t1l_ligand
  -I-interpret- 

 59 61  0  0  0  0  0  0  0  0999 V2000
    3.2110   15.8780   13.1320 C   0  0  0  0  0
    4.4780   16.2750   12.7340 C   0  0  0  0  0
    5.2240   15.5020   11.8520 C   0  0  0  0  0
    6.6430   15.8860   11.4900 C   0  0  0  0  0
    6.4300   17.3160    7.9660 C   0  0  0  0  0
    5.9950   16.9150    9.3650 C   0  0  0  0  0
    7.1300   14.6130    9.4250 C   0  0  0  0  0
    2.6490   14.7020   12.6510 C   0  0  0  0  0
    1.2240   14.3130   12.9600 C   0  0  0  0  0
   -0.6890   15.1700   14.1910 C   0  0  0  0  0
   -2.6170   14.9890   15.6850 C   0  0  0  0  0
    0.6430   14.9650   14.1240 N   0  0  0  0  0
   -2.8600   14.7530   17.1810 C   0  0  0  0  0
   -0.7810   16.4760   16.2630 C   0  0  0  0  0
   -1.0230   16.1840   17.7260 C   0  0  0  0  0
   -1.2090   15.3370   15.4430 N   0  0  0  0  0
   -3.0400   16.2370   19.1640 C   0  0  0  0  0
   -4.5710   15.7440   20.7720 C   0  0  0  0  0
   -2.4440   15.9210   17.9640 N   0  0  0  0  0
   -4.2960   16.9180   21.4300 C   0  0  0  0  0
   -3.3430   17.7240   20.8600 C   0  0  0  0  0
    3.4020   13.9260   11.7840 C   0  0  0  0  0
    4.6670   14.3190   11.3900 C   0  0  0  0  0
   -3.9650   15.3700   19.6360 N   0  0  0  0  0
   -1.4010   15.1830   13.1940 O   0  0  0  0  0
   -2.6910   17.4160   19.7290 N   0  0  0  0  0
    6.9170   15.9740   10.0390 N   0  3  0  0  0
    6.1200   14.2060    8.3550 C   0  0  0  0  0
    2.6483   16.4964   13.8313 H   0  0  0  0  0
    4.8950   17.2060   13.1179 H   0  0  0  0  0
    7.2909   15.1037   11.8854 H   0  0  0  0  0
    6.8148   16.8799   11.9032 H   0  0  0  0  0
    7.4047   17.8013    8.0151 H   0  0  0  0  0
    6.4965   16.4270    7.3388 H   0  0  0  0  0
    5.6998   18.0064    7.5437 H   0  0  0  0  0
    5.0328   16.4116    9.2713 H   0  0  0  0  0
    5.9660   17.8237    9.9662 H   0  0  0  0  0
    7.0315   13.8897   10.2344 H   0  0  0  0  0
    8.1036   14.6433    8.9358 H   0  0  0  0  0
    1.2299   13.2435   13.1704 H   0  0  0  0  0
    0.6241   14.6131   12.1009 H   0  0  0  0  0
   -3.2488   15.8108   15.3480 H   0  0  0  0  0
   -2.8563   14.0769   15.1383 H   0  0  0  0  0
    1.2438   15.2676   14.8907 H   0  0  0  0  0
   -2.2777   13.8888   17.5006 H   0  0  0  0  0
   -3.9242   14.5813   17.3424 H   0  0  0  0  0
    0.2832   16.6504   16.1047 H   0  0  0  0  0
   -1.3528   17.3583   15.9753 H   0  0  0  0  0
   -0.7174   17.0478   18.3164 H   0  0  0  0  0
   -0.4456   15.3054   18.0136 H   0  0  0  0  0
   -5.3235   15.0797   21.1969 H   0  0  0  0  0
   -4.8061   17.1938   22.3530 H   0  0  0  0  0
   -3.1027   18.6659   21.3532 H   0  0  0  0  0
    2.9896   12.9902   11.4066 H   0  0  0  0  0
    5.2357   13.6895   10.7056 H   0  0  0  0  0
    7.8220   16.4163    9.8785 H   0  0  0  0  0
    5.1194   14.1945    8.7873 H   0  0  0  0  0
    6.1542   14.9219    7.5338 H   0  0  0  0  0
    6.3678   13.2120    7.9827 H   0  0  0  0  0
  1  2  4  0  0  0
  8  1  4  0  0  0
  2  3  4  0  0  0
  3  4  1  0  0  0
  3 23  4  0  0  0
  4 27  1  0  0  0
  6  5  1  0  0  0
 27  6  1  0  0  0
 27  7  1  0  0  0
  7 28  1  0  0  0
  9  8  1  0  0  0
  8 22  4  0  0  0
 12  9  1  0  0  0
 10 12  1  0  0  0
 16 10  1  0  0  0
 10 25  2  0  0  0
 13 11  1  0  0  0
 11 16  1  0  0  0
 19 13  1  0  0  0
 15 14  1  0  0  0
 14 16  1  0  0  0
 19 15  1  0  0  0
 17 19  1  0  0  0
 24 17  4  0  0  0
 17 26  4  0  0  0
 18 20  4  0  0  0
 18 24  4  0  0  0
 20 21  4  0  0  0
 21 26  4  0  0  0
 22 23  4  0  0  0
  1 29  1  0  0  0
  2 30  1  0  0  0
  4 31  1  0  0  0
  4 32  1  0  0  0
  5 33  1  0  0  0
  5 34  1  0  0  0
  5 35  1  0  0  0
  6 36  1  0  0  0
  6 37  1  0  0  0
  7 38  1  0  0  0
  7 39  1  0  0  0
  9 40  1  0  0  0
  9 41  1  0  0  0
 11 42  1  0  0  0
 11 43  1  0  0  0
 12 44  1  0  0  0
 13 45  1  0  0  0
 13 46  1  0  0  0
 14 47  1  0  0  0
 14 48  1  0  0  0
 15 49  1  0  0  0
 15 50  1  0  0  0
 18 51  1  0  0  0
 20 52  1  0  0  0
 21 53  1  0  0  0
 22 54  1  0  0  0
 23 55  1  0  0  0
 27 56  1  0  0  0
 28 57  1  0  0  0
 28 58  1  0  0  0
 28 59  1  0  0  0
M  END
$$$$
