### 
### Created by X-TOOL on Mon Sep 10 21:12:50 2018
### 

@<TRIPOS>MOLECULE
1uj0_ligand
  154   154     1     0     0
SMALL
GAST_HUCK


@<TRIPOS>ATOM
      1 N          16.3820   23.9260   20.7840 N.4       1 THR         0.2398
      2 CA         15.3740   23.0890   21.4910 C.3       1 THR         0.0912
      3 C          15.9370   22.6080   22.8270 C.2       1 THR         0.2318
      4 O          17.0570   22.0770   22.8710 O.2       1 THR        -0.3904
      5 CB         15.0160   21.9050   20.6200 C.3       1 THR         0.1120
      6 OG1        14.5860   22.3790   19.3280 O.3       1 THR        -0.3840
      7 CG2        13.8240   21.2030   21.1620 C.3       1 THR        -0.0314
      8 N          15.1770   22.7680   23.9090 N.am      1 PRO        -0.2471
      9 CA         15.6010   22.3050   25.2280 C.3       1 PRO         0.1339
     10 C          15.6390   20.7790   25.2290 C.2       1 PRO         0.2041
     11 O          14.8580   20.1310   24.5230 O.2       1 PRO        -0.3944
     12 CB         14.4670   22.7870   26.1470 C.3       1 PRO        -0.0104
     13 CG         13.8130   23.8300   25.4030 C.3       1 PRO        -0.0281
     14 CD         13.8280   23.3690   23.9630 C.3       1 PRO         0.0371
     15 N          16.5370   20.2030   26.0040 N.am      1 MET        -0.2637
     16 CA         16.5530   18.7730   26.1420 C.3       1 MET         0.1317
     17 C          15.3260   18.2260   26.9000 C.2       1 MET         0.2039
     18 O          14.8240   18.8610   27.8620 O.2       1 MET        -0.3944
     19 CB         17.8510   18.3120   26.8130 C.3       1 MET        -0.0034
     20 CG         17.9330   16.8450   26.7580 C.3       1 MET        -0.0024
     21 SD         18.4190   16.3050   25.0850 S.3       1 MET        -0.1639
     22 CE         19.6110   17.2870   24.8340 C.3       1 MET        -0.0181
     23 N          14.8140   17.0870   26.4450 N.am      1 VAL        -0.2635
     24 CA         13.6470   16.4830   27.0670 C.3       1 VAL         0.1333
     25 C          14.1060   15.2720   27.8250 C.2       1 VAL         0.2043
     26 O          15.0100   14.5670   27.3590 O.2       1 VAL        -0.3944
     27 CB         12.5650   16.1340   26.0240 C.3       1 VAL        -0.0063
     28 CG1        11.4030   15.3210   26.6300 C.3       1 VAL        -0.0584
     29 CG2        12.0480   17.4180   25.3970 C.3       1 VAL        -0.0584
     30 N          13.5140   15.0710   29.0010 N.am      1 ASN        -0.2616
     31 CA         13.7570   13.9190   29.8460 C.3       1 ASN         0.1476
     32 C          12.4620   13.2030   30.2190 C.2       1 ASN         0.2063
     33 O          11.6550   13.7180   31.0000 O.2       1 ASN        -0.3942
     34 CB         14.5250   14.3210   31.1170 C.3       1 ASN         0.0773
     35 CG         14.9850   13.0940   31.9340 C.2       1 ASN         0.1780
     36 OD1        14.1670   12.2550   32.3410 O.2       1 ASN        -0.3970
     37 ND2        16.3020   12.9740   32.1440 N.am      1 ASN        -0.3007
     38 N          12.2590   12.0060   29.6730 N.am      1 ARG        -0.2636
     39 CA         10.9890   11.2910   29.8660 C.3       1 ARG         0.1311
     40 C          11.0220   10.3840   31.0800 C.2       1 ARG         0.2039
     41 O           9.9800    9.9110   31.5590 O.2       1 ARG        -0.3944
     42 CB         10.6350   10.4820   28.6410 C.3       1 ARG        -0.0092
     43 CG         10.1680   11.3430   27.5100 C.3       1 ARG        -0.0156
     44 CD          9.8320   10.5690   26.2670 C.3       1 ARG         0.0627
     45 NE          9.1550   11.4880   25.3490 N.pl3     1 ARG        -0.2723
     46 CZ          9.7380   12.3310   24.5210 C.cat     1 ARG         0.2882
     47 NH1        11.0900   12.4450   24.4100 N.pl3     1 ARG        -0.2849
     48 NH2         8.9630   13.0980   23.8000 N.pl3     1 ARG        -0.2849
     49 N          12.2270   10.1710   31.5880 N.am      1 GLU        -0.2636
     50 CA         12.3760    9.3310   32.7610 C.3       1 GLU         0.1325
     51 C          11.4960    9.8680   33.8980 C.2       1 GLU         0.2041
     52 O          11.0460    9.1020   34.7300 O.2       1 GLU        -0.3944
     53 CB         13.8530    9.1940   33.1360 C.3       1 GLU        -0.0008
     54 CG         14.1330    8.4050   34.4090 C.3       1 GLU         0.0044
     55 CD         15.4220    7.6180   34.3110 C.2       1 GLU         0.0350
     56 OE1        15.9570    7.2150   35.3700 O.co2     1 GLU        -0.5690
     57 OE2        15.9110    7.3890   33.1770 O.co2     1 GLU        -0.5690
     58 N          11.1670   11.1660   33.8650 N.am      1 ASN        -0.2616
     59 CA         10.3980   11.8150   34.9500 C.3       1 ASN         0.1476
     60 C           8.9220   12.2460   34.7100 C.2       1 ASN         0.2063
     61 O           8.3260   12.9660   35.5400 O.2       1 ASN        -0.3942
     62 CB         11.2070   13.0000   35.4950 C.3       1 ASN         0.0773
     63 CG         10.8680   14.3150   34.8070 C.2       1 ASN         0.1780
     64 OD1        11.0380   14.4770   33.5980 O.2       1 ASN        -0.3970
     65 ND2        10.3800   15.2580   35.5880 N.am      1 ASN        -0.3007
     66 N           8.3270   11.7770   33.6180 N.am      1 LYS        -0.2622
     67 CA          6.9860   12.1830   33.2080 C.3       1 LYS         0.1420
     68 C           5.8850   12.0840   34.2660 C.2       1 LYS         0.2571
     69 O           5.7800   11.0730   34.9550 O.2       1 LYS        -0.3680
     70 CB          6.5620   11.3800   31.9920 C.3       1 LYS        -0.0109
     71 CG          7.2380   11.8400   30.7550 C.3       1 LYS        -0.0439
     72 CD          6.8010   11.0570   29.5660 C.3       1 LYS        -0.0124
     73 CE          5.2920   11.0490   29.3320 C.3       1 LYS        -0.0354
     74 NZ          5.1660   10.3140   28.0690 N.4       1 LYS         0.2185
     75 O1          5.0394   13.0958   34.4398 O.3       1 LYS        -0.2910
     76 H1         16.0018   24.2385   19.9043 H         1 THR         0.2016
     77 H2         17.2131   23.3810   20.6161 H         1 THR         0.2016
     78 H3         16.6135   24.7253   21.3528 H         1 THR         0.2016
     79 H4         14.4707   23.6885   21.6771 H         1 THR         0.1125
     80 H5         15.8749   21.2232   20.5337 H         1 THR         0.0674
     81 H6         13.8451   22.9635   19.4369 H         1 THR         0.2102
     82 H7         13.5784   20.3463   20.5172 H         1 THR         0.0258
     83 H8         12.9711   21.8970   21.1902 H         1 THR         0.0258
     84 H9         14.0400   20.8459   22.1797 H         1 THR         0.0258
     85 H10        16.5759   22.7221   25.5206 H         1 PRO         0.0802
     86 H11        14.8729   23.1798   27.0909 H         1 PRO         0.0313
     87 H12        13.7667   21.9665   26.3623 H         1 PRO         0.0313
     88 H13        12.7788   23.9619   25.7537 H         1 PRO         0.0287
     89 H14        14.3599   24.7785   25.5088 H         1 PRO         0.0287
     90 H15        13.0408   22.6274   23.7621 H         1 PRO         0.0524
     91 H16        13.7262   24.2108   23.2623 H         1 PRO         0.0524
     92 H17        17.2061   20.7608   26.4951 H         1 MET         0.1883
     93 H18        16.5284   18.3460   25.1286 H         1 MET         0.0800
     94 H19        17.8589   18.6412   27.8626 H         1 MET         0.0320
     95 H20        18.7121   18.7480   26.2854 H         1 MET         0.0320
     96 H21        16.9512   16.4164   27.0074 H         1 MET         0.0378
     97 H22        18.6811   16.4952   27.4846 H         1 MET         0.0378
     98 H23        20.0388   17.0974   23.8385 H         1 MET         0.0340
     99 H24        20.3835   17.1296   25.6011 H         1 MET         0.0340
    100 H25        19.2487   18.3243   24.8858 H         1 MET         0.0340
    101 H26        15.2396   16.6369   25.6599 H         1 VAL         0.1883
    102 H27        13.2134   17.2011   27.7785 H         1 VAL         0.0802
    103 H28        13.0309   15.5227   25.2371 H         1 VAL         0.0343
    104 H29        10.6628   15.0999   25.8470 H         1 VAL         0.0234
    105 H30        10.9260   15.9045   27.4312 H         1 VAL         0.0234
    106 H31        11.7914   14.3788   27.0439 H         1 VAL         0.0234
    107 H32        12.8902   17.9830   24.9710 H         1 VAL         0.0234
    108 H33        11.5497   18.0267   26.1658 H         1 VAL         0.0234
    109 H34        11.3300   17.1738   24.6003 H         1 VAL         0.0234
    110 H35        12.8612   15.7577   29.3208 H         1 ASN         0.1885
    111 H36        14.3817   13.2134   29.2787 H         1 ASN         0.0826
    112 H37        13.8687   14.9397   31.7466 H         1 ASN         0.0551
    113 H38        15.4107   14.9048   30.8259 H         1 ASN         0.0551
    114 H39        16.6564   12.1987   32.6668 H         1 ASN         0.1814
    115 H40        16.9312   13.6597   31.7781 H         1 ASN         0.1814
    116 H41        12.9814   11.5867   29.1231 H         1 ARG         0.1883
    117 H42        10.2011   12.0423   30.0233 H         1 ARG         0.0800
    118 H43         9.8335    9.7755   28.9026 H         1 ARG         0.0313
    119 H44        11.5250    9.9230   28.3164 H         1 ARG         0.0313
    120 H45        10.9645   12.0620   27.2678 H         1 ARG         0.0301
    121 H46         9.2690   11.8873   27.8349 H         1 ARG         0.0301
    122 H47         9.1675    9.7284   26.5155 H         1 ARG         0.0689
    123 H48        10.7523   10.1843   25.8032 H         1 ARG         0.0689
    124 H49         8.1251   11.4739   25.3509 H         1 ARG         0.2642
    125 H50        11.4972   13.1199   23.7470 H         1 ARG         0.2615
    126 H51        11.7057   11.8563   24.9890 H         1 ARG         0.2615
    127 H52         7.9393   13.0163   23.8797 H         1 ARG         0.2615
    128 H53         9.3760   13.7841   23.1522 H         1 ARG         0.2615
    129 H54        13.0310   10.5880   31.1641 H         1 GLU         0.1883
    130 H55        12.0091    8.3252   32.5087 H         1 GLU         0.0801
    131 H56        14.2655   10.2054   33.2659 H         1 GLU         0.0330
    132 H57        14.3691    8.6914   32.3047 H         1 GLU         0.0330
    133 H58        13.3019    7.7062   34.5848 H         1 GLU         0.0433
    134 H59        14.2074    9.1062   35.2533 H         1 GLU         0.0433
    135 H60        11.4510   11.7158   33.0795 H         1 ASN         0.1885
    136 H61        10.3457   11.0637   35.7517 H         1 ASN         0.0826
    137 H62        12.2770   12.7922   35.3471 H         1 ASN         0.0551
    138 H63        10.9985   13.1025   36.5702 H         1 ASN         0.0551
    139 H64        10.1348   16.1481   35.2039 H         1 ASN         0.1814
    140 H65        10.2549   15.0833   36.5646 H         1 ASN         0.1814
    141 H66         8.8200   11.1164   33.0518 H         1 LYS         0.1885
    142 H67         7.0527   13.2414   32.9160 H         1 LYS         0.0816
    143 H68         5.4747   11.4827   31.8609 H         1 LYS         0.0313
    144 H69         6.8127   10.3223   32.1606 H         1 LYS         0.0313
    145 H70         8.3249   11.7243   30.8784 H         1 LYS         0.0269
    146 H71         6.9984   12.9010   30.5910 H         1 LYS         0.0269
    147 H72         7.1335   10.0169   29.6986 H         1 LYS         0.0317
    148 H73         7.2843   11.4858   28.6758 H         1 LYS         0.0317
    149 H74         4.8999   12.0723   29.2363 H         1 LYS         0.0813
    150 H75         4.7668   10.5298   30.1472 H         1 LYS         0.0813
    151 H76         4.1929   10.2477   27.8145 H         1 LYS         0.1994
    152 H77         5.5482    9.3879   28.1796 H         1 LYS         0.1994
    153 H78         5.6702   10.8013   27.3449 H         1 LYS         0.1994
    154 H79         4.1523   12.7970   34.2779 H         1 LYS         0.2540
@<TRIPOS>BOND
     1    2    1 1  
     2    2    5 1  
     3    3    2 1  
     4    3    4 2  
     5    5    7 1  
     6    5    6 1  
     7   10    9 1  
     8    9   12 1  
     9    9    8 1  
    10    8   14 1  
    11   14   13 1  
    12   12   13 1  
    13   10   11 2  
    14    8    3 am 
    15   16   15 1  
    16   16   19 1  
    17   17   16 1  
    18   17   18 2  
    19   19   20 1  
    20   20   21 1  
    21   21   22 1  
    22   15   10 am 
    23   24   23 1  
    24   24   27 1  
    25   25   24 1  
    26   25   26 2  
    27   27   29 1  
    28   27   28 1  
    29   23   17 am 
    30   31   30 1  
    31   31   34 1  
    32   32   31 1  
    33   32   33 2  
    34   34   35 1  
    35   35   37 am 
    36   35   36 2  
    37   30   25 am 
    38   39   38 1  
    39   39   42 1  
    40   40   39 1  
    41   40   41 2  
    42   42   43 1  
    43   43   44 1  
    44   44   45 1  
    45   45   46 ar 
    46   46   48 ar 
    47   46   47 ar 
    48   38   32 am 
    49   50   49 1  
    50   50   53 1  
    51   51   50 1  
    52   51   52 2  
    53   53   54 1  
    54   54   55 1  
    55   55   57 ar 
    56   55   56 ar 
    57   49   40 am 
    58   59   58 1  
    59   59   62 1  
    60   60   59 1  
    61   60   61 2  
    62   62   63 1  
    63   63   65 am 
    64   63   64 2  
    65   58   51 am 
    66   66   67 1  
    67   67   70 1  
    68   67   68 1  
    69   68   69 2  
    70   70   71 1  
    71   71   72 1  
    72   72   73 1  
    73   73   74 1  
    74   60   66 am 
    75   68   75 1  
    76    1   76 1  
    77    1   77 1  
    78    1   78 1  
    79    2   79 1  
    80    5   80 1  
    81    6   81 1  
    82    7   82 1  
    83    7   83 1  
    84    7   84 1  
    85    9   85 1  
    86   12   86 1  
    87   12   87 1  
    88   13   88 1  
    89   13   89 1  
    90   14   90 1  
    91   14   91 1  
    92   15   92 1  
    93   16   93 1  
    94   19   94 1  
    95   19   95 1  
    96   20   96 1  
    97   20   97 1  
    98   22   98 1  
    99   22   99 1  
   100   22  100 1  
   101   23  101 1  
   102   24  102 1  
   103   27  103 1  
   104   28  104 1  
   105   28  105 1  
   106   28  106 1  
   107   29  107 1  
   108   29  108 1  
   109   29  109 1  
   110   30  110 1  
   111   31  111 1  
   112   34  112 1  
   113   34  113 1  
   114   37  114 1  
   115   37  115 1  
   116   38  116 1  
   117   39  117 1  
   118   42  118 1  
   119   42  119 1  
   120   43  120 1  
   121   43  121 1  
   122   44  122 1  
   123   44  123 1  
   124   45  124 1  
   125   47  125 1  
   126   47  126 1  
   127   48  127 1  
   128   48  128 1  
   129   49  129 1  
   130   50  130 1  
   131   53  131 1  
   132   53  132 1  
   133   54  133 1  
   134   54  134 1  
   135   58  135 1  
   136   59  136 1  
   137   62  137 1  
   138   62  138 1  
   139   65  139 1  
   140   65  140 1  
   141   66  141 1  
   142   67  142 1  
   143   70  143 1  
   144   70  144 1  
   145   71  145 1  
   146   71  146 1  
   147   72  147 1  
   148   72  148 1  
   149   73  149 1  
   150   73  150 1  
   151   74  151 1  
   152   74  152 1  
   153   74  153 1  
   154   75  154 1  
@<TRIPOS>SUBSTRUCTURE
     1 THR         1

