1uj0_ligand
  -I-interpret- 

154154  0  0  0  0  0  0  0  0999 V2000
   16.3820   23.9260   20.7840 N   0  3  0  0  0
   15.3740   23.0890   21.4910 C   0  0  0  0  0
   15.9370   22.6080   22.8270 C   0  0  0  0  0
   17.0570   22.0770   22.8710 O   0  0  0  0  0
   15.0160   21.9050   20.6200 C   0  0  0  0  0
   14.5860   22.3790   19.3280 O   0  0  0  0  0
   13.8240   21.2030   21.1620 C   0  0  0  0  0
   15.1770   22.7680   23.9090 N   0  0  0  0  0
   15.6010   22.3050   25.2280 C   0  0  0  0  0
   15.6390   20.7790   25.2290 C   0  0  0  0  0
   14.8580   20.1310   24.5230 O   0  0  0  0  0
   14.4670   22.7870   26.1470 C   0  0  0  0  0
   13.8130   23.8300   25.4030 C   0  0  0  0  0
   13.8280   23.3690   23.9630 C   0  0  0  0  0
   16.5370   20.2030   26.0040 N   0  0  0  0  0
   16.5530   18.7730   26.1420 C   0  0  0  0  0
   15.3260   18.2260   26.9000 C   0  0  0  0  0
   14.8240   18.8610   27.8620 O   0  0  0  0  0
   17.8510   18.3120   26.8130 C   0  0  0  0  0
   17.9330   16.8450   26.7580 C   0  0  0  0  0
   18.4190   16.3050   25.0850 S   0  0  0  0  0
   19.6110   17.2870   24.8340 C   0  0  0  0  0
   14.8140   17.0870   26.4450 N   0  0  0  0  0
   13.6470   16.4830   27.0670 C   0  0  0  0  0
   14.1060   15.2720   27.8250 C   0  0  0  0  0
   15.0100   14.5670   27.3590 O   0  0  0  0  0
   12.5650   16.1340   26.0240 C   0  0  0  0  0
   11.4030   15.3210   26.6300 C   0  0  0  0  0
   12.0480   17.4180   25.3970 C   0  0  0  0  0
   13.5140   15.0710   29.0010 N   0  0  0  0  0
   13.7570   13.9190   29.8460 C   0  0  0  0  0
   12.4620   13.2030   30.2190 C   0  0  0  0  0
   11.6550   13.7180   31.0000 O   0  0  0  0  0
   14.5250   14.3210   31.1170 C   0  0  0  0  0
   14.9850   13.0940   31.9340 C   0  0  0  0  0
   14.1670   12.2550   32.3410 O   0  0  0  0  0
   16.3020   12.9740   32.1440 N   0  0  0  0  0
   12.2590   12.0060   29.6730 N   0  0  0  0  0
   10.9890   11.2910   29.8660 C   0  0  0  0  0
   11.0220   10.3840   31.0800 C   0  0  0  0  0
    9.9800    9.9110   31.5590 O   0  0  0  0  0
   10.6350   10.4820   28.6410 C   0  0  0  0  0
   10.1680   11.3430   27.5100 C   0  0  0  0  0
    9.8320   10.5690   26.2670 C   0  0  0  0  0
    9.1550   11.4880   25.3490 N   0  0  0  0  0
    9.7380   12.3310   24.5210 C   0  0  0  0  0
   11.0900   12.4450   24.4100 N   0  0  0  0  0
    8.9630   13.0980   23.8000 N   0  0  0  0  0
   12.2270   10.1710   31.5880 N   0  0  0  0  0
   12.3760    9.3310   32.7610 C   0  0  0  0  0
   11.4960    9.8680   33.8980 C   0  0  0  0  0
   11.0460    9.1020   34.7300 O   0  0  0  0  0
   13.8530    9.1940   33.1360 C   0  0  0  0  0
   14.1330    8.4050   34.4090 C   0  0  0  0  0
   15.4220    7.6180   34.3110 C   0  0  0  0  0
   15.9570    7.2150   35.3700 O   0  0  0  0  0
   15.9110    7.3890   33.1770 O   0  0  0  0  0
   11.1670   11.1660   33.8650 N   0  0  0  0  0
   10.3980   11.8150   34.9500 C   0  0  0  0  0
    8.9220   12.2460   34.7100 C   0  0  0  0  0
    8.3260   12.9660   35.5400 O   0  0  0  0  0
   11.2070   13.0000   35.4950 C   0  0  0  0  0
   10.8680   14.3150   34.8070 C   0  0  0  0  0
   11.0380   14.4770   33.5980 O   0  0  0  0  0
   10.3800   15.2580   35.5880 N   0  0  0  0  0
    8.3270   11.7770   33.6180 N   0  0  0  0  0
    6.9860   12.1830   33.2080 C   0  0  0  0  0
    5.8850   12.0840   34.2660 C   0  0  0  0  0
    5.7800   11.0730   34.9550 O   0  0  0  0  0
    6.5620   11.3800   31.9920 C   0  0  0  0  0
    7.2380   11.8400   30.7550 C   0  0  0  0  0
    6.8010   11.0570   29.5660 C   0  0  0  0  0
    5.2920   11.0490   29.3320 C   0  0  0  0  0
    5.1660   10.3140   28.0690 N   0  3  0  0  0
    5.0394   13.0958   34.4398 O   0  0  0  0  0
   15.9962   24.2416   19.8941 H   0  0  0  0  0
   16.6155   24.7344   21.3605 H   0  0  0  0  0
   17.2225   23.3734   20.6147 H   0  0  0  0  0
   14.4796   23.6808   21.6856 H   0  0  0  0  0
   15.8916   21.2574   20.5749 H   0  0  0  0  0
   15.3074   22.8503   18.9050 H   0  0  0  0  0
   12.9936   21.9051   21.2376 H   0  0  0  0  0
   13.5507   20.3856   20.4947 H   0  0  0  0  0
   14.0562   20.8052   22.1499 H   0  0  0  0  0
   16.5848   22.6671   25.5266 H   0  0  0  0  0
   14.8441   23.1456   27.1047 H   0  0  0  0  0
   13.7813   21.9798   26.4047 H   0  0  0  0  0
   12.7962   23.9969   25.7584 H   0  0  0  0  0
   14.3234   24.7858   25.5218 H   0  0  0  0  0
   13.0181   22.6903   23.6956 H   0  0  0  0  0
   13.6537   24.1587   23.2322 H   0  0  0  0  0
   17.2195   20.7720   26.5049 H   0  0  0  0  0
   16.5039   18.3618   25.1337 H   0  0  0  0  0
   17.8599   18.6389   27.8528 H   0  0  0  0  0
   18.7047   18.7447   26.2913 H   0  0  0  0  0
   16.9574   16.4234   27.0001 H   0  0  0  0  0
   18.6789   16.5018   27.4749 H   0  0  0  0  0
   19.2507   18.3144   24.8857 H   0  0  0  0  0
   20.3757   17.1301   25.5947 H   0  0  0  0  0
   20.0341   17.0982   23.8474 H   0  0  0  0  0
   15.2481   16.6279   25.6442 H   0  0  0  0  0
   13.1806   17.1904   27.7526 H   0  0  0  0  0
   13.0207   15.5021   25.2617 H   0  0  0  0  0
   11.7892   14.3877   27.0398 H   0  0  0  0  0
   10.9312   15.9002   27.4238 H   0  0  0  0  0
   10.6702   15.1025   25.8532 H   0  0  0  0  0
   11.6198   18.0529   26.1727 H   0  0  0  0  0
   12.8718   17.9410   24.9113 H   0  0  0  0  0
   11.2828   17.1779   24.6588 H   0  0  0  0  0
   12.8482   15.7715   29.3272 H   0  0  0  0  0
   14.3685   13.2248   29.2695 H   0  0  0  0  0
   13.8580   14.9141   31.7427 H   0  0  0  0  0
   15.4114   14.8788   30.8151 H   0  0  0  0  0
   16.6657   12.1700   32.6555 H   0  0  0  0  0
   16.9415   13.6866   31.7925 H   0  0  0  0  0
   12.9959   11.5784   29.1122 H   0  0  0  0  0
   10.2252   12.0507   30.0320 H   0  0  0  0  0
    9.8253    9.8021   28.9061 H   0  0  0  0  0
   11.5294    9.9507   28.3156 H   0  0  0  0  0
   10.9802   12.0261   27.2612 H   0  0  0  0  0
    9.2594   11.8488   27.8367 H   0  0  0  0  0
    9.1871    9.7234   26.5059 H   0  0  0  0  0
   10.7369   10.1692   25.8094 H   0  0  0  0  0
    8.1351   11.4740   25.3509 H   0  0  0  0  0
   11.4933   13.1262   23.7668 H   0  0  0  0  0
   11.6997   11.8492   24.9700 H   0  0  0  0  0
    7.9495   13.0291   23.8916 H   0  0  0  0  0
   13.0471   10.5963   31.1556 H   0  0  0  0  0
   12.0278    8.3204   32.5477 H   0  0  0  0  0
   14.2258   10.2039   33.3071 H   0  0  0  0  0
   14.3321    8.6510   32.3213 H   0  0  0  0  0
   13.3139    7.7027   34.5637 H   0  0  0  0  0
   14.2240    9.1097   35.2356 H   0  0  0  0  0
   15.3513    7.7818   32.5032 H   0  0  0  0  0
   11.4567   11.7268   33.0638 H   0  0  0  0  0
   10.2666   10.9995   35.6612 H   0  0  0  0  0
   12.2622   12.7931   35.3163 H   0  0  0  0  0
   10.9691   13.1069   36.5533 H   0  0  0  0  0
   10.1268   16.1648   35.1956 H   0  0  0  0  0
   10.2556   15.0809   36.5848 H   0  0  0  0  0
    8.8299   11.1032   33.0405 H   0  0  0  0  0
    7.0842   13.2483   32.9990 H   0  0  0  0  0
    5.4876   11.5068   31.8591 H   0  0  0  0  0
    6.8350   10.3383   32.1609 H   0  0  0  0  0
    8.3124   11.7049   30.8797 H   0  0  0  0  0
    6.9804   12.8864   30.5912 H   0  0  0  0  0
    7.1027   10.0235   29.7364 H   0  0  0  0  0
    7.2566   11.5231   28.6923 H   0  0  0  0  0
    4.8633   12.0501   29.2862 H   0  0  0  0  0
    4.7372   10.5884   30.1494 H   0  0  0  0  0
    4.1810   10.2475   27.8125 H   0  0  0  0  0
    5.6766   10.8080   27.3371 H   0  0  0  0  0
    5.5531    9.3771   28.1821 H   0  0  0  0  0
    5.2572   13.8022   33.8273 H   0  0  0  0  0
  2  1  1  0  0  0
  2  5  1  0  0  0
  3  2  1  0  0  0
  3  4  2  0  0  0
  5  7  1  0  0  0
  5  6  1  0  0  0
 10  9  1  0  0  0
  9 12  1  0  0  0
  9  8  1  0  0  0
  8 14  1  0  0  0
 14 13  1  0  0  0
 12 13  1  0  0  0
 10 11  2  0  0  0
  8  3  1  0  0  0
 16 15  1  0  0  0
 16 19  1  0  0  0
 17 16  1  0  0  0
 17 18  2  0  0  0
 19 20  1  0  0  0
 20 21  1  0  0  0
 21 22  1  0  0  0
 15 10  1  0  0  0
 24 23  1  0  0  0
 24 27  1  0  0  0
 25 24  1  0  0  0
 25 26  2  0  0  0
 27 29  1  0  0  0
 27 28  1  0  0  0
 23 17  1  0  0  0
 31 30  1  0  0  0
 31 34  1  0  0  0
 32 31  1  0  0  0
 32 33  2  0  0  0
 34 35  1  0  0  0
 35 37  1  0  0  0
 35 36  2  0  0  0
 30 25  1  0  0  0
 39 38  1  0  0  0
 39 42  1  0  0  0
 40 39  1  0  0  0
 40 41  2  0  0  0
 42 43  1  0  0  0
 43 44  1  0  0  0
 44 45  1  0  0  0
 45 46  1  0  0  0
 46 48  2  0  0  0
 46 47  1  0  0  0
 38 32  1  0  0  0
 50 49  1  0  0  0
 50 53  1  0  0  0
 51 50  1  0  0  0
 51 52  2  0  0  0
 53 54  1  0  0  0
 54 55  1  0  0  0
 55 57  1  0  0  0
 55 56  2  0  0  0
 49 40  1  0  0  0
 59 58  1  0  0  0
 59 62  1  0  0  0
 60 59  1  0  0  0
 60 61  2  0  0  0
 62 63  1  0  0  0
 63 65  1  0  0  0
 63 64  2  0  0  0
 58 51  1  0  0  0
 66 67  1  0  0  0
 67 70  1  0  0  0
 67 68  1  0  0  0
 68 69  2  0  0  0
 70 71  1  0  0  0
 71 72  1  0  0  0
 72 73  1  0  0  0
 73 74  1  0  0  0
 60 66  1  0  0  0
 68 75  1  0  0  0
  1 76  1  0  0  0
  1 77  1  0  0  0
  1 78  1  0  0  0
  2 79  1  0  0  0
  5 80  1  0  0  0
  6 81  1  0  0  0
  7 82  1  0  0  0
  7 83  1  0  0  0
  7 84  1  0  0  0
  9 85  1  0  0  0
 12 86  1  0  0  0
 12 87  1  0  0  0
 13 88  1  0  0  0
 13 89  1  0  0  0
 14 90  1  0  0  0
 14 91  1  0  0  0
 15 92  1  0  0  0
 16 93  1  0  0  0
 19 94  1  0  0  0
 19 95  1  0  0  0
 20 96  1  0  0  0
 20 97  1  0  0  0
 22 98  1  0  0  0
 22 99  1  0  0  0
 22100  1  0  0  0
 23101  1  0  0  0
 24102  1  0  0  0
 27103  1  0  0  0
 28104  1  0  0  0
 28105  1  0  0  0
 28106  1  0  0  0
 29107  1  0  0  0
 29108  1  0  0  0
 29109  1  0  0  0
 30110  1  0  0  0
 31111  1  0  0  0
 34112  1  0  0  0
 34113  1  0  0  0
 37114  1  0  0  0
 37115  1  0  0  0
 38116  1  0  0  0
 39117  1  0  0  0
 42118  1  0  0  0
 42119  1  0  0  0
 43120  1  0  0  0
 43121  1  0  0  0
 44122  1  0  0  0
 44123  1  0  0  0
 45124  1  0  0  0
 47125  1  0  0  0
 47126  1  0  0  0
 48127  1  0  0  0
 49128  1  0  0  0
 50129  1  0  0  0
 53130  1  0  0  0
 53131  1  0  0  0
 54132  1  0  0  0
 54133  1  0  0  0
 57134  1  0  0  0
 58135  1  0  0  0
 59136  1  0  0  0
 62137  1  0  0  0
 62138  1  0  0  0
 65139  1  0  0  0
 65140  1  0  0  0
 66141  1  0  0  0
 67142  1  0  0  0
 70143  1  0  0  0
 70144  1  0  0  0
 71145  1  0  0  0
 71146  1  0  0  0
 72147  1  0  0  0
 72148  1  0  0  0
 73149  1  0  0  0
 73150  1  0  0  0
 74151  1  0  0  0
 74152  1  0  0  0
 74153  1  0  0  0
 75154  1  0  0  0
M  END
$$$$
