6gwr_ligand
  -I-interpret- 

 74 78  0  0  0  0  0  0  0  0999 V2000
   -3.3190   21.4150   -1.3930 C   0  0  0  0  0
   -7.6690   22.7100   -2.3920 C   0  0  0  0  0
   -6.8370   23.4110   -0.3130 C   0  0  0  0  0
   -5.3750   23.0630   -0.7870 C   0  0  0  0  0
   -2.0490   21.8460   -0.9880 C   0  0  0  0  0
    0.0600   21.5520    0.3990 C   0  0  0  0  0
   -1.8060   19.9470    0.4530 C   0  0  0  0  0
   -6.8940   12.5800    4.2560 C   0  0  0  0  0
   -5.5200   12.5050    3.5170 C   0  0  0  0  0
   -5.5590   11.5250    2.3110 C   0  0  0  0  0
   -4.9880   13.9230    3.0630 C   0  0  0  0  0
   -5.3790   14.4650    1.8800 C   0  0  0  0  0
   -4.8920   15.6990    1.4990 C   0  0  0  0  0
   -4.0060   16.3870    2.3530 C   0  0  0  0  0
   -3.4140   17.7670    1.9530 C   0  0  0  0  0
   -3.1010   19.5070    0.0560 C   0  0  0  0  0
   -3.8260   20.2280   -0.8780 C   0  0  0  0  0
   -4.1200   22.2510   -2.4440 C   0  0  0  0  0
   -6.3280   21.9010   -2.4700 C   0  0  0  0  0
   -8.9640   23.2920   -0.7660 C   0  0  0  0  0
   -1.2970   21.0930   -0.0490 C   0  0  0  0  0
   -3.6160   15.8510    3.5060 C   0  0  0  0  0
   -4.1030   14.6070    3.8820 C   0  0  0  0  0
   -3.6390   14.0360    5.1990 C   0  0  0  0  0
   -3.2260   13.5880    6.3100 C   0  0  0  0  0
   -2.6870   13.0320    7.6430 C   0  0  0  0  0
   -1.4070   12.4250    7.8410 C   0  0  0  0  0
   -2.5300   12.4810    9.7230 C   0  0  0  0  0
   -2.9260   12.3530   11.0090 C   0  0  0  0  0
   -4.9980   13.3910   10.5050 C   0  0  0  0  0
   -4.6100   13.5190    9.2220 C   0  0  0  0  0
    0.8800   20.4300    0.5360 F   0  0  0  0  0
   -0.0180   22.1870    1.5910 F   0  0  0  0  0
    0.6150   22.4220   -0.5580 F   0  0  0  0  0
   -3.6430   18.2360    0.5880 N   0  0  0  0  0
   -5.2890   22.6950   -2.0780 N   0  3  0  0  0
   -7.8120   23.4810   -1.2840 N   0  3  0  0  0
   -1.3400   12.0990    9.1080 N   0  0  0  0  0
   -4.1990   12.8260   11.3970 N   0  0  0  0  0
   -3.3270   13.0400    8.8410 N   0  0  0  0  0
   -2.7750   18.3640    2.7250 O   0  0  0  0  0
   -8.4766   21.9782   -2.3718 H   0  0  0  0  0
   -7.6788   23.3850   -3.2478 H   0  0  0  0  0
   -6.7784   24.4092    0.1210 H   0  0  0  0  0
   -7.1355   22.5982    0.3490 H   0  0  0  0  0
   -5.0341   22.2188   -0.1877 H   0  0  0  0  0
   -4.7743   23.9647   -0.6681 H   0  0  0  0  0
   -1.6350   22.7674   -1.3975 H   0  0  0  0  0
   -1.2249   19.3583    1.1628 H   0  0  0  0  0
   -7.6602   12.9247    3.5616 H   0  0  0  0  0
   -7.1588   11.5908    4.6294 H   0  0  0  0  0
   -6.8185   13.2767    5.0909 H   0  0  0  0  0
   -4.8140   12.1144    4.2498 H   0  0  0  0  0
   -5.8104   10.5252    2.6649 H   0  0  0  0  0
   -6.3119   11.8591    1.5972 H   0  0  0  0  0
   -4.5819   11.5059    1.8283 H   0  0  0  0  0
   -6.0741   13.9277    1.2348 H   0  0  0  0  0
   -5.1897   16.1376    0.5466 H   0  0  0  0  0
   -4.7978   19.8631   -1.2104 H   0  0  0  0  0
   -4.3054   21.5783   -3.2814 H   0  0  0  0  0
   -3.5150   23.1350   -2.6454 H   0  0  0  0  0
   -6.1639   21.5710   -3.4958 H   0  0  0  0  0
   -6.3895   21.0347   -1.8114 H   0  0  0  0  0
   -8.9940   22.3074   -0.2994 H   0  0  0  0  0
   -9.1528   24.0579   -0.0138 H   0  0  0  0  0
   -9.7249   23.3500   -1.5443 H   0  0  0  0  0
   -2.9186   16.3851    4.1513 H   0  0  0  0  0
   -0.6378   12.2650    7.0854 H   0  0  0  0  0
   -2.2670   11.8877   11.7420 H   0  0  0  0  0
   -5.9783   13.7556   10.8120 H   0  0  0  0  0
   -5.2689   13.9823    8.4876 H   0  0  0  0  0
   -4.2074   17.6557   -0.0325 H   0  0  0  0  0
   -5.3857   23.5643   -2.6028 H   0  0  0  0  0
   -7.7021   24.4278   -1.6471 H   0  0  0  0  0
  1  5  4  0  0  0
 17  1  4  0  0  0
  1 18  1  0  0  0
 19  2  1  0  0  0
  2 37  1  0  0  0
  4  3  1  0  0  0
  3 37  1  0  0  0
 36  4  1  0  0  0
 21  5  4  0  0  0
 21  6  1  0  0  0
  6 32  1  0  0  0
  6 33  1  0  0  0
  6 34  1  0  0  0
 16  7  4  0  0  0
  7 21  4  0  0  0
  9  8  1  0  0  0
  9 10  1  0  0  0
 11  9  1  0  0  0
 11 12  4  0  0  0
 23 11  4  0  0  0
 12 13  4  0  0  0
 14 13  4  0  0  0
 14 15  1  0  0  0
 22 14  4  0  0  0
 15 35  1  0  0  0
 15 41  2  0  0  0
 16 17  4  0  0  0
 35 16  1  0  0  0
 18 36  1  0  0  0
 36 19  1  0  0  0
 37 20  1  0  0  0
 23 22  4  0  0  0
 24 23  1  0  0  0
 25 24  3  0  0  0
 26 25  1  0  0  0
 26 27  4  0  0  0
 40 26  4  0  0  0
 38 27  4  0  0  0
 29 28  4  0  0  0
 28 38  4  0  0  0
 28 40  4  0  0  0
 39 29  4  0  0  0
 30 31  4  0  0  0
 30 39  4  0  0  0
 31 40  4  0  0  0
  2 42  1  0  0  0
  2 43  1  0  0  0
  3 44  1  0  0  0
  3 45  1  0  0  0
  4 46  1  0  0  0
  4 47  1  0  0  0
  5 48  1  0  0  0
  7 49  1  0  0  0
  8 50  1  0  0  0
  8 51  1  0  0  0
  8 52  1  0  0  0
  9 53  1  0  0  0
 10 54  1  0  0  0
 10 55  1  0  0  0
 10 56  1  0  0  0
 12 57  1  0  0  0
 13 58  1  0  0  0
 17 59  1  0  0  0
 18 60  1  0  0  0
 18 61  1  0  0  0
 19 62  1  0  0  0
 19 63  1  0  0  0
 20 64  1  0  0  0
 20 65  1  0  0  0
 20 66  1  0  0  0
 22 67  1  0  0  0
 27 68  1  0  0  0
 29 69  1  0  0  0
 30 70  1  0  0  0
 31 71  1  0  0  0
 35 72  1  0  0  0
 36 73  1  0  0  0
 37 74  1  0  0  0
M  END
$$$$
