4btl_ligand
  -I-interpret- 

 51 52  0  0  0  0  0  0  0  0999 V2000
   32.5090   24.1390   10.4940 Cl  0  0  0  0  0
   27.6230   18.9600   11.7650 O   0  0  0  0  0
   29.0210   18.8920   12.0200 S   0  0  0  0  0
   29.7950   19.9150   10.8990 C   0  0  0  0  0
   31.1690   19.9960   10.7220 C   0  0  0  0  0
   31.7980   20.8300    9.8280 C   0  0  0  0  0
   29.0680   20.7930   10.1010 C   0  0  0  0  0
   29.6580   21.6690    9.1800 C   0  0  0  0  0
   31.0500   21.6870    9.0470 C   0  0  0  0  0
   31.6560   22.5160    8.1580 O   0  0  0  0  0
   32.9970   22.8220    8.2350 C   0  0  0  0  0
   33.8910   22.4360    7.2430 C   0  0  0  0  0
   33.4870   21.5470    6.1480 N   0  0  0  0  0
   34.1560   21.5860    5.1280 O   0  0  0  0  0
   32.5380   20.7950    6.3200 O   0  0  0  0  0
   35.2420   22.7900    7.2880 C   0  0  0  0  0
   35.7170   23.5610    8.3410 C   0  0  0  0  0
   34.8480   23.9760    9.3410 C   0  0  0  0  0
   33.5130   23.6140    9.2690 C   0  0  0  0  0
   29.2340   19.5020   13.5480 N   0  0  0  0  0
   28.5180   20.7410   14.0000 C   0  0  0  0  0
   27.1060   20.5910   14.6690 C   0  0  0  0  0
   26.3510   19.3280   14.2170 N   0  3  0  0  0
   26.1760   18.4170   15.4010 C   0  0  0  0  0
   27.3040   17.4330   15.6260 C   0  0  0  0  0
   24.9900   19.7340   13.7320 C   0  0  0  0  0
   25.0380   20.6600   12.5260 C   0  0  0  0  0
   29.6280   17.6160   11.9700 O   0  0  0  0  0
   31.7960   19.3507   11.3373 H   0  0  0  0  0
   32.8840   20.8142    9.7365 H   0  0  0  0  0
   27.9823   20.7997   10.1974 H   0  0  0  0  0
   29.0383   22.3295    8.5735 H   0  0  0  0  0
   35.9202   22.4624    6.5000 H   0  0  0  0  0
   36.7700   23.8397    8.3822 H   0  0  0  0  0
   35.2119   24.5794   10.1727 H   0  0  0  0  0
   29.8642   19.0254   14.1931 H   0  0  0  0  0
   28.3419   21.3152   13.0904 H   0  0  0  0  0
   29.1546   21.1709   14.7733 H   0  0  0  0  0
   26.5089   21.4548   14.3767 H   0  0  0  0  0
   27.2572   20.5174   15.7459 H   0  0  0  0  0
   26.8707   18.8546   13.4779 H   0  0  0  0  0
   25.2782   17.8279   15.2138 H   0  0  0  0  0
   26.1347   19.0545   16.2842 H   0  0  0  0  0
   27.4046   16.7913   14.7507 H   0  0  0  0  0
   28.2338   17.9787   15.7869 H   0  0  0  0  0
   27.0830   16.8230   16.5019 H   0  0  0  0  0
   24.4961   20.2705   14.5421 H   0  0  0  0  0
   24.4610   18.8288   13.4337 H   0  0  0  0  0
   25.5803   21.5684   12.7884 H   0  0  0  0  0
   25.5459   20.1569   11.7032 H   0  0  0  0  0
   24.0220   20.9159   12.2253 H   0  0  0  0  0
 19  1  1  0  0  0
  3  2  2  0  0  0
  4  3  1  0  0  0
  3 20  1  0  0  0
  3 28  2  0  0  0
  5  4  4  0  0  0
  7  4  4  0  0  0
  6  5  4  0  0  0
  9  6  4  0  0  0
  8  7  4  0  0  0
  9  8  4  0  0  0
 10  9  1  0  0  0
 11 10  1  0  0  0
 11 12  4  0  0  0
 11 19  4  0  0  0
 12 13  1  0  0  0
 12 16  4  0  0  0
 13 14  2  0  0  0
 13 15  2  0  0  0
 16 17  4  0  0  0
 17 18  4  0  0  0
 18 19  4  0  0  0
 20 21  1  0  0  0
 21 22  1  0  0  0
 22 23  1  0  0  0
 23 24  1  0  0  0
 23 26  1  0  0  0
 24 25  1  0  0  0
 26 27  1  0  0  0
  5 29  1  0  0  0
  6 30  1  0  0  0
  7 31  1  0  0  0
  8 32  1  0  0  0
 16 33  1  0  0  0
 17 34  1  0  0  0
 18 35  1  0  0  0
 20 36  1  0  0  0
 21 37  1  0  0  0
 21 38  1  0  0  0
 22 39  1  0  0  0
 22 40  1  0  0  0
 23 41  1  0  0  0
 24 42  1  0  0  0
 24 43  1  0  0  0
 25 44  1  0  0  0
 25 45  1  0  0  0
 25 46  1  0  0  0
 26 47  1  0  0  0
 26 48  1  0  0  0
 27 49  1  0  0  0
 27 50  1  0  0  0
 27 51  1  0  0  0
M  END
$$$$
