4j1k_ligand
  -I-interpret- 

 45 47  0  0  0  0  0  0  0  0999 V2000
  -15.9580  -41.5740   -9.2490 C   0  0  0  0  0
  -16.1220  -40.2010   -9.8920 C   0  0  0  0  0
  -15.0300  -41.4230   -8.1630 O   0  0  0  0  0
  -15.0100  -40.3360   -7.4330 C   0  0  0  0  0
  -15.7230  -39.2590   -7.6490 N   0  0  0  0  0
  -16.6000  -39.2070   -8.8240 C   0  0  0  0  0
  -18.0130  -39.5880   -8.4830 C   0  0  0  0  0
  -18.3140  -40.1260   -7.2660 C   0  0  0  0  0
  -19.6560  -40.4620   -6.9760 C   0  0  0  0  0
  -20.7010  -40.3530   -7.9150 C   0  0  0  0  0
  -20.3870  -39.8100   -9.1520 C   0  0  0  0  0
  -19.0580  -39.4070   -9.3980 C   0  0  0  0  0
  -18.7790  -38.9220  -10.6080 F   0  0  0  0  0
  -14.1660  -40.4830   -6.3800 N   0  0  0  0  0
  -16.4830  -37.8220   -9.4630 C   0  0  0  0  0
  -19.8850  -41.0220   -5.7260 N   0  0  0  0  0
  -21.0230  -41.5310   -5.2280 C   0  0  0  0  0
  -20.9120  -42.1750   -3.9150 C   0  0  0  0  0
  -22.0650  -41.5380   -5.8580 O   0  0  0  0  0
  -19.8220  -41.9380   -3.1650 N   0  0  0  0  0
  -19.6010  -42.4810   -1.9880 C   0  0  0  0  0
  -20.5070  -43.4290   -1.5220 C   0  0  0  0  0
  -21.6610  -43.7540   -2.3080 C   0  0  0  0  0
  -21.8910  -43.1200   -3.5370 C   0  0  0  0  0
  -20.2890  -44.0520   -0.2370 C   0  0  0  0  0
  -20.1070  -44.5440    0.7890 N   0  0  0  0  0
  -15.2750  -42.5070  -10.2730 C   0  0  0  0  0
  -14.0010  -42.1130  -10.6220 F   0  0  0  0  0
  -15.2990  -43.7950   -9.7630 F   0  0  0  0  0
  -15.9510  -42.4870  -11.4370 F   0  0  0  0  0
  -14.8660  -39.8220  -10.3640 F   0  0  0  0  0
  -16.9215  -41.9684   -8.9262 H   0  0  0  0  0
  -16.8488  -40.2207  -10.7040 H   0  0  0  0  0
  -15.6693  -38.4668   -7.0088 H   0  0  0  0  0
  -17.5303  -40.2944   -6.5274 H   0  0  0  0  0
  -21.7132  -40.6815   -7.6792 H   0  0  0  0  0
  -21.1527  -39.6969   -9.9194 H   0  0  0  0  0
  -14.0604  -39.7285   -5.7018 H   0  0  0  0  0
  -17.0614  -37.7994  -10.3866 H   0  0  0  0  0
  -16.8683  -37.0712   -8.7731 H   0  0  0  0  0
  -15.4363  -37.6120   -9.6830 H   0  0  0  0  0
  -19.0791  -41.0504   -5.1014 H   0  0  0  0  0
  -18.7325  -42.1966   -1.3939 H   0  0  0  0  0
  -22.3668  -44.5017   -1.9463 H   0  0  0  0  0
  -22.7613  -43.3402   -4.1552 H   0  0  0  0  0
  1  2  1  0  0  0
  1  3  1  0  0  0
  1 27  1  0  0  0
  2  6  1  0  0  0
  2 31  1  0  0  0
  3  4  1  0  0  0
  4  5  1  0  0  0
  4 14  2  0  0  0
  5  6  1  0  0  0
  6  7  1  0  0  0
  6 15  1  0  0  0
  7  8  4  0  0  0
  7 12  4  0  0  0
  8  9  4  0  0  0
  9 10  4  0  0  0
  9 16  1  0  0  0
 10 11  4  0  0  0
 11 12  4  0  0  0
 12 13  1  0  0  0
 16 17  1  0  0  0
 17 18  1  0  0  0
 17 19  2  0  0  0
 18 20  4  0  0  0
 18 24  4  0  0  0
 20 21  4  0  0  0
 21 22  4  0  0  0
 22 23  4  0  0  0
 22 25  1  0  0  0
 23 24  4  0  0  0
 25 26  3  0  0  0
 27 28  1  0  0  0
 27 29  1  0  0  0
 27 30  1  0  0  0
  1 32  1  0  0  0
  2 33  1  0  0  0
  5 34  1  0  0  0
  8 35  1  0  0  0
 10 36  1  0  0  0
 11 37  1  0  0  0
 14 38  1  0  0  0
 15 39  1  0  0  0
 15 40  1  0  0  0
 15 41  1  0  0  0
 16 42  1  0  0  0
 21 43  1  0  0  0
 23 44  1  0  0  0
 24 45  1  0  0  0
M  END
$$$$
