### 
### Created by X-TOOL on Mon Sep 10 21:13:14 2018
### 

@<TRIPOS>MOLECULE
4jfv_ligand
   44    53     1     0     0
SMALL
GAST_HUCK


@<TRIPOS>ATOM
      1 OAP        28.9110    4.5060   53.5430 O.3       1 H57        -0.3834
      2 CAC        29.1890    3.9140   54.8120 C.3       1 H57         0.1282
      3 CAB        28.3140    4.6080   55.8680 C.3       1 H57         0.0040
      4 CAO        26.8330    4.6680   55.5410 C.3       1 H57        -0.0191
      5 NAA        28.9610    5.9330   55.9160 N.4       1 H57         0.2351
      6 CAE        30.4230    5.7630   55.8330 C.3       1 H57         0.0118
      7 CAD        30.5140    4.2550   55.5000 C.3       1 H57         0.1287
      8 OAQ        31.6790    3.8740   54.7740 O.3       1 H57        -0.3834
      9 CAF        31.2590    6.1980   57.0460 C.3       1 H57         0.0329
     10 CAG        30.8100    7.4450   57.8110 C.3       1 H57        -0.0268
     11 NAH        31.6910    7.8620   58.9810 N.4       1 H57         0.2406
     12 CAN        32.5130    9.0690   58.7370 C.3       1 H57         0.0020
     13 CAJ        33.0510    9.9030   59.8720 C.2       1 H57         0.0029
     14 CAK        33.1210    9.5800   61.2500 C.2       1 H57        -0.0614
     15 CAL        33.5510   10.7610   61.8910 C.2       1 H57        -0.0693
     16 CAM        33.8010   11.7600   60.9190 C.2       1 H57        -0.0370
     17 CAI        33.5190   11.2230   59.6450 C.3       1 H57         0.0489
     18 CBJ        36.1060    8.4350   60.2390 C.2       1 H57        -0.0183
     19 CBI        36.4110    8.9760   61.5020 C.2       1 H57        -0.0482
     20 CBM        36.9020   10.2820   61.3000 C.2       1 H57        -0.0482
     21 CBL        36.8800   10.5640   59.9200 C.2       1 H57        -0.0183
     22 CBK        36.3960    9.4110   59.2680 C.3       1 H57         0.0501
     23 FE         34.9910   10.1330   60.5770 Fe        1 H57         3.0000
     24 H1         29.4440    4.0886   52.8765 H         1 H57         0.2102
     25 H2         29.0329    2.8271   54.7463 H         1 H57         0.0678
     26 H3         28.4173    4.0970   56.8366 H         1 H57         0.0874
     27 H4         26.2984    5.1806   56.3543 H         1 H57         0.0285
     28 H5         26.4401    3.6465   55.4308 H         1 H57         0.0285
     29 H6         26.6871    5.2204   54.6010 H         1 H57         0.0285
     30 H7         28.7238    6.3927   56.7812 H         1 H57         0.2021
     31 H8         28.6422    6.4920   55.1401 H         1 H57         0.2021
     32 H9         30.7978    6.3477   54.9800 H         1 H57         0.0879
     33 H10        30.5534    3.7014   56.4497 H         1 H57         0.0678
     34 H11        31.6574    2.9383   54.6112 H         1 H57         0.2102
     35 H12        32.2831    6.3827   56.6896 H         1 H57         0.0373
     36 H13        31.2642    5.3600   57.7586 H         1 H57         0.0373
     37 H14        29.7994    7.2549   58.2014 H         1 H57         0.0816
     38 H15        30.7766    8.2830   57.0992 H         1 H57         0.0816
     39 H16        32.3119    7.0973   59.1947 H         1 H57         0.2029
     40 H17        31.0953    8.0428   59.7738 H         1 H57         0.2029
     41 H18        31.8984    9.7429   58.1220 H         1 H57         0.0998
     42 H19        33.3861    8.7367   58.1563 H         1 H57         0.0998
     43 H20        33.4068   11.7946   58.7119 H         1 H57         0.0810
     44 H21        36.4682    9.2208   58.1870 H         1 H57         0.0829
@<TRIPOS>BOND
     1    2    1 1  
     2    2    3 1  
     3    7    2 1  
     4    3    4 1  
     5    5    3 1  
     6    6    5 1  
     7    6    7 1  
     8    9    6 1  
     9    7    8 1  
    10   10    9 1  
    11   11   10 1  
    12   12   11 1  
    13   13   12 1  
    14   14   13 2  
    15   17   13 1  
    16   15   14 1  
    17   16   15 2  
    18   17   16 1  
    19   18   19 2  
    20   18   22 1  
    21   19   20 1  
    22   21   20 2  
    23   22   21 1  
    24   23   14 1  
    25   23   15 1  
    26   23   16 1  
    27   23   17 1  
    28   23   18 1  
    29   23   19 1  
    30   23   20 1  
    31   23   21 1  
    32   23   22 1  
    33    1   24 1  
    34    2   25 1  
    35    3   26 1  
    36    4   27 1  
    37    4   28 1  
    38    4   29 1  
    39    5   30 1  
    40    5   31 1  
    41    6   32 1  
    42    7   33 1  
    43    8   34 1  
    44    9   35 1  
    45    9   36 1  
    46   10   37 1  
    47   10   38 1  
    48   11   39 1  
    49   11   40 1  
    50   12   41 1  
    51   12   42 1  
    52   17   43 1  
    53   22   44 1  
@<TRIPOS>SUBSTRUCTURE
     1 H57         1

