4jfv_ligand
  -I-interpret- 

 44 53  0  0  0  0  0  0  0  0999 V2000
   28.9110    4.5060   53.5430 O   0  0  0  0  0
   29.1890    3.9140   54.8120 C   0  0  0  0  0
   28.3140    4.6080   55.8680 C   0  0  0  0  0
   26.8330    4.6680   55.5410 C   0  0  0  0  0
   28.9610    5.9330   55.9160 N   0  3  0  0  0
   30.4230    5.7630   55.8330 C   0  0  0  0  0
   30.5140    4.2550   55.5000 C   0  0  0  0  0
   31.6790    3.8740   54.7740 O   0  0  0  0  0
   31.2590    6.1980   57.0460 C   0  0  0  0  0
   30.8100    7.4450   57.8110 C   0  0  0  0  0
   31.6910    7.8620   58.9810 N   0  3  0  0  0
   32.5130    9.0690   58.7370 C   0  0  0  0  0
   33.0510    9.9030   59.8720 C   0  0  0  0  0
   33.1210    9.5800   61.2500 C   0  0  0  0  0
   33.5510   10.7610   61.8910 C   0  0  0  0  0
   33.8010   11.7600   60.9190 C   0  0  0  0  0
   33.5190   11.2230   59.6450 C   0  0  0  0  0
   36.1060    8.4350   60.2390 C   0  0  0  0  0
   36.4110    8.9760   61.5020 C   0  0  0  0  0
   36.9020   10.2820   61.3000 C   0  0  0  0  0
   36.8800   10.5640   59.9200 C   0  0  0  0  0
   36.3960    9.4110   59.2680 C   0  0  0  0  0
   34.9910   10.1330   60.5770 Fe  0  0  0  0  0
   28.0537    4.2061   53.2322 H   0  0  0  0  0
   29.0906    2.8554   54.5715 H   0  0  0  0  0
   28.2789    4.0766   56.8190 H   0  0  0  0  0
   26.3180    5.2557   56.3009 H   0  0  0  0  0
   26.6963    5.1338   54.5651 H   0  0  0  0  0
   26.4250    3.6574   55.5230 H   0  0  0  0  0
   28.7201    6.3997   56.7904 H   0  0  0  0  0
   28.6376    6.5000   55.1322 H   0  0  0  0  0
   30.8744    6.4322   55.1005 H   0  0  0  0  0
   30.6436    3.6640   56.4067 H   0  0  0  0  0
   31.6572    2.9284   54.6095 H   0  0  0  0  0
   32.2448    6.4395   56.6486 H   0  0  0  0  0
   31.1862    5.3770   57.7592 H   0  0  0  0  0
   29.8321    7.2110   58.2317 H   0  0  0  0  0
   30.8375    8.2687   57.0977 H   0  0  0  0  0
   32.3376    7.0925   59.1548 H   0  0  0  0  0
   31.0682    8.0792   59.7590 H   0  0  0  0  0
   31.8329    9.7450   58.2188 H   0  0  0  0  0
   33.4094    8.6787   58.2550 H   0  0  0  0  0
   33.1916   11.8262   58.7982 H   0  0  0  0  0
   36.7050    9.1425   58.2578 H   0  0  0  0  0
  2  1  1  0  0  0
  2  3  1  0  0  0
  7  2  1  0  0  0
  3  4  1  0  0  0
  5  3  1  0  0  0
  6  5  1  0  0  0
  6  7  1  0  0  0
  9  6  1  0  0  0
  7  8  1  0  0  0
 10  9  1  0  0  0
 11 10  1  0  0  0
 12 11  1  0  0  0
 13 12  1  0  0  0
 14 13  2  0  0  0
 17 13  1  0  0  0
 15 14  1  0  0  0
 16 15  2  0  0  0
 17 16  1  0  0  0
 18 19  2  0  0  0
 18 22  1  0  0  0
 19 20  1  0  0  0
 21 20  2  0  0  0
 22 21  1  0  0  0
 23 14  1  0  0  0
 23 15  1  0  0  0
 23 16  1  0  0  0
 23 17  1  0  0  0
 23 18  1  0  0  0
 23 19  1  0  0  0
 23 20  1  0  0  0
 23 21  1  0  0  0
 23 22  1  0  0  0
  1 24  1  0  0  0
  2 25  1  0  0  0
  3 26  1  0  0  0
  4 27  1  0  0  0
  4 28  1  0  0  0
  4 29  1  0  0  0
  5 30  1  0  0  0
  5 31  1  0  0  0
  6 32  1  0  0  0
  7 33  1  0  0  0
  8 34  1  0  0  0
  9 35  1  0  0  0
  9 36  1  0  0  0
 10 37  1  0  0  0
 10 38  1  0  0  0
 11 39  1  0  0  0
 11 40  1  0  0  0
 12 41  1  0  0  0
 12 42  1  0  0  0
 17 43  1  0  0  0
 22 44  1  0  0  0
M  END
$$$$
