2toh_ligand
  -I-interpret- 

 30 31  0  0  0  0  0  0  0  0999 V2000
   72.5310   59.7590   32.9450 N   0  0  0  0  0
   70.4320   60.6660   33.2640 N   0  0  0  0  0
   71.5640   60.2190   33.7620 C   0  0  0  0  0
   71.6400   60.2690   35.1280 N   0  0  0  0  0
   72.7970   59.8120   35.7790 C   0  0  0  0  0
   72.9090   59.8380   37.0320 O   0  0  0  0  0
   73.8450   59.2980   34.9840 C   0  0  0  0  0
   73.6640   59.3000   33.5570 C   0  0  0  0  0
   74.6400   58.8330   32.6740 N   0  0  0  0  0
   75.6620   57.9310   33.2530 C   0  0  0  0  0
   75.9840   58.1460   34.7270 C   0  0  0  0  0
   75.0360   58.7800   35.5140 N   0  0  0  0  0
   77.1620   57.4750   35.4060 C   0  0  0  0  0
   78.1810   57.2390   34.4180 O   0  0  0  0  0
   77.8030   58.2580   36.5870 C   0  0  0  0  0
   77.0820   59.4680   36.8660 O   0  0  0  0  0
   77.7880   57.4180   37.8630 C   0  0  0  0  0
   70.2832   60.6654   32.2549 H   0  0  0  0  0
   69.7027   61.0133   33.8868 H   0  0  0  0  0
   70.8588   60.6370   35.6709 H   0  0  0  0  0
   74.6485   59.0974   31.6889 H   0  0  0  0  0
   76.5853   58.1235   32.7066 H   0  0  0  0  0
   75.2606   56.9209   33.1713 H   0  0  0  0  0
   76.7607   56.5613   35.8443 H   0  0  0  0  0
   78.9351   56.8138   34.8329 H   0  0  0  0  0
   78.8250   58.4909   36.2882 H   0  0  0  0  0
   77.5009   59.9273   37.5975 H   0  0  0  0  0
   76.7584   57.1702   38.1213 H   0  0  0  0  0
   78.3537   56.5008   37.6993 H   0  0  0  0  0
   78.2412   57.9858   38.6756 H   0  0  0  0  0
  1  3  2  0  0  0
  1  8  1  0  0  0
  3  2  1  0  0  0
  3  4  1  0  0  0
  4  5  1  0  0  0
  5  6  2  0  0  0
  5  7  1  0  0  0
  7  8  2  0  0  0
  7 12  1  0  0  0
  8  9  1  0  0  0
  9 10  1  0  0  0
 10 11  1  0  0  0
 11 12  2  0  0  0
 11 13  1  0  0  0
 13 14  1  0  0  0
 13 15  1  0  0  0
 15 16  1  0  0  0
 15 17  1  0  0  0
  2 18  1  0  0  0
  2 19  1  0  0  0
  4 20  1  0  0  0
  9 21  1  0  0  0
 10 22  1  0  0  0
 10 23  1  0  0  0
 13 24  1  0  0  0
 14 25  1  0  0  0
 15 26  1  0  0  0
 16 27  1  0  0  0
 17 28  1  0  0  0
 17 29  1  0  0  0
 17 30  1  0  0  0
M  END
$$$$
