1ew8_ligand
  -I-interpret- 

 13 12  0  0  0  0  0  0  0  0999 V2000
   74.0080   39.2080   42.7000 P   0  0  0  0  0
   74.5960   40.5810   43.0350 O   0  0  0  0  0
   72.7710   39.0640   43.5800 O   0  0  0  0  0
   73.6850   39.1140   41.2760 O   0  0  0  0  0
   75.2080   37.9270   43.2380 C   0  0  0  0  0
   74.8340   37.7000   44.7350 C   0  0  0  0  0
   74.1090   38.6240   45.1830 O   0  0  0  0  0
   74.9690   36.5800   45.2080 O   0  0  0  0  0
   74.8001   40.6204   43.9722 H   0  0  0  0  0
   73.0266   39.1314   44.5029 H   0  0  0  0  0
   76.2443   38.2373   43.1045 H   0  0  0  0  0
   75.1455   37.0148   42.6446 H   0  0  0  0  0
   74.1908   39.3959   44.6181 H   0  0  0  0  0
  1  2  1  0  0  0
  1  3  1  0  0  0
  1  4  2  0  0  0
  1  5  1  0  0  0
  5  6  1  0  0  0
  6  7  1  0  0  0
  6  8  2  0  0  0
  2  9  1  0  0  0
  3 10  1  0  0  0
  5 11  1  0  0  0
  5 12  1  0  0  0
  7 13  1  0  0  0
M  END
$$$$
