4hgl_ligand
  -I-interpret- 

 44 48  0  0  0  0  0  0  0  0999 V2000
   36.7820  -15.1190   28.3330 C   0  0  0  0  0
   37.1110  -13.0370   29.2410 C   0  0  0  0  0
   37.5800  -12.5030   27.9730 C   0  0  0  0  0
   36.4720  -17.4800   27.5100 C   0  0  0  0  0
   35.9350  -18.7630   27.7280 C   0  0  0  0  0
   35.1930  -19.0000   29.0830 C   0  0  0  0  0
   34.6450  -20.2200   29.3340 C   0  0  0  0  0
   34.7490  -21.3670   28.3460 C   0  0  0  0  0
   35.4860  -21.1510   27.0590 C   0  0  0  0  0
   36.0810  -19.7990   26.7530 C   0  0  0  0  0
   38.1000  -13.0730   25.4250 C   0  0  0  0  0
   38.5610  -11.8900   24.9850 C   0  0  0  0  0
   38.5160  -13.4630   23.4580 C   0  0  0  0  0
   39.2930  -13.2200   21.0360 C   0  0  0  0  0
   38.6990  -14.1720   22.1290 C   0  0  0  0  0
   37.6200  -10.3410   28.8580 C   0  0  0  0  0
   38.8380  -12.1340   23.6810 C   0  0  0  0  0
   39.3220  -11.3200   22.6690 C   0  0  0  0  0
   39.5790  -10.1260   22.8500 O   0  0  0  0  0
   39.4900  -11.8730   21.4920 N   0  0  0  0  0
   38.0440  -14.0790   24.5320 N   0  0  0  0  0
   37.6240  -13.4180   26.8400 C   0  0  0  0  0
   37.1990  -14.7820   27.0450 N   0  0  0  0  0
   36.7320  -14.2280   29.4580 N   0  0  0  0  0
   36.3550  -16.4610   28.5310 C   0  0  0  0  0
   35.1390  -17.9680   30.0350 N   0  0  0  0  0
   35.6960  -16.7520   29.7840 C   0  0  0  0  0
   37.9540  -11.2280   27.9380 O   0  0  0  0  0
   37.0822  -12.3486   30.0856 H   0  0  0  0  0
   36.9767  -17.2538   26.5707 H   0  0  0  0  0
   34.1152  -20.3781   30.2734 H   0  0  0  0  0
   34.2950  -22.3326   28.5687 H   0  0  0  0  0
   35.5918  -21.9686   26.3460 H   0  0  0  0  0
   36.6070  -19.6170   25.8158 H   0  0  0  0  0
   38.6826  -10.9606   25.5413 H   0  0  0  0  0
   38.5810  -13.1849   20.2114 H   0  0  0  0  0
   40.2688  -13.6153   20.7538 H   0  0  0  0  0
   37.7227  -14.5165   21.7881 H   0  0  0  0  0
   39.3935  -14.9992   22.2757 H   0  0  0  0  0
   36.5341  -10.2578   28.9034 H   0  0  0  0  0
   38.0018  -10.6630   29.8268 H   0  0  0  0  0
   38.0494   -9.3729   28.6003 H   0  0  0  0  0
   39.8198  -11.2311   20.7712 H   0  0  0  0  0
   35.6438  -15.9767   30.5484 H   0  0  0  0  0
  1 23  4  0  0  0
 24  1  4  0  0  0
  1 25  1  0  0  0
  3  2  4  0  0  0
  2 24  4  0  0  0
 22  3  4  0  0  0
  3 28  1  0  0  0
  4  5  4  0  0  0
 25  4  4  0  0  0
  5  6  4  0  0  0
  5 10  4  0  0  0
  6  7  4  0  0  0
  6 26  4  0  0  0
  7  8  4  0  0  0
  9  8  4  0  0  0
 10  9  4  0  0  0
 12 11  4  0  0  0
 11 21  4  0  0  0
 11 22  1  0  0  0
 17 12  4  0  0  0
 13 15  1  0  0  0
 13 17  4  0  0  0
 13 21  4  0  0  0
 15 14  1  0  0  0
 14 20  1  0  0  0
 28 16  1  0  0  0
 17 18  1  0  0  0
 18 19  2  0  0  0
 18 20  1  0  0  0
 22 23  4  0  0  0
 25 27  4  0  0  0
 26 27  4  0  0  0
  2 29  1  0  0  0
  4 30  1  0  0  0
  7 31  1  0  0  0
  8 32  1  0  0  0
  9 33  1  0  0  0
 10 34  1  0  0  0
 12 35  1  0  0  0
 14 36  1  0  0  0
 14 37  1  0  0  0
 15 38  1  0  0  0
 15 39  1  0  0  0
 16 40  1  0  0  0
 16 41  1  0  0  0
 16 42  1  0  0  0
 20 43  1  0  0  0
 27 44  1  0  0  0
M  END
$$$$
