1yi3_ligand
  -I-interpret- 

 40 43  0  0  0  0  0  0  0  0999 V2000
  -18.4710   34.6380   -2.2930 N   0  0  0  0  0
  -18.6950   35.6450   -3.3450 C   0  0  0  0  0
  -17.4860   33.6420   -2.7550 C   0  0  0  0  0
  -18.3620   35.2400   -0.9500 C   0  0  0  0  0
  -19.2090   34.9420   -4.6080 C   0  0  0  0  0
  -18.2620   33.9630   -5.0290 O   0  0  0  0  0
  -18.0270   32.9740   -4.0290 C   0  0  0  0  0
  -19.5450   38.2140    2.9450 C   0  0  0  0  0
  -18.7110   37.0930    2.8240 C   0  0  0  0  0
  -20.2000   38.7310    1.8140 C   0  0  0  0  0
  -18.5580   36.4960    1.5620 C   0  0  0  0  0
  -19.2240   37.0140    0.4420 C   0  0  0  0  0
  -17.6820   35.3350    1.4010 C   0  0  0  0  0
  -20.0420   38.1380    0.5440 C   0  0  0  0  0
  -19.0870   36.3760   -0.7780 O   0  0  0  0  0
  -20.7120   38.7420   -0.6560 C   0  0  0  0  0
  -22.0450   39.2220   -0.5840 C   0  0  0  0  0
  -22.6590   39.7980   -1.7190 C   0  0  0  0  0
  -20.0040   38.8470   -1.8800 C   0  0  0  0  0
  -20.6130   39.4210   -3.0170 C   0  0  0  0  0
  -21.9410   39.8960   -2.9320 C   0  0  0  0  0
  -17.6430   34.7130    0.0630 C   0  0  0  0  0
  -16.9870   34.8340    2.2770 O   0  0  0  0  0
  -17.7601   36.1602   -3.5657 H   0  0  0  0  0
  -19.4304   36.3743   -3.0052 H   0  0  0  0  0
  -17.3256   32.8913   -1.9812 H   0  0  0  0  0
  -16.5348   34.1304   -2.9667 H   0  0  0  0  0
  -19.3471   35.6770   -5.4010 H   0  0  0  0  0
  -20.1601   34.4560   -4.3905 H   0  0  0  0  0
  -18.9623   32.4635   -3.7995 H   0  0  0  0  0
  -17.2957   32.2547   -4.3977 H   0  0  0  0  0
  -19.6855   38.6851    3.9178 H   0  0  0  0  0
  -18.1908   36.6922    3.6940 H   0  0  0  0  0
  -20.8415   39.6058    1.9202 H   0  0  0  0  0
  -22.5986   39.1461    0.3519 H   0  0  0  0  0
  -23.6834   40.1656   -1.6589 H   0  0  0  0  0
  -18.9793   38.4809   -1.9437 H   0  0  0  0  0
  -20.0622   39.4973   -3.9545 H   0  0  0  0  0
  -22.4144   40.3407   -3.8074 H   0  0  0  0  0
  -17.0323   33.8263   -0.1071 H   0  0  0  0  0
  1  2  1  0  0  0
  1  3  1  0  0  0
  4  1  1  0  0  0
  2  5  1  0  0  0
  3  7  1  0  0  0
 15  4  1  0  0  0
  4 22  2  0  0  0
  5  6  1  0  0  0
  7  6  1  0  0  0
  9  8  4  0  0  0
 10  8  4  0  0  0
 11  9  4  0  0  0
 14 10  4  0  0  0
 12 11  4  0  0  0
 11 13  1  0  0  0
 12 14  4  0  0  0
 12 15  1  0  0  0
 13 22  1  0  0  0
 13 23  2  0  0  0
 14 16  1  0  0  0
 16 17  4  0  0  0
 16 19  4  0  0  0
 17 18  4  0  0  0
 18 21  4  0  0  0
 19 20  4  0  0  0
 20 21  4  0  0  0
  2 24  1  0  0  0
  2 25  1  0  0  0
  3 26  1  0  0  0
  3 27  1  0  0  0
  5 28  1  0  0  0
  5 29  1  0  0  0
  7 30  1  0  0  0
  7 31  1  0  0  0
  8 32  1  0  0  0
  9 33  1  0  0  0
 10 34  1  0  0  0
 17 35  1  0  0  0
 18 36  1  0  0  0
 19 37  1  0  0  0
 20 38  1  0  0  0
 21 39  1  0  0  0
 22 40  1  0  0  0
M  END
$$$$
