1rql_ligand
  -I-interpret- 

 10  9  0  0  0  0  0  0  0  0999 V2000
   84.8300   -7.4100    8.2160 O   0  0  0  0  0
   85.7460   -6.3030    8.2720 S   0  0  0  0  0
   86.5700   -6.3720    6.7510 C   0  0  0  0  0
   87.5300   -5.4880    6.4420 C   0  0  0  0  0
   86.7950   -6.4560    9.2190 O   0  0  0  0  0
   85.0870   -5.0090    8.3100 O   0  0  0  0  0
   86.3040   -7.1471    6.0323 H   0  0  0  0  0
   87.8033   -4.7091    7.1539 H   0  0  0  0  0
   88.0370   -5.5484    5.4790 H   0  0  0  0  0
   85.7492   -4.3149    8.3465 H   0  0  0  0  0
  1  2  2  0  0  0
  2  3  1  0  0  0
  2  5  2  0  0  0
  2  6  1  0  0  0
  3  4  2  0  0  0
  3  7  1  0  0  0
  4  8  1  0  0  0
  4  9  1  0  0  0
  6 10  1  0  0  0
M  END
$$$$
