3msc_ligand
  -I-interpret- 

 44 45  0  0  0  0  0  0  0  0999 V2000
   33.7100   22.9610   27.8900 C   0  0  0  0  0
   34.0320   23.1690   26.4020 C   0  0  0  0  0
   34.2440   24.5650   26.1430 O   0  0  0  0  0
   32.9080   22.5740   25.5240 C   0  0  0  0  0
   33.2130   22.6300   24.1190 O   0  0  0  0  0
   32.6290   21.1200   25.9320 C   0  0  0  0  0
   31.4910   20.6370   25.2130 O   0  0  0  0  0
   32.4190   20.9830   27.4570 C   0  0  0  0  0
   33.5250   21.5590   28.1530 O   0  0  0  0  0
   32.2470   19.5420   27.9380 C   0  0  0  0  0
   33.2500   18.6960   27.3600 O   0  0  0  0  0
   34.8640   23.3790   28.6770 N   0  0  0  0  0
   34.7490   24.0220   29.8450 C   0  0  0  0  0
   35.8930   24.3300   30.4740 N   0  0  0  0  0
   33.2160   24.4450   30.4870 S   0  0  0  0  0
   35.8980   24.9380   31.5600 N   0  0  0  0  0
   36.9940   25.2090   32.1240 C   0  0  0  0  0
   37.0710   25.9160   33.4310 C   0  0  0  0  0
   36.0060   25.9480   34.3540 C   0  0  0  0  0
   36.1740   26.6110   35.5780 C   0  0  0  0  0
   37.3780   27.2410   35.8900 C   0  0  0  0  0
   38.4340   27.1970   34.9760 C   0  0  0  0  0
   38.2810   26.5360   33.7560 C   0  0  0  0  0
   34.7540   25.3350   34.1070 N   0  0  0  0  0
   34.6280   24.1240   34.2130 O   0  0  0  0  0
   33.7750   26.0010   33.7950 O   0  0  0  0  0
   32.8142   23.5284   28.1423 H   0  0  0  0  0
   34.9513   22.6424   26.1459 H   0  0  0  0  0
   34.9480   24.8909   26.7084 H   0  0  0  0  0
   32.0215   23.1858   25.6910 H   0  0  0  0  0
   33.3870   23.5397   23.8665 H   0  0  0  0  0
   33.4999   20.5156   25.6784 H   0  0  0  0  0
   31.6453   20.7325   24.2703 H   0  0  0  0  0
   31.4886   21.5084   27.6725 H   0  0  0  0  0
   31.2635   19.1828   27.6351 H   0  0  0  0  0
   32.3454   19.5170   29.0233 H   0  0  0  0  0
   33.1272   17.7966   27.6723 H   0  0  0  0  0
   35.7979   23.1727   28.3225 H   0  0  0  0  0
   37.4660   25.9072   31.4328 H   0  0  0  0  0
   37.4121   24.2269   32.3449 H   0  0  0  0  0
   35.3530   26.6342   36.2946 H   0  0  0  0  0
   37.4946   27.7637   36.8394 H   0  0  0  0  0
   39.3808   27.6806   35.2165 H   0  0  0  0  0
   39.1117   26.5031   33.0511 H   0  0  0  0  0
  1  2  1  0  0  0
  1  9  1  0  0  0
  1 12  1  0  0  0
  2  3  1  0  0  0
  2  4  1  0  0  0
  4  5  1  0  0  0
  4  6  1  0  0  0
  6  7  1  0  0  0
  6  8  1  0  0  0
  8  9  1  0  0  0
  8 10  1  0  0  0
 10 11  1  0  0  0
 12 13  1  0  0  0
 13 14  1  0  0  0
 13 15  2  0  0  0
 14 16  2  0  0  0
 16 17  1  0  0  0
 17 18  1  0  0  0
 18 19  4  0  0  0
 18 23  4  0  0  0
 19 20  4  0  0  0
 19 24  1  0  0  0
 20 21  4  0  0  0
 21 22  4  0  0  0
 22 23  4  0  0  0
 24 25  2  0  0  0
 24 26  2  0  0  0
  1 27  1  0  0  0
  2 28  1  0  0  0
  3 29  1  0  0  0
  4 30  1  0  0  0
  5 31  1  0  0  0
  6 32  1  0  0  0
  7 33  1  0  0  0
  8 34  1  0  0  0
 10 35  1  0  0  0
 10 36  1  0  0  0
 11 37  1  0  0  0
 12 38  1  0  0  0
 17 39  1  0  0  0
 17 40  1  0  0  0
 20 41  1  0  0  0
 21 42  1  0  0  0
 22 43  1  0  0  0
 23 44  1  0  0  0
M  END
$$$$
