4pl4_ligand
  -I-interpret- 

 40 42  0  0  0  0  0  0  0  0999 V2000
   88.1350  -11.7830   70.0880 C   0  0  0  0  0
   89.3450  -10.7380   66.7970 C   0  0  0  0  0
   90.0090   -9.3850   67.1160 C   0  0  0  0  0
   87.0980  -11.8670   72.3950 C   0  0  0  0  0
   88.5610  -10.0170   71.6730 C   0  0  0  0  0
   85.2690  -15.0580   73.3630 C   0  0  0  0  0
   85.8180  -13.6790   73.4010 C   0  0  0  0  0
   85.5180  -12.8390   74.4860 C   0  0  0  0  0
   84.7550  -13.3250   75.4770 O   0  0  0  0  0
   86.0010  -11.5400   74.5280 C   0  0  0  0  0
   85.7300  -10.7080   75.5790 O   0  0  0  0  0
   84.9940   -9.4960   75.4170 C   0  0  0  0  0
   86.7950  -11.0780   73.4880 C   0  0  0  0  0
   86.6120  -13.1760   72.3320 C   0  0  0  0  0
   87.9440  -11.2330   71.3550 C   0  0  0  0  0
   89.3720   -9.3500   70.7440 C   0  0  0  0  0
   89.5480   -9.9200   69.4940 C   0  0  0  0  0
   90.3460   -9.3000   68.5380 N   0  0  0  0  0
   91.5280   -8.5600   68.9540 C   0  0  0  0  0
   89.1810  -11.6150   67.9150 O   0  0  0  0  0
   88.9500  -11.1160   69.1670 C   0  0  0  0  0
   87.6542  -12.7232   69.8178 H   0  0  0  0  0
   90.0001  -11.2494   66.0918 H   0  0  0  0  0
   88.3450  -10.5156   66.4246 H   0  0  0  0  0
   89.3135   -8.5829   66.8690 H   0  0  0  0  0
   90.9234   -9.2931   66.5299 H   0  0  0  0  0
   88.4081   -9.5812   72.6603 H   0  0  0  0  0
   85.6201  -15.6116   74.2338 H   0  0  0  0  0
   84.1799  -15.0145   73.3734 H   0  0  0  0  0
   85.6054  -15.5567   72.4540 H   0  0  0  0  0
   84.6321  -12.6478   76.1462 H   0  0  0  0  0
   85.5198   -8.8435   74.7200 H   0  0  0  0  0
   84.0025   -9.7240   75.0258 H   0  0  0  0  0
   84.8995   -8.9980   76.3820 H   0  0  0  0  0
   87.1910  -10.0636   73.5347 H   0  0  0  0  0
   86.8390  -13.8060   71.4720 H   0  0  0  0  0
   89.8525   -8.4055   70.9993 H   0  0  0  0  0
   91.2320   -7.7498   69.6204 H   0  0  0  0  0
   92.2100   -9.2310   69.4762 H   0  0  0  0  0
   92.0242   -8.1469   68.0758 H   0  0  0  0  0
 15  1  4  0  0  0
  1 21  4  0  0  0
  3  2  1  0  0  0
  2 20  1  0  0  0
 18  3  1  0  0  0
  4 13  4  0  0  0
  4 14  4  0  0  0
 15  4  1  0  0  0
  5 15  4  0  0  0
 16  5  4  0  0  0
  7  6  1  0  0  0
  7  8  4  0  0  0
 14  7  4  0  0  0
  8  9  1  0  0  0
 10  8  4  0  0  0
 10 11  1  0  0  0
 13 10  4  0  0  0
 11 12  1  0  0  0
 17 16  4  0  0  0
 17 18  1  0  0  0
 17 21  4  0  0  0
 18 19  1  0  0  0
 20 21  1  0  0  0
  1 22  1  0  0  0
  2 23  1  0  0  0
  2 24  1  0  0  0
  3 25  1  0  0  0
  3 26  1  0  0  0
  5 27  1  0  0  0
  6 28  1  0  0  0
  6 29  1  0  0  0
  6 30  1  0  0  0
  9 31  1  0  0  0
 12 32  1  0  0  0
 12 33  1  0  0  0
 12 34  1  0  0  0
 13 35  1  0  0  0
 14 36  1  0  0  0
 16 37  1  0  0  0
 19 38  1  0  0  0
 19 39  1  0  0  0
 19 40  1  0  0  0
M  END
$$$$
