5dg6_ligand
  -I-interpret- 

 93 95  0  0  0  0  0  0  0  0999 V2000
   -2.9330    3.9170   10.8880 O   0  0  0  0  0
   -2.8220    3.0710   10.0010 C   0  0  0  0  0
   -2.6610    1.6690   10.3320 O   0  0  0  0  0
   -2.0790    1.2460   11.5590 C   0  0  0  0  0
   -0.9420    2.1760   11.9760 C   0  0  0  0  0
   -1.5180   -0.1590   11.3550 C   0  0  0  0  0
   -3.1980    1.2560   12.5950 C   0  0  0  0  0
   -4.2940    3.7060    6.3640 O   0  0  0  0  0
   -4.2140    4.6100    7.1880 C   0  0  0  0  0
   -1.3880    3.2950    1.5680 N   0  0  0  0  0
   -0.4070    4.1690    2.1700 C   0  0  0  0  0
    0.9980    3.5970    1.9580 C   0  0  0  0  0
    1.7750    3.4280    3.2550 C   0  0  0  0  0
    2.6190    4.6680    3.4880 C   0  0  0  0  0
    3.1990    4.6320    4.8830 C   0  0  0  0  0
   -3.0700    4.6470    8.1560 C   0  0  0  0  0
   -1.8380    5.1770    7.4410 C   0  0  0  0  0
   -0.5630    5.0300    8.2530 C   0  0  0  0  0
    0.5550    5.3800    7.3100 C   0  0  0  0  0
    0.9740    6.6290    7.0320 N   0  0  0  0  0
    2.0130    6.5260    6.1020 N   0  0  0  0  0
    2.1920    5.2150    5.8380 C   0  0  0  0  0
    1.2950    4.4950    6.5720 O   0  0  0  0  0
   -2.8550    3.3230    8.6940 N   0  0  0  0  0
   -6.2090    5.4810    3.9370 N   0  0  0  0  0
   -5.7980    5.7130    2.5700 C   0  0  0  0  0
   -4.9970    4.5190    1.9910 C   0  0  0  0  0
   -3.4530    4.5950    2.1900 C   0  0  0  0  0
   -2.7170    3.4200    1.5580 C   0  0  0  0  0
   -3.3090    2.5190    1.0070 O   0  0  0  0  0
   -7.0720    6.1310    1.7850 C   0  0  0  0  0
   -7.6220    7.3220    2.3620 O   0  0  0  0  0
   -5.0930    5.5980    7.2570 N   0  0  0  0  0
   -6.1970    5.6870    6.3320 C   0  0  0  0  0
   -5.6360    6.0600    4.9880 C   0  0  0  0  0
   -4.7020    6.8360    4.9000 O   0  0  0  0  0
   -7.2590    6.6990    6.7870 C   0  0  0  0  0
   -8.1380    6.3010    7.9800 C   0  0  0  0  0
   -9.2110    7.3750    8.1140 C   0  0  0  0  0
  -10.3130    6.9930    9.0900 C   0  0  0  0  0
  -10.9200    5.6530    8.7360 C   0  0  0  0  0
   -9.8080    4.6300    8.8330 C   0  0  0  0  0
   -8.7580    4.9260    7.7760 C   0  0  0  0  0
   -1.3226    3.1929   12.0717 H   0  0  0  0  0
   -0.5373    1.8466   12.9330 H   0  0  0  0  0
   -0.1573    2.1501   11.2199 H   0  0  0  0  0
   -1.1184   -0.5299   12.2989 H   0  0  0  0  0
   -2.3135   -0.8200   11.0109 H   0  0  0  0  0
   -0.7229   -0.1268   10.6101 H   0  0  0  0  0
   -4.0067    0.6061   12.2607 H   0  0  0  0  0
   -2.8117    0.8963   13.5487 H   0  0  0  0  0
   -3.5726    2.2727   12.7135 H   0  0  0  0  0
   -1.0162    2.4754    1.0880 H   0  0  0  0  0
   -0.6051    4.2508    3.2387 H   0  0  0  0  0
   -0.4688    5.1535    1.7062 H   0  0  0  0  0
    1.5494    4.2969    1.3301 H   0  0  0  0  0
    0.8897    2.6112    1.5057 H   0  0  0  0  0
    2.4192    2.5514    3.1869 H   0  0  0  0  0
    1.0815    3.2931    4.0850 H   0  0  0  0  0
    1.9963    5.5558    3.3775 H   0  0  0  0  0
    3.4294    4.6966    2.7596 H   0  0  0  0  0
    4.1210    5.2125    4.9163 H   0  0  0  0  0
    3.4246    3.6034    5.1643 H   0  0  0  0  0
   -3.2903    5.3118    8.9912 H   0  0  0  0  0
   -1.9934    6.2408    7.2611 H   0  0  0  0  0
   -1.7141    4.5988    6.5253 H   0  0  0  0  0
   -0.4533    4.0191    8.6456 H   0  0  0  0  0
   -0.5680    5.6817    9.1267 H   0  0  0  0  0
   -2.7228    2.5479    8.0442 H   0  0  0  0  0
   -6.9820    4.8369    4.1044 H   0  0  0  0  0
   -5.0764    6.5259    2.4884 H   0  0  0  0  0
   -5.1737    4.5164    0.9154 H   0  0  0  0  0
   -5.3368    3.6288    2.5202 H   0  0  0  0  0
   -3.2534    4.5763    3.2614 H   0  0  0  0  0
   -3.0993    5.5074    1.7099 H   0  0  0  0  0
   -7.8089    5.3295    1.8366 H   0  0  0  0  0
   -6.8106    6.3199    0.7438 H   0  0  0  0  0
   -8.4089    7.5781    1.8753 H   0  0  0  0  0
   -4.9875    6.3108    7.9789 H   0  0  0  0  0
   -6.7058    4.7243    6.2827 H   0  0  0  0  0
   -7.9390    6.8152    5.9431 H   0  0  0  0  0
   -6.7082    7.5838    7.1063 H   0  0  0  0  0
   -7.5426    6.2339    8.8906 H   0  0  0  0  0
   -9.6677    7.5131    7.1340 H   0  0  0  0  0
   -8.7319    8.2788    8.4903 H   0  0  0  0  0
  -11.0949    7.7511    9.0449 H   0  0  0  0  0
   -9.8837    6.9264   10.0897 H   0  0  0  0  0
  -11.3426    5.6721    7.7314 H   0  0  0  0  0
  -11.7352    5.4050    9.4157 H   0  0  0  0  0
  -10.2159    3.6321    8.6720 H   0  0  0  0  0
   -9.3531    4.6790    9.8223 H   0  0  0  0  0
   -7.9703    4.1763    7.8507 H   0  0  0  0  0
   -9.2362    4.9034    6.7968 H   0  0  0  0  0
  2  1  2  0  0  0
  2  3  1  0  0  0
 24  2  1  0  0  0
  3  4  1  0  0  0
  4  5  1  0  0  0
  4  6  1  0  0  0
  4  7  1  0  0  0
  9  8  2  0  0  0
 16  9  1  0  0  0
  9 33  1  0  0  0
 10 11  1  0  0  0
 29 10  1  0  0  0
 11 12  1  0  0  0
 12 13  1  0  0  0
 13 14  1  0  0  0
 14 15  1  0  0  0
 15 22  1  0  0  0
 17 16  1  0  0  0
 16 24  1  0  0  0
 18 17  1  0  0  0
 19 18  1  0  0  0
 19 20  4  0  0  0
 23 19  4  0  0  0
 21 20  4  0  0  0
 22 21  4  0  0  0
 22 23  4  0  0  0
 26 25  1  0  0  0
 25 35  1  0  0  0
 27 26  1  0  0  0
 26 31  1  0  0  0
 28 27  1  0  0  0
 28 29  1  0  0  0
 29 30  2  0  0  0
 31 32  1  0  0  0
 33 34  1  0  0  0
 34 35  1  0  0  0
 34 37  1  0  0  0
 35 36  2  0  0  0
 37 38  1  0  0  0
 38 39  1  0  0  0
 38 43  1  0  0  0
 39 40  1  0  0  0
 40 41  1  0  0  0
 41 42  1  0  0  0
 42 43  1  0  0  0
  5 44  1  0  0  0
  5 45  1  0  0  0
  5 46  1  0  0  0
  6 47  1  0  0  0
  6 48  1  0  0  0
  6 49  1  0  0  0
  7 50  1  0  0  0
  7 51  1  0  0  0
  7 52  1  0  0  0
 10 53  1  0  0  0
 11 54  1  0  0  0
 11 55  1  0  0  0
 12 56  1  0  0  0
 12 57  1  0  0  0
 13 58  1  0  0  0
 13 59  1  0  0  0
 14 60  1  0  0  0
 14 61  1  0  0  0
 15 62  1  0  0  0
 15 63  1  0  0  0
 16 64  1  0  0  0
 17 65  1  0  0  0
 17 66  1  0  0  0
 18 67  1  0  0  0
 18 68  1  0  0  0
 24 69  1  0  0  0
 25 70  1  0  0  0
 26 71  1  0  0  0
 27 72  1  0  0  0
 27 73  1  0  0  0
 28 74  1  0  0  0
 28 75  1  0  0  0
 31 76  1  0  0  0
 31 77  1  0  0  0
 32 78  1  0  0  0
 33 79  1  0  0  0
 34 80  1  0  0  0
 37 81  1  0  0  0
 37 82  1  0  0  0
 38 83  1  0  0  0
 39 84  1  0  0  0
 39 85  1  0  0  0
 40 86  1  0  0  0
 40 87  1  0  0  0
 41 88  1  0  0  0
 41 89  1  0  0  0
 42 90  1  0  0  0
 42 91  1  0  0  0
 43 92  1  0  0  0
 43 93  1  0  0  0
M  END
$$$$
