2qhm_ligand
  -I-interpret- 

 40 43  0  0  0  0  0  0  0  0999 V2000
   13.8370   -1.3160   10.8560 C   0  0  0  0  0
   12.2160   -2.3190   12.1620 O   0  0  0  0  0
   16.4680   -5.4170   16.3680 C   0  0  0  0  0
   13.3400   -2.2880   11.7160 C   0  0  0  0  0
   13.1870   -0.2350   10.3460 C   0  0  0  0  0
   14.2450   -3.2380   12.0760 O   0  0  0  0  0
   16.1430   -2.9440   14.3900 C   0  0  0  0  0
   16.8130   -4.0020   13.5420 C   0  0  0  0  0
   15.6680   -4.9830   15.1890 N   0  3  0  0  0
   16.1490   -5.3540   13.7870 C   0  0  0  0  0
   14.9060   -5.4910   12.9380 C   0  0  0  0  0
   15.0470   -3.5920   15.2380 C   0  0  0  0  0
   13.7200   -3.6970   14.5090 C   0  0  0  0  0
   13.8970   -4.3220   13.0530 C   0  0  0  0  0
   17.6560   -0.3570    8.8730 C   0  0  0  0  0
   16.4400    0.4320    8.8490 N   0  0  0  0  0
   15.2540   -0.0220    9.5040 C   0  0  0  0  0
   15.1770   -1.2220   10.3020 C   0  0  0  0  0
   16.4230   -2.0040   10.3650 C   0  0  0  0  0
   17.6850   -1.6040    9.6250 C   0  0  0  0  0
   14.0100    0.5880    9.5780 N   0  0  0  0  0
   16.5331   -6.5050   16.3807 H   0  0  0  0  0
   17.4698   -4.9926   16.3019 H   0  0  0  0  0
   15.9845   -5.0700   17.2812 H   0  0  0  0  0
   12.1302   -0.0328   10.5201 H   0  0  0  0  0
   15.7024   -2.1847   13.7439 H   0  0  0  0  0
   16.8816   -2.4791   15.0430 H   0  0  0  0  0
   17.8681   -4.0640   13.8085 H   0  0  0  0  0
   16.7151   -3.7368   12.4893 H   0  0  0  0  0
   14.9012   -5.6359   15.3509 H   0  0  0  0  0
   16.7523   -6.2461   13.6191 H   0  0  0  0  0
   14.3885   -6.3862   13.2829 H   0  0  0  0  0
   15.2374   -5.5175   11.8999 H   0  0  0  0  0
   14.8258   -3.0971   16.1837 H   0  0  0  0  0
   13.3043   -2.6947   14.4050 H   0  0  0  0  0
   13.0616   -4.3474   15.0849 H   0  0  0  0  0
   12.9320   -4.7713   12.8185 H   0  0  0  0  0
   18.5408   -0.0199    8.3330 H   0  0  0  0  0
   16.4391   -2.9104   10.9702 H   0  0  0  0  0
   18.5796   -2.2260    9.6548 H   0  0  0  0  0
  1  4  1  0  0  0
  1  5  4  0  0  0
 18  1  4  0  0  0
  4  2  2  0  0  0
  9  3  1  0  0  0
  4  6  1  0  0  0
  5 21  4  0  0  0
  6 14  1  0  0  0
  7  8  1  0  0  0
 12  7  1  0  0  0
 10  8  1  0  0  0
 10  9  1  0  0  0
 12  9  1  0  0  0
 11 10  1  0  0  0
 14 11  1  0  0  0
 13 12  1  0  0  0
 14 13  1  0  0  0
 16 15  4  0  0  0
 15 20  4  0  0  0
 17 16  4  0  0  0
 17 18  4  0  0  0
 17 21  4  0  0  0
 18 19  4  0  0  0
 19 20  4  0  0  0
  3 22  1  0  0  0
  3 23  1  0  0  0
  3 24  1  0  0  0
  5 25  1  0  0  0
  7 26  1  0  0  0
  7 27  1  0  0  0
  8 28  1  0  0  0
  8 29  1  0  0  0
  9 30  1  0  0  0
 10 31  1  0  0  0
 11 32  1  0  0  0
 11 33  1  0  0  0
 12 34  1  0  0  0
 13 35  1  0  0  0
 13 36  1  0  0  0
 14 37  1  0  0  0
 15 38  1  0  0  0
 19 39  1  0  0  0
 20 40  1  0  0  0
M  END
$$$$
