2x8i_ligand
  -I-interpret- 

 36 39  0  0  0  0  0  0  0  0999 V2000
    5.7500   -7.8680   38.1250 C   0  0  0  0  0
    5.4030   -6.9260   39.0690 C   0  0  0  0  0
    5.2900   -4.5210   40.7990 C   0  0  0  0  0
    4.9810   -3.5660   41.7390 C   0  0  0  0  0
    5.5700   -7.6100   36.7850 C   0  0  0  0  0
    3.3710   -3.9220   39.5430 C   0  0  0  0  0
    4.6890   -5.4510   37.3540 C   0  0  0  0  0
    4.4950   -4.7130   39.6910 C   0  0  0  0  0
    4.8630   -5.7080   38.7000 C   0  0  0  0  0
    3.0470   -2.9550   40.4770 C   0  0  0  0  0
    3.8610   -2.7870   41.5730 C   0  0  0  0  0
    5.0390   -6.3970   36.4140 C   0  0  0  0  0
    1.5940   -1.1570   41.2300 C   0  0  0  0  0
    1.8680   -2.1040   40.3240 C   0  0  0  0  0
    2.5210   -1.0130   42.3640 C   0  0  0  0  0
    4.2330   -1.3090   43.7860 C   0  0  0  0  0
    0.9850   -2.3180   39.1440 C   0  0  0  0  0
    2.4060   -0.1200   43.3100 N   0  0  0  0  0
    3.4450   -0.2750   44.1910 N   0  0  0  0  0
    3.5310   -1.7880   42.5020 N   0  0  0  0  0
    5.2470   -1.8320   44.2280 O   0  0  0  0  0
    4.8530   -6.1260   35.0750 O   0  0  0  0  0
    6.1695   -8.8230   38.4413 H   0  0  0  0  0
    5.5570   -7.1451   40.1256 H   0  0  0  0  0
    6.1795   -5.1366   40.9332 H   0  0  0  0  0
    5.6207   -3.4277   42.6107 H   0  0  0  0  0
    5.8426   -8.3514   36.0339 H   0  0  0  0  0
    2.7282   -4.0631   38.6741 H   0  0  0  0  0
    4.2730   -4.4958   37.0335 H   0  0  0  0  0
    0.7174   -0.5168   41.1314 H   0  0  0  0  0
    1.5591   -2.1661   38.2299 H   0  0  0  0  0
    0.5939   -3.3352   39.1642 H   0  0  0  0  0
    0.1580   -1.6087   39.1773 H   0  0  0  0  0
    1.6654    0.5777   43.3816 H   0  0  0  0  0
    3.6032    0.2959   45.0213 H   0  0  0  0  0
    4.4777   -5.2479   34.9765 H   0  0  0  0  0
  2  1  4  0  0  0
  1  5  4  0  0  0
  9  2  4  0  0  0
  4  3  4  0  0  0
  3  8  4  0  0  0
 11  4  4  0  0  0
 12  5  4  0  0  0
  6  8  4  0  0  0
 10  6  4  0  0  0
  9  7  4  0  0  0
  7 12  4  0  0  0
  8  9  1  0  0  0
 11 10  4  0  0  0
 10 14  4  0  0  0
 20 11  4  0  0  0
 12 22  1  0  0  0
 13 14  4  0  0  0
 15 13  4  0  0  0
 14 17  1  0  0  0
 15 18  1  0  0  0
 20 15  4  0  0  0
 16 19  1  0  0  0
 16 20  1  0  0  0
 16 21  2  0  0  0
 18 19  1  0  0  0
  1 23  1  0  0  0
  2 24  1  0  0  0
  3 25  1  0  0  0
  4 26  1  0  0  0
  5 27  1  0  0  0
  6 28  1  0  0  0
  7 29  1  0  0  0
 13 30  1  0  0  0
 17 31  1  0  0  0
 17 32  1  0  0  0
 17 33  1  0  0  0
 18 34  1  0  0  0
 19 35  1  0  0  0
 22 36  1  0  0  0
M  END
$$$$
