3sl5_ligand
  -I-interpret- 

 50 52  0  0  0  0  0  0  0  0999 V2000
  -21.7130    7.3930   28.9430 C   0  0  0  0  0
  -21.6020    6.4030   30.0660 C   0  0  0  0  0
  -21.2550    5.0320   29.5550 C   0  0  0  0  0
  -21.0610    5.0390   27.8290 S   0  0  0  0  0
  -21.4320    6.7340   27.6580 C   0  0  0  0  0
  -21.4540    7.3890   26.3130 C   0  0  0  0  0
  -22.2630    8.6210   26.3670 N   0  0  0  0  0
  -22.8220    9.1560   27.6290 C   0  0  0  0  0
  -22.0420    8.8560   28.9190 C   0  0  0  0  0
  -21.0610    3.9390   30.3470 N   0  0  0  0  0
  -21.2820    2.6720   29.9760 C   0  0  0  0  0
  -22.4680    1.9940   30.6370 C   0  0  0  0  0
  -22.6130    2.4530   32.0750 C   0  0  0  0  0
  -23.6850    2.8930   32.8430 C   0  0  0  0  0
  -23.3130    3.2210   34.1570 C   0  0  0  0  0
  -21.9680    3.0670   34.4940 C   0  0  0  0  0
  -21.1930    2.4810   33.0600 S   0  0  0  0  0
  -20.5770    2.0700   29.1710 O   0  0  0  0  0
  -21.8500    6.7800   31.4840 C   0  0  0  0  0
  -21.8660    8.1890   31.8160 O   0  0  0  0  0
  -22.6760    8.6550   32.8900 C   0  0  0  0  0
  -22.0450    9.9180   33.4340 C   0  0  0  0  0
  -22.0700    5.9470   32.3560 O   0  0  0  0  0
  -22.5640    9.2640   25.2320 C   0  0  0  0  0
  -21.5500    9.6160   24.2240 O   0  0  0  0  0
  -20.1410    9.4300   24.4230 C   0  0  0  0  0
  -19.4440    9.1770   23.1000 C   0  0  0  0  0
  -23.7300    9.5640   24.9990 O   0  0  0  0  0
  -21.8912    6.7037   25.5868 H   0  0  0  0  0
  -20.4350    7.6410   26.0194 H   0  0  0  0  0
  -23.7940    8.6780   27.7506 H   0  0  0  0  0
  -22.8147   10.2407   27.5219 H   0  0  0  0  0
  -21.1254    9.4452   28.9465 H   0  0  0  0  0
  -22.6446    9.1174   29.7889 H   0  0  0  0  0
  -20.7213    4.0993   31.2953 H   0  0  0  0  0
  -22.3097    0.9156   30.6251 H   0  0  0  0  0
  -23.3739    2.2555   30.0901 H   0  0  0  0  0
  -24.7045    2.9746   32.4660 H   0  0  0  0  0
  -24.0434    3.5803   34.8820 H   0  0  0  0  0
  -21.5023    3.2724   35.4579 H   0  0  0  0  0
  -22.7392    7.8977   33.6714 H   0  0  0  0  0
  -23.6875    8.8592   32.5390 H   0  0  0  0  0
  -21.0384    9.6962   33.7884 H   0  0  0  0  0
  -21.9965   10.6677   32.6442 H   0  0  0  0  0
  -22.6471   10.2968   34.2599 H   0  0  0  0  0
  -19.9868    8.5693   25.0738 H   0  0  0  0  0
  -19.7260   10.3313   24.8742 H   0  0  0  0  0
  -19.8575    8.2802   22.6386 H   0  0  0  0  0
  -19.5984   10.0308   22.4403 H   0  0  0  0  0
  -18.3768    9.0387   23.2736 H   0  0  0  0  0
  1  2  4  0  0  0
  1  5  4  0  0  0
  1  9  1  0  0  0
  2  3  4  0  0  0
  2 19  1  0  0  0
  3  4  4  0  0  0
  3 10  1  0  0  0
  4  5  4  0  0  0
  5  6  1  0  0  0
  6  7  1  0  0  0
  7  8  1  0  0  0
  7 24  1  0  0  0
  8  9  1  0  0  0
 10 11  1  0  0  0
 11 12  1  0  0  0
 11 18  2  0  0  0
 12 13  1  0  0  0
 13 14  4  0  0  0
 13 17  4  0  0  0
 14 15  4  0  0  0
 15 16  4  0  0  0
 16 17  4  0  0  0
 19 20  1  0  0  0
 19 23  2  0  0  0
 20 21  1  0  0  0
 21 22  1  0  0  0
 24 25  1  0  0  0
 24 28  2  0  0  0
 25 26  1  0  0  0
 26 27  1  0  0  0
  6 29  1  0  0  0
  6 30  1  0  0  0
  8 31  1  0  0  0
  8 32  1  0  0  0
  9 33  1  0  0  0
  9 34  1  0  0  0
 10 35  1  0  0  0
 12 36  1  0  0  0
 12 37  1  0  0  0
 14 38  1  0  0  0
 15 39  1  0  0  0
 16 40  1  0  0  0
 21 41  1  0  0  0
 21 42  1  0  0  0
 22 43  1  0  0  0
 22 44  1  0  0  0
 22 45  1  0  0  0
 26 46  1  0  0  0
 26 47  1  0  0  0
 27 48  1  0  0  0
 27 49  1  0  0  0
 27 50  1  0  0  0
M  END
$$$$
