4g8y_ligand
  -I-interpret- 

 43 45  0  0  0  0  0  0  0  0999 V2000
   35.4040    4.5910   23.8350 C   0  0  0  0  0
   36.6060    4.4390   23.1710 C   0  0  0  0  0
   37.3060    3.2710   23.3550 C   0  0  0  0  0
   37.6160    1.1030   24.3390 C   0  0  0  0  0
   37.3070   -0.3690   23.9450 C   0  0  0  0  0
   37.5920   -1.0060   22.7200 C   0  0  0  0  0
   36.7910    2.2760   24.1570 N   0  0  0  0  0
   34.9460    3.6090   24.6310 N   0  0  0  0  0
   35.1960    1.6150   25.5160 O   0  0  0  0  0
   35.6490    2.4670   24.8020 C   0  0  0  0  0
   34.6810    5.7490   23.6720 O   0  0  0  0  0
   37.1100    5.5170   22.2940 C   0  0  0  0  0
   36.7750   -1.3770   24.7430 N   0  0  0  0  0
   36.7120   -2.5160   24.0700 N   0  0  0  0  0
   37.1480   -2.3370   22.8800 N   0  0  0  0  0
   37.2920   -3.3180   21.8620 C   0  0  0  0  0
   37.1700   -4.6370   22.3370 O   0  0  0  0  0
   38.4910   -5.1430   22.7210 C   0  0  0  0  0
   38.7920   -6.4210   21.9780 C   0  0  0  0  0
   40.1000   -6.3910   21.4180 O   0  0  0  0  0
   39.4530   -3.9800   22.4550 C   0  0  0  0  0
   39.7710   -3.2370   23.6260 O   0  0  0  0  0
   38.7240   -3.1650   21.3910 C   0  0  0  0  0
   38.8430   -3.7740   20.1120 O   0  0  0  0  0
   38.2218    3.5796   23.8591 H   0  0  0  0  0
   37.3529    2.8230   22.3624 H   0  0  0  0  0
   38.4430    1.3268   23.6652 H   0  0  0  0  0
   37.6277    1.0266   25.4263 H   0  0  0  0  0
   38.0560   -0.5652   21.8377 H   0  0  0  0  0
   34.0549    3.7274   25.1130 H   0  0  0  0  0
   33.8777    5.6997   24.1953 H   0  0  0  0  0
   36.3902    5.7011   21.4964 H   0  0  0  0  0
   37.2460    6.4263   22.8795 H   0  0  0  0  0
   38.0641    5.2157   21.8617 H   0  0  0  0  0
   36.5214   -3.1694   21.1056 H   0  0  0  0  0
   38.5745   -5.4330   23.7684 H   0  0  0  0  0
   38.0689   -6.5339   21.1703 H   0  0  0  0  0
   38.7308   -7.2544   22.6778 H   0  0  0  0  0
   40.2662   -7.2136   20.9518 H   0  0  0  0  0
   40.4363   -4.3117   22.1215 H   0  0  0  0  0
   40.3739   -2.5255   23.3983 H   0  0  0  0  0
   39.0921   -2.1443   21.2868 H   0  0  0  0  0
   39.7463   -3.6853   19.7994 H   0  0  0  0  0
  2  1  2  0  0  0
  1  8  1  0  0  0
  1 11  1  0  0  0
  3  2  1  0  0  0
  2 12  1  0  0  0
  7  3  1  0  0  0
  4  5  1  0  0  0
  4  7  1  0  0  0
  5  6  4  0  0  0
  5 13  4  0  0  0
  6 15  4  0  0  0
  7 10  1  0  0  0
  8 10  1  0  0  0
 10  9  2  0  0  0
 13 14  4  0  0  0
 14 15  4  0  0  0
 15 16  1  0  0  0
 16 17  1  0  0  0
 16 23  1  0  0  0
 17 18  1  0  0  0
 18 19  1  0  0  0
 18 21  1  0  0  0
 19 20  1  0  0  0
 21 22  1  0  0  0
 21 23  1  0  0  0
 23 24  1  0  0  0
  3 25  1  0  0  0
  3 26  1  0  0  0
  4 27  1  0  0  0
  4 28  1  0  0  0
  6 29  1  0  0  0
  8 30  1  0  0  0
 11 31  1  0  0  0
 12 32  1  0  0  0
 12 33  1  0  0  0
 12 34  1  0  0  0
 16 35  1  0  0  0
 18 36  1  0  0  0
 19 37  1  0  0  0
 19 38  1  0  0  0
 20 39  1  0  0  0
 21 40  1  0  0  0
 22 41  1  0  0  0
 23 42  1  0  0  0
 24 43  1  0  0  0
M  END
$$$$
