6gg3_ligand
  -I-interpret- 

 14 13  0  0  0  0  0  0  0  0999 V2000
   28.2880  387.4260   68.5560 N   0  3  0  0  0
   26.8060  387.5910   68.7000 C   0  0  0  0  0
   26.1760  386.3220   69.4590 C   0  0  0  0  0
   24.9550  386.1500   69.5880 O   0  0  0  0  0
   26.1580  387.7660   67.3210 C   0  0  0  0  0
   26.8670  385.4270   69.9270 O   0  0  0  0  0
   28.7073  387.3106   69.4786 H   0  0  0  0  0
   28.4835  386.6024   67.9870 H   0  0  0  0  0
   28.6787  388.2531   68.1047 H   0  0  0  0  0
   26.6075  388.4831   69.2940 H   0  0  0  0  0
   24.4856  386.8909   69.1976 H   0  0  0  0  0
   26.3324  386.8716   66.7229 H   0  0  0  0  0
   25.0858  387.9205   67.4418 H   0  0  0  0  0
   26.5969  388.6298   66.8217 H   0  0  0  0  0
  1  2  1  0  0  0
  2  3  1  0  0  0
  2  5  1  0  0  0
  3  4  1  0  0  0
  3  6  2  0  0  0
  1  7  1  0  0  0
  1  8  1  0  0  0
  1  9  1  0  0  0
  2 10  1  0  0  0
  4 11  1  0  0  0
  5 12  1  0  0  0
  5 13  1  0  0  0
  5 14  1  0  0  0
M  END
$$$$
