1li3_ligand
  -I-interpret- 

 13 13  0  0  0  0  0  0  0  0999 V2000
   26.7240    5.1420    3.3130 C   0  0  0  0  0
   27.5210    5.8410    2.4050 C   0  0  0  0  0
   26.4670    5.7800    4.5160 C   0  0  0  0  0
   28.0720    7.0990    2.6510 C   0  0  0  0  0
   27.0030    7.0320    4.8100 C   0  0  0  0  0
   27.8030    7.6930    3.8740 C   0  0  0  0  0
   28.3730    8.9120    4.1230 O   0  0  0  0  0
   25.6770    5.1440    5.4360 Cl  0  0  0  0  0
   26.3269    4.1520    3.0889 H   0  0  0  0  0
   27.7261    5.3740    1.4417 H   0  0  0  0  0
   28.6929    7.5977    1.9067 H   0  0  0  0  0
   26.7976    7.4977    5.7738 H   0  0  0  0  0
   28.1115    9.2139    4.9960 H   0  0  0  0  0
  1  3  4  0  0  0
  1  2  4  0  0  0
  2  4  4  0  0  0
  4  6  4  0  0  0
  6  7  1  0  0  0
  6  5  4  0  0  0
  5  3  4  0  0  0
  3  8  1  0  0  0
  1  9  1  0  0  0
  2 10  1  0  0  0
  4 11  1  0  0  0
  5 12  1  0  0  0
  7 13  1  0  0  0
M  END
$$$$
