5wkl_ligand
  -I-interpret- 

 63 64  0  0  0  0  0  0  0  0999 V2000
  -20.9830   -1.2810    5.4980 C   0  0  0  0  0
  -20.2840   -2.1190    6.5830 C   0  0  0  0  0
  -20.7610   -3.5850    6.6290 C   0  0  0  0  0
  -20.1410   -4.3300    7.7460 C   0  0  0  0  0
  -22.1440   -7.8110    4.0620 C   0  0  0  0  0
  -23.3110   -7.2590    4.8830 C   0  0  0  0  0
  -22.4910   -4.7560    7.9300 C   0  0  0  0  0
  -21.5500   -5.2250    2.4920 C   0  0  0  0  0
  -20.9250   -2.8620    1.9730 C   0  0  0  0  0
  -21.1330   -1.8380    0.8590 C   0  0  0  0  0
  -20.5010   -2.3070   -0.4550 C   0  0  0  0  0
  -20.8340   -1.3920   -1.6380 C   0  0  0  0  0
  -18.9810   -2.4580   -0.3520 C   0  0  0  0  0
  -21.4990   -2.3600    3.2940 C   0  0  0  0  0
  -22.2600   -3.6270    6.8860 C   0  0  0  0  0
  -20.6020    0.2000    5.4940 C   0  0  0  0  0
  -22.2800   -7.5200    2.4890 C   0  0  0  0  0
  -23.8010   -5.9710    4.7110 C   0  0  0  0  0
  -24.8460   -5.5140    5.4970 C   0  0  0  0  0
  -25.4030   -6.3430    6.4550 C   0  0  0  0  0
  -24.9110   -7.6220    6.6290 C   0  0  0  0  0
  -23.8620   -8.0770    5.8540 C   0  0  0  0  0
  -21.6000   -4.0850    1.6170 N   0  0  0  0  0
  -20.5510   -1.7890    4.2200 N   0  0  0  0  0
  -21.2090   -5.0400    8.5220 N   0  0  0  0  0
  -20.7290   -5.3120    3.3600 O   0  0  0  0  0
  -18.9920   -4.4130    8.0080 O   0  0  0  0  0
  -21.2430    0.8210    4.4100 O   0  0  0  0  0
  -22.6510   -2.4420    3.5680 O   0  0  0  0  0
  -22.5650   -6.1670    2.2720 O   0  0  0  0  0
  -22.0525   -1.3572    5.6943 H   0  0  0  0  0
  -20.5176   -1.6677    7.5473 H   0  0  0  0  0
  -19.2182   -2.1279    6.3547 H   0  0  0  0  0
  -20.4868   -4.0327    5.6737 H   0  0  0  0  0
  -22.1291   -8.8925    4.1967 H   0  0  0  0  0
  -21.2352   -7.3203    4.4103 H   0  0  0  0  0
  -22.9055   -5.6454    7.4554 H   0  0  0  0  0
  -23.2086   -4.4431    8.6885 H   0  0  0  0  0
  -19.8543   -3.0270    2.0934 H   0  0  0  0  0
  -20.6602   -0.9019    1.1561 H   0  0  0  0  0
  -22.2040   -1.7096    0.7019 H   0  0  0  0  0
  -20.9425   -3.2860   -0.6412 H   0  0  0  0  0
  -21.9143   -1.3632   -1.7806 H   0  0  0  0  0
  -20.4664   -0.3866   -1.4328 H   0  0  0  0  0
  -20.3574   -1.7776   -2.5393 H   0  0  0  0  0
  -18.5386   -1.4969   -0.0898 H   0  0  0  0  0
  -18.7414   -3.1918    0.4176 H   0  0  0  0  0
  -18.5846   -2.7924   -1.3107 H   0  0  0  0  0
  -22.8105   -3.8243    5.9662 H   0  0  0  0  0
  -22.6214   -2.6684    7.2581 H   0  0  0  0  0
  -19.5214    0.3063    5.3984 H   0  0  0  0  0
  -20.9134    0.6672    6.4283 H   0  0  0  0  0
  -23.0900   -8.1255    2.0823 H   0  0  0  0  0
  -21.3404   -7.7707    1.9967 H   0  0  0  0  0
  -23.3624   -5.3185    3.9561 H   0  0  0  0  0
  -25.2292   -4.5027    5.3611 H   0  0  0  0  0
  -26.2287   -5.9873    7.0713 H   0  0  0  0  0
  -25.3527   -8.2753    7.3815 H   0  0  0  0  0
  -23.4677   -9.0815    6.0074 H   0  0  0  0  0
  -22.1162   -4.1421    0.7391 H   0  0  0  0  0
  -19.5638   -1.7443    3.9673 H   0  0  0  0  0
  -21.0528   -5.6302    9.3391 H   0  0  0  0  0
  -21.0128    1.7529    4.3947 H   0  0  0  0  0
  1  2  1  0  0  0
  1 16  1  0  0  0
 24  1  1  0  0  0
  2  3  1  0  0  0
  3  4  1  0  0  0
  3 15  1  0  0  0
  4 25  1  0  0  0
  4 27  2  0  0  0
  5  6  1  0  0  0
 17  5  1  0  0  0
  6 18  4  0  0  0
  6 22  4  0  0  0
 15  7  1  0  0  0
  7 25  1  0  0  0
  8 23  1  0  0  0
  8 26  2  0  0  0
 30  8  1  0  0  0
  9 10  1  0  0  0
  9 14  1  0  0  0
 23  9  1  0  0  0
 10 11  1  0  0  0
 11 12  1  0  0  0
 11 13  1  0  0  0
 14 24  1  0  0  0
 14 29  2  0  0  0
 16 28  1  0  0  0
 17 30  1  0  0  0
 18 19  4  0  0  0
 19 20  4  0  0  0
 20 21  4  0  0  0
 21 22  4  0  0  0
  1 31  1  0  0  0
  2 32  1  0  0  0
  2 33  1  0  0  0
  3 34  1  0  0  0
  5 35  1  0  0  0
  5 36  1  0  0  0
  7 37  1  0  0  0
  7 38  1  0  0  0
  9 39  1  0  0  0
 10 40  1  0  0  0
 10 41  1  0  0  0
 11 42  1  0  0  0
 12 43  1  0  0  0
 12 44  1  0  0  0
 12 45  1  0  0  0
 13 46  1  0  0  0
 13 47  1  0  0  0
 13 48  1  0  0  0
 15 49  1  0  0  0
 15 50  1  0  0  0
 16 51  1  0  0  0
 16 52  1  0  0  0
 17 53  1  0  0  0
 17 54  1  0  0  0
 18 55  1  0  0  0
 19 56  1  0  0  0
 20 57  1  0  0  0
 21 58  1  0  0  0
 22 59  1  0  0  0
 23 60  1  0  0  0
 24 61  1  0  0  0
 25 62  1  0  0  0
 28 63  1  0  0  0
M  END
$$$$
