2oz6_ligand
  -I-interpret- 

 34 37  0  0  0  0  0  0  0  0999 V2000
  -18.5870   37.0410   18.4140 P   0  0  0  0  0
  -19.2790   36.5250   19.6640 O   0  0  0  0  0
  -17.1720   37.4380   18.7670 O   0  0  0  0  0
  -18.6020   35.9310   17.3760 O   0  0  0  0  0
  -19.8690   35.4450   16.8650 C   0  0  0  0  0
  -20.3320   36.6780   16.0750 C   0  0  0  0  0
  -21.5990   36.5450   15.4320 O   0  0  0  0  0
  -20.4850   37.8420   17.0550 C   0  0  0  0  0
  -19.2520   38.1870   17.6800 O   0  0  0  0  0
  -21.3460   38.7740   16.2330 C   0  0  0  0  0
  -20.6900   39.4420   15.1900 O   0  0  0  0  0
  -22.3820   37.6060   15.9780 C   0  0  0  0  0
  -23.8250   37.7630   16.4750 N   0  0  0  0  0
  -24.8130   37.8910   15.4700 C   0  0  0  0  0
  -26.0460   38.0100   15.8910 N   0  0  0  0  0
  -25.8430   37.9590   17.2640 C   0  0  0  0  0
  -26.6740   38.0190   18.4160 C   0  0  0  0  0
  -27.9870   38.1500   18.3430 N   0  0  0  0  0
  -26.0180   37.9230   19.6510 N   0  0  0  0  0
  -24.6850   37.7810   19.8670 C   0  0  0  0  0
  -23.8590   37.7190   18.8110 N   0  0  0  0  0
  -24.5360   37.8160   17.6370 C   0  0  0  0  0
  -20.1791   36.2705   19.4481 H   0  0  0  0  0
  -20.5674   35.1161   17.6345 H   0  0  0  0  0
  -19.7944   34.5335   16.2720 H   0  0  0  0  0
  -19.5784   36.8261   15.3015 H   0  0  0  0  0
  -20.9927   37.7170   18.0114 H   0  0  0  0  0
  -21.7534   39.7089   16.6180 H   0  0  0  0  0
  -21.3154   40.0062   14.7295 H   0  0  0  0  0
  -23.3421   37.2509   15.6035 H   0  0  0  0  0
  -24.5619   37.8905   14.4093 H   0  0  0  0  0
  -28.4435   38.2125   17.4330 H   0  0  0  0  0
  -28.5439   38.1887   19.1967 H   0  0  0  0  0
  -24.2921   37.7184   20.8818 H   0  0  0  0  0
  1  2  1  0  0  0
  1  3  2  0  0  0
  1  4  1  0  0  0
  1  9  1  0  0  0
  4  5  1  0  0  0
  5  6  1  0  0  0
  6  7  1  0  0  0
  6  8  1  0  0  0
  7 12  1  0  0  0
  8  9  1  0  0  0
  8 10  1  0  0  0
 10 11  1  0  0  0
 10 12  1  0  0  0
 12 13  1  0  0  0
 13 14  4  0  0  0
 13 22  4  0  0  0
 14 15  4  0  0  0
 15 16  4  0  0  0
 16 17  4  0  0  0
 16 22  4  0  0  0
 17 18  1  0  0  0
 17 19  4  0  0  0
 19 20  4  0  0  0
 20 21  4  0  0  0
 21 22  4  0  0  0
  2 23  1  0  0  0
  5 24  1  0  0  0
  5 25  1  0  0  0
  6 26  1  0  0  0
  8 27  1  0  0  0
 10 28  1  0  0  0
 11 29  1  0  0  0
 12 30  1  0  0  0
 14 31  1  0  0  0
 18 32  1  0  0  0
 18 33  1  0  0  0
 20 34  1  0  0  0
M  END
$$$$
