### 
### Created by X-TOOL on Mon Sep 10 21:12:57 2018
### 

@<TRIPOS>MOLECULE
2oz6_ligand
   33    36     1     0     0
SMALL
GAST_HUCK


@<TRIPOS>ATOM
      1 P         -18.5870   37.0410   18.4140 P.3       1 CMP         0.2557
      2 O1P       -19.2790   36.5250   19.6640 O.co2     1 CMP        -0.6177
      3 O2P       -17.1720   37.4380   18.7670 O.co2     1 CMP        -0.6177
      4 O5'       -18.6020   35.9310   17.3760 O.3       1 CMP        -0.2514
      5 C5'       -19.8690   35.4450   16.8650 C.3       1 CMP         0.1128
      6 C4'       -20.3320   36.6780   16.0750 C.3       1 CMP         0.1242
      7 O4'       -21.5990   36.5450   15.4320 O.3       1 CMP        -0.3360
      8 C3'       -20.4850   37.8420   17.0550 C.3       1 CMP         0.1540
      9 O3'       -19.2520   38.1870   17.6800 O.3       1 CMP        -0.2453
     10 C2'       -21.3460   38.7740   16.2330 C.3       1 CMP         0.1439
     11 O2'       -20.6900   39.4420   15.1900 O.3       1 CMP        -0.3832
     12 C1'       -22.3820   37.6060   15.9780 C.3       1 CMP         0.2014
     13 N9        -23.8250   37.7630   16.4750 N.pl3     1 CMP        -0.1919
     14 C8        -24.8130   37.8910   15.4700 C.2       1 CMP         0.1123
     15 N7        -26.0460   38.0100   15.8910 N.2       1 CMP        -0.2958
     16 C5        -25.8430   37.9590   17.2640 C.ar      1 CMP         0.1045
     17 C6        -26.6740   38.0190   18.4160 C.ar      1 CMP         0.1298
     18 N6        -27.9870   38.1500   18.3430 N.pl3     1 CMP        -0.3152
     19 N1        -26.0180   37.9230   19.6510 N.ar      1 CMP        -0.2698
     20 C2        -24.6850   37.7810   19.8670 C.ar      1 CMP         0.0533
     21 N3        -23.8590   37.7190   18.8110 N.ar      1 CMP        -0.2714
     22 C4        -24.5360   37.8160   17.6370 C.ar      1 CMP         0.1613
     23 H         -20.5674   35.1161   17.6345 H         1 CMP         0.0647
     24 H         -19.7944   34.5335   16.2720 H         1 CMP         0.0647
     25 H         -19.5784   36.8261   15.3015 H         1 CMP         0.0655
     26 H         -20.9927   37.7170   18.0114 H         1 CMP         0.0712
     27 H         -21.7534   39.7089   16.6180 H         1 CMP         0.0680
     28 H         -21.3154   40.0062   14.7295 H         1 CMP         0.2101
     29 H         -23.3421   37.2509   15.6035 H         1 CMP         0.0996
     30 H         -24.5619   37.8905   14.4093 H         1 CMP         0.1349
     31 H         -28.4435   38.2125   17.4330 H         1 CMP         0.1820
     32 H         -28.5439   38.1887   19.1967 H         1 CMP         0.1820
     33 H         -24.2921   37.7184   20.8818 H         1 CMP         0.0996
@<TRIPOS>BOND
     1    1    2 ar 
     2    1    3 ar 
     3    1    4 1  
     4    1    9 1  
     5    4    5 1  
     6    5    6 1  
     7    6    7 1  
     8    6    8 1  
     9    7   12 1  
    10    8    9 1  
    11    8   10 1  
    12   10   11 1  
    13   10   12 1  
    14   12   13 1  
    15   13   14 1  
    16   13   22 1  
    17   14   15 2  
    18   15   16 1  
    19   16   17 ar 
    20   16   22 ar 
    21   17   18 1  
    22   17   19 ar 
    23   19   20 ar 
    24   20   21 ar 
    25   21   22 ar 
    26    5   23 1  
    27    5   24 1  
    28    6   25 1  
    29    8   26 1  
    30   10   27 1  
    31   11   28 1  
    32   12   29 1  
    33   14   30 1  
    34   18   31 1  
    35   18   32 1  
    36   20   33 1  
@<TRIPOS>SUBSTRUCTURE
     1 CMP         1

