3o8g_ligand
  -I-interpret- 

 36 38  0  0  0  0  0  0  0  0999 V2000
   33.5260   71.9530   10.9420 C   0  0  0  0  0
   33.5350   73.3910   10.4800 C   0  0  0  0  0
   32.5430   74.2860   11.1860 N   0  0  0  0  0
   32.1080   73.9630   12.6280 C   0  0  0  0  0
   32.1780   72.4660   12.9940 C   0  0  0  0  0
   33.5050   71.8790   12.5000 C   0  0  0  0  0
   32.0750   75.4260   10.6050 C   0  0  0  0  0
   32.4000   75.7790    9.4590 O   0  0  0  0  0
   31.0870   76.3590   11.3450 C   0  0  0  0  0
   33.4510   69.3670   12.2690 N   0  0  0  0  0
   33.5700   70.4560   13.0110 C   0  0  0  0  0
   33.7250   70.1320   14.3310 O   0  0  0  0  0
   33.6800   68.7530   14.3610 N   0  0  0  0  0
   33.5130   68.3280   13.1060 C   0  0  0  0  0
   33.4380   66.9920   12.7280 C   0  0  0  0  0
   33.4810   66.4560   11.5080 C   0  0  0  0  0
   33.3460   65.1090   11.5110 C   0  0  0  0  0
   33.2130   64.4960   12.7030 C   0  0  0  0  0
   33.2400   65.7390   13.8520 S   0  0  0  0  0
   30.4250   77.2490   10.3440 N   0  0  0  0  0
   30.9770   78.1920   10.0460 N   0  0  0  0  0
   31.5150   79.1250    9.7240 N   0  0  0  0  0
   34.4258   71.4582   10.5764 H   0  0  0  0  0
   32.6344   71.4617   10.5524 H   0  0  0  0  0
   33.2641   73.3872    9.4242 H   0  0  0  0  0
   34.5279   73.7870   10.6931 H   0  0  0  0  0
   31.0658   74.2675   12.7237 H   0  0  0  0  0
   32.7930   74.4877   13.2941 H   0  0  0  0  0
   31.3496   71.9380   12.5217 H   0  0  0  0  0
   32.1122   72.3537   14.0762 H   0  0  0  0  0
   34.3743   72.4267   12.8640 H   0  0  0  0  0
   31.6251   76.9616   12.0767 H   0  0  0  0  0
   30.3358   75.7643   11.8649 H   0  0  0  0  0
   33.6118   67.0435   10.5992 H   0  0  0  0  0
   33.3450   64.5403   10.5811 H   0  0  0  0  0
   33.1099   63.4268   12.8884 H   0  0  0  0  0
  1  2  1  0  0  0
  1  6  1  0  0  0
  2  3  1  0  0  0
  3  4  1  0  0  0
  3  7  1  0  0  0
  4  5  1  0  0  0
  5  6  1  0  0  0
  6 11  1  0  0  0
  7  8  2  0  0  0
  7  9  1  0  0  0
  9 20  1  0  0  0
 11 10  4  0  0  0
 10 14  4  0  0  0
 11 12  4  0  0  0
 12 13  4  0  0  0
 13 14  4  0  0  0
 14 15  1  0  0  0
 15 16  4  0  0  0
 15 19  4  0  0  0
 16 17  4  0  0  0
 17 18  4  0  0  0
 18 19  4  0  0  0
 20 21  2  0  0  0
 21 22  3  0  0  0
  1 23  1  0  0  0
  1 24  1  0  0  0
  2 25  1  0  0  0
  2 26  1  0  0  0
  4 27  1  0  0  0
  4 28  1  0  0  0
  5 29  1  0  0  0
  5 30  1  0  0  0
  6 31  1  0  0  0
  9 32  1  0  0  0
  9 33  1  0  0  0
 16 34  1  0  0  0
 17 35  1  0  0  0
 18 36  1  0  0  0
M  END
$$$$
