5z1e_ligand
  -I-interpret- 

 35 37  0  0  0  0  0  0  0  0999 V2000
   13.2660    4.4100   15.1110 O   0  0  0  0  0
   12.4760    3.5390   14.7600 C   0  0  0  0  0
   12.9500    2.1240   14.6890 C   0  0  0  0  0
   14.2180    1.8050   14.8910 C   0  0  0  0  0
   11.2100    3.7830   14.3610 N   0  0  0  0  0
   10.5910    5.0070   14.1700 C   0  0  0  0  0
   11.0940    6.2750   14.5480 C   0  0  0  0  0
   10.3720    7.4400   14.2360 C   0  0  0  0  0
    9.1600    7.3680   13.5590 C   0  0  0  0  0
    8.6650    6.1310   13.1750 C   0  0  0  0  0
    9.3680    4.9730   13.4770 C   0  0  0  0  0
   10.8100    8.7970   14.6610 C   0  0  0  0  0
   10.4890    9.9270   14.0000 N   0  0  0  0  0
   11.0160   11.0320   14.6940 N   0  0  0  0  0
   11.6520   10.6730   15.7900 C   0  0  0  0  0
   11.5090    9.1910   15.8320 C   0  0  0  0  0
   12.3190   11.3600   16.7830 C   0  0  0  0  0
   12.8590   10.6340   17.8220 C   0  0  0  0  0
   13.5580   11.4120   18.8910 C   0  0  0  0  0
   12.7490    9.2270   17.9020 C   0  0  0  0  0
   12.0770    8.4920   16.9150 C   0  0  0  0  0
   12.2329    1.3343   14.4651 H   0  0  0  0  0
   14.9467    2.5838   15.1159 H   0  0  0  0  0
   14.5339    0.7634   14.8325 H   0  0  0  0  0
   10.6356    2.9606   14.1765 H   0  0  0  0  0
   12.0418    6.3481   15.0813 H   0  0  0  0  0
    8.6030    8.2770   13.3318 H   0  0  0  0  0
    7.7207    6.0678   12.6342 H   0  0  0  0  0
    8.9606    4.0103   13.1683 H   0  0  0  0  0
   12.4160   12.4451   16.7467 H   0  0  0  0  0
   14.3881   11.9654   18.4520 H   0  0  0  0  0
   12.8564   12.1094   19.3487 H   0  0  0  0  0
   13.9371   10.7262   19.6487 H   0  0  0  0  0
   13.1952    8.7033   18.7474 H   0  0  0  0  0
   11.9962    7.4072   16.9840 H   0  0  0  0  0
  1  2  2  0  0  0
  2  3  1  0  0  0
  2  5  1  0  0  0
  3  4  2  0  0  0
  5  6  1  0  0  0
  6  7  4  0  0  0
  6 11  4  0  0  0
  7  8  4  0  0  0
  8  9  4  0  0  0
  8 12  1  0  0  0
  9 10  4  0  0  0
 10 11  4  0  0  0
 12 13  4  0  0  0
 12 16  4  0  0  0
 13 14  4  0  0  0
 14 15  4  0  0  0
 15 16  4  0  0  0
 15 17  4  0  0  0
 16 21  4  0  0  0
 17 18  4  0  0  0
 18 19  1  0  0  0
 18 20  4  0  0  0
 20 21  4  0  0  0
  3 22  1  0  0  0
  4 23  1  0  0  0
  4 24  1  0  0  0
  5 25  1  0  0  0
  7 26  1  0  0  0
  9 27  1  0  0  0
 10 28  1  0  0  0
 11 29  1  0  0  0
 17 30  1  0  0  0
 19 31  1  0  0  0
 19 32  1  0  0  0
 19 33  1  0  0  0
 20 34  1  0  0  0
 21 35  1  0  0  0
M  END
$$$$
