4man_ligand
  -I-interpret- 

118125  0  0  0  0  0  0  0  0999 V2000
  -15.1650    1.3410   10.7500 C   0  0  0  0  0
  -14.3970    1.5960    9.6430 C   0  0  0  0  0
  -11.2320    1.9860    8.3020 C   0  0  0  0  0
  -13.1260    3.0450    7.3620 C   0  0  0  0  0
  -13.9940   11.2540   11.1220 C   0  0  0  0  0
   -8.5330   13.7640    8.0680 C   0  0  0  0  0
  -10.4620    2.7140    4.4660 Cl  0  0  0  0  0
  -13.8170    9.8770   11.0770 C   0  0  0  0  0
  -10.1510   16.9850    7.3980 C   0  0  0  0  0
  -14.7650    1.8070   11.9730 C   0  0  0  0  0
   -9.0000   13.3000    9.2770 C   0  0  0  0  0
  -10.4410   16.7760    8.7250 C   0  0  0  0  0
  -10.5750    2.0770    7.0970 C   0  0  0  0  0
  -12.4820    3.1080    6.1470 C   0  0  0  0  0
  -11.2520   13.1280    5.8160 C   0  0  0  0  0
  -11.0850   12.5670    8.3040 C   0  0  0  0  0
  -11.5070   10.1730   10.7130 C   0  0  0  0  0
  -12.6330   16.0290    8.1370 C   0  0  0  0  0
  -10.3570   13.7500    4.9750 C   0  0  0  0  0
  -10.6370   13.0560    7.0890 C   0  0  0  0  0
  -12.5170    2.4710    8.4530 C   0  0  0  0  0
  -13.2270    2.3230    9.7090 C   0  0  0  0  0
  -12.9260   12.1180   10.9960 C   0  0  0  0  0
  -12.7980    2.7860   10.9490 C   0  0  0  0  0
   -9.3910   13.6360    6.9960 C   0  0  0  0  0
  -12.5650    9.2910   10.8690 C   0  0  0  0  0
  -11.0790   16.7240    6.4060 C   0  0  0  0  0
  -12.3190   16.2280    6.7980 C   0  0  0  0  0
  -10.2380   12.7140    9.3730 C   0  0  0  0  0
  -13.5810    2.5180   12.0680 C   0  0  0  0  0
  -11.6870   11.5400   10.7840 C   0  0  0  0  0
  -11.6760   16.3020    9.0910 C   0  0  0  0  0
  -11.2140    2.6150    6.0080 C   0  0  0  0  0
  -13.1380   13.6050   11.0020 C   0  0  0  0  0
   -7.8860   18.0340    2.9200 C   0  0  0  0  0
  -10.2920   18.1450    2.3080 C   0  0  0  0  0
  -13.4640    7.0250   10.7180 C   0  0  0  0  0
  -11.1930    7.4190   11.6340 C   0  0  0  0  0
  -13.0370    5.6140   10.3760 C   0  0  0  0  0
  -10.7550    6.0140   11.2540 C   0  0  0  0  0
   -7.6030   17.7500    1.4560 C   0  0  0  0  0
   -9.9010   18.0050    0.8490 C   0  0  0  0  0
   -9.2720   17.4930    3.2270 C   0  0  0  0  0
  -12.0470    4.2650   17.2260 C   0  0  0  0  0
  -14.2790    3.9610   16.2960 C   0  0  0  0  0
  -11.5780    3.6610   11.1020 C   0  0  0  0  0
   -9.6330   17.7890    4.6790 C   0  0  0  0  0
  -12.2280    2.6620   15.3910 C   0  0  0  0  0
  -13.1190    2.0570   14.3280 C   0  0  0  0  0
   -9.2320   14.0340    5.6980 N   0  0  0  0  0
  -12.2880    7.8920   10.7700 N   0  0  0  0  0
  -11.9460    5.1210   11.2840 N   0  3  0  0  0
  -10.7500   16.9180    5.0430 N   0  0  0  0  0
  -12.0070   14.4140   11.2640 N   0  0  0  0  0
  -12.9440    3.3480   16.5010 N   0  3  0  0  0
  -13.3590   15.9070    5.8260 N   0  0  0  0  0
  -14.4390   15.4930    6.2510 O   0  0  0  0  0
  -14.1860   14.1550   10.6720 O   0  0  0  0  0
  -13.1650   16.0380    4.6120 O   0  0  0  0  0
  -13.3490   16.5830   11.0450 O   0  0  0  0  0
  -10.8500   16.6400   11.5270 O   0  0  0  0  0
   -8.5660   18.4720    0.6730 O   0  0  0  0  0
  -10.5450   12.2820   10.6310 O   0  0  0  0  0
  -13.1630    3.0290   13.2910 O   0  0  0  0  0
  -11.9970   16.0940   10.8410 S   0  0  0  0  0
  -16.0889    0.7703   10.6564 H   0  0  0  0  0
  -14.7227    1.2105    8.6769 H   0  0  0  0  0
  -10.7305    1.5235    9.1521 H   0  0  0  0  0
  -14.1311    3.4552    7.4604 H   0  0  0  0  0
  -14.9963   11.6597   11.2595 H   0  0  0  0  0
   -7.5425   14.2069    7.9641 H   0  0  0  0  0
  -14.6848    9.2307   11.2085 H   0  0  0  0  0
   -9.1676   17.3650    7.1210 H   0  0  0  0  0
  -15.3704    1.6209   12.8601 H   0  0  0  0  0
   -8.3800   13.3989   10.1680 H   0  0  0  0  0
   -9.6903   16.9866    9.4867 H   0  0  0  0  0
   -9.5483    1.7223    7.0071 H   0  0  0  0  0
  -12.9863    3.5540    5.2897 H   0  0  0  0  0
  -12.2440   12.7613    5.5523 H   0  0  0  0  0
  -12.0598   12.0901    8.4060 H   0  0  0  0  0
  -10.5080    9.7774   10.5297 H   0  0  0  0  0
  -13.6180   15.6637    8.4277 H   0  0  0  0  0
  -10.5168   13.9758    3.9207 H   0  0  0  0  0
   -7.8412   19.1050    3.1174 H   0  0  0  0  0
   -7.1396   17.5551    3.5537 H   0  0  0  0  0
  -11.2527   17.6516    2.4555 H   0  0  0  0  0
  -10.3438   19.2066    2.5498 H   0  0  0  0  0
  -13.9609    7.0288   11.6881 H   0  0  0  0  0
  -14.1514    7.3911    9.9554 H   0  0  0  0  0
  -10.3430    8.0909   11.5150 H   0  0  0  0  0
  -11.5467    7.4046   12.6649 H   0  0  0  0  0
  -12.6577    5.6107    9.3541 H   0  0  0  0  0
  -13.9001    4.9587   10.4929 H   0  0  0  0  0
  -10.0046    5.6558   11.9587 H   0  0  0  0  0
  -10.3194    6.0184   10.2548 H   0  0  0  0  0
   -7.6793   16.6811    1.2569 H   0  0  0  0  0
   -6.5925   18.0669    1.1982 H   0  0  0  0  0
  -10.5785   18.5944    0.2312 H   0  0  0  0  0
   -9.9635   16.9578    0.5530 H   0  0  0  0  0
   -9.2770   16.4148    3.0670 H   0  0  0  0  0
  -11.9260    5.1830   16.6510 H   0  0  0  0  0
  -12.4780    4.4987   18.1995 H   0  0  0  0  0
  -11.0758    3.7892   17.3620 H   0  0  0  0  0
  -14.7234    4.1928   17.2639 H   0  0  0  0  0
  -14.1714    4.8772   15.7153 H   0  0  0  0  0
  -14.9198    3.2619   15.7586 H   0  0  0  0  0
  -10.9779    3.5708   10.1966 H   0  0  0  0  0
  -11.0325    3.3339   11.9871 H   0  0  0  0  0
   -9.9134   18.8359    4.7954 H   0  0  0  0  0
   -8.7781   17.6028    5.3290 H   0  0  0  0  0
  -11.6189    3.4184   14.8961 H   0  0  0  0  0
  -11.6710    1.8390   15.8387 H   0  0  0  0  0
  -14.1132    1.8311   14.7136 H   0  0  0  0  0
  -12.7329    1.1020   13.9716 H   0  0  0  0  0
  -12.3447    5.1648   12.2218 H   0  0  0  0  0
  -11.2913   16.4509    4.3156 H   0  0  0  0  0
  -11.1862   14.0023   11.7081 H   0  0  0  0  0
  -13.2124    2.5350   17.0554 H   0  0  0  0  0
  2  1  4  0  0  0
 10  1  4  0  0  0
 22  2  4  0  0  0
  3 13  4  0  0  0
 21  3  4  0  0  0
  4 14  4  0  0  0
 21  4  4  0  0  0
  5  8  4  0  0  0
 23  5  4  0  0  0
 11  6  4  0  0  0
  6 25  4  0  0  0
 33  7  1  0  0  0
  8 26  4  0  0  0
 12  9  4  0  0  0
  9 27  4  0  0  0
 30 10  4  0  0  0
 29 11  4  0  0  0
 32 12  4  0  0  0
 13 33  4  0  0  0
 14 33  4  0  0  0
 15 19  4  0  0  0
 20 15  4  0  0  0
 16 20  4  0  0  0
 29 16  4  0  0  0
 17 26  4  0  0  0
 31 17  4  0  0  0
 18 28  4  0  0  0
 32 18  4  0  0  0
 50 19  4  0  0  0
 20 25  4  0  0  0
 22 21  1  0  0  0
 24 22  4  0  0  0
 23 31  4  0  0  0
 34 23  1  0  0  0
 24 30  4  0  0  0
 46 24  1  0  0  0
 25 50  4  0  0  0
 26 51  1  0  0  0
 28 27  4  0  0  0
 27 53  1  0  0  0
 28 56  1  0  0  0
 63 29  1  0  0  0
 30 64  1  0  0  0
 31 63  1  0  0  0
 65 32  1  0  0  0
 54 34  1  0  0  0
 34 58  2  0  0  0
 35 41  1  0  0  0
 43 35  1  0  0  0
 36 42  1  0  0  0
 43 36  1  0  0  0
 37 39  1  0  0  0
 51 37  1  0  0  0
 38 40  1  0  0  0
 51 38  1  0  0  0
 39 52  1  0  0  0
 40 52  1  0  0  0
 41 62  1  0  0  0
 42 62  1  0  0  0
 47 43  1  0  0  0
 55 44  1  0  0  0
 55 45  1  0  0  0
 52 46  1  0  0  0
 53 47  1  0  0  0
 49 48  1  0  0  0
 48 55  1  0  0  0
 64 49  1  0  0  0
 54 65  1  0  0  0
 56 57  2  0  0  0
 56 59  2  0  0  0
 65 60  2  0  0  0
 65 61  2  0  0  0
  1 66  1  0  0  0
  2 67  1  0  0  0
  3 68  1  0  0  0
  4 69  1  0  0  0
  5 70  1  0  0  0
  6 71  1  0  0  0
  8 72  1  0  0  0
  9 73  1  0  0  0
 10 74  1  0  0  0
 11 75  1  0  0  0
 12 76  1  0  0  0
 13 77  1  0  0  0
 14 78  1  0  0  0
 15 79  1  0  0  0
 16 80  1  0  0  0
 17 81  1  0  0  0
 18 82  1  0  0  0
 19 83  1  0  0  0
 35 84  1  0  0  0
 35 85  1  0  0  0
 36 86  1  0  0  0
 36 87  1  0  0  0
 37 88  1  0  0  0
 37 89  1  0  0  0
 38 90  1  0  0  0
 38 91  1  0  0  0
 39 92  1  0  0  0
 39 93  1  0  0  0
 40 94  1  0  0  0
 40 95  1  0  0  0
 41 96  1  0  0  0
 41 97  1  0  0  0
 42 98  1  0  0  0
 42 99  1  0  0  0
 43100  1  0  0  0
 44101  1  0  0  0
 44102  1  0  0  0
 44103  1  0  0  0
 45104  1  0  0  0
 45105  1  0  0  0
 45106  1  0  0  0
 46107  1  0  0  0
 46108  1  0  0  0
 47109  1  0  0  0
 47110  1  0  0  0
 48111  1  0  0  0
 48112  1  0  0  0
 49113  1  0  0  0
 49114  1  0  0  0
 52115  1  0  0  0
 53116  1  0  0  0
 54117  1  0  0  0
 55118  1  0  0  0
M  END
$$$$
