4gy5_ligand
  -I-interpret- 

179178  0  0  0  0  0  0  0  0999 V2000
   28.1990   31.2740    6.7730 N   0  3  0  0  0
   27.5710   32.5880    6.8390 C   0  0  0  0  0
   26.5320   32.7600    5.7380 C   0  0  0  0  0
   26.7840   32.4400    4.5770 O   0  0  0  0  0
   28.6220   33.6810    6.7520 C   0  0  0  0  0
   25.3650   33.2690    6.1120 N   0  0  0  0  0
   24.2780   33.4760    5.1640 C   0  0  0  0  0
   24.0850   34.9520    4.8400 C   0  0  0  0  0
   23.7510   35.7480    5.7140 O   0  0  0  0  0
   22.9740   32.9000    5.7210 C   0  0  0  0  0
   22.8700   31.3870    5.6510 C   0  0  0  0  0
   21.8390   30.8770    6.6420 C   0  0  0  0  0
   20.6680   31.7470    6.7030 N   0  0  0  0  0
   19.9550   31.9600    7.8040 C   0  0  0  0  0
   20.2950   31.3660    8.9400 N   0  0  0  0  0
   18.9050   32.7690    7.7730 N   0  0  0  0  0
   24.3020   35.3120    3.5800 N   0  0  0  0  0
   24.0000   36.6570    3.1080 C   0  0  0  0  0
   22.6490   36.6360    2.4060 C   0  0  0  0  0
   22.1940   35.5810    1.9640 O   0  0  0  0  0
   25.0730   37.1770    2.1370 C   0  0  0  0  0
   25.1940   36.2770    1.0280 O   0  0  0  0  0
   26.4170   37.2920    2.8390 C   0  0  0  0  0
   22.0040   37.7940    2.3070 N   0  0  0  0  0
   20.6870   37.8620    1.6840 C   0  0  0  0  0
   20.7260   37.3650    0.2430 C   0  0  0  0  0
   19.7220   36.8880   -0.2830 O   0  0  0  0  0
   20.1160   39.2810    1.7430 C   0  0  0  0  0
   18.6680   39.3680    1.2820 C   0  0  0  0  0
   18.1650   40.8010    1.2490 C   0  0  0  0  0
   16.7350   40.8630    0.7330 C   0  0  0  0  0
   16.2540   42.2630    0.5780 N   0  3  0  0  0
   21.8900   37.4760   -0.3910 N   0  0  0  0  0
   22.0610   36.9930   -1.7570 C   0  0  0  0  0
   22.1540   35.4730   -1.8110 C   0  0  0  0  0
   21.8310   34.8580   -2.8270 O   0  0  0  0  0
   23.3000   37.6130   -2.4060 C   0  0  0  0  0
   23.0810   39.0110   -2.9520 C   0  0  0  0  0
   23.9640   39.3100   -4.1470 C   0  0  0  0  0
   25.0140   38.6920   -4.3280 O   0  0  0  0  0
   23.5360   40.2510   -4.9780 N   0  0  0  0  0
   22.5970   34.8710   -0.7130 N   0  0  0  0  0
   22.7500   33.4240   -0.6440 C   0  0  0  0  0
   21.4370   32.7430   -0.2680 C   0  0  0  0  0
   21.0780   31.7120   -0.8350 O   0  0  0  0  0
   23.8350   33.0220    0.3740 C   0  0  0  0  0
   25.0790   33.6380    0.0190 O   0  0  0  0  0
   24.0110   31.5120    0.4000 C   0  0  0  0  0
   20.7220   33.3320    0.6850 N   0  0  0  0  0
   19.4850   32.7460    1.1920 C   0  0  0  0  0
   18.2940   32.9790    0.2650 C   0  0  0  0  0
   17.1640   32.6090    0.5890 O   0  0  0  0  0
   19.1820   33.2790    2.5870 C   0  0  0  0  0
   18.5520   33.5880   -0.8890 N   0  0  0  0  0
   17.4940   33.8890   -1.8530 C   0  0  0  0  0
   16.7100   32.6470   -2.2640 C   0  0  0  0  0
   15.4820   32.6410   -2.2420 O   0  0  0  0  0
   18.0770   34.5690   -3.0950 C   0  0  0  0  0
   18.5250   36.0010   -2.8590 C   0  0  0  0  0
   17.7440   36.9670   -3.7340 C   0  0  0  0  0
   18.3200   37.0960   -5.0690 N   0  0  0  0  0
   17.6430   37.5020   -6.1370 C   0  0  0  0  0
   16.3560   37.8080   -6.0330 N   0  0  0  0  0
   18.2480   37.5930   -7.3130 N   0  0  0  0  0
   17.4290   31.5950   -2.6380 N   0  0  0  0  0
   16.8140   30.3810   -3.0690 C   0  0  0  0  0
   17.7290   29.6470   -4.0350 C   0  0  0  0  0
   17.3510   29.6890   -5.5320 C   0  0  0  0  0
   18.4770   29.5150   -6.5530 C   0  0  0  0  0
   18.2940   30.1740   -7.9230 C   0  0  0  0  0
   19.3250   29.8870   -8.9850 N   0  3  0  0  0
   16.5170   29.5280   -1.8770 C   0  0  0  0  0
   16.8450   28.3470   -1.8670 O   0  0  0  0  0
   19.2260   30.5750  -10.2750 C   0  0  0  0  0
   20.6320   30.2380   -8.4160 C   0  0  0  0  0
   19.2510   28.4650   -9.2670 C   0  0  0  0  0
   15.8920   30.1300   -0.8670 N   0  0  0  0  0
   15.4970   29.4370    0.3570 C   0  0  0  0  0
   16.2920   28.1580    0.6080 C   0  0  0  0  0
   17.2880   28.1570    1.3798 O   0  0  0  0  0
   13.9980   29.1300    0.3350 C   0  0  0  0  0
   13.5800   28.5420    1.5550 O   0  0  0  0  0
   15.9476   27.0895    0.0359 O   0  0  0  0  0
   27.4810   30.5520    6.8326 H   0  0  0  0  0
   28.7021   31.1829    5.8904 H   0  0  0  0  0
   28.8518   31.1710    7.5500 H   0  0  0  0  0
   27.0588   32.6679    7.7978 H   0  0  0  0  0
   29.1190   33.6291    5.7833 H   0  0  0  0  0
   28.1430   34.6536    6.8644 H   0  0  0  0  0
   29.3556   33.5419    7.5461 H   0  0  0  0  0
   25.2250   33.5223    7.0901 H   0  0  0  0  0
   24.5453   32.9584    4.2427 H   0  0  0  0  0
   22.1635   33.3028    5.1136 H   0  0  0  0  0
   22.9305   33.1732    6.7753 H   0  0  0  0  0
   23.8400   30.9542    5.8957 H   0  0  0  0  0
   22.5655   31.0997    4.6446 H   0  0  0  0  0
   22.2978   30.8506    7.6304 H   0  0  0  0  0
   21.5142   29.8877    6.3196 H   0  0  0  0  0
   20.3792   32.2208    5.8471 H   0  0  0  0  0
   19.7494   31.5322    9.7856 H   0  0  0  0  0
   21.1021   30.7429    8.9681 H   0  0  0  0  0
   18.6421   33.2303    6.9021 H   0  0  0  0  0
   24.6893   34.6306    2.9272 H   0  0  0  0  0
   23.9801   37.3268    3.9677 H   0  0  0  0  0
   24.7734   38.1635    1.7832 H   0  0  0  0  0
   25.8644   36.6040    0.4236 H   0  0  0  0  0
   26.3303   37.9852    3.6757 H   0  0  0  0  0
   26.7180   36.3114    3.2077 H   0  0  0  0  0
   27.1627   37.6615    2.1351 H   0  0  0  0  0
   22.4347   38.6441    2.6706 H   0  0  0  0  0
   20.0286   37.2049    2.2521 H   0  0  0  0  0
   20.7118   39.9035    1.0755 H   0  0  0  0  0
   20.1505   39.6066    2.7826 H   0  0  0  0  0
   18.0525   38.8074    1.9856 H   0  0  0  0  0
   18.6074   38.9627    0.2720 H   0  0  0  0  0
   18.8034   41.3812    0.5828 H   0  0  0  0  0
   18.1901   41.2046    2.2612 H   0  0  0  0  0
   16.0915   40.3611    1.4556 H   0  0  0  0  0
   16.7063   40.3840   -0.2457 H   0  0  0  0  0
   15.2948   42.2553    0.2312 H   0  0  0  0  0
   16.2862   42.7343    1.4820 H   0  0  0  0  0
   16.8526   42.7554   -0.0851 H   0  0  0  0  0
   22.6800   37.9081    0.0881 H   0  0  0  0  0
   21.1769   37.2994   -2.3161 H   0  0  0  0  0
   23.5742   36.9777   -3.2482 H   0  0  0  0  0
   24.0659   37.6853   -1.6338 H   0  0  0  0  0
   23.3274   39.7229   -2.1643 H   0  0  0  0  0
   22.0421   39.0887   -3.2727 H   0  0  0  0  0
   24.0830   40.4877   -5.8058 H   0  0  0  0  0
   22.6599   40.7380   -4.7893 H   0  0  0  0  0
   22.8360   35.4359    0.1020 H   0  0  0  0  0
   23.0521   33.0931   -1.6376 H   0  0  0  0  0
   23.5242   33.3577    1.3634 H   0  0  0  0  0
   25.7526   33.3858    0.6548 H   0  0  0  0  0
   23.0689   31.0425    0.6831 H   0  0  0  0  0
   24.3084   31.1651   -0.5896 H   0  0  0  0  0
   24.7814   31.2497    1.1251 H   0  0  0  0  0
   21.0466   34.2178    1.0727 H   0  0  0  0  0
   19.6415   31.6683    1.2384 H   0  0  0  0  0
   20.0007   33.0212    3.2588 H   0  0  0  0  0
   19.0725   34.3627    2.5447 H   0  0  0  0  0
   18.2568   32.8331    2.9519 H   0  0  0  0  0
   19.5127   33.8520   -1.1074 H   0  0  0  0  0
   16.7995   34.5670   -1.3569 H   0  0  0  0  0
   17.2908   34.5953   -3.8495 H   0  0  0  0  0
   18.9567   33.9991   -3.3939 H   0  0  0  0  0
   19.5833   36.0818   -3.1072 H   0  0  0  0  0
   18.3485   36.2549   -1.8138 H   0  0  0  0  0
   17.7682   37.9479   -3.2594 H   0  0  0  0  0
   16.7295   36.5827   -3.8394 H   0  0  0  0  0
   19.3048   36.8593   -5.1892 H   0  0  0  0  0
   15.8359   38.1119   -6.8561 H   0  0  0  0  0
   15.8868   37.7393   -5.1299 H   0  0  0  0  0
   19.2352   37.3510   -7.3988 H   0  0  0  0  0
   18.4470   31.6560   -2.6168 H   0  0  0  0  0
   15.8819   30.6077   -3.5865 H   0  0  0  0  0
   17.6834   28.5968   -3.7469 H   0  0  0  0  0
   18.6977   30.1411   -3.9596 H   0  0  0  0  0
   16.9516   30.6884   -5.7047 H   0  0  0  0  0
   16.6814   28.8432   -5.6883 H   0  0  0  0  0
   18.5352   28.4440   -6.7471 H   0  0  0  0  0
   19.3513   29.9929   -6.1111 H   0  0  0  0  0
   18.3558   31.2468   -7.7402 H   0  0  0  0  0
   17.3565   29.7778   -8.3133 H   0  0  0  0  0
   18.2733   30.3294  -10.7442 H   0  0  0  0  0
   19.2876   31.6517  -10.1168 H   0  0  0  0  0
   20.0437   30.2539  -10.9203 H   0  0  0  0  0
   20.6378   31.2942   -8.1467 H   0  0  0  0  0
   20.8139   29.6340   -7.5270 H   0  0  0  0  0
   21.4114   30.0455   -9.1533 H   0  0  0  0  0
   19.4648   27.9039   -8.3573 H   0  0  0  0  0
   18.2503   28.2177   -9.6212 H   0  0  0  0  0
   19.9826   28.2093  -10.0335 H   0  0  0  0  0
   15.6785   31.1238   -0.9521 H   0  0  0  0  0
   15.7229   30.1132    1.1815 H   0  0  0  0  0
   17.4185   29.0400    1.7331 H   0  0  0  0  0
   13.7969   28.4305   -0.4764 H   0  0  0  0  0
   13.4528   30.0630    0.1925 H   0  0  0  0  0
   12.6383   28.3599    1.5150 H   0  0  0  0  0
  1  2  1  0  0  0
  2  3  1  0  0  0
  2  5  1  0  0  0
  3  4  2  0  0  0
  3  6  1  0  0  0
  6  7  1  0  0  0
  7  8  1  0  0  0
  7 10  1  0  0  0
  8  9  2  0  0  0
  8 17  1  0  0  0
 10 11  1  0  0  0
 11 12  1  0  0  0
 12 13  1  0  0  0
 13 14  1  0  0  0
 14 15  1  0  0  0
 14 16  2  0  0  0
 17 18  1  0  0  0
 18 19  1  0  0  0
 18 21  1  0  0  0
 19 20  2  0  0  0
 19 24  1  0  0  0
 21 22  1  0  0  0
 21 23  1  0  0  0
 24 25  1  0  0  0
 25 26  1  0  0  0
 25 28  1  0  0  0
 26 27  2  0  0  0
 26 33  1  0  0  0
 28 29  1  0  0  0
 29 30  1  0  0  0
 30 31  1  0  0  0
 31 32  1  0  0  0
 33 34  1  0  0  0
 34 35  1  0  0  0
 34 37  1  0  0  0
 35 36  2  0  0  0
 35 42  1  0  0  0
 37 38  1  0  0  0
 38 39  1  0  0  0
 39 40  2  0  0  0
 39 41  1  0  0  0
 42 43  1  0  0  0
 43 44  1  0  0  0
 43 46  1  0  0  0
 44 45  2  0  0  0
 44 49  1  0  0  0
 46 47  1  0  0  0
 46 48  1  0  0  0
 49 50  1  0  0  0
 50 51  1  0  0  0
 50 53  1  0  0  0
 51 52  2  0  0  0
 51 54  1  0  0  0
 54 55  1  0  0  0
 55 56  1  0  0  0
 55 58  1  0  0  0
 56 57  2  0  0  0
 56 65  1  0  0  0
 58 59  1  0  0  0
 59 60  1  0  0  0
 60 61  1  0  0  0
 61 62  1  0  0  0
 62 63  1  0  0  0
 62 64  2  0  0  0
 65 66  1  0  0  0
 66 67  1  0  0  0
 66 72  1  0  0  0
 67 68  1  0  0  0
 68 69  1  0  0  0
 69 70  1  0  0  0
 70 71  1  0  0  0
 71 74  1  0  0  0
 71 75  1  0  0  0
 71 76  1  0  0  0
 72 73  2  0  0  0
 72 77  1  0  0  0
 77 78  1  0  0  0
 78 79  1  0  0  0
 78 81  1  0  0  0
 79 80  1  0  0  0
 81 82  1  0  0  0
 79 83  2  0  0  0
  1 84  1  0  0  0
  1 85  1  0  0  0
  1 86  1  0  0  0
  2 87  1  0  0  0
  5 88  1  0  0  0
  5 89  1  0  0  0
  5 90  1  0  0  0
  6 91  1  0  0  0
  7 92  1  0  0  0
 10 93  1  0  0  0
 10 94  1  0  0  0
 11 95  1  0  0  0
 11 96  1  0  0  0
 12 97  1  0  0  0
 12 98  1  0  0  0
 13 99  1  0  0  0
 15100  1  0  0  0
 15101  1  0  0  0
 16102  1  0  0  0
 17103  1  0  0  0
 18104  1  0  0  0
 21105  1  0  0  0
 22106  1  0  0  0
 23107  1  0  0  0
 23108  1  0  0  0
 23109  1  0  0  0
 24110  1  0  0  0
 25111  1  0  0  0
 28112  1  0  0  0
 28113  1  0  0  0
 29114  1  0  0  0
 29115  1  0  0  0
 30116  1  0  0  0
 30117  1  0  0  0
 31118  1  0  0  0
 31119  1  0  0  0
 32120  1  0  0  0
 32121  1  0  0  0
 32122  1  0  0  0
 33123  1  0  0  0
 34124  1  0  0  0
 37125  1  0  0  0
 37126  1  0  0  0
 38127  1  0  0  0
 38128  1  0  0  0
 41129  1  0  0  0
 41130  1  0  0  0
 42131  1  0  0  0
 43132  1  0  0  0
 46133  1  0  0  0
 47134  1  0  0  0
 48135  1  0  0  0
 48136  1  0  0  0
 48137  1  0  0  0
 49138  1  0  0  0
 50139  1  0  0  0
 53140  1  0  0  0
 53141  1  0  0  0
 53142  1  0  0  0
 54143  1  0  0  0
 55144  1  0  0  0
 58145  1  0  0  0
 58146  1  0  0  0
 59147  1  0  0  0
 59148  1  0  0  0
 60149  1  0  0  0
 60150  1  0  0  0
 61151  1  0  0  0
 63152  1  0  0  0
 63153  1  0  0  0
 64154  1  0  0  0
 65155  1  0  0  0
 66156  1  0  0  0
 67157  1  0  0  0
 67158  1  0  0  0
 68159  1  0  0  0
 68160  1  0  0  0
 69161  1  0  0  0
 69162  1  0  0  0
 70163  1  0  0  0
 70164  1  0  0  0
 74165  1  0  0  0
 74166  1  0  0  0
 74167  1  0  0  0
 75168  1  0  0  0
 75169  1  0  0  0
 75170  1  0  0  0
 76171  1  0  0  0
 76172  1  0  0  0
 76173  1  0  0  0
 77174  1  0  0  0
 78175  1  0  0  0
 80176  1  0  0  0
 81177  1  0  0  0
 81178  1  0  0  0
 82179  1  0  0  0
M  END
$$$$
