### 
### Created by X-TOOL on Mon Sep 10 21:13:12 2018
### 

@<TRIPOS>MOLECULE
4gy5_ligand
  180   179     1     0     0
SMALL
GAST_HUCK


@<TRIPOS>ATOM
      1 N          28.1990   31.2740    6.7730 N.4       1 ALA         0.2377
      2 CA         27.5710   32.5880    6.8390 C.3       1 ALA         0.0621
      3 C          26.5320   32.7600    5.7380 C.2       1 ALA         0.2264
      4 O          26.7840   32.4400    4.5770 O.2       1 ALA        -0.3907
      5 CB         28.6220   33.6810    6.7520 C.3       1 ALA        -0.0040
      6 N          25.3650   33.2690    6.1120 N.am      1 ARG        -0.2610
      7 CA         24.2780   33.4760    5.1640 C.3       1 ARG         0.1312
      8 C          24.0850   34.9520    4.8400 C.2       1 ARG         0.2040
      9 O          23.7510   35.7480    5.7140 O.2       1 ARG        -0.3944
     10 CB         22.9740   32.9000    5.7210 C.3       1 ARG        -0.0092
     11 CG         22.8700   31.3870    5.6510 C.3       1 ARG        -0.0156
     12 CD         21.8390   30.8770    6.6420 C.3       1 ARG         0.0627
     13 NE         20.6680   31.7470    6.7030 N.pl3     1 ARG        -0.2723
     14 CZ         19.9550   31.9600    7.8040 C.cat     1 ARG         0.2882
     15 NH1        20.2950   31.3660    8.9400 N.pl3     1 ARG        -0.2849
     16 NH2        18.9050   32.7690    7.7730 N.pl3     1 ARG        -0.2849
     17 N          24.3020   35.3120    3.5800 N.am      1 THR        -0.2613
     18 CA         24.0000   36.6570    3.1080 C.3       1 THR         0.1565
     19 C          22.6490   36.6360    2.4060 C.2       1 THR         0.2065
     20 O          22.1940   35.5810    1.9640 O.2       1 THR        -0.3943
     21 CB         25.0730   37.1770    2.1370 C.3       1 THR         0.0924
     22 OG1        25.1940   36.2770    1.0280 O.3       1 THR        -0.3874
     23 CG2        26.4170   37.2920    2.8390 C.3       1 THR        -0.0346
     24 N          22.0040   37.7940    2.3070 N.am      1 LYS        -0.2637
     25 CA         20.6870   37.8620    1.6840 C.3       1 LYS         0.1310
     26 C          20.7260   37.3650    0.2430 C.2       1 LYS         0.2039
     27 O          19.7220   36.8880   -0.2830 O.2       1 LYS        -0.3944
     28 CB         20.1160   39.2810    1.7430 C.3       1 LYS        -0.0122
     29 CG         18.6680   39.3680    1.2820 C.3       1 LYS        -0.0440
     30 CD         18.1650   40.8010    1.2490 C.3       1 LYS        -0.0124
     31 CE         16.7350   40.8630    0.7330 C.3       1 LYS        -0.0354
     32 NZ         16.2540   42.2630    0.5780 N.4       1 LYS         0.2185
     33 N          21.8900   37.4760   -0.3910 N.am      1 GLN        -0.2636
     34 CA         22.0610   36.9930   -1.7570 C.3       1 GLN         0.1330
     35 C          22.1540   35.4730   -1.8110 C.2       1 GLN         0.2041
     36 O          21.8310   34.8580   -2.8270 O.2       1 GLN        -0.3944
     37 CB         23.3000   37.6130   -2.4060 C.3       1 GLN         0.0045
     38 CG         23.0810   39.0110   -2.9520 C.3       1 GLN         0.0412
     39 CD         23.9640   39.3100   -4.1470 C.2       1 GLN         0.1737
     40 OE1        25.0140   38.6920   -4.3280 O.2       1 GLN        -0.3973
     41 NE2        23.5360   40.2510   -4.9780 N.am      1 GLN        -0.3009
     42 N          22.5970   34.8710   -0.7130 N.am      1 THR        -0.2613
     43 CA         22.7500   33.4240   -0.6440 C.3       1 THR         0.1565
     44 C          21.4370   32.7430   -0.2680 C.2       1 THR         0.2065
     45 O          21.0780   31.7120   -0.8350 O.2       1 THR        -0.3943
     46 CB         23.8350   33.0220    0.3740 C.3       1 THR         0.0924
     47 OG1        25.0790   33.6380    0.0190 O.3       1 THR        -0.3874
     48 CG2        24.0110   31.5120    0.4000 C.3       1 THR        -0.0346
     49 N          20.7220   33.3320    0.6850 N.am      1 ALA        -0.2639
     50 CA         19.4850   32.7460    1.1920 C.3       1 ALA         0.1282
     51 C          18.2940   32.9790    0.2650 C.2       1 ALA         0.2036
     52 O          17.1640   32.6090    0.5890 O.2       1 ALA        -0.3944
     53 CB         19.1820   33.2790    2.5870 C.3       1 ALA        -0.0244
     54 N          18.5520   33.5880   -0.8890 N.am      1 ARG        -0.2637
     55 CA         17.4940   33.8890   -1.8530 C.3       1 ARG         0.1311
     56 C          16.7100   32.6470   -2.2640 C.2       1 ARG         0.2039
     57 O          15.4820   32.6410   -2.2420 O.2       1 ARG        -0.3944
     58 CB         18.0770   34.5690   -3.0950 C.3       1 ARG        -0.0092
     59 CG         18.5250   36.0010   -2.8590 C.3       1 ARG        -0.0156
     60 CD         17.7440   36.9670   -3.7340 C.3       1 ARG         0.0627
     61 NE         18.3200   37.0960   -5.0690 N.pl3     1 ARG        -0.2723
     62 CZ         17.6430   37.5020   -6.1370 C.cat     1 ARG         0.2882
     63 NH1        16.3560   37.8080   -6.0330 N.pl3     1 ARG        -0.2849
     64 NH2        18.2480   37.5930   -7.3130 N.pl3     1 ARG        -0.2849
     65 N          17.4290   31.5950   -2.6380 N.am      1 M3L        -0.2637
     66 CA         16.8140   30.3810   -3.0690 C.3       1 M3L         0.1309
     67 CB         17.7290   29.6470   -4.0350 C.3       1 M3L        -0.0122
     68 CG         17.3510   29.6890   -5.5320 C.3       1 M3L        -0.0440
     69 CD         18.4770   29.5150   -6.5530 C.3       1 M3L        -0.0123
     70 CE         18.2940   30.1740   -7.9230 C.3       1 M3L        -0.0309
     71 NZ         19.3250   29.8870   -8.9850 N.4       1 M3L         0.2369
     72 C          16.5170   29.5280   -1.8770 C.2       1 M3L         0.2034
     73 O          16.8450   28.3470   -1.8670 O.2       1 M3L        -0.3944
     74 CM1        19.2260   30.5750  -10.2750 C.3       1 M3L        -0.0418
     75 CM2        20.6320   30.2380   -8.4160 C.3       1 M3L        -0.0418
     76 CM3        19.2510   28.4650   -9.2670 C.3       1 M3L        -0.0418
     77 N          15.8920   30.1300   -0.8670 N.am      1 SER        -0.2672
     78 CA         15.4970   29.4370    0.3570 C.3       1 SER         0.1173
     79 C          16.2920   28.1580    0.6080 C.2       1 SER         0.0623
     80 O          17.2880   28.1570    1.3798 O.co2     1 SER        -0.5665
     81 CB         13.9980   29.1300    0.3350 C.3       1 SER         0.0789
     82 OG         13.5800   28.5420    1.5550 O.3       1 SER        -0.3910
     83 H          27.4810   30.5520    6.8326 H         1 ALA         0.2015
     84 H          28.7021   31.1829    5.8904 H         1 ALA         0.2015
     85 H          28.8518   31.1710    7.5500 H         1 ALA         0.2015
     86 H          27.0588   32.6679    7.7978 H         1 ALA         0.1095
     87 H          29.1190   33.6291    5.7833 H         1 ALA         0.0310
     88 H          28.1430   34.6536    6.8644 H         1 ALA         0.0310
     89 H          29.3556   33.5419    7.5461 H         1 ALA         0.0310
     90 H          25.2250   33.5223    7.0901 H         1 ARG         0.1884
     91 H          24.5453   32.9584    4.2427 H         1 ARG         0.0800
     92 H          22.1635   33.3028    5.1136 H         1 ARG         0.0313
     93 H          22.9305   33.1732    6.7753 H         1 ARG         0.0313
     94 H          23.8400   30.9542    5.8957 H         1 ARG         0.0301
     95 H          22.5655   31.0997    4.6446 H         1 ARG         0.0301
     96 H          22.2978   30.8506    7.6304 H         1 ARG         0.0689
     97 H          21.5142   29.8877    6.3196 H         1 ARG         0.0689
     98 H          20.3792   32.2208    5.8471 H         1 ARG         0.2642
     99 H          21.1040   30.7454    8.9688 H         1 ARG         0.2615
    100 H          19.7475   31.5297    9.7849 H         1 ARG         0.2615
    101 H          18.6421   33.2303    6.9021 H         1 ARG         0.2615
    102 H          18.3601   32.9301    8.6201 H         1 ARG         0.2615
    103 H          24.6893   34.6306    2.9272 H         1 THR         0.1884
    104 H          23.9801   37.3268    3.9677 H         1 THR         0.0826
    105 H          24.7734   38.1635    1.7832 H         1 THR         0.0639
    106 H          25.4470   35.4081    1.3486 H         1 THR         0.2101
    107 H          26.3303   37.9852    3.6757 H         1 THR         0.0257
    108 H          26.7180   36.3114    3.2077 H         1 THR         0.0257
    109 H          27.1627   37.6615    2.1351 H         1 THR         0.0257
    110 H          22.4347   38.6441    2.6706 H         1 LYS         0.1883
    111 H          20.0286   37.2049    2.2521 H         1 LYS         0.0800
    112 H          20.7118   39.9035    1.0755 H         1 LYS         0.0312
    113 H          20.1505   39.6066    2.7826 H         1 LYS         0.0312
    114 H          18.0525   38.8074    1.9856 H         1 LYS         0.0269
    115 H          18.6074   38.9627    0.2720 H         1 LYS         0.0269
    116 H          18.8034   41.3812    0.5828 H         1 LYS         0.0317
    117 H          18.1901   41.2046    2.2612 H         1 LYS         0.0317
    118 H          16.0915   40.3611    1.4556 H         1 LYS         0.0813
    119 H          16.7063   40.3840   -0.2457 H         1 LYS         0.0813
    120 H          15.2948   42.2553    0.2312 H         1 LYS         0.1994
    121 H          16.2862   42.7343    1.4820 H         1 LYS         0.1994
    122 H          16.8526   42.7554   -0.0851 H         1 LYS         0.1994
    123 H          22.6800   37.9081    0.0881 H         1 GLN         0.1883
    124 H          21.1769   37.2994   -2.3161 H         1 GLN         0.0801
    125 H          23.5742   36.9777   -3.2482 H         1 GLN         0.0337
    126 H          24.0659   37.6853   -1.6338 H         1 GLN         0.0337
    127 H          23.3274   39.7229   -2.1643 H         1 GLN         0.0504
    128 H          22.0421   39.0887   -3.2727 H         1 GLN         0.0504
    129 H          24.0830   40.4877   -5.8058 H         1 GLN         0.1814
    130 H          22.6599   40.7380   -4.7893 H         1 GLN         0.1814
    131 H          22.8360   35.4359    0.1020 H         1 THR         0.1884
    132 H          23.0521   33.0931   -1.6376 H         1 THR         0.0826
    133 H          23.5242   33.3577    1.3634 H         1 THR         0.0639
    134 H          24.9749   34.5923    0.0231 H         1 THR         0.2101
    135 H          23.0689   31.0425    0.6831 H         1 THR         0.0257
    136 H          24.3084   31.1651   -0.5896 H         1 THR         0.0257
    137 H          24.7814   31.2497    1.1251 H         1 THR         0.0257
    138 H          21.0466   34.2178    1.0727 H         1 ALA         0.1883
    139 H          19.6415   31.6683    1.2384 H         1 ALA         0.0797
    140 H          20.0007   33.0212    3.2588 H         1 ALA         0.0277
    141 H          19.0725   34.3627    2.5447 H         1 ALA         0.0277
    142 H          18.2568   32.8331    2.9519 H         1 ALA         0.0277
    143 H          19.5127   33.8520   -1.1074 H         1 ARG         0.1883
    144 H          16.7995   34.5670   -1.3569 H         1 ARG         0.0800
    145 H          17.2908   34.5953   -3.8495 H         1 ARG         0.0313
    146 H          18.9567   33.9991   -3.3939 H         1 ARG         0.0313
    147 H          19.5833   36.0818   -3.1072 H         1 ARG         0.0301
    148 H          18.3485   36.2549   -1.8138 H         1 ARG         0.0301
    149 H          17.7682   37.9479   -3.2594 H         1 ARG         0.0689
    150 H          16.7295   36.5827   -3.8394 H         1 ARG         0.0689
    151 H          19.3048   36.8593   -5.1892 H         1 ARG         0.2642
    152 H          15.8848   37.7316   -5.1316 H         1 ARG         0.2615
    153 H          15.8379   38.1196   -6.8545 H         1 ARG         0.2615
    154 H          19.2352   37.3510   -7.3988 H         1 ARG         0.2615
    155 H          17.7264   37.9050   -8.1321 H         1 ARG         0.2615
    156 H          18.4470   31.6560   -2.6168 H         1 M3L         0.1883
    157 H          15.8819   30.6077   -3.5865 H         1 M3L         0.0800
    158 H          17.6834   28.5968   -3.7469 H         1 M3L         0.0312
    159 H          18.6977   30.1411   -3.9596 H         1 M3L         0.0312
    160 H          16.9516   30.6884   -5.7047 H         1 M3L         0.0269
    161 H          16.6814   28.8432   -5.6883 H         1 M3L         0.0269
    162 H          18.5352   28.4440   -6.7471 H         1 M3L         0.0317
    163 H          19.3513   29.9929   -6.1111 H         1 M3L         0.0317
    164 H          18.3558   31.2468   -7.7402 H         1 M3L         0.0815
    165 H          17.3565   29.7778   -8.3133 H         1 M3L         0.0815
    166 H          18.2733   30.3294  -10.7442 H         1 M3L         0.0778
    167 H          19.2876   31.6517  -10.1168 H         1 M3L         0.0778
    168 H          20.0437   30.2539  -10.9203 H         1 M3L         0.0778
    169 H          20.6378   31.2942   -8.1467 H         1 M3L         0.0778
    170 H          20.8139   29.6340   -7.5270 H         1 M3L         0.0778
    171 H          21.4114   30.0455   -9.1533 H         1 M3L         0.0778
    172 H          19.4648   27.9039   -8.3573 H         1 M3L         0.0778
    173 H          18.2503   28.2177   -9.6212 H         1 M3L         0.0778
    174 H          19.9826   28.2093  -10.0335 H         1 M3L         0.0778
    175 H          15.6785   31.1238   -0.9521 H         1 SER         0.1876
    176 H          15.7229   30.1132    1.1815 H         1 SER         0.0749
    177 O          15.9476   27.0895    0.0359 O.co2     1 SER        -0.5665
    178 H          13.7969   28.4305   -0.4764 H         1 SER         0.0599
    179 H          13.4528   30.0630    0.1925 H         1 SER         0.0599
    180 H          12.6384   28.3599    1.5150 H         1 SER         0.2096
@<TRIPOS>BOND
     1    1    2 1  
     2    2    3 1  
     3    2    5 1  
     4    3    4 2  
     5    3    6 am 
     6    6    7 1  
     7    7    8 1  
     8    7   10 1  
     9    8    9 2  
    10    8   17 am 
    11   10   11 1  
    12   11   12 1  
    13   12   13 1  
    14   13   14 ar 
    15   14   15 ar 
    16   14   16 ar 
    17   17   18 1  
    18   18   19 1  
    19   18   21 1  
    20   19   20 2  
    21   19   24 am 
    22   21   22 1  
    23   21   23 1  
    24   24   25 1  
    25   25   26 1  
    26   25   28 1  
    27   26   27 2  
    28   26   33 am 
    29   28   29 1  
    30   29   30 1  
    31   30   31 1  
    32   31   32 1  
    33   33   34 1  
    34   34   35 1  
    35   34   37 1  
    36   35   36 2  
    37   35   42 am 
    38   37   38 1  
    39   38   39 1  
    40   39   40 2  
    41   39   41 am 
    42   42   43 1  
    43   43   44 1  
    44   43   46 1  
    45   44   45 2  
    46   44   49 am 
    47   46   47 1  
    48   46   48 1  
    49   49   50 1  
    50   50   51 1  
    51   50   53 1  
    52   51   52 2  
    53   51   54 am 
    54   54   55 1  
    55   55   56 1  
    56   55   58 1  
    57   56   57 2  
    58   56   65 am 
    59   58   59 1  
    60   59   60 1  
    61   60   61 1  
    62   61   62 ar 
    63   62   63 ar 
    64   62   64 ar 
    65   65   66 1  
    66   66   67 1  
    67   66   72 1  
    68   67   68 1  
    69   68   69 1  
    70   69   70 1  
    71   70   71 1  
    72   71   74 1  
    73   71   75 1  
    74   71   76 1  
    75   72   73 2  
    76   72   77 am 
    77   77   78 1  
    78   78   79 1  
    79   78   81 1  
    80   79   80 ar 
    81   81   82 1  
    82    1   83 1  
    83    1   84 1  
    84    1   85 1  
    85    2   86 1  
    86    5   87 1  
    87    5   88 1  
    88    5   89 1  
    89    6   90 1  
    90    7   91 1  
    91   10   92 1  
    92   10   93 1  
    93   11   94 1  
    94   11   95 1  
    95   12   96 1  
    96   12   97 1  
    97   13   98 1  
    98   15   99 1  
    99   15  100 1  
   100   16  101 1  
   101   16  102 1  
   102   17  103 1  
   103   18  104 1  
   104   21  105 1  
   105   22  106 1  
   106   23  107 1  
   107   23  108 1  
   108   23  109 1  
   109   24  110 1  
   110   25  111 1  
   111   28  112 1  
   112   28  113 1  
   113   29  114 1  
   114   29  115 1  
   115   30  116 1  
   116   30  117 1  
   117   31  118 1  
   118   31  119 1  
   119   32  120 1  
   120   32  121 1  
   121   32  122 1  
   122   33  123 1  
   123   34  124 1  
   124   37  125 1  
   125   37  126 1  
   126   38  127 1  
   127   38  128 1  
   128   41  129 1  
   129   41  130 1  
   130   42  131 1  
   131   43  132 1  
   132   46  133 1  
   133   47  134 1  
   134   48  135 1  
   135   48  136 1  
   136   48  137 1  
   137   49  138 1  
   138   50  139 1  
   139   53  140 1  
   140   53  141 1  
   141   53  142 1  
   142   54  143 1  
   143   55  144 1  
   144   58  145 1  
   145   58  146 1  
   146   59  147 1  
   147   59  148 1  
   148   60  149 1  
   149   60  150 1  
   150   61  151 1  
   151   63  152 1  
   152   63  153 1  
   153   64  154 1  
   154   64  155 1  
   155   65  156 1  
   156   66  157 1  
   157   67  158 1  
   158   67  159 1  
   159   68  160 1  
   160   68  161 1  
   161   69  162 1  
   162   69  163 1  
   163   70  164 1  
   164   70  165 1  
   165   74  166 1  
   166   74  167 1  
   167   74  168 1  
   168   75  169 1  
   169   75  170 1  
   170   75  171 1  
   171   76  172 1  
   172   76  173 1  
   173   76  174 1  
   174   77  175 1  
   175   78  176 1  
   176   79  177 ar 
   177   81  178 1  
   178   81  179 1  
   179   82  180 1  
@<TRIPOS>SUBSTRUCTURE
     1 ALA         1

