3rux_ligand
  -I-interpret- 

 67 71  0  0  0  0  0  0  0  0999 V2000
   -4.0920   -4.9830    6.3300 S   0  0  0  0  0
   -7.8300   -1.0370   13.4530 N   0  0  0  0  0
   -8.1340   -0.8270   12.1590 C   0  0  0  0  0
   -7.2130   -0.5570   11.2140 N   0  0  0  0  0
   -5.9000   -0.4970   11.5290 C   0  0  0  0  0
   -5.4870   -0.7140   12.9210 C   0  0  0  0  0
   -6.5570   -0.9990   13.9030 C   0  0  0  0  0
   -6.2680   -1.2180   15.2090 N   0  0  0  0  0
   -4.1440   -0.5920   12.9520 N   0  0  0  0  0
   -3.7370   -0.3140   11.6850 C   0  0  0  0  0
   -4.7860   -0.2600   10.8410 N   0  0  0  0  0
   -4.7280    0.0070    9.3880 C   0  0  0  0  0
   -0.5630  -10.3490   15.3780 N   0  0  0  0  0
   -3.3960   -8.6010   15.7040 S   0  0  0  0  0
   -3.3930    0.6150    9.0130 C   0  0  0  0  0
   -3.6520    1.5980    8.0050 O   0  0  0  0  0
   -3.4780   -9.0630   14.0020 C   0  0  0  0  0
   -1.0550   -9.2430   13.5610 N   0  0  0  0  0
   -2.6110   -0.5180    8.3840 C   0  0  0  0  0
   -1.7750   -0.0310    7.3320 O   0  0  0  0  0
   -0.1300   -9.4560   14.4950 C   0  0  0  0  0
    0.9630   -8.9020   14.5500 O   0  0  0  0  0
   -3.7040   -1.4120    7.8370 C   0  0  0  0  0
   -4.8030   -1.2650    8.7390 O   0  0  0  0  0
   -2.2710   -9.9810   13.8340 C   0  0  0  0  0
   -3.3050   -2.8760    7.7270 C   0  0  0  0  0
   -4.3580   -3.5610    7.0050 N   0  0  0  0  0
   -1.9490  -10.6900   15.1510 C   0  0  0  0  0
   -2.8150  -10.1590   16.2930 C   0  0  0  0  0
   -3.4800   -7.8750   13.0450 C   0  0  0  0  0
   -3.7070   -8.3360   11.6100 C   0  0  0  0  0
   -4.1370   -7.1770   10.7110 C   0  0  0  0  0
   -4.1180   -7.5730    9.2300 C   0  0  0  0  0
   -4.5570   -6.4130    8.3630 C   0  0  0  0  0
   -3.7180   -6.0270    7.3930 N   0  0  0  0  0
   -5.6370   -5.8910    8.5640 O   0  0  0  0  0
   -5.2910   -5.3690    5.6450 O   0  0  0  0  0
   -3.0040   -4.8650    5.4010 O   0  0  0  0  0
   -9.1809   -0.8781   11.8598 H   0  0  0  0  0
   -7.0182   -1.4157   15.8712 H   0  0  0  0  0
   -5.3003   -1.1851   15.5297 H   0  0  0  0  0
   -2.6994   -0.1557   11.3908 H   0  0  0  0  0
   -5.5309    0.6865    9.1022 H   0  0  0  0  0
    0.0108  -10.7445   16.1228 H   0  0  0  0  0
   -2.8656    1.0627    9.8553 H   0  0  0  0  0
   -2.8255    2.0081    7.7397 H   0  0  0  0  0
   -4.4166   -9.5554   13.7477 H   0  0  0  0  0
   -0.9234   -8.6349   12.7527 H   0  0  0  0  0
   -1.9440   -1.0272    9.0797 H   0  0  0  0  0
   -1.2883   -0.7632    6.9466 H   0  0  0  0  0
   -3.9427   -1.1135    6.8162 H   0  0  0  0  0
   -2.5402  -10.6546   13.0204 H   0  0  0  0  0
   -3.1763   -3.3116    8.7178 H   0  0  0  0  0
   -2.3556   -2.9739    7.2005 H   0  0  0  0  0
   -5.2792   -3.1300    6.9272 H   0  0  0  0  0
   -2.1355  -11.7630   15.1065 H   0  0  0  0  0
   -3.6321  -10.8368   16.5400 H   0  0  0  0  0
   -2.2565  -10.0652   17.2243 H   0  0  0  0  0
   -2.5137   -7.3742   13.1045 H   0  0  0  0  0
   -4.2854   -7.1973   13.3279 H   0  0  0  0  0
   -4.4982   -9.0857   11.6092 H   0  0  0  0  0
   -2.7715   -8.7425   11.2257 H   0  0  0  0  0
   -3.4391   -6.3523   10.8555 H   0  0  0  0  0
   -5.1550   -6.8937   10.9783 H   0  0  0  0  0
   -4.8037   -8.4066    9.0784 H   0  0  0  0  0
   -3.1026   -7.8565    8.9531 H   0  0  0  0  0
   -2.7884   -6.4453    7.3585 H   0  0  0  0  0
  1 27  1  0  0  0
 35  1  1  0  0  0
  1 37  2  0  0  0
  1 38  2  0  0  0
  3  2  4  0  0  0
  7  2  4  0  0  0
  4  3  4  0  0  0
  5  4  4  0  0  0
  5  6  4  0  0  0
 11  5  4  0  0  0
  6  7  4  0  0  0
  9  6  4  0  0  0
  7  8  1  0  0  0
 10  9  4  0  0  0
 11 10  4  0  0  0
 12 11  1  0  0  0
 12 15  1  0  0  0
 24 12  1  0  0  0
 13 21  1  0  0  0
 28 13  1  0  0  0
 17 14  1  0  0  0
 14 29  1  0  0  0
 15 16  1  0  0  0
 19 15  1  0  0  0
 17 25  1  0  0  0
 30 17  1  0  0  0
 18 21  1  0  0  0
 25 18  1  0  0  0
 19 20  1  0  0  0
 23 19  1  0  0  0
 21 22  2  0  0  0
 23 24  1  0  0  0
 26 23  1  0  0  0
 25 28  1  0  0  0
 27 26  1  0  0  0
 28 29  1  0  0  0
 31 30  1  0  0  0
 32 31  1  0  0  0
 33 32  1  0  0  0
 34 33  1  0  0  0
 34 35  1  0  0  0
 34 36  2  0  0  0
  3 39  1  0  0  0
  8 40  1  0  0  0
  8 41  1  0  0  0
 10 42  1  0  0  0
 12 43  1  0  0  0
 13 44  1  0  0  0
 15 45  1  0  0  0
 16 46  1  0  0  0
 17 47  1  0  0  0
 18 48  1  0  0  0
 19 49  1  0  0  0
 20 50  1  0  0  0
 23 51  1  0  0  0
 25 52  1  0  0  0
 26 53  1  0  0  0
 26 54  1  0  0  0
 27 55  1  0  0  0
 28 56  1  0  0  0
 29 57  1  0  0  0
 29 58  1  0  0  0
 30 59  1  0  0  0
 30 60  1  0  0  0
 31 61  1  0  0  0
 31 62  1  0  0  0
 32 63  1  0  0  0
 32 64  1  0  0  0
 33 65  1  0  0  0
 33 66  1  0  0  0
 35 67  1  0  0  0
M  END
$$$$
