4b1d_ligand
  -I-interpret- 

 52 55  0  0  0  0  0  0  0  0999 V2000
    4.7110    4.3820  -25.5000 C   0  0  0  0  0
    5.4900    4.4570  -24.2210 C   0  0  0  0  0
    5.1330    3.5910  -23.2100 C   0  0  0  0  0
    5.8290    3.5610  -22.0080 C   0  0  0  0  0
    6.8880    4.4360  -21.8400 C   0  0  0  0  0
    7.2550    5.3240  -22.8340 C   0  0  0  0  0
    6.5450    5.3440  -24.0230 C   0  0  0  0  0
    6.9330    6.2180  -25.0380 O   0  0  0  0  0
    6.1430    7.4240  -25.0090 C   0  0  0  0  0
    8.4090    6.2260  -22.5500 C   0  0  0  0  0
    5.4510    2.5860  -20.9070 C   0  0  0  0  0
    6.2380    2.8010  -19.6680 N   0  0  0  0  0
    5.3770    3.2130  -18.8030 C   0  0  0  0  0
    4.0100    3.2740  -19.3710 C   0  0  0  0  0
    4.0420    2.8650  -20.5910 N   0  0  0  0  0
    2.9360    3.6680  -18.6110 N   0  0  0  0  0
    5.6500    3.4900  -17.3550 C   0  0  0  0  0
    5.7170    1.1390  -21.2760 C   0  0  0  0  0
    6.5340    0.7710  -22.3420 C   0  0  0  0  0
    6.7660   -0.5690  -22.6290 C   0  0  0  0  0
    6.2090   -1.5590  -21.8380 C   0  0  0  0  0
    5.4220   -1.2220  -20.7490 C   0  0  0  0  0
    5.1880    0.1240  -20.4880 C   0  0  0  0  0
    4.8680   -2.2350  -19.8590 C   0  0  0  0  0
    3.5810   -2.1690  -19.3630 C   0  0  0  0  0
    3.0810   -3.0170  -18.4550 N   0  0  0  0  0
    3.9180   -3.9960  -18.0730 C   0  0  0  0  0
    5.1730   -4.2120  -18.4970 N   0  0  0  0  0
    5.6180   -3.3000  -19.3790 C   0  0  0  0  0
    4.8089    3.3833  -25.9255 H   0  0  0  0  0
    3.6606    4.5905  -25.2969 H   0  0  0  0  0
    5.0993    5.1179  -26.2041 H   0  0  0  0  0
    4.2889    2.9171  -23.3562 H   0  0  0  0  0
    7.4451    4.4248  -20.9032 H   0  0  0  0  0
    5.0916    7.1715  -25.1463 H   0  0  0  0  0
    6.2761    7.9210  -24.0481 H   0  0  0  0  0
    6.4662    8.0879  -25.8108 H   0  0  0  0  0
    8.1824    6.8405  -21.6787 H   0  0  0  0  0
    9.2973    5.6261  -22.3520 H   0  0  0  0  0
    8.5875    6.8681  -23.4125 H   0  0  0  0  0
    3.2445    2.7556  -21.2174 H   0  0  0  0  0
    3.0704    3.9264  -17.6335 H   0  0  0  0  0
    6.0045    2.5791  -16.8727 H   0  0  0  0  0
    6.4107    4.2663  -17.2720 H   0  0  0  0  0
    4.7326    3.8253  -16.8713 H   0  0  0  0  0
    6.9965    1.5422  -22.9580 H   0  0  0  0  0
    7.3893   -0.8415  -23.4807 H   0  0  0  0  0
    6.3904   -2.6078  -22.0729 H   0  0  0  0  0
    4.5666    0.3926  -19.6337 H   0  0  0  0  0
    2.9309   -1.3766  -19.7339 H   0  0  0  0  0
    3.5329   -4.6967  -17.3322 H   0  0  0  0  0
    6.6401   -3.4042  -19.7430 H   0  0  0  0  0
  1  2  1  0  0  0
  2  3  4  0  0  0
  2  7  4  0  0  0
  3  4  4  0  0  0
  4  5  4  0  0  0
  4 11  1  0  0  0
  5  6  4  0  0  0
  6  7  4  0  0  0
  6 10  1  0  0  0
  7  8  1  0  0  0
  8  9  1  0  0  0
 11 12  1  0  0  0
 11 15  1  0  0  0
 11 18  1  0  0  0
 12 13  2  0  0  0
 13 14  1  0  0  0
 13 17  1  0  0  0
 14 15  1  0  0  0
 14 16  2  0  0  0
 18 19  4  0  0  0
 18 23  4  0  0  0
 19 20  4  0  0  0
 20 21  4  0  0  0
 21 22  4  0  0  0
 22 23  4  0  0  0
 22 24  1  0  0  0
 24 25  4  0  0  0
 24 29  4  0  0  0
 25 26  4  0  0  0
 26 27  4  0  0  0
 27 28  4  0  0  0
 28 29  4  0  0  0
  1 30  1  0  0  0
  1 31  1  0  0  0
  1 32  1  0  0  0
  3 33  1  0  0  0
  5 34  1  0  0  0
  9 35  1  0  0  0
  9 36  1  0  0  0
  9 37  1  0  0  0
 10 38  1  0  0  0
 10 39  1  0  0  0
 10 40  1  0  0  0
 15 41  1  0  0  0
 16 42  1  0  0  0
 17 43  1  0  0  0
 17 44  1  0  0  0
 17 45  1  0  0  0
 19 46  1  0  0  0
 20 47  1  0  0  0
 21 48  1  0  0  0
 23 49  1  0  0  0
 25 50  1  0  0  0
 27 51  1  0  0  0
 29 52  1  0  0  0
M  END
$$$$
