### 
### Created by X-TOOL on Mon Sep 10 21:13:28 2018
### 

@<TRIPOS>MOLECULE
5cuu_ligand
   35    35     1     0     0
SMALL
GAST_HUCK


@<TRIPOS>ATOM
      1 CAA       -18.3980   42.1330  -11.4470 C.3       1 4GA        -0.0652
      2 OAB       -18.5750   35.6790  -12.2560 O.co2     1 4GA        -0.5594
      3 OAC       -18.3150   31.8790  -13.5530 O.co2     1 4GA        -0.5594
      4 OAD       -15.8230   34.3760  -14.7340 O.3       1 4GA        -0.3586
      5 OAE       -19.4310   33.8530  -13.8290 O.co2     1 4GA        -0.5594
      6 OAF       -18.3970   35.9970  -14.8020 O.co2     1 4GA        -0.5594
      7 OAG       -16.5700   32.1490  -11.6820 O.co2     1 4GA        -0.5594
      8 OAH       -15.8210   31.5440  -14.0790 O.co2     1 4GA        -0.5594
      9 CAI       -14.3900   37.9050  -12.8460 C.2       1 4GA         0.1816
     10 CAJ       -14.4450   36.6030  -13.1130 C.2       1 4GA         0.1186
     11 CAK       -16.2540   37.1540  -12.0800 C.2       1 4GA         0.1886
     12 CAL       -17.5680   41.0840  -10.7040 C.3       1 4GA        -0.0532
     13 CAM       -17.2590   39.9160  -11.6430 C.3       1 4GA        -0.0218
     14 CAN       -15.7780   39.5420  -11.5390 C.3       1 4GA         0.0877
     15 CAO       -15.9170   34.7110  -12.3960 C.3       1 4GA         0.0809
     16 NAP       -15.5030   38.2430  -12.1970 N.pl3     1 4GA        -0.1380
     17 NAQ       -15.5880   36.1360  -12.6220 N.2       1 4GA        -0.2649
     18 CAR       -16.6670   34.1450  -13.6040 C.3       1 4GA         0.2171
     19 PAS       -18.3190   35.0110  -13.6990 P.3       1 4GA         0.1110
     20 PAT       -16.9430   32.3360  -13.2370 P.3       1 4GA         0.1110
     21 H1        -18.6192   42.9718  -10.7707 H         1 4GA         0.0230
     22 H2        -19.3400   41.6799  -11.7895 H         1 4GA         0.0230
     23 H3        -17.8314   42.5014  -12.3149 H         1 4GA         0.0230
     24 H4        -15.6481   35.3065  -14.8123 H         1 4GA         0.2133
     25 H5        -13.5761   38.5779  -13.1119 H         1 4GA         0.2017
     26 H6        -13.6884   36.0234  -13.6399 H         1 4GA         0.1406
     27 H7        -17.2405   37.1025  -11.6217 H         1 4GA         0.1987
     28 H8        -18.1348   40.7160   -9.8361 H         1 4GA         0.0264
     29 H9        -16.6262   41.5375  -10.3615 H         1 4GA         0.0264
     30 H10       -17.4894   40.2091  -12.6779 H         1 4GA         0.0294
     31 H11       -17.8748   39.0490  -11.3617 H         1 4GA         0.0294
     32 H12       -15.4999   39.4716  -10.4771 H         1 4GA         0.0657
     33 H13       -15.1760   40.3241  -12.0246 H         1 4GA         0.0657
     34 H14       -16.5497   34.6215  -11.5007 H         1 4GA         0.0476
     35 H15       -14.9873   34.1425  -12.2463 H         1 4GA         0.0476
@<TRIPOS>BOND
     1   12    1 1  
     2   19    2 ar 
     3   20    3 ar 
     4   18    4 1  
     5   19    5 ar 
     6   19    6 ar 
     7   20    7 ar 
     8   20    8 ar 
     9   10    9 2  
    10   16    9 1  
    11   17   10 1  
    12   11   16 1  
    13   17   11 2  
    14   13   12 1  
    15   14   13 1  
    16   16   14 1  
    17   15   17 1  
    18   18   15 1  
    19   18   19 1  
    20   18   20 1  
    21    1   21 1  
    22    1   22 1  
    23    1   23 1  
    24    4   24 1  
    25    9   25 1  
    26   10   26 1  
    27   11   27 1  
    28   12   28 1  
    29   12   29 1  
    30   13   30 1  
    31   13   31 1  
    32   14   32 1  
    33   14   33 1  
    34   15   34 1  
    35   15   35 1  
@<TRIPOS>SUBSTRUCTURE
     1 4GA         1

