5cuu_ligand
  -I-interpret- 

 39 39  0  0  0  0  0  0  0  0999 V2000
  -18.3980   42.1330  -11.4470 C   0  0  0  0  0
  -18.5750   35.6790  -12.2560 O   0  0  0  0  0
  -18.3150   31.8790  -13.5530 O   0  0  0  0  0
  -15.8230   34.3760  -14.7340 O   0  0  0  0  0
  -19.4310   33.8530  -13.8290 O   0  0  0  0  0
  -18.3970   35.9970  -14.8020 O   0  0  0  0  0
  -16.5700   32.1490  -11.6820 O   0  0  0  0  0
  -15.8210   31.5440  -14.0790 O   0  0  0  0  0
  -14.3900   37.9050  -12.8460 C   0  0  0  0  0
  -14.4450   36.6030  -13.1130 C   0  0  0  0  0
  -16.2540   37.1540  -12.0800 C   0  0  0  0  0
  -17.5680   41.0840  -10.7040 C   0  0  0  0  0
  -17.2590   39.9160  -11.6430 C   0  0  0  0  0
  -15.7780   39.5420  -11.5390 C   0  0  0  0  0
  -15.9170   34.7110  -12.3960 C   0  0  0  0  0
  -15.5030   38.2430  -12.1970 N   0  0  0  0  0
  -15.5880   36.1360  -12.6220 N   0  3  0  0  0
  -16.6670   34.1450  -13.6040 C   0  0  0  0  0
  -18.3190   35.0110  -13.6990 P   0  0  0  0  0
  -16.9430   32.3360  -13.2370 P   0  0  0  0  0
  -17.8356   42.4972  -12.3067 H   0  0  0  0  0
  -19.3311   41.6828  -11.7859 H   0  0  0  0  0
  -18.6165   42.9636  -10.7758 H   0  0  0  0  0
  -18.5145   35.0034  -11.5766 H   0  0  0  0  0
  -14.9962   33.9026  -14.6165 H   0  0  0  0  0
  -19.3411   33.2408  -13.0950 H   0  0  0  0  0
  -15.6742   32.4588  -11.5295 H   0  0  0  0  0
  -14.9515   31.8739  -13.8407 H   0  0  0  0  0
  -13.5754   38.5785  -13.1122 H   0  0  0  0  0
  -13.6877   36.0229  -13.6403 H   0  0  0  0  0
  -17.2414   37.1024  -11.6212 H   0  0  0  0  0
  -18.1303   40.7191   -9.8445 H   0  0  0  0  0
  -16.6346   41.5336  -10.3654 H   0  0  0  0  0
  -17.4847   40.2094  -12.6682 H   0  0  0  0  0
  -17.8676   39.0569  -11.3607 H   0  0  0  0  0
  -15.5143   39.4595  -10.4846 H   0  0  0  0  0
  -15.1896   40.3137  -12.0354 H   0  0  0  0  0
  -16.5484   34.6261  -11.5116 H   0  0  0  0  0
  -14.9937   34.1494  -12.2536 H   0  0  0  0  0
 12  1  1  0  0  0
 19  2  1  0  0  0
 20  3  2  0  0  0
 18  4  1  0  0  0
 19  5  1  0  0  0
 19  6  2  0  0  0
 20  7  1  0  0  0
 20  8  1  0  0  0
 10  9  4  0  0  0
 16  9  4  0  0  0
 17 10  4  0  0  0
 11 16  4  0  0  0
 17 11  4  0  0  0
 13 12  1  0  0  0
 14 13  1  0  0  0
 16 14  1  0  0  0
 15 17  1  0  0  0
 18 15  1  0  0  0
 18 19  1  0  0  0
 18 20  1  0  0  0
  1 21  1  0  0  0
  1 22  1  0  0  0
  1 23  1  0  0  0
  2 24  1  0  0  0
  4 25  1  0  0  0
  5 26  1  0  0  0
  7 27  1  0  0  0
  8 28  1  0  0  0
  9 29  1  0  0  0
 10 30  1  0  0  0
 11 31  1  0  0  0
 12 32  1  0  0  0
 12 33  1  0  0  0
 13 34  1  0  0  0
 13 35  1  0  0  0
 14 36  1  0  0  0
 14 37  1  0  0  0
 15 38  1  0  0  0
 15 39  1  0  0  0
M  END
$$$$
