4ax9_ligand
  -I-interpret- 

 73 76  0  0  0  0  0  0  0  0999 V2000
   17.7370  -12.9750   21.1270 N   0  0  0  0  0
   18.6830  -13.7220   20.3520 C   0  0  0  0  0
   16.8790  -13.6150   22.0190 C   0  0  0  0  0
   17.6590  -11.5820   20.8440 C   0  0  0  0  0
   20.0700  -13.1470   20.0650 C   0  0  0  0  0
   19.9200  -14.3280   20.9770 C   0  0  0  0  0
   16.9460  -15.1600   22.1650 C   0  0  0  0  0
   16.0580  -12.9750   22.6910 O   0  0  0  0  0
   16.6660  -11.6270   19.6790 C   0  0  0  0  0
   16.4850  -15.6460   23.4110 N   0  0  0  0  0
   15.9770  -15.6560   21.0550 C   0  0  0  0  0
   16.5900  -10.5570   18.8560 O   0  0  0  0  0
   15.9200  -12.5530   19.3650 O   0  0  0  0  0
   17.4120  -16.7460   24.1380 S   0  0  0  0  0
   14.4840  -15.3310   21.3120 C   0  0  0  0  0
   18.7430  -15.8260   24.5750 C   0  0  0  0  0
   16.6880  -17.0720   25.2910 O   0  0  0  0  0
   17.6620  -17.6840   23.1350 O   0  0  0  0  0
   13.8870  -14.2270   20.7230 N   0  0  0  0  0
   13.7860  -16.0850   22.0300 O   0  0  0  0  0
   20.0400  -16.0170   24.1530 C   0  0  0  0  0
   18.4750  -14.7500   25.4650 C   0  0  0  0  0
   12.4990  -13.8980   20.8990 C   0  0  0  0  0
   21.0570  -15.1400   24.6180 C   0  0  0  0  0
   19.4330  -13.8990   25.9250 C   0  0  0  0  0
   12.1900  -12.4500   21.3330 C   0  0  0  0  0
   20.7480  -14.0800   25.5100 C   0  0  0  0  0
   22.3990  -15.2940   24.2120 C   0  0  0  0  0
   12.5760  -12.3160   22.8090 C   0  0  0  0  0
   12.9710  -11.4340   20.5020 C   0  0  0  0  0
   21.7610  -13.2020   25.9700 C   0  0  0  0  0
   23.3630  -14.4350   24.6580 C   0  0  0  0  0
   12.4380  -10.9660   23.3380 N   0  0  0  0  0
   12.6880  -10.0320   21.0300 C   0  0  0  0  0
   23.0470  -13.3790   25.5470 C   0  0  0  0  0
   13.0380   -9.9160   22.5120 C   0  0  0  0  0
   11.2250  -10.7710   24.1160 C   0  0  0  0  0
   10.4600  -11.9530   24.3330 N   0  0  0  0  0
   10.8860   -9.6050   24.5720 N   0  0  0  0  0
   17.8556  -14.1080   19.7566 H   0  0  0  0  0
   18.6127  -11.1060   20.6160 H   0  0  0  0  0
   17.3524  -10.9594   21.6845 H   0  0  0  0  0
   20.5681  -12.1775   20.0571 H   0  0  0  0  0
   20.6699  -12.8481   19.2054 H   0  0  0  0  0
   20.3629  -15.3162   21.1009 H   0  0  0  0  0
   20.2595  -14.6348   21.9663 H   0  0  0  0  0
   17.9772  -15.5051   22.0893 H   0  0  0  0  0
   15.6132  -15.3181   23.8268 H   0  0  0  0  0
   16.0649  -16.7418   21.0171 H   0  0  0  0  0
   16.2601  -15.1466   20.1339 H   0  0  0  0  0
   17.1958   -9.8772   19.1600 H   0  0  0  0  0
   14.4599  -13.6196   20.1371 H   0  0  0  0  0
   20.2836  -16.8312   23.4704 H   0  0  0  0  0
   17.4478  -14.5984   25.7967 H   0  0  0  0  0
   12.1340  -14.5399   21.7008 H   0  0  0  0  0
   12.0297  -14.0296   19.9241 H   0  0  0  0  0
   19.1737  -13.0893   26.6071 H   0  0  0  0  0
   11.1302  -12.2457   21.1808 H   0  0  0  0  0
   22.6693  -16.1056   23.5364 H   0  0  0  0  0
   13.6275  -12.5904   22.8941 H   0  0  0  0  0
   11.9025  -12.9565   23.3785 H   0  0  0  0  0
   12.6637  -11.5011   19.4584 H   0  0  0  0  0
   14.0380  -11.6442   20.5751 H   0  0  0  0  0
   21.5153  -12.3916   26.6563 H   0  0  0  0  0
   24.3925  -14.5646   24.3241 H   0  0  0  0  0
   11.6253   -9.8229   20.9071 H   0  0  0  0  0
   13.2985   -9.3216   20.4727 H   0  0  0  0  0
   23.8315  -12.7066   25.8941 H   0  0  0  0  0
   14.1205  -10.0076   22.6011 H   0  0  0  0  0
   12.6519   -8.9601   22.8659 H   0  0  0  0  0
    9.5953  -11.9090   24.8722 H   0  0  0  0  0
   10.7770  -12.8433   23.9492 H   0  0  0  0  0
   11.4765   -8.7939   24.3877 H   0  0  0  0  0
  1  2  1  0  0  0
  1  3  1  0  0  0
  1  4  1  0  0  0
  2  5  1  0  0  0
  2  6  1  0  0  0
  3  7  1  0  0  0
  3  8  2  0  0  0
  4  9  1  0  0  0
  5  6  1  0  0  0
  7 10  1  0  0  0
  7 11  1  0  0  0
  9 12  1  0  0  0
  9 13  2  0  0  0
 10 14  1  0  0  0
 11 15  1  0  0  0
 14 16  1  0  0  0
 14 17  2  0  0  0
 14 18  2  0  0  0
 15 19  1  0  0  0
 15 20  2  0  0  0
 16 21  4  0  0  0
 16 22  4  0  0  0
 19 23  1  0  0  0
 21 24  4  0  0  0
 22 25  4  0  0  0
 23 26  1  0  0  0
 24 27  4  0  0  0
 24 28  4  0  0  0
 25 27  4  0  0  0
 26 29  1  0  0  0
 26 30  1  0  0  0
 27 31  4  0  0  0
 28 32  4  0  0  0
 29 33  1  0  0  0
 30 34  1  0  0  0
 31 35  4  0  0  0
 32 35  4  0  0  0
 33 36  1  0  0  0
 33 37  1  0  0  0
 34 36  1  0  0  0
 37 38  1  0  0  0
 37 39  2  0  0  0
  2 40  1  0  0  0
  4 41  1  0  0  0
  4 42  1  0  0  0
  5 43  1  0  0  0
  5 44  1  0  0  0
  6 45  1  0  0  0
  6 46  1  0  0  0
  7 47  1  0  0  0
 10 48  1  0  0  0
 11 49  1  0  0  0
 11 50  1  0  0  0
 12 51  1  0  0  0
 19 52  1  0  0  0
 21 53  1  0  0  0
 22 54  1  0  0  0
 23 55  1  0  0  0
 23 56  1  0  0  0
 25 57  1  0  0  0
 26 58  1  0  0  0
 28 59  1  0  0  0
 29 60  1  0  0  0
 29 61  1  0  0  0
 30 62  1  0  0  0
 30 63  1  0  0  0
 31 64  1  0  0  0
 32 65  1  0  0  0
 34 66  1  0  0  0
 34 67  1  0  0  0
 35 68  1  0  0  0
 36 69  1  0  0  0
 36 70  1  0  0  0
 38 71  1  0  0  0
 38 72  1  0  0  0
 39 73  1  0  0  0
M  END
$$$$
