### 
### Created by X-TOOL on Mon Sep 10 21:13:35 2018
### 

@<TRIPOS>MOLECULE
6f0y_ligand
  266   266     1     0     0
SMALL
GAST_HUCK


@<TRIPOS>ATOM
      1 N         -14.4440  -22.8430    5.1730 N.4       1 LEU         0.2379
      2 CA        -13.2770  -22.1300    4.6100 C.3       1 LEU         0.0652
      3 C         -13.5360  -21.7920    3.1470 C.2       1 LEU         0.2267
      4 O         -13.4920  -22.6650    2.2810 O.2       1 LEU        -0.3907
      5 CB        -12.0140  -22.9960    4.7420 C.3       1 LEU         0.0102
      6 CG        -10.6860  -22.2320    4.8660 C.3       1 LEU        -0.0394
      7 CD1        -9.5370  -23.2020    5.0820 C.3       1 LEU        -0.0623
      8 CD2       -10.4240  -21.3720    3.6370 C.3       1 LEU        -0.0623
      9 N         -13.8110  -20.5250    2.8800 N.am      1 ALA        -0.2613
     10 CA        -14.0560  -20.0540    1.5280 C.3       1 ALA         0.1283
     11 C         -13.2390  -18.7990    1.2560 C.2       1 ALA         0.2036
     12 O         -12.8250  -18.1070    2.1890 O.2       1 ALA        -0.3944
     13 CB        -15.5380  -19.7760    1.3230 C.3       1 ALA        -0.0244
     14 N         -12.9900  -18.5200   -0.0150 N.am      1 ILE        -0.2635
     15 CA        -12.2610  -17.3200   -0.4030 C.3       1 ILE         0.1335
     16 C         -12.9000  -16.6860   -1.6260 C.2       1 ILE         0.2042
     17 O         -13.8670  -17.2070   -2.1810 O.2       1 ILE        -0.3944
     18 CB        -10.7800  -17.5970   -0.7440 C.3       1 ILE        -0.0037
     19 CG1       -10.3610  -19.0060   -0.3400 C.3       1 ILE        -0.0491
     20 CG2        -9.8850  -16.5630   -0.0820 C.3       1 ILE        -0.0582
     21 CD1        -8.9740  -19.3710   -0.8120 C.3       1 ILE        -0.0648
     22 N         -12.3600  -15.5560   -2.0330 N.am      1 THR        -0.2613
     23 CA        -12.7720  -14.8960   -3.2520 C.3       1 THR         0.1565
     24 C         -11.5810  -14.1560   -3.8530 C.2       1 THR         0.2065
     25 O         -11.1390  -13.1380   -3.3220 O.2       1 THR        -0.3943
     26 CB        -13.9310  -13.9210   -2.9840 C.3       1 THR         0.0924
     27 OG1       -15.0420  -14.6350   -2.4170 O.3       1 THR        -0.3874
     28 CG2       -14.3690  -13.2330   -4.2630 C.3       1 THR        -0.0346
     29 N         -11.0530  -14.6920   -4.9460 N.am      1 MET        -0.2636
     30 CA         -9.8330  -14.1690   -5.5560 C.3       1 MET         0.1317
     31 C         -10.0710  -12.8460   -6.2710 C.2       1 MET         0.2039
     32 O          -9.1440  -12.0480   -6.4240 O.2       1 MET        -0.3944
     33 CB         -9.2450  -15.1800   -6.5430 C.3       1 MET        -0.0034
     34 CG         -8.0330  -15.9510   -6.0290 C.3       1 MET        -0.0024
     35 SD         -8.4200  -17.1570   -4.7360 S.3       1 MET        -0.1639
     36 CE         -8.4280  -16.1250   -3.2720 C.3       1 MET        -0.0181
     37 N         -11.3080  -12.6310   -6.7230 N.am      1 LEU        -0.2637
     38 CA        -11.6690  -11.4130   -7.4520 C.3       1 LEU         0.1312
     39 C         -10.8530  -11.2950   -8.7400 C.2       1 LEU         0.2039
     40 O         -10.1270  -12.2110   -9.1270 O.2       1 LEU        -0.3944
     41 CB        -11.4270  -10.1650   -6.5810 C.3       1 LEU        -0.0101
     42 CG        -12.6650   -9.3310   -6.2190 C.3       1 LEU        -0.0425
     43 CD1       -13.3930   -8.8540   -7.4610 C.3       1 LEU        -0.0625
     44 CD2       -13.5980  -10.1170   -5.3320 C.3       1 LEU        -0.0625
     45 N         -11.0050  -10.1720   -9.4100 N.am      1 LYS        -0.2637
     46 CA        -10.1510   -9.8140  -10.5240 C.3       1 LYS         0.1312
     47 C          -9.8680   -8.3220  -10.4260 C.2       1 LYS         0.2064
     48 O         -10.5250   -7.5130  -11.0870 O.2       1 LYS        -0.3942
     49 CB        -10.8290  -10.1570  -11.8590 C.3       1 LYS        -0.0122
     50 CG         -9.8650  -10.5360  -12.9820 C.3       1 LYS        -0.0440
     51 CD         -8.9420   -9.3920  -13.3820 C.3       1 LYS        -0.0124
     52 CE         -8.0210   -9.8050  -14.5220 C.3       1 LYS        -0.0354
     53 NZ         -7.0970   -8.7120  -14.9250 N.4       1 LYS         0.2185
     54 N          -8.9130   -7.9340   -9.5640 N.am      1 PRO        -0.2498
     55 CA         -8.6370   -6.5280   -9.2810 C.3       1 PRO         0.1338
     56 C          -8.0150   -5.8200  -10.4740 C.2       1 PRO         0.2041
     57 O          -6.8350   -5.9940  -10.7780 O.2       1 PRO        -0.3944
     58 CB         -7.6700   -6.5820   -8.0990 C.3       1 PRO        -0.0104
     59 CG         -6.9790   -7.8930   -8.2430 C.3       1 PRO        -0.0281
     60 CD         -8.0080   -8.8320   -8.8170 C.3       1 PRO         0.0369
     61 N          -8.8320   -5.0300  -11.1440 N.am      1 ARG        -0.2637
     62 CA         -8.4190   -4.3060  -12.3310 C.3       1 ARG         0.1311
     63 C          -7.3960   -3.2430  -11.9640 C.2       1 ARG         0.2039
     64 O          -7.2140   -2.9220  -10.7980 O.2       1 ARG        -0.3944
     65 CB         -9.6410   -3.6490  -12.9780 C.3       1 ARG        -0.0092
     66 CG        -10.7860   -4.6180  -13.2160 C.3       1 ARG        -0.0156
     67 CD        -12.0370   -3.9110  -13.7140 C.3       1 ARG         0.0627
     68 NE        -11.8590   -3.3370  -15.0450 N.pl3     1 ARG        -0.2723
     69 CZ        -12.8630   -2.9090  -15.8080 C.cat     1 ARG         0.2882
     70 NH1       -14.1120   -2.9770  -15.3610 N.pl3     1 ARG        -0.2849
     71 NH2       -12.6160   -2.4120  -17.0150 N.pl3     1 ARG        -0.2849
     72 N          -6.7290   -2.7080  -12.9570 N.am      1 LYS        -0.2637
     73 CA         -5.7690   -1.6460  -12.7360 C.3       1 LYS         0.1310
     74 C          -6.4310   -0.3200  -13.0650 C.2       1 LYS         0.2039
     75 O          -6.3590    0.1520  -14.2020 O.2       1 LYS        -0.3944
     76 CB         -4.5160   -1.8530  -13.5950 C.3       1 LYS        -0.0122
     77 CG         -3.3570   -0.9450  -13.2070 C.3       1 LYS        -0.0440
     78 CD         -2.7980   -1.3000  -11.8370 C.3       1 LYS        -0.0124
     79 CE         -1.9920   -2.5900  -11.8700 C.3       1 LYS        -0.0354
     80 NZ         -0.7110   -2.4170  -12.6040 N.4       1 LYS         0.2185
     81 N          -7.0850    0.2610  -12.0610 N.am      1 LYS        -0.2637
     82 CA         -7.9180    1.4410  -12.2460 C.3       1 LYS         0.1310
     83 C          -9.0330    1.1330  -13.2410 C.2       1 LYS         0.2039
     84 O         -10.0230    0.5020  -12.8770 O.2       1 LYS        -0.3944
     85 CB         -7.0640    2.6340  -12.6970 C.3       1 LYS        -0.0122
     86 CG         -7.7850    3.9740  -12.6610 C.3       1 LYS        -0.0440
     87 CD         -7.9320    4.5070  -11.2440 C.3       1 LYS        -0.0124
     88 CE         -6.5810    4.8280  -10.6210 C.3       1 LYS        -0.0354
     89 NZ         -6.7210    5.5780   -9.3460 N.4       1 LYS         0.2185
     90 N          -8.8430    1.5580  -14.4870 N.am      1 ALA        -0.2640
     91 CA         -9.7600    1.2460  -15.5860 C.3       1 ALA         0.1282
     92 C         -11.2210    1.4630  -15.1990 C.2       1 ALA         0.2036
     93 O         -12.0670    0.5950  -15.4140 O.2       1 ALA        -0.3944
     94 CB         -9.5380   -0.1850  -16.0580 C.3       1 ALA        -0.0244
     95 N         -11.5140    2.6270  -14.6410 N.am      1 LYS        -0.2637
     96 CA        -12.8630    2.9310  -14.1890 C.3       1 LYS         0.1310
     97 C         -13.7580    3.2770  -15.3720 C.2       1 LYS         0.2039
     98 O         -13.3090    3.8880  -16.3460 O.2       1 LYS        -0.3944
     99 CB        -12.8430    4.0800  -13.1780 C.3       1 LYS        -0.0122
    100 CG        -12.0640    3.7580  -11.9120 C.3       1 LYS        -0.0440
    101 CD        -12.0540    4.9300  -10.9440 C.3       1 LYS        -0.0124
    102 CE        -11.2410    4.6150   -9.7010 C.3       1 LYS        -0.0354
    103 NZ        -11.0900    5.7980   -8.8120 N.4       1 LYS         0.2185
    104 N         -15.0150    2.8720  -15.2930 N.am      1 ALA        -0.2640
    105 CA        -15.9620    3.1130  -16.3650 C.3       1 ALA         0.1282
    106 C         -17.3030    3.5690  -15.8140 C.2       1 ALA         0.2031
    107 O         -17.7650    3.0720  -14.7850 O.2       1 ALA        -0.3944
    108 CB        -16.1400    1.8570  -17.2060 C.3       1 ALA        -0.0244
    109 N         -17.9160    4.5220  -16.4950 N.am      1 LEU        -0.2695
    110 CA        -19.2300    5.0120  -16.1130 C.3       1 LEU         0.0946
    111 C         -20.0410    5.3500  -17.3610 C.2       1 LEU         0.0601
    112 O         -20.2290    6.5440  -17.6570 O.co2     1 LEU        -0.5666
    113 CB        -19.1250    6.2320  -15.1750 C.3       1 LEU        -0.0156
    114 CG        -18.2670    7.4090  -15.6690 C.3       1 LEU        -0.0431
    115 CD1       -18.6860    8.6920  -14.9700 C.3       1 LEU        -0.0625
    116 CD2       -16.7860    7.1500  -15.4260 C.3       1 LEU        -0.0625
    117 OXT       -20.4620    4.4060  -18.0640 O.co2     1 LEU        -0.5666
    118 H1        -14.2678  -23.0643    6.1405 H         1 LEU         0.2015
    119 H2        -14.5988  -23.6946    4.6564 H         1 LEU         0.2015
    120 H3        -15.2608  -22.2561    5.1059 H         1 LEU         0.2015
    121 H4        -13.1261  -21.1953    5.1699 H         1 LEU         0.1098
    122 H5        -11.9512  -23.6384    3.8513 H         1 LEU         0.0348
    123 H6        -12.1272  -23.6227    5.6389 H         1 LEU         0.0348
    124 H7        -10.7512  -21.5696    5.7418 H         1 LEU         0.0299
    125 H8         -8.5949  -22.6409    5.1687 H         1 LEU         0.0232
    126 H9         -9.4750  -23.8929    4.2283 H         1 LEU         0.0232
    127 H10        -9.7091  -23.7745    6.0054 H         1 LEU         0.0232
    128 H11       -11.2624  -20.6748    3.4919 H         1 LEU         0.0232
    129 H12       -10.3266  -22.0176    2.7517 H         1 LEU         0.0232
    130 H13        -9.4939  -20.8023    3.7796 H         1 LEU         0.0232
    131 H14       -13.8514  -19.8700    3.6346 H         1 ALA         0.1884
    132 H15       -13.7448  -20.8369    0.8207 H         1 ALA         0.0797
    133 H16       -15.7057  -19.4207    0.2956 H         1 ALA         0.0277
    134 H17       -15.8687  -19.0061    2.0357 H         1 ALA         0.0277
    135 H18       -16.1109  -20.7001    1.4894 H         1 ALA         0.0277
    136 H19       -13.3100  -19.1478   -0.7245 H         1 ILE         0.1883
    137 H20       -12.3018  -16.6094    0.4356 H         1 ILE         0.0803
    138 H21       -10.6602  -17.5078   -1.8338 H         1 ILE         0.0345
    139 H22       -11.0768  -19.7211   -0.7715 H         1 ILE         0.0267
    140 H23       -10.3872  -19.0777    0.7573 H         1 ILE         0.0267
    141 H24       -10.2030  -15.5547   -0.3856 H         1 ILE         0.0235
    142 H25        -8.8426  -16.7277   -0.3924 H         1 ILE         0.0235
    143 H26        -9.9614  -16.6579    1.0112 H         1 ILE         0.0235
    144 H27        -8.7345  -20.3949   -0.4891 H         1 ILE         0.0230
    145 H28        -8.2437  -18.6704   -0.3810 H         1 ILE         0.0230
    146 H29        -8.9333  -19.3138   -1.9097 H         1 ILE         0.0230
    147 H30       -11.6391  -15.1393   -1.4792 H         1 THR         0.1884
    148 H31       -13.1148  -15.6577   -3.9678 H         1 THR         0.0826
    149 H32       -13.5925  -13.1569   -2.2688 H         1 THR         0.0639
    150 H33       -14.7737  -15.0389   -1.6000 H         1 THR         0.2101
    151 H34       -15.1970  -12.5430   -4.0431 H         1 THR         0.0257
    152 H35       -14.7040  -13.9881   -4.9893 H         1 THR         0.0257
    153 H36       -13.5237  -12.6689   -4.6840 H         1 THR         0.0257
    154 H37       -11.5048  -15.4793   -5.3656 H         1 MET         0.1883
    155 H38        -9.0999  -13.9986   -4.7538 H         1 MET         0.0800
    156 H39        -8.9439  -14.6360   -7.4504 H         1 MET         0.0320
    157 H40       -10.0305  -15.9075   -6.7953 H         1 MET         0.0320
    158 H41        -7.3105  -15.2281   -5.6223 H         1 MET         0.0378
    159 H42        -7.5791  -16.4862   -6.8761 H         1 MET         0.0378
    160 H43        -8.6551  -16.7417   -2.3899 H         1 MET         0.0340
    161 H44        -9.1936  -15.3425   -3.3791 H         1 MET         0.0340
    162 H45        -7.4403  -15.6571   -3.1478 H         1 MET         0.0340
    163 H46       -12.0107  -13.3233   -6.5588 H         1 LEU         0.1883
    164 H47       -12.7368  -11.4634   -7.7111 H         1 LEU         0.0800
    165 H48       -10.7293   -9.5095   -7.1228 H         1 LEU         0.0315
    166 H49       -10.9623  -10.4983   -5.6414 H         1 LEU         0.0315
    167 H50       -12.3265   -8.4454   -5.6613 H         1 LEU         0.0298
    168 H51       -14.2717   -8.2617   -7.1661 H         1 LEU         0.0232
    169 H52       -13.7181   -9.7229   -8.0519 H         1 LEU         0.0232
    170 H53       -12.7173   -8.2313   -8.0657 H         1 LEU         0.0232
    171 H54       -13.0551  -10.4551   -4.4371 H         1 LEU         0.0232
    172 H55       -13.9779  -10.9905   -5.8821 H         1 LEU         0.0232
    173 H56       -14.4413   -9.4787   -5.0299 H         1 LEU         0.0232
    174 H57       -11.7354   -9.5443   -9.1406 H         1 LYS         0.1883
    175 H58        -9.2049  -10.3707  -10.4539 H         1 LYS         0.0800
    176 H59       -11.4082   -9.2805  -12.1851 H         1 LYS         0.0312
    177 H60       -11.5098  -11.0044  -11.6905 H         1 LYS         0.0312
    178 H61       -10.4522  -10.8373  -13.8620 H         1 LYS         0.0269
    179 H62        -9.2489  -11.3826  -12.6449 H         1 LYS         0.0269
    180 H63        -8.3317   -9.1022  -12.5139 H         1 LYS         0.0317
    181 H64        -9.5511   -8.5347  -13.7046 H         1 LYS         0.0317
    182 H65        -8.6360  -10.0861  -15.3896 H         1 LYS         0.0813
    183 H66        -7.4248  -10.6711  -14.1991 H         1 LYS         0.0813
    184 H67        -6.5091   -9.0301  -15.6795 H         1 LYS         0.1994
    185 H68        -6.5227   -8.4505  -14.1389 H         1 LYS         0.1994
    186 H69        -7.6327   -7.9144  -15.2299 H         1 LYS         0.1994
    187 H70        -9.5624   -6.0045   -8.9988 H         1 PRO         0.0802
    188 H71        -8.2174   -6.5336   -7.1461 H         1 PRO         0.0313
    189 H72        -6.9476   -5.7540   -8.1494 H         1 PRO         0.0313
    190 H73        -6.6333   -8.2546   -7.2634 H         1 PRO         0.0287
    191 H74        -6.1201   -7.8017   -8.9242 H         1 PRO         0.0287
    192 H75        -7.5394   -9.5662   -9.4888 H         1 PRO         0.0524
    193 H76        -8.5488   -9.3595   -8.0174 H         1 PRO         0.0524
    194 H77        -9.7727   -4.9263  -10.8209 H         1 ARG         0.1883
    195 H78        -7.9662   -5.0102  -13.0445 H         1 ARG         0.0800
    196 H79        -9.3374   -3.2224  -13.9454 H         1 ARG         0.0313
    197 H80        -9.9959   -2.8441  -12.3175 H         1 ARG         0.0313
    198 H81       -11.0200   -5.1301  -12.2710 H         1 ARG         0.0301
    199 H82       -10.4741   -5.3587  -13.9670 H         1 ARG         0.0301
    200 H83       -12.2895   -3.1030  -13.0117 H         1 ARG         0.0689
    201 H84       -12.8626   -4.6370  -13.7499 H         1 ARG         0.0689
    202 H85       -10.9010   -3.2586  -15.4152 H         1 ARG         0.2642
    203 H86       -14.8888   -2.6461  -15.9509 H         1 ARG         0.2615
    204 H87       -14.3037   -3.3607  -14.4245 H         1 ARG         0.2615
    205 H88       -11.6476   -2.3591  -17.3619 H         1 ARG         0.2615
    206 H89       -13.3929   -2.0795  -17.6039 H         1 ARG         0.2615
    207 H90        -6.8861   -3.0399  -13.8871 H         1 LYS         0.1883
    208 H91        -5.4720   -1.6462  -11.6769 H         1 LYS         0.0800
    209 H92        -4.7770   -1.6549  -14.6450 H         1 LYS         0.0312
    210 H93        -4.1900   -2.8982  -13.4891 H         1 LYS         0.0312
    211 H94        -3.7107    0.0964  -13.1887 H         1 LYS         0.0269
    212 H95        -2.5576   -1.0477  -13.9556 H         1 LYS         0.0269
    213 H96        -3.6339   -1.4209  -11.1323 H         1 LYS         0.0317
    214 H97        -2.1462   -0.4821  -11.4960 H         1 LYS         0.0317
    215 H98        -2.5865   -3.3696  -12.3687 H         1 LYS         0.0813
    216 H99        -1.7726   -2.9003  -10.8377 H         1 LYS         0.0813
    217 H100       -0.2046   -3.2886  -12.6060 H         1 LYS         0.1994
    218 H101       -0.1570   -1.7076  -12.1504 H         1 LYS         0.1994
    219 H102       -0.9028   -2.1377  -13.5533 H         1 LYS         0.1994
    220 H103       -7.0008   -0.1284  -11.1438 H         1 LYS         0.1883
    221 H104       -8.3795    1.6972  -11.2809 H         1 LYS         0.0800
    222 H105       -6.7332    2.4492  -13.7297 H         1 LYS         0.0312
    223 H106       -6.1865    2.6979  -12.0367 H         1 LYS         0.0312
    224 H107       -8.7864    3.8498  -13.0988 H         1 LYS         0.0269
    225 H108       -7.2124    4.7009  -13.2557 H         1 LYS         0.0269
    226 H109       -8.4374    3.7484  -10.6283 H         1 LYS         0.0317
    227 H110       -8.5399    5.4234  -11.2690 H         1 LYS         0.0317
    228 H111       -5.9988    5.4363  -11.3289 H         1 LYS         0.0813
    229 H112       -6.0485    3.8862  -10.4225 H         1 LYS         0.0813
    230 H113       -5.8069    5.7702   -8.9672 H         1 LYS         0.1994
    231 H114       -7.2482    5.0261   -8.6876 H         1 LYS         0.1994
    232 H115       -7.2027    6.4465   -9.5182 H         1 LYS         0.1994
    233 H116       -8.0368    2.1164  -14.6826 H         1 ALA         0.1883
    234 H117       -9.5296    1.9235  -16.4214 H         1 ALA         0.0797
    235 H118      -10.2301   -0.4106  -16.8827 H         1 ALA         0.0277
    236 H119       -9.7222   -0.8788  -15.2245 H         1 ALA         0.0277
    237 H120       -8.5014   -0.2991  -16.4078 H         1 ALA         0.0277
    238 H121      -10.7936    3.3112  -14.5279 H         1 LYS         0.1883
    239 H122      -13.2725    2.0387  -13.6929 H         1 LYS         0.0800
    240 H123      -13.8803    4.3163  -12.8983 H         1 LYS         0.0312
    241 H124      -12.3832    4.9573  -13.6564 H         1 LYS         0.0312
    242 H125      -11.0271    3.5120  -12.1844 H         1 LYS         0.0269
    243 H126      -12.5287    2.8919  -11.4181 H         1 LYS         0.0269
    244 H127      -13.0883    5.1576  -10.6469 H         1 LYS         0.0317
    245 H128      -11.6157    5.8051  -11.4460 H         1 LYS         0.0317
    246 H129      -10.2416    4.2737  -10.0087 H         1 LYS         0.0813
    247 H130      -11.7459    3.8139   -9.1414 H         1 LYS         0.0813
    248 H131      -10.5455    5.5430   -8.0029 H         1 LYS         0.1994
    249 H132      -12.0003    6.1157   -8.5179 H         1 LYS         0.1994
    250 H133      -10.6218    6.5370   -9.3127 H         1 LYS         0.1994
    251 H134      -15.3201    2.3873  -14.4732 H         1 ALA         0.1883
    252 H135      -15.5617    3.9104  -17.0083 H         1 ALA         0.0797
    253 H136      -16.8600    2.0555  -18.0136 H         1 ALA         0.0277
    254 H137      -16.5165    1.0411  -16.5715 H         1 ALA         0.0277
    255 H138      -15.1722    1.5667  -17.6408 H         1 ALA         0.0277
    256 H139      -17.4633    4.9165  -17.2947 H         1 LEU         0.1875
    257 H140      -19.7511    4.2100  -15.5697 H         1 LEU         0.0726
    258 H141      -18.6983    5.8848  -14.2224 H         1 LEU         0.0308
    259 H142      -20.1437    6.6103  -15.0043 H         1 LEU         0.0308
    260 H143      -18.4281    7.5273  -16.7507 H         1 LEU         0.0297
    261 H144      -18.0659    9.5257  -15.3312 H         1 LEU         0.0232
    262 H145      -18.5516    8.5787  -13.8841 H         1 LEU         0.0232
    263 H146      -19.7437    8.9002  -15.1888 H         1 LEU         0.0232
    264 H147      -16.4882    6.2208  -15.9338 H         1 LEU         0.0232
    265 H148      -16.6033    7.0522  -14.3457 H         1 LEU         0.0232
    266 H149      -16.1969    7.9898  -15.8230 H         1 LEU         0.0232
@<TRIPOS>BOND
     1    1    2 1  
     2    2    3 1  
     3    2    5 1  
     4    3    4 2  
     5    3    9 am 
     6    5    6 1  
     7    6    7 1  
     8    6    8 1  
     9    9   10 1  
    10   10   11 1  
    11   10   13 1  
    12   11   12 2  
    13   11   14 am 
    14   14   15 1  
    15   15   16 1  
    16   15   18 1  
    17   16   17 2  
    18   16   22 am 
    19   18   19 1  
    20   18   20 1  
    21   19   21 1  
    22   22   23 1  
    23   23   24 1  
    24   23   26 1  
    25   24   25 2  
    26   24   29 am 
    27   26   27 1  
    28   26   28 1  
    29   29   30 1  
    30   30   31 1  
    31   30   33 1  
    32   31   32 2  
    33   31   37 am 
    34   33   34 1  
    35   34   35 1  
    36   35   36 1  
    37   37   38 1  
    38   38   39 1  
    39   38   41 1  
    40   39   40 2  
    41   39   45 am 
    42   41   42 1  
    43   42   43 1  
    44   42   44 1  
    45   45   46 1  
    46   46   47 1  
    47   46   49 1  
    48   47   48 2  
    49   47   54 am 
    50   49   50 1  
    51   50   51 1  
    52   51   52 1  
    53   52   53 1  
    54   54   55 1  
    55   54   60 1  
    56   55   56 1  
    57   55   58 1  
    58   56   57 2  
    59   56   61 am 
    60   58   59 1  
    61   59   60 1  
    62   61   62 1  
    63   62   63 1  
    64   62   65 1  
    65   63   64 2  
    66   63   72 am 
    67   65   66 1  
    68   66   67 1  
    69   67   68 1  
    70   68   69 ar 
    71   69   70 ar 
    72   69   71 ar 
    73   72   73 1  
    74   73   74 1  
    75   73   76 1  
    76   74   75 2  
    77   74   81 am 
    78   76   77 1  
    79   77   78 1  
    80   78   79 1  
    81   79   80 1  
    82   81   82 1  
    83   82   83 1  
    84   82   85 1  
    85   83   84 2  
    86   83   90 am 
    87   85   86 1  
    88   86   87 1  
    89   87   88 1  
    90   88   89 1  
    91   90   91 1  
    92   91   92 1  
    93   91   94 1  
    94   92   93 2  
    95   92   95 am 
    96   95   96 1  
    97   96   97 1  
    98   96   99 1  
    99   97   98 2  
   100   97  104 am 
   101   99  100 1  
   102  100  101 1  
   103  101  102 1  
   104  102  103 1  
   105  104  105 1  
   106  105  106 1  
   107  105  108 1  
   108  106  107 2  
   109  106  109 am 
   110  109  110 1  
   111  110  111 1  
   112  110  113 1  
   113  111  112 ar 
   114  111  117 ar 
   115  113  114 1  
   116  114  115 1  
   117  114  116 1  
   118    1  118 1  
   119    1  119 1  
   120    1  120 1  
   121    2  121 1  
   122    5  122 1  
   123    5  123 1  
   124    6  124 1  
   125    7  125 1  
   126    7  126 1  
   127    7  127 1  
   128    8  128 1  
   129    8  129 1  
   130    8  130 1  
   131    9  131 1  
   132   10  132 1  
   133   13  133 1  
   134   13  134 1  
   135   13  135 1  
   136   14  136 1  
   137   15  137 1  
   138   18  138 1  
   139   19  139 1  
   140   19  140 1  
   141   20  141 1  
   142   20  142 1  
   143   20  143 1  
   144   21  144 1  
   145   21  145 1  
   146   21  146 1  
   147   22  147 1  
   148   23  148 1  
   149   26  149 1  
   150   27  150 1  
   151   28  151 1  
   152   28  152 1  
   153   28  153 1  
   154   29  154 1  
   155   30  155 1  
   156   33  156 1  
   157   33  157 1  
   158   34  158 1  
   159   34  159 1  
   160   36  160 1  
   161   36  161 1  
   162   36  162 1  
   163   37  163 1  
   164   38  164 1  
   165   41  165 1  
   166   41  166 1  
   167   42  167 1  
   168   43  168 1  
   169   43  169 1  
   170   43  170 1  
   171   44  171 1  
   172   44  172 1  
   173   44  173 1  
   174   45  174 1  
   175   46  175 1  
   176   49  176 1  
   177   49  177 1  
   178   50  178 1  
   179   50  179 1  
   180   51  180 1  
   181   51  181 1  
   182   52  182 1  
   183   52  183 1  
   184   53  184 1  
   185   53  185 1  
   186   53  186 1  
   187   55  187 1  
   188   58  188 1  
   189   58  189 1  
   190   59  190 1  
   191   59  191 1  
   192   60  192 1  
   193   60  193 1  
   194   61  194 1  
   195   62  195 1  
   196   65  196 1  
   197   65  197 1  
   198   66  198 1  
   199   66  199 1  
   200   67  200 1  
   201   67  201 1  
   202   68  202 1  
   203   70  203 1  
   204   70  204 1  
   205   71  205 1  
   206   71  206 1  
   207   72  207 1  
   208   73  208 1  
   209   76  209 1  
   210   76  210 1  
   211   77  211 1  
   212   77  212 1  
   213   78  213 1  
   214   78  214 1  
   215   79  215 1  
   216   79  216 1  
   217   80  217 1  
   218   80  218 1  
   219   80  219 1  
   220   81  220 1  
   221   82  221 1  
   222   85  222 1  
   223   85  223 1  
   224   86  224 1  
   225   86  225 1  
   226   87  226 1  
   227   87  227 1  
   228   88  228 1  
   229   88  229 1  
   230   89  230 1  
   231   89  231 1  
   232   89  232 1  
   233   90  233 1  
   234   91  234 1  
   235   94  235 1  
   236   94  236 1  
   237   94  237 1  
   238   95  238 1  
   239   96  239 1  
   240   99  240 1  
   241   99  241 1  
   242  100  242 1  
   243  100  243 1  
   244  101  244 1  
   245  101  245 1  
   246  102  246 1  
   247  102  247 1  
   248  103  248 1  
   249  103  249 1  
   250  103  250 1  
   251  104  251 1  
   252  105  252 1  
   253  108  253 1  
   254  108  254 1  
   255  108  255 1  
   256  109  256 1  
   257  110  257 1  
   258  113  258 1  
   259  113  259 1  
   260  114  260 1  
   261  115  261 1  
   262  115  262 1  
   263  115  263 1  
   264  116  264 1  
   265  116  265 1  
   266  116  266 1  
@<TRIPOS>SUBSTRUCTURE
     1 LEU         1

