6f0y_ligand
  -I-interpret- 

266266  0  0  0  0  0  0  0  0999 V2000
  -14.4440  -22.8430    5.1730 N   0  3  0  0  0
  -13.2770  -22.1300    4.6100 C   0  0  0  0  0
  -13.5360  -21.7920    3.1470 C   0  0  0  0  0
  -13.4920  -22.6650    2.2810 O   0  0  0  0  0
  -12.0140  -22.9960    4.7420 C   0  0  0  0  0
  -10.6860  -22.2320    4.8660 C   0  0  0  0  0
   -9.5370  -23.2020    5.0820 C   0  0  0  0  0
  -10.4240  -21.3720    3.6370 C   0  0  0  0  0
  -13.8110  -20.5250    2.8800 N   0  0  0  0  0
  -14.0560  -20.0540    1.5280 C   0  0  0  0  0
  -13.2390  -18.7990    1.2560 C   0  0  0  0  0
  -12.8250  -18.1070    2.1890 O   0  0  0  0  0
  -15.5380  -19.7760    1.3230 C   0  0  0  0  0
  -12.9900  -18.5200   -0.0150 N   0  0  0  0  0
  -12.2610  -17.3200   -0.4030 C   0  0  0  0  0
  -12.9000  -16.6860   -1.6260 C   0  0  0  0  0
  -13.8670  -17.2070   -2.1810 O   0  0  0  0  0
  -10.7800  -17.5970   -0.7440 C   0  0  0  0  0
  -10.3610  -19.0060   -0.3400 C   0  0  0  0  0
   -9.8850  -16.5630   -0.0820 C   0  0  0  0  0
   -8.9740  -19.3710   -0.8120 C   0  0  0  0  0
  -12.3600  -15.5560   -2.0330 N   0  0  0  0  0
  -12.7720  -14.8960   -3.2520 C   0  0  0  0  0
  -11.5810  -14.1560   -3.8530 C   0  0  0  0  0
  -11.1390  -13.1380   -3.3220 O   0  0  0  0  0
  -13.9310  -13.9210   -2.9840 C   0  0  0  0  0
  -15.0420  -14.6350   -2.4170 O   0  0  0  0  0
  -14.3690  -13.2330   -4.2630 C   0  0  0  0  0
  -11.0530  -14.6920   -4.9460 N   0  0  0  0  0
   -9.8330  -14.1690   -5.5560 C   0  0  0  0  0
  -10.0710  -12.8460   -6.2710 C   0  0  0  0  0
   -9.1440  -12.0480   -6.4240 O   0  0  0  0  0
   -9.2450  -15.1800   -6.5430 C   0  0  0  0  0
   -8.0330  -15.9510   -6.0290 C   0  0  0  0  0
   -8.4200  -17.1570   -4.7360 S   0  0  0  0  0
   -8.4280  -16.1250   -3.2720 C   0  0  0  0  0
  -11.3080  -12.6310   -6.7230 N   0  0  0  0  0
  -11.6690  -11.4130   -7.4520 C   0  0  0  0  0
  -10.8530  -11.2950   -8.7400 C   0  0  0  0  0
  -10.1270  -12.2110   -9.1270 O   0  0  0  0  0
  -11.4270  -10.1650   -6.5810 C   0  0  0  0  0
  -12.6650   -9.3310   -6.2190 C   0  0  0  0  0
  -13.3930   -8.8540   -7.4610 C   0  0  0  0  0
  -13.5980  -10.1170   -5.3320 C   0  0  0  0  0
  -11.0050  -10.1720   -9.4100 N   0  0  0  0  0
  -10.1510   -9.8140  -10.5240 C   0  0  0  0  0
   -9.8680   -8.3220  -10.4260 C   0  0  0  0  0
  -10.5250   -7.5130  -11.0870 O   0  0  0  0  0
  -10.8290  -10.1570  -11.8590 C   0  0  0  0  0
   -9.8650  -10.5360  -12.9820 C   0  0  0  0  0
   -8.9420   -9.3920  -13.3820 C   0  0  0  0  0
   -8.0210   -9.8050  -14.5220 C   0  0  0  0  0
   -7.0970   -8.7120  -14.9250 N   0  3  0  0  0
   -8.9130   -7.9340   -9.5640 N   0  0  0  0  0
   -8.6370   -6.5280   -9.2810 C   0  0  0  0  0
   -8.0150   -5.8200  -10.4740 C   0  0  0  0  0
   -6.8350   -5.9940  -10.7780 O   0  0  0  0  0
   -7.6700   -6.5820   -8.0990 C   0  0  0  0  0
   -6.9790   -7.8930   -8.2430 C   0  0  0  0  0
   -8.0080   -8.8320   -8.8170 C   0  0  0  0  0
   -8.8320   -5.0300  -11.1440 N   0  0  0  0  0
   -8.4190   -4.3060  -12.3310 C   0  0  0  0  0
   -7.3960   -3.2430  -11.9640 C   0  0  0  0  0
   -7.2140   -2.9220  -10.7980 O   0  0  0  0  0
   -9.6410   -3.6490  -12.9780 C   0  0  0  0  0
  -10.7860   -4.6180  -13.2160 C   0  0  0  0  0
  -12.0370   -3.9110  -13.7140 C   0  0  0  0  0
  -11.8590   -3.3370  -15.0450 N   0  0  0  0  0
  -12.8630   -2.9090  -15.8080 C   0  0  0  0  0
  -14.1120   -2.9770  -15.3610 N   0  0  0  0  0
  -12.6160   -2.4120  -17.0150 N   0  0  0  0  0
   -6.7290   -2.7080  -12.9570 N   0  0  0  0  0
   -5.7690   -1.6460  -12.7360 C   0  0  0  0  0
   -6.4310   -0.3200  -13.0650 C   0  0  0  0  0
   -6.3590    0.1520  -14.2020 O   0  0  0  0  0
   -4.5160   -1.8530  -13.5950 C   0  0  0  0  0
   -3.3570   -0.9450  -13.2070 C   0  0  0  0  0
   -2.7980   -1.3000  -11.8370 C   0  0  0  0  0
   -1.9920   -2.5900  -11.8700 C   0  0  0  0  0
   -0.7110   -2.4170  -12.6040 N   0  3  0  0  0
   -7.0850    0.2610  -12.0610 N   0  0  0  0  0
   -7.9180    1.4410  -12.2460 C   0  0  0  0  0
   -9.0330    1.1330  -13.2410 C   0  0  0  0  0
  -10.0230    0.5020  -12.8770 O   0  0  0  0  0
   -7.0640    2.6340  -12.6970 C   0  0  0  0  0
   -7.7850    3.9740  -12.6610 C   0  0  0  0  0
   -7.9320    4.5070  -11.2440 C   0  0  0  0  0
   -6.5810    4.8280  -10.6210 C   0  0  0  0  0
   -6.7210    5.5780   -9.3460 N   0  3  0  0  0
   -8.8430    1.5580  -14.4870 N   0  0  0  0  0
   -9.7600    1.2460  -15.5860 C   0  0  0  0  0
  -11.2210    1.4630  -15.1990 C   0  0  0  0  0
  -12.0670    0.5950  -15.4140 O   0  0  0  0  0
   -9.5380   -0.1850  -16.0580 C   0  0  0  0  0
  -11.5140    2.6270  -14.6410 N   0  0  0  0  0
  -12.8630    2.9310  -14.1890 C   0  0  0  0  0
  -13.7580    3.2770  -15.3720 C   0  0  0  0  0
  -13.3090    3.8880  -16.3460 O   0  0  0  0  0
  -12.8430    4.0800  -13.1780 C   0  0  0  0  0
  -12.0640    3.7580  -11.9120 C   0  0  0  0  0
  -12.0540    4.9300  -10.9440 C   0  0  0  0  0
  -11.2410    4.6150   -9.7010 C   0  0  0  0  0
  -11.0900    5.7980   -8.8120 N   0  3  0  0  0
  -15.0150    2.8720  -15.2930 N   0  0  0  0  0
  -15.9620    3.1130  -16.3650 C   0  0  0  0  0
  -17.3030    3.5690  -15.8140 C   0  0  0  0  0
  -17.7650    3.0720  -14.7850 O   0  0  0  0  0
  -16.1400    1.8570  -17.2060 C   0  0  0  0  0
  -17.9160    4.5220  -16.4950 N   0  0  0  0  0
  -19.2300    5.0120  -16.1130 C   0  0  0  0  0
  -20.0410    5.3500  -17.3610 C   0  0  0  0  0
  -20.2290    6.5440  -17.6570 O   0  0  0  0  0
  -19.1250    6.2320  -15.1750 C   0  0  0  0  0
  -18.2670    7.4090  -15.6690 C   0  0  0  0  0
  -18.6860    8.6920  -14.9700 C   0  0  0  0  0
  -16.7860    7.1500  -15.4260 C   0  0  0  0  0
  -20.4620    4.4060  -18.0640 O   0  0  0  0  0
  -15.2751  -22.2591    5.0798 H   0  0  0  0  0
  -14.5831  -23.7177    4.6670 H   0  0  0  0  0
  -14.2759  -23.0423    6.1591 H   0  0  0  0  0
  -13.1226  -21.2044    5.1646 H   0  0  0  0  0
  -11.9465  -23.5821    3.8254 H   0  0  0  0  0
  -12.1276  -23.5658    5.6642 H   0  0  0  0  0
  -10.7606  -21.5710    5.7295 H   0  0  0  0  0
   -9.4386  -23.8469    4.2088 H   0  0  0  0  0
   -8.6131  -22.6422    5.2278 H   0  0  0  0  0
   -9.7377  -23.8104    5.9639 H   0  0  0  0  0
   -9.5021  -20.8081    3.7795 H   0  0  0  0  0
  -10.3276  -22.0128    2.7605 H   0  0  0  0  0
  -11.2553  -20.6816    3.4943 H   0  0  0  0  0
  -13.8522  -19.8569    3.6496 H   0  0  0  0  0
  -13.7509  -20.8303    0.8263 H   0  0  0  0  0
  -16.1045  -20.6924    1.4883 H   0  0  0  0  0
  -15.8644  -19.0131    2.0298 H   0  0  0  0  0
  -15.7029  -19.4240    0.3046 H   0  0  0  0  0
  -13.3164  -19.1604   -0.7387 H   0  0  0  0  0
  -12.3035  -16.6551    0.4597 H   0  0  0  0  0
  -10.6687  -17.5214   -1.8257 H   0  0  0  0  0
  -11.0611  -19.7038   -0.7994 H   0  0  0  0  0
  -10.3626  -19.0521    0.7490 H   0  0  0  0  0
  -10.1537  -15.5692   -0.4401 H   0  0  0  0  0
  -10.0168  -16.6090    0.9990 H   0  0  0  0  0
   -8.8447  -16.7716   -0.3317 H   0  0  0  0  0
   -8.9350  -19.3139   -1.8998 H   0  0  0  0  0
   -8.2514  -18.6760   -0.3842 H   0  0  0  0  0
   -8.7378  -20.3857   -0.4915 H   0  0  0  0  0
  -11.6247  -15.1310   -1.4681 H   0  0  0  0  0
  -13.1257  -15.6470   -3.9584 H   0  0  0  0  0
  -13.5847  -13.1603   -2.2843 H   0  0  0  0  0
  -15.7630  -14.0233   -2.2512 H   0  0  0  0  0
  -13.5305  -12.6745   -4.6791 H   0  0  0  0  0
  -14.7007  -13.9822   -4.9819 H   0  0  0  0  0
  -15.1894  -12.5496   -4.0439 H   0  0  0  0  0
  -11.5138  -15.4950   -5.3740 H   0  0  0  0  0
   -9.1262  -13.9947   -4.7447 H   0  0  0  0  0
   -8.9126  -14.6141   -7.4133 H   0  0  0  0  0
  -10.0245  -15.9152   -6.7430 H   0  0  0  0  0
   -7.3468  -15.2229   -5.5965 H   0  0  0  0  0
   -7.6202  -16.5037   -6.8730 H   0  0  0  0  0
   -7.4488  -15.6619   -3.1501 H   0  0  0  0  0
   -9.1870  -15.3501   -3.3794 H   0  0  0  0  0
   -8.6531  -16.7372   -2.3987 H   0  0  0  0  0
  -12.0247  -13.3371   -6.5555 H   0  0  0  0  0
  -12.7282  -11.4757   -7.7015 H   0  0  0  0  0
  -10.7820   -9.5093   -7.1659 H   0  0  0  0  0
  -11.0223  -10.5298   -5.6369 H   0  0  0  0  0
  -12.3221   -8.4526   -5.6723 H   0  0  0  0  0
  -12.7224   -8.2372   -8.0593 H   0  0  0  0  0
  -13.7145   -9.7159   -8.0457 H   0  0  0  0  0
  -14.2635   -8.2672   -7.1675 H   0  0  0  0  0
  -13.9203  -11.0181   -5.8538 H   0  0  0  0  0
  -13.0784  -10.3931   -4.4145 H   0  0  0  0  0
  -14.4672   -9.5058   -5.0890 H   0  0  0  0  0
  -11.7500   -9.5318   -9.1352 H   0  0  0  0  0
   -9.2184  -10.3769  -10.4846 H   0  0  0  0  0
  -11.3615   -9.2634  -12.1845 H   0  0  0  0  0
  -11.4653  -11.0236  -11.6796 H   0  0  0  0  0
  -10.4599  -10.8047  -13.8550 H   0  0  0  0  0
   -9.2428  -11.3563  -12.6241 H   0  0  0  0  0
   -8.3314   -9.1188  -12.5214 H   0  0  0  0  0
   -9.5515   -8.5510  -13.7127 H   0  0  0  0  0
   -8.6404  -10.0586  -15.3823 H   0  0  0  0  0
   -7.4196  -10.6483  -14.1824 H   0  0  0  0  0
   -6.5027   -9.0350  -15.6884 H   0  0  0  0  0
   -7.6402   -7.9056  -15.2332 H   0  0  0  0  0
   -6.5165   -8.4483  -14.1288 H   0  0  0  0  0
   -9.5431   -5.9625   -9.0633 H   0  0  0  0  0
   -8.1872   -6.4953   -7.1435 H   0  0  0  0  0
   -6.9689   -5.7474   -8.1060 H   0  0  0  0  0
   -6.6019   -8.2521   -7.2854 H   0  0  0  0  0
   -6.1059   -7.8143   -8.8907 H   0  0  0  0  0
   -7.5657   -9.6013   -9.4499 H   0  0  0  0  0
   -8.5272   -9.4044   -8.0483 H   0  0  0  0  0
   -9.7915   -4.9242  -10.8144 H   0  0  0  0  0
   -7.9652   -5.0024  -13.0361 H   0  0  0  0  0
   -9.3315   -3.2590  -13.9477 H   0  0  0  0  0
   -9.9988   -2.8757  -12.2982 H   0  0  0  0  0
  -11.0232   -5.1041  -12.2697 H   0  0  0  0  0
  -10.4739   -5.3341  -13.9762 H   0  0  0  0  0
  -12.2628   -3.0984  -13.0235 H   0  0  0  0  0
  -12.8407   -4.6453  -13.7680 H   0  0  0  0  0
  -10.9103   -3.2594  -15.4116 H   0  0  0  0  0
  -14.3018   -3.3569  -14.4336 H   0  0  0  0  0
  -13.3853   -2.0828  -17.5982 H   0  0  0  0  0
  -11.6570   -2.3597  -17.3585 H   0  0  0  0  0
   -6.8892   -3.0466  -13.9057 H   0  0  0  0  0
   -5.4530   -1.6519  -11.6928 H   0  0  0  0  0
   -4.7834   -1.6207  -14.6258 H   0  0  0  0  0
   -4.1875   -2.8825  -13.4526 H   0  0  0  0  0
   -3.7214    0.0817  -13.1736 H   0  0  0  0  0
   -2.5633   -1.0674  -13.9440 H   0  0  0  0  0
   -3.6344   -1.4370  -11.1516 H   0  0  0  0  0
   -2.1386   -0.4931  -11.5174 H   0  0  0  0  0
   -2.5815   -3.3511  -12.3812 H   0  0  0  0  0
   -1.7644   -2.8799  -10.8442 H   0  0  0  0  0
   -0.1995   -3.2995  -12.6054 H   0  0  0  0  0
   -0.9063   -2.1343  -13.5644 H   0  0  0  0  0
   -0.1513   -1.6989  -12.1441 H   0  0  0  0  0
   -6.9991   -0.1362  -11.1254 H   0  0  0  0  0
   -8.3790    1.7134  -11.2966 H   0  0  0  0  0
   -6.7815    2.4509  -13.7337 H   0  0  0  0  0
   -6.2237    2.7047  -12.0063 H   0  0  0  0  0
   -8.7828    3.8344  -13.0769 H   0  0  0  0  0
   -7.1982    4.6913  -13.2348 H   0  0  0  0  0
   -8.4170    3.7420  -10.6377 H   0  0  0  0  0
   -8.5199    5.4241  -11.2811 H   0  0  0  0  0
   -6.0209    5.4475  -11.3214 H   0  0  0  0  0
   -6.0708    3.8882  -10.4097 H   0  0  0  0  0
   -5.7955    5.7719   -8.9636 H   0  0  0  0  0
   -7.2086    6.4565   -9.5215 H   0  0  0  0  0
   -7.2547    5.0186   -8.6807 H   0  0  0  0  0
   -8.0207    2.1276  -14.6865 H   0  0  0  0  0
   -9.5420    1.9341  -16.4028 H   0  0  0  0  0
   -8.5105   -0.2967  -16.4043 H   0  0  0  0  0
   -9.7208   -0.8714  -15.2313 H   0  0  0  0  0
  -10.2243   -0.4073  -16.8751 H   0  0  0  0  0
  -10.7791    3.3249  -14.5256 H   0  0  0  0  0
  -13.2688    2.0465  -13.6980 H   0  0  0  0  0
  -13.8744    4.2794  -12.8871 H   0  0  0  0  0
  -12.3557    4.9297  -13.6562 H   0  0  0  0  0
  -11.0342    3.5339  -12.1903 H   0  0  0  0  0
  -12.5427    2.9110  -11.4205 H   0  0  0  0  0
  -13.0805    5.1387  -10.6425 H   0  0  0  0  0
  -11.6040    5.7878  -11.4437 H   0  0  0  0  0
  -10.2466    4.3001  -10.0175 H   0  0  0  0  0
  -11.7624    3.8368   -9.1436 H   0  0  0  0  0
  -10.5390    5.5388   -7.9937 H   0  0  0  0  0
  -10.6162    6.5451   -9.3197 H   0  0  0  0  0
  -12.0117    6.1185   -8.5151 H   0  0  0  0  0
  -15.3262    2.3776  -14.4568 H   0  0  0  0  0
  -15.5638    3.9076  -16.9960 H   0  0  0  0  0
  -15.1804    1.5704  -17.6362 H   0  0  0  0  0
  -16.5130    1.0494  -16.5761 H   0  0  0  0  0
  -16.8536    2.0549  -18.0058 H   0  0  0  0  0
  -17.4543    4.9244  -17.3107 H   0  0  0  0  0
  -19.7441    4.2244  -15.5620 H   0  0  0  0  0
  -18.6457    5.8714  -14.2649 H   0  0  0  0  0
  -20.1382    6.6206  -15.0722 H   0  0  0  0  0
  -18.4255    7.5131  -16.7424 H   0  0  0  0  0
  -19.7342    8.8971  -15.1876 H   0  0  0  0  0
  -18.5524    8.5785  -13.8942 H   0  0  0  0  0
  -18.0709    9.5173  -15.3287 H   0  0  0  0  0
  -16.6123    7.0159  -14.3583 H   0  0  0  0  0
  -16.4835    6.2495  -15.9605 H   0  0  0  0  0
  -16.2060    7.9998  -15.7859 H   0  0  0  0  0
  -20.2112    3.5716  -17.6608 H   0  0  0  0  0
  1  2  1  0  0  0
  2  3  1  0  0  0
  2  5  1  0  0  0
  3  4  2  0  0  0
  3  9  1  0  0  0
  5  6  1  0  0  0
  6  7  1  0  0  0
  6  8  1  0  0  0
  9 10  1  0  0  0
 10 11  1  0  0  0
 10 13  1  0  0  0
 11 12  2  0  0  0
 11 14  1  0  0  0
 14 15  1  0  0  0
 15 16  1  0  0  0
 15 18  1  0  0  0
 16 17  2  0  0  0
 16 22  1  0  0  0
 18 19  1  0  0  0
 18 20  1  0  0  0
 19 21  1  0  0  0
 22 23  1  0  0  0
 23 24  1  0  0  0
 23 26  1  0  0  0
 24 25  2  0  0  0
 24 29  1  0  0  0
 26 27  1  0  0  0
 26 28  1  0  0  0
 29 30  1  0  0  0
 30 31  1  0  0  0
 30 33  1  0  0  0
 31 32  2  0  0  0
 31 37  1  0  0  0
 33 34  1  0  0  0
 34 35  1  0  0  0
 35 36  1  0  0  0
 37 38  1  0  0  0
 38 39  1  0  0  0
 38 41  1  0  0  0
 39 40  2  0  0  0
 39 45  1  0  0  0
 41 42  1  0  0  0
 42 43  1  0  0  0
 42 44  1  0  0  0
 45 46  1  0  0  0
 46 47  1  0  0  0
 46 49  1  0  0  0
 47 48  2  0  0  0
 47 54  1  0  0  0
 49 50  1  0  0  0
 50 51  1  0  0  0
 51 52  1  0  0  0
 52 53  1  0  0  0
 54 55  1  0  0  0
 54 60  1  0  0  0
 55 56  1  0  0  0
 55 58  1  0  0  0
 56 57  2  0  0  0
 56 61  1  0  0  0
 58 59  1  0  0  0
 59 60  1  0  0  0
 61 62  1  0  0  0
 62 63  1  0  0  0
 62 65  1  0  0  0
 63 64  2  0  0  0
 63 72  1  0  0  0
 65 66  1  0  0  0
 66 67  1  0  0  0
 67 68  1  0  0  0
 68 69  1  0  0  0
 69 70  2  0  0  0
 69 71  1  0  0  0
 72 73  1  0  0  0
 73 74  1  0  0  0
 73 76  1  0  0  0
 74 75  2  0  0  0
 74 81  1  0  0  0
 76 77  1  0  0  0
 77 78  1  0  0  0
 78 79  1  0  0  0
 79 80  1  0  0  0
 81 82  1  0  0  0
 82 83  1  0  0  0
 82 85  1  0  0  0
 83 84  2  0  0  0
 83 90  1  0  0  0
 85 86  1  0  0  0
 86 87  1  0  0  0
 87 88  1  0  0  0
 88 89  1  0  0  0
 90 91  1  0  0  0
 91 92  1  0  0  0
 91 94  1  0  0  0
 92 93  2  0  0  0
 92 95  1  0  0  0
 95 96  1  0  0  0
 96 97  1  0  0  0
 96 99  1  0  0  0
 97 98  2  0  0  0
 97104  1  0  0  0
 99100  1  0  0  0
100101  1  0  0  0
101102  1  0  0  0
102103  1  0  0  0
104105  1  0  0  0
105106  1  0  0  0
105108  1  0  0  0
106107  2  0  0  0
106109  1  0  0  0
109110  1  0  0  0
110111  1  0  0  0
110113  1  0  0  0
111112  2  0  0  0
111117  1  0  0  0
113114  1  0  0  0
114115  1  0  0  0
114116  1  0  0  0
  1118  1  0  0  0
  1119  1  0  0  0
  1120  1  0  0  0
  2121  1  0  0  0
  5122  1  0  0  0
  5123  1  0  0  0
  6124  1  0  0  0
  7125  1  0  0  0
  7126  1  0  0  0
  7127  1  0  0  0
  8128  1  0  0  0
  8129  1  0  0  0
  8130  1  0  0  0
  9131  1  0  0  0
 10132  1  0  0  0
 13133  1  0  0  0
 13134  1  0  0  0
 13135  1  0  0  0
 14136  1  0  0  0
 15137  1  0  0  0
 18138  1  0  0  0
 19139  1  0  0  0
 19140  1  0  0  0
 20141  1  0  0  0
 20142  1  0  0  0
 20143  1  0  0  0
 21144  1  0  0  0
 21145  1  0  0  0
 21146  1  0  0  0
 22147  1  0  0  0
 23148  1  0  0  0
 26149  1  0  0  0
 27150  1  0  0  0
 28151  1  0  0  0
 28152  1  0  0  0
 28153  1  0  0  0
 29154  1  0  0  0
 30155  1  0  0  0
 33156  1  0  0  0
 33157  1  0  0  0
 34158  1  0  0  0
 34159  1  0  0  0
 36160  1  0  0  0
 36161  1  0  0  0
 36162  1  0  0  0
 37163  1  0  0  0
 38164  1  0  0  0
 41165  1  0  0  0
 41166  1  0  0  0
 42167  1  0  0  0
 43168  1  0  0  0
 43169  1  0  0  0
 43170  1  0  0  0
 44171  1  0  0  0
 44172  1  0  0  0
 44173  1  0  0  0
 45174  1  0  0  0
 46175  1  0  0  0
 49176  1  0  0  0
 49177  1  0  0  0
 50178  1  0  0  0
 50179  1  0  0  0
 51180  1  0  0  0
 51181  1  0  0  0
 52182  1  0  0  0
 52183  1  0  0  0
 53184  1  0  0  0
 53185  1  0  0  0
 53186  1  0  0  0
 55187  1  0  0  0
 58188  1  0  0  0
 58189  1  0  0  0
 59190  1  0  0  0
 59191  1  0  0  0
 60192  1  0  0  0
 60193  1  0  0  0
 61194  1  0  0  0
 62195  1  0  0  0
 65196  1  0  0  0
 65197  1  0  0  0
 66198  1  0  0  0
 66199  1  0  0  0
 67200  1  0  0  0
 67201  1  0  0  0
 68202  1  0  0  0
 70203  1  0  0  0
 71204  1  0  0  0
 71205  1  0  0  0
 72206  1  0  0  0
 73207  1  0  0  0
 76208  1  0  0  0
 76209  1  0  0  0
 77210  1  0  0  0
 77211  1  0  0  0
 78212  1  0  0  0
 78213  1  0  0  0
 79214  1  0  0  0
 79215  1  0  0  0
 80216  1  0  0  0
 80217  1  0  0  0
 80218  1  0  0  0
 81219  1  0  0  0
 82220  1  0  0  0
 85221  1  0  0  0
 85222  1  0  0  0
 86223  1  0  0  0
 86224  1  0  0  0
 87225  1  0  0  0
 87226  1  0  0  0
 88227  1  0  0  0
 88228  1  0  0  0
 89229  1  0  0  0
 89230  1  0  0  0
 89231  1  0  0  0
 90232  1  0  0  0
 91233  1  0  0  0
 94234  1  0  0  0
 94235  1  0  0  0
 94236  1  0  0  0
 95237  1  0  0  0
 96238  1  0  0  0
 99239  1  0  0  0
 99240  1  0  0  0
100241  1  0  0  0
100242  1  0  0  0
101243  1  0  0  0
101244  1  0  0  0
102245  1  0  0  0
102246  1  0  0  0
103247  1  0  0  0
103248  1  0  0  0
103249  1  0  0  0
104250  1  0  0  0
105251  1  0  0  0
108252  1  0  0  0
108253  1  0  0  0
108254  1  0  0  0
109255  1  0  0  0
110256  1  0  0  0
113257  1  0  0  0
113258  1  0  0  0
114259  1  0  0  0
115260  1  0  0  0
115261  1  0  0  0
115262  1  0  0  0
116263  1  0  0  0
116264  1  0  0  0
116265  1  0  0  0
117266  1  0  0  0
M  END
$$$$
