3u51_ligand
  -I-interpret- 

105108  0  0  0  0  0  0  0  0999 V2000
  -18.4240   24.1990    8.3250 C   0  0  0  0  0
  -17.8260   23.8490    7.3130 O   0  0  0  0  0
  -19.9670   24.1630    8.3600 C   0  0  0  0  0
  -20.7250   23.1370    7.7520 C   0  0  0  0  0
  -20.0770   21.9880    6.9930 C   0  0  0  0  0
  -19.1310   22.1950    6.2760 O   0  0  0  0  0
  -27.6790   24.2840    7.1870 C   0  0  0  0  0
  -26.7080   24.0740    6.1950 C   0  0  0  0  0
  -25.9710   22.8810    6.1780 C   0  0  0  0  0
  -26.2030   21.8990    7.1510 C   0  0  0  0  0
  -27.1710   22.1110    8.1390 C   0  0  0  0  0
  -27.9100   23.3080    8.1550 C   0  0  0  0  0
  -25.4080   20.6050    7.1360 C   0  0  0  0  0
  -24.1800   20.5260    7.7990 C   0  0  0  0  0
  -22.9440   20.1080    7.0070 C   0  0  0  0  0
  -21.7030   20.1970    7.8940 C   0  0  0  0  0
  -21.3110   18.8590    8.5370 C   0  0  0  0  0
  -21.8270   18.4720    9.5780 O   0  0  0  0  0
  -20.5670   20.6290    7.0780 N   0  0  0  0  0
  -20.2930   18.0660    7.8460 N   0  0  0  0  0
  -19.7890   16.7830    8.3360 C   0  0  0  0  0
  -18.4220   17.1210    8.9830 C   0  0  0  0  0
  -17.8000   16.2950    9.6250 O   0  0  0  0  0
  -19.6600   15.7070    7.2300 C   0  0  0  0  0
  -20.7500   14.6450    7.3810 C   0  0  0  0  0
  -22.1340   15.2120    7.6250 C   0  0  0  0  0
  -23.2370   14.1780    7.6420 C   0  0  0  0  0
  -23.2270   13.3290    6.4160 C   0  0  0  0  0
  -21.8780   12.7280    6.1630 C   0  0  0  0  0
  -20.7900   13.7720    6.1390 C   0  0  0  0  0
  -16.7150   20.3930    9.8250 C   0  0  0  0  0
  -17.8040   20.9420    9.9270 O   0  0  0  0  0
  -16.6240   18.9680    9.2920 C   0  0  0  0  0
  -17.9130   18.4740    8.7650 N   0  0  0  0  0
  -15.6000   18.8750    8.1500 C   0  0  0  0  0
  -16.1960   18.0420    6.9960 C   0  0  0  0  0
  -15.5750   18.4190    5.6660 C   0  0  0  0  0
  -14.1090   18.4260    5.7430 N   0  0  0  0  0
  -13.3240   17.7550    4.7210 C   0  0  0  0  0
  -13.8790   17.1730    3.7970 O   0  0  0  0  0
  -11.8040   17.7710    4.7770 C   0  0  0  0  0
  -11.1580   18.8400    5.2900 N   0  0  0  0  0
   -9.7990   18.8540    5.3290 C   0  0  0  0  0
   -9.0820   17.7730    4.8370 C   0  0  0  0  0
   -9.7320   16.6990    4.3150 N   0  0  0  0  0
  -11.0850   16.6880    4.2800 C   0  0  0  0  0
  -17.6990   24.6530    9.5070 N   0  0  0  0  0
  -16.2170   24.7260    9.6120 C   0  0  0  0  0
  -15.6130   25.7840    8.7050 C   0  0  0  0  0
  -14.9680   25.4650    7.7320 O   0  0  0  0  0
  -15.5660   23.3560    9.4390 C   0  0  0  0  0
  -15.6430   22.4790   10.6830 C   0  0  0  0  0
  -15.5190   21.1130   10.2030 N   0  0  0  0  0
  -15.8000   27.1800    9.0080 N   0  0  0  0  0
  -20.4951   24.9645    8.8766 H   0  0  0  0  0
  -21.8118   23.1697    7.8293 H   0  0  0  0  0
  -28.2526   25.2108    7.2002 H   0  0  0  0  0
  -26.5271   24.8377    5.4386 H   0  0  0  0  0
  -25.2173   22.7173    5.4077 H   0  0  0  0  0
  -27.3525   21.3485    8.8964 H   0  0  0  0  0
  -28.6638   23.4723    8.9250 H   0  0  0  0  0
  -25.1589   20.4525    6.0859 H   0  0  0  0  0
  -26.0441   19.8904    7.6584 H   0  0  0  0  0
  -24.3128   19.7460    8.5487 H   0  0  0  0  0
  -23.9722   21.5429    8.1319 H   0  0  0  0  0
  -22.8231   20.7731    6.1520 H   0  0  0  0  0
  -23.0675   19.0809    6.6637 H   0  0  0  0  0
  -21.9458   20.9001    8.6907 H   0  0  0  0  0
  -20.0844   19.9185    6.5278 H   0  0  0  0  0
  -19.9129   18.4291    6.9719 H   0  0  0  0  0
  -20.4853   16.3342    9.0444 H   0  0  0  0  0
  -18.6853   15.2269    7.3168 H   0  0  0  0  0
  -19.7670   16.1866    6.2570 H   0  0  0  0  0
  -20.4843   14.0667    8.2659 H   0  0  0  0  0
  -22.3491   15.8964    6.8044 H   0  0  0  0  0
  -22.1192   15.6809    8.6089 H   0  0  0  0  0
  -24.1927   14.7003    7.6867 H   0  0  0  0  0
  -23.0838   13.5308    8.5056 H   0  0  0  0  0
  -23.4866   13.9568    5.5636 H   0  0  0  0  0
  -23.9415   12.5179    6.5564 H   0  0  0  0  0
  -21.9007   12.2369    5.1902 H   0  0  0  0  0
  -21.6604   12.0273    6.9691 H   0  0  0  0  0
  -19.8368   13.2465    6.0804 H   0  0  0  0  0
  -20.9855   14.4255    5.2888 H   0  0  0  0  0
  -16.3229   18.3559   10.1421 H   0  0  0  0  0
  -18.4829   19.1168    8.2151 H   0  0  0  0  0
  -14.6909   18.3961    8.5136 H   0  0  0  0  0
  -15.3617   19.8764    7.7915 H   0  0  0  0  0
  -17.2674   18.2359    6.9458 H   0  0  0  0  0
  -15.9922   16.9885    7.1876 H   0  0  0  0  0
  -15.9126   19.4200    5.3974 H   0  0  0  0  0
  -15.8793   17.6840    4.9208 H   0  0  0  0  0
  -13.6413   18.9021    6.5143 H   0  0  0  0  0
   -9.2737   19.7131    5.7461 H   0  0  0  0  0
   -7.9925   17.7848    4.8691 H   0  0  0  0  0
  -11.6119   15.8302    3.8622 H   0  0  0  0  0
  -18.2467   24.9404   10.3180 H   0  0  0  0  0
  -15.9930   25.0510   10.6280 H   0  0  0  0  0
  -14.5107   23.5219    9.2222 H   0  0  0  0  0
  -16.1014   22.8392    8.6425 H   0  0  0  0  0
  -16.5789   22.6300   11.2209 H   0  0  0  0  0
  -14.8552   22.7254   11.3948 H   0  0  0  0  0
  -14.6032   20.6691   10.1338 H   0  0  0  0  0
  -15.3899   27.8924    8.4040 H   0  0  0  0  0
  -16.3425   27.4560    9.8265 H   0  0  0  0  0
  1  2  2  0  0  0
  3  1  1  0  0  0
  1 47  1  0  0  0
  4  3  2  0  0  0
  5  4  1  0  0  0
  5  6  2  0  0  0
 19  5  1  0  0  0
  8  7  4  0  0  0
 12  7  4  0  0  0
  9  8  4  0  0  0
 10  9  4  0  0  0
 10 11  4  0  0  0
 13 10  1  0  0  0
 11 12  4  0  0  0
 14 13  1  0  0  0
 15 14  1  0  0  0
 16 15  1  0  0  0
 17 16  1  0  0  0
 16 19  1  0  0  0
 17 18  2  0  0  0
 20 17  1  0  0  0
 21 20  1  0  0  0
 22 21  1  0  0  0
 21 24  1  0  0  0
 22 23  2  0  0  0
 34 22  1  0  0  0
 24 25  1  0  0  0
 25 26  1  0  0  0
 25 30  1  0  0  0
 26 27  1  0  0  0
 27 28  1  0  0  0
 29 28  1  0  0  0
 30 29  1  0  0  0
 31 32  2  0  0  0
 33 31  1  0  0  0
 31 53  1  0  0  0
 33 34  1  0  0  0
 33 35  1  0  0  0
 35 36  1  0  0  0
 36 37  1  0  0  0
 37 38  1  0  0  0
 38 39  1  0  0  0
 39 40  2  0  0  0
 39 41  1  0  0  0
 41 42  4  0  0  0
 41 46  4  0  0  0
 42 43  4  0  0  0
 43 44  4  0  0  0
 44 45  4  0  0  0
 45 46  4  0  0  0
 47 48  1  0  0  0
 48 49  1  0  0  0
 48 51  1  0  0  0
 49 50  2  0  0  0
 49 54  1  0  0  0
 51 52  1  0  0  0
 52 53  1  0  0  0
  3 55  1  0  0  0
  4 56  1  0  0  0
  7 57  1  0  0  0
  8 58  1  0  0  0
  9 59  1  0  0  0
 11 60  1  0  0  0
 12 61  1  0  0  0
 13 62  1  0  0  0
 13 63  1  0  0  0
 14 64  1  0  0  0
 14 65  1  0  0  0
 15 66  1  0  0  0
 15 67  1  0  0  0
 16 68  1  0  0  0
 19 69  1  0  0  0
 20 70  1  0  0  0
 21 71  1  0  0  0
 24 72  1  0  0  0
 24 73  1  0  0  0
 25 74  1  0  0  0
 26 75  1  0  0  0
 26 76  1  0  0  0
 27 77  1  0  0  0
 27 78  1  0  0  0
 28 79  1  0  0  0
 28 80  1  0  0  0
 29 81  1  0  0  0
 29 82  1  0  0  0
 30 83  1  0  0  0
 30 84  1  0  0  0
 33 85  1  0  0  0
 34 86  1  0  0  0
 35 87  1  0  0  0
 35 88  1  0  0  0
 36 89  1  0  0  0
 36 90  1  0  0  0
 37 91  1  0  0  0
 37 92  1  0  0  0
 38 93  1  0  0  0
 43 94  1  0  0  0
 44 95  1  0  0  0
 46 96  1  0  0  0
 47 97  1  0  0  0
 48 98  1  0  0  0
 51 99  1  0  0  0
 51100  1  0  0  0
 52101  1  0  0  0
 52102  1  0  0  0
 53103  1  0  0  0
 54104  1  0  0  0
 54105  1  0  0  0
M  END
$$$$
