5zz2_ligand
  -I-interpret- 

 42 47  0  0  0  0  0  0  0  0999 V2000
   34.1610  -30.6700  -40.7740 C   0  0  0  0  0
   34.2800  -30.3920  -39.4130 C   0  0  0  0  0
   33.1130  -30.3820  -38.6820 C   0  0  0  0  0
   36.4240  -30.3460  -41.0560 C   0  0  0  0  0
   36.6520  -30.1650  -39.6940 C   0  0  0  0  0
   35.5620  -30.1440  -38.8070 C   0  0  0  0  0
   37.5340  -30.0820  -41.7390 C   0  0  0  0  0
   37.9640  -29.7650  -39.5710 C   0  0  0  0  0
   35.2550  -30.7300  -41.5950 O   0  0  0  0  0
   38.8040  -29.3900  -38.4450 C   0  0  0  0  0
   31.8840  -30.6480  -39.2190 C   0  0  0  0  0
   31.8020  -30.9140  -40.5740 C   0  0  0  0  0
   32.9370  -30.9220  -41.3570 C   0  0  0  0  0
   38.4880  -29.7260  -40.8310 N   0  0  0  0  0
   35.6880  -29.9610  -37.6050 O   0  0  0  0  0
   37.6110  -30.1830  -43.2300 C   0  0  0  0  0
   37.7680  -31.6480  -43.5470 C   0  0  0  0  0
   38.9690  -32.2900  -43.2790 C   0  0  0  0  0
   39.1000  -33.6100  -43.6150 C   0  0  0  0  0
   38.0830  -34.2980  -44.1950 C   0  0  0  0  0
   36.8670  -33.7070  -44.4380 C   0  0  0  0  0
   36.7250  -32.3720  -44.1120 C   0  0  0  0  0
   40.1730  -34.4400  -43.4030 O   0  0  0  0  0
   39.8170  -35.6800  -44.0030 C   0  0  0  0  0
   38.4840  -35.5800  -44.4840 O   0  0  0  0  0
   38.2070  -29.0160  -36.8710 S   0  0  0  0  0
   39.7670  -28.7260  -36.3600 C   0  0  0  0  0
   40.6300  -28.9150  -37.3590 C   0  0  0  0  0
   40.0940  -29.3010  -38.5540 N   0  0  0  0  0
   33.2010  -30.0740  -37.3880 F   0  0  0  0  0
   30.9906  -30.6504  -38.5946 H   0  0  0  0  0
   30.8319  -31.1190  -41.0266 H   0  0  0  0  0
   32.8674  -31.1254  -42.4256 H   0  0  0  0  0
   38.4495  -29.6055  -43.6193 H   0  0  0  0  0
   36.7151  -29.7745  -43.6975 H   0  0  0  0  0
   39.7928  -31.7525  -42.8094 H   0  0  0  0  0
   36.0425  -34.2719  -44.8730 H   0  0  0  0  0
   35.7735  -31.8754  -44.3022 H   0  0  0  0  0
   39.8893  -36.4832  -43.2697 H   0  0  0  0  0
   40.4947  -35.9035  -44.8269 H   0  0  0  0  0
   40.0433  -28.4239  -35.3498 H   0  0  0  0  0
   41.7024  -28.7696  -37.2289 H   0  0  0  0  0
  1  2  4  0  0  0
  9  1  1  0  0  0
  1 13  4  0  0  0
  2  3  4  0  0  0
  2  6  1  0  0  0
  3 11  4  0  0  0
  3 30  1  0  0  0
  4  5  4  0  0  0
  4  7  4  0  0  0
  4  9  1  0  0  0
  5  6  1  0  0  0
  5  8  4  0  0  0
  6 15  2  0  0  0
  7 14  4  0  0  0
  7 16  1  0  0  0
  8 10  1  0  0  0
  8 14  4  0  0  0
 10 26  4  0  0  0
 10 29  4  0  0  0
 11 12  4  0  0  0
 12 13  4  0  0  0
 16 17  1  0  0  0
 17 18  4  0  0  0
 17 22  4  0  0  0
 18 19  4  0  0  0
 19 20  4  0  0  0
 19 23  1  0  0  0
 20 21  4  0  0  0
 20 25  1  0  0  0
 21 22  4  0  0  0
 23 24  1  0  0  0
 24 25  1  0  0  0
 26 27  4  0  0  0
 27 28  4  0  0  0
 28 29  4  0  0  0
 11 31  1  0  0  0
 12 32  1  0  0  0
 13 33  1  0  0  0
 16 34  1  0  0  0
 16 35  1  0  0  0
 18 36  1  0  0  0
 21 37  1  0  0  0
 22 38  1  0  0  0
 24 39  1  0  0  0
 24 40  1  0  0  0
 27 41  1  0  0  0
 28 42  1  0  0  0
M  END
$$$$
