5t1s_ligand
  -I-interpret- 

 61 64  0  0  0  0  0  0  0  0999 V2000
   31.1990    4.5750   -7.8900 N   0  0  0  0  0
   30.4410    4.8010   -6.8430 C   0  0  0  0  0
   29.9610    6.0090   -6.3640 C   0  0  0  0  0
   30.3760    7.2350   -7.1820 C   0  0  0  0  0
   31.2190    6.9830   -8.3390 C   0  0  0  0  0
   31.6340    5.6530   -8.6080 C   0  0  0  0  0
   31.6620    8.0230   -9.2300 C   0  0  0  0  0
   32.5120    7.7510  -10.3140 C   0  0  0  0  0
   32.8900    6.4240  -10.5330 C   0  0  0  0  0
   32.4900    5.4120   -9.7090 C   0  0  0  0  0
   29.0630    6.0080   -5.1680 C   0  0  0  0  0
   29.9670    8.6860   -6.8980 C   0  0  0  0  0
   33.0110    8.8530  -11.2010 C   0  0  0  0  0
   27.7830    6.5480   -5.2520 C   0  0  0  0  0
   26.9320    6.5900   -4.1530 C   0  0  0  0  0
   27.3360    5.9850   -2.9860 C   0  0  0  0  0
   28.5600    5.3720   -2.8680 C   0  0  0  0  0
   29.3960    5.3390   -3.9850 C   0  0  0  0  0
   25.5940    7.2650   -4.2300 C   0  0  0  0  0
   28.9810    4.7840   -1.5500 C   0  0  0  0  0
   29.6930    8.9550   -5.4280 C   0  0  0  0  0
   30.1610   10.2280   -4.8090 C   0  0  0  0  0
   29.0410   11.2110   -4.5620 C   0  0  0  0  0
   27.9210   10.5290   -3.8440 N   0  3  0  0  0
   26.8980   11.4420   -3.3250 C   0  0  0  0  0
   32.2350    9.9640  -11.5100 C   0  0  0  0  0
   32.6370   10.9660  -12.2990 N   0  0  0  0  0
   33.8600   10.8840  -12.8340 C   0  0  0  0  0
   34.7220    9.8110  -12.6120 C   0  0  0  0  0
   34.2850    8.7880  -11.7780 C   0  0  0  0  0
   35.9760    9.7750  -13.1720 O   0  0  0  0  0
   30.1496    3.9188   -6.2730 H   0  0  0  0  0
   31.3295    9.0469   -9.0590 H   0  0  0  0  0
   33.5239    6.1896  -11.3882 H   0  0  0  0  0
   32.8371    4.3971   -9.9030 H   0  0  0  0  0
   29.0459    8.8825   -7.4466 H   0  0  0  0  0
   30.7941    9.3275   -7.2022 H   0  0  0  0  0
   27.4382    6.9489   -6.2052 H   0  0  0  0  0
   26.6641    5.9920   -2.1277 H   0  0  0  0  0
   30.3299    4.7792   -3.9347 H   0  0  0  0  0
   25.7329    8.3165   -4.4811 H   0  0  0  0  0
   24.9892    6.7834   -4.9984 H   0  0  0  0  0
   25.0914    7.1836   -3.2662 H   0  0  0  0  0
   29.0042    5.5691   -0.7942 H   0  0  0  0  0
   28.2694    4.0134   -1.2535 H   0  0  0  0  0
   29.9735    4.3447   -1.6500 H   0  0  0  0  0
   30.2410    8.1750   -4.8994 H   0  0  0  0  0
   28.6063    8.9973   -5.3546 H   0  0  0  0  0
   30.8651   10.6934   -5.4987 H   0  0  0  0  0
   30.6072    9.9840   -3.8449 H   0  0  0  0  0
   28.6787   11.5931   -5.5164 H   0  0  0  0  0
   29.4117   12.0354   -3.9529 H   0  0  0  0  0
   28.3268   10.0443   -3.0435 H   0  0  0  0  0
   27.4628    9.9132   -4.5157 H   0  0  0  0  0
   27.3560   12.1359   -2.6202 H   0  0  0  0  0
   26.4574   11.9995   -4.1515 H   0  0  0  0  0
   26.1227   10.8669   -2.8188 H   0  0  0  0  0
   31.2344   10.0222  -11.0816 H   0  0  0  0  0
   34.1999   11.6968  -13.4758 H   0  0  0  0  0
   34.9336    7.9362  -11.5736 H   0  0  0  0  0
   36.4197    8.9654  -12.9087 H   0  0  0  0  0
  1  2  4  0  0  0
  1  6  4  0  0  0
  2  3  4  0  0  0
  3  4  4  0  0  0
  3 11  1  0  0  0
  4  5  4  0  0  0
  4 12  1  0  0  0
  5  6  4  0  0  0
  5  7  4  0  0  0
  6 10  4  0  0  0
  7  8  4  0  0  0
  8  9  4  0  0  0
  8 13  1  0  0  0
  9 10  4  0  0  0
 11 14  4  0  0  0
 11 18  4  0  0  0
 12 21  1  0  0  0
 13 26  4  0  0  0
 13 30  4  0  0  0
 14 15  4  0  0  0
 15 16  4  0  0  0
 15 19  1  0  0  0
 16 17  4  0  0  0
 17 18  4  0  0  0
 17 20  1  0  0  0
 21 22  1  0  0  0
 22 23  1  0  0  0
 23 24  1  0  0  0
 24 25  1  0  0  0
 26 27  4  0  0  0
 27 28  4  0  0  0
 28 29  4  0  0  0
 29 30  4  0  0  0
 29 31  1  0  0  0
  2 32  1  0  0  0
  7 33  1  0  0  0
  9 34  1  0  0  0
 10 35  1  0  0  0
 12 36  1  0  0  0
 12 37  1  0  0  0
 14 38  1  0  0  0
 16 39  1  0  0  0
 18 40  1  0  0  0
 19 41  1  0  0  0
 19 42  1  0  0  0
 19 43  1  0  0  0
 20 44  1  0  0  0
 20 45  1  0  0  0
 20 46  1  0  0  0
 21 47  1  0  0  0
 21 48  1  0  0  0
 22 49  1  0  0  0
 22 50  1  0  0  0
 23 51  1  0  0  0
 23 52  1  0  0  0
 24 53  1  0  0  0
 24 54  1  0  0  0
 25 55  1  0  0  0
 25 56  1  0  0  0
 25 57  1  0  0  0
 26 58  1  0  0  0
 28 59  1  0  0  0
 30 60  1  0  0  0
 31 61  1  0  0  0
M  END
$$$$
