6qqz_ligand
  -I-interpret- 

 37 40  0  0  0  0  0  0  0  0999 V2000
  -23.0150   18.2460  -11.8530 C   0  0  0  0  0
  -23.4550   21.0130  -11.2370 C   0  0  0  0  0
  -22.2390   23.6330   -9.5650 C   0  0  0  0  0
  -20.7440   23.8380   -7.2680 C   0  0  0  0  0
  -20.2640   24.4550   -8.4380 C   0  0  0  0  0
  -21.0410   24.3560   -9.6280 C   0  0  0  0  0
  -25.6360   20.8320  -10.6780 C   0  0  0  0  0
  -17.7190   16.6470  -12.9230 N   0  0  0  0  0
  -18.6290   17.7000  -12.6950 C   0  0  0  0  0
  -18.3830   18.9600  -12.5880 N   0  0  0  0  0
  -19.5660   19.6130  -12.3360 N   0  0  0  0  0
  -20.5480   18.7580  -12.3260 C   0  0  0  0  0
  -20.0280   17.5210  -12.4890 C   0  0  0  0  0
  -20.6730   16.1580  -12.5490 C   0  0  0  0  0
  -21.1160   15.1070  -12.6000 N   0  0  0  0  0
  -21.9620   19.1960  -11.9750 C   0  0  0  0  0
  -24.2980   18.6900  -11.4360 C   0  0  0  0  0
  -24.5140   20.0770  -11.1230 C   0  0  0  0  0
  -22.1510   20.5730  -11.6410 C   0  0  0  0  0
  -23.9310   22.2580  -10.8710 N   0  0  0  0  0
  -23.1250   23.5130  -10.8580 C   0  0  0  0  0
  -22.6500   23.0450   -8.3230 C   0  0  0  0  0
  -21.9000   23.1730   -7.2470 N   0  0  0  0  0
  -25.2450   22.1910  -10.5390 C   0  0  0  0  0
  -22.8393   17.1937  -12.0762 H   0  0  0  0  0
  -20.1548   23.9054   -6.3535 H   0  0  0  0  0
  -19.3183   24.9969   -8.4339 H   0  0  0  0  0
  -20.7145   24.8266  -10.5554 H   0  0  0  0  0
  -26.6305   20.4335  -10.4772 H   0  0  0  0  0
  -16.7238   16.8461  -13.0249 H   0  0  0  0  0
  -18.0560   15.6864  -12.9860 H   0  0  0  0  0
  -25.1198   17.9788  -11.3531 H   0  0  0  0  0
  -21.3194   21.2757  -11.6924 H   0  0  0  0  0
  -22.4631   23.5011  -11.7239 H   0  0  0  0  0
  -23.8122   24.3588  -10.8791 H   0  0  0  0  0
  -23.5866   22.4900   -8.2689 H   0  0  0  0  0
  -25.8789   23.0205  -10.2258 H   0  0  0  0  0
 16  1  4  0  0  0
 17  1  4  0  0  0
  2 18  4  0  0  0
  2 19  4  0  0  0
 20  2  4  0  0  0
  3  6  4  0  0  0
 21  3  1  0  0  0
  3 22  4  0  0  0
  5  4  4  0  0  0
  4 23  4  0  0  0
  6  5  4  0  0  0
 18  7  4  0  0  0
  7 24  4  0  0  0
  9  8  1  0  0  0
  9 10  4  0  0  0
 13  9  4  0  0  0
 11 10  4  0  0  0
 12 11  4  0  0  0
 12 13  4  0  0  0
 16 12  1  0  0  0
 13 14  1  0  0  0
 14 15  3  0  0  0
 19 16  4  0  0  0
 18 17  4  0  0  0
 20 21  1  0  0  0
 20 24  4  0  0  0
 22 23  4  0  0  0
  1 25  1  0  0  0
  4 26  1  0  0  0
  5 27  1  0  0  0
  6 28  1  0  0  0
  7 29  1  0  0  0
  8 30  1  0  0  0
  8 31  1  0  0  0
 17 32  1  0  0  0
 19 33  1  0  0  0
 21 34  1  0  0  0
 21 35  1  0  0  0
 22 36  1  0  0  0
 24 37  1  0  0  0
M  END
$$$$
