1d3q_ligand
  -I-interpret- 

 78 83  0  0  0  0  0  0  0  0999 V2000
  -24.4230  -31.4070   24.2210 C   0  0  0  0  0
  -24.6650  -32.4170   23.0810 C   0  0  0  0  0
  -23.6790  -32.6080   21.9900 C   0  0  0  0  0
  -22.4190  -31.8410   21.9370 C   0  0  0  0  0
  -22.1770  -30.8350   22.9600 C   0  0  0  0  0
  -23.1530  -30.5660   24.1330 C   0  0  0  0  0
  -23.6470  -33.8000   20.8240 S   0  0  0  0  0
  -22.0880  -33.4520   20.1540 C   0  0  0  0  0
  -21.5320  -32.3500   20.8900 C   0  0  0  0  0
  -20.0330  -31.8890   20.7210 C   0  0  0  0  0
  -21.4260  -34.1300   18.9550 C   0  0  0  0  0
  -20.6730  -33.4050   17.8610 C   0  0  0  0  0
  -19.8730  -34.1180   16.7580 C   0  0  0  0  0
  -19.8620  -35.6420   16.7600 C   0  0  0  0  0
  -20.6000  -36.3640   17.9070 C   0  0  0  0  0
  -21.3850  -35.5920   18.9530 C   0  0  0  0  0
  -19.2780  -36.3290   15.6790 O   0  0  0  0  0
  -19.7400  -37.7380   15.4470 C   0  0  0  0  0
  -19.0820  -34.1270   22.0000 C   0  0  0  0  0
  -18.8900  -32.7840   21.3360 C   0  0  0  0  0
  -17.4420  -32.2930   21.2360 C   0  0  0  0  0
  -16.2420  -33.1290   21.7230 C   0  0  0  0  0
  -16.4770  -34.5320   22.2930 C   0  0  0  0  0
  -17.9200  -34.9490   22.4970 C   0  0  0  0  0
  -15.4510  -35.4620   22.4970 O   0  0  0  0  0
  -15.4980  -36.3170   23.6870 C   0  0  0  0  0
  -13.6880  -34.0420   27.4530 C   0  0  0  0  0
  -13.3740  -33.1640   26.2400 C   0  0  0  0  0
  -13.5440  -33.9740   24.9710 C   0  0  0  0  0
  -14.0910  -35.3050   25.4950 N   0  3  0  0  0
  -14.0850  -35.4630   26.9900 C   0  0  0  0  0
  -16.5820  -39.7150   14.1100 C   0  0  0  0  0
  -17.5190  -39.0810   15.1530 N   0  3  0  0  0
  -17.7980  -39.9780   16.3550 C   0  0  0  0  0
  -17.3290  -41.3500   15.8450 C   0  0  0  0  0
  -16.7400  -41.2040   14.4320 C   0  0  0  0  0
  -14.1860  -36.4010   24.4910 C   0  0  0  0  0
  -18.8370  -38.6190   14.5710 C   0  0  0  0  0
  -25.1243  -31.2993   25.0484 H   0  0  0  0  0
  -25.5830  -33.0047   23.0771 H   0  0  0  0  0
  -21.2647  -30.2417   22.8982 H   0  0  0  0  0
  -22.9382  -29.7970   24.8750 H   0  0  0  0  0
  -19.9671  -30.9405   21.2541 H   0  0  0  0  0
  -19.8533  -31.9002   19.6460 H   0  0  0  0  0
  -20.6991  -32.3153   17.8543 H   0  0  0  0  0
  -19.3317  -33.5521   15.9998 H   0  0  0  0  0
  -20.5569  -37.4515   17.9677 H   0  0  0  0  0
  -21.9309  -36.1406   19.7206 H   0  0  0  0  0
  -20.6907  -37.6612   14.9194 H   0  0  0  0  0
  -19.7657  -38.2129   16.4278 H   0  0  0  0  0
  -20.0933  -34.5144   22.1238 H   0  0  0  0  0
  -17.2525  -31.3112   20.8022 H   0  0  0  0  0
  -15.2317  -32.7244   21.6623 H   0  0  0  0  0
  -18.1258  -35.8806   23.0242 H   0  0  0  0  0
  -15.7145  -37.3264   23.3373 H   0  0  0  0  0
  -16.2445  -35.8839   24.3528 H   0  0  0  0  0
  -14.5159  -33.6020   28.0090 H   0  0  0  0  0
  -12.8040  -34.1058   28.0875 H   0  0  0  0  0
  -12.3466  -32.8063   26.3072 H   0  0  0  0  0
  -14.0554  -32.3135   26.2216 H   0  0  0  0  0
  -12.6165  -34.0860   24.4095 H   0  0  0  0  0
  -14.2045  -33.4975   24.2466 H   0  0  0  0  0
  -15.1038  -35.4008   25.5693 H   0  0  0  0  0
  -15.0385  -35.8018   27.3952 H   0  0  0  0  0
  -13.4070  -36.2404   27.3423 H   0  0  0  0  0
  -15.5533  -39.3598   14.1712 H   0  0  0  0  0
  -16.8345  -39.4596   13.0809 H   0  0  0  0  0
  -16.9969  -38.2661   15.4751 H   0  0  0  0  0
  -18.8419  -39.9676   16.6686 H   0  0  0  0  0
  -17.2861  -39.6563   17.2620 H   0  0  0  0  0
  -18.1776  -42.0333   15.8139 H   0  0  0  0  0
  -16.5652  -41.7431   16.5160 H   0  0  0  0  0
  -15.7682  -41.6955   14.3859 H   0  0  0  0  0
  -17.4068  -41.6687   13.7057 H   0  0  0  0  0
  -13.3496  -36.3085   23.7982 H   0  0  0  0  0
  -14.1639  -37.3550   25.0177 H   0  0  0  0  0
  -18.5742  -38.0013   13.7122 H   0  0  0  0  0
  -19.4085  -39.5291   14.3888 H   0  0  0  0  0
  2  1  4  0  0  0
  6  1  4  0  0  0
  3  2  4  0  0  0
  4  3  4  0  0  0
  7  3  4  0  0  0
  4  5  4  0  0  0
  9  4  4  0  0  0
  5  6  4  0  0  0
  8  7  4  0  0  0
  8  9  4  0  0  0
 11  8  1  0  0  0
  9 10  1  0  0  0
 10 20  1  0  0  0
 12 11  4  0  0  0
 16 11  4  0  0  0
 13 12  4  0  0  0
 14 13  4  0  0  0
 14 15  4  0  0  0
 17 14  1  0  0  0
 15 16  4  0  0  0
 18 17  1  0  0  0
 38 18  1  0  0  0
 20 19  4  0  0  0
 19 24  4  0  0  0
 20 21  4  0  0  0
 21 22  4  0  0  0
 22 23  4  0  0  0
 24 23  4  0  0  0
 23 25  1  0  0  0
 25 26  1  0  0  0
 26 37  1  0  0  0
 27 28  1  0  0  0
 31 27  1  0  0  0
 29 28  1  0  0  0
 30 29  1  0  0  0
 30 31  1  0  0  0
 37 30  1  0  0  0
 33 32  1  0  0  0
 32 36  1  0  0  0
 33 34  1  0  0  0
 33 38  1  0  0  0
 34 35  1  0  0  0
 35 36  1  0  0  0
  1 39  1  0  0  0
  2 40  1  0  0  0
  5 41  1  0  0  0
  6 42  1  0  0  0
 10 43  1  0  0  0
 10 44  1  0  0  0
 12 45  1  0  0  0
 13 46  1  0  0  0
 15 47  1  0  0  0
 16 48  1  0  0  0
 18 49  1  0  0  0
 18 50  1  0  0  0
 19 51  1  0  0  0
 21 52  1  0  0  0
 22 53  1  0  0  0
 24 54  1  0  0  0
 26 55  1  0  0  0
 26 56  1  0  0  0
 27 57  1  0  0  0
 27 58  1  0  0  0
 28 59  1  0  0  0
 28 60  1  0  0  0
 29 61  1  0  0  0
 29 62  1  0  0  0
 30 63  1  0  0  0
 31 64  1  0  0  0
 31 65  1  0  0  0
 32 66  1  0  0  0
 32 67  1  0  0  0
 33 68  1  0  0  0
 34 69  1  0  0  0
 34 70  1  0  0  0
 35 71  1  0  0  0
 35 72  1  0  0  0
 36 73  1  0  0  0
 36 74  1  0  0  0
 37 75  1  0  0  0
 37 76  1  0  0  0
 38 77  1  0  0  0
 38 78  1  0  0  0
M  END
$$$$
