2jdo_ligand
  -I-interpret- 

 51 53  0  0  0  0  0  0  0  0999 V2000
   41.5950   30.3140  106.2120 Cl  0  0  0  0  0
   42.0400   29.2260  107.4840 C   0  0  0  0  0
   41.2280   28.1470  107.7880 C   0  0  0  0  0
   41.5800   27.2790  108.7980 C   0  0  0  0  0
   42.7590   27.4690  109.5090 C   0  0  0  0  0
   43.1460   26.5180  110.6110 C   0  0  0  0  0
   43.1770   27.2270  111.8590 O   0  0  0  0  0
   41.8740   27.6430  112.3000 C   0  0  0  0  0
   41.9990   28.1640  113.7160 C   0  0  0  0  0
   42.1930   29.6180  113.7030 N   0  3  0  0  0
   43.5890   29.9970  113.4950 C   0  0  0  0  0
   43.7130   31.5080  113.5590 C   0  0  0  0  0
   44.7960   31.9930  112.7090 N   0  0  0  0  0
   44.4990   32.5910  111.2090 S   0  0  0  0  0
   45.7660   32.6550  110.5420 O   0  0  0  0  0
   43.4520   31.8000  110.6290 O   0  0  0  0  0
   43.8860   34.2280  111.4430 C   0  0  0  0  0
   42.5150   34.4410  111.3690 C   0  0  0  0  0
   41.9840   35.6980  111.5610 C   0  0  0  0  0
   42.8060   36.7700  111.8340 C   0  0  0  0  0
   44.1770   36.6000  111.9330 C   0  0  0  0  0
   45.0270   37.6620  112.2180 C   0  0  0  0  0
   46.3540   37.5470  112.3190 N   0  0  0  0  0
   46.8740   36.3320  112.1230 C   0  0  0  0  0
   46.1160   35.2170  111.8420 C   0  0  0  0  0
   44.7360   35.3260  111.7370 C   0  0  0  0  0
   43.5700   28.5560  109.2010 C   0  0  0  0  0
   43.2160   29.4260  108.1910 C   0  0  0  0  0
   40.3079   27.9838  107.2269 H   0  0  0  0  0
   40.9302   26.4383  109.0410 H   0  0  0  0  0
   44.1312   26.1001  110.4037 H   0  0  0  0  0
   42.4174   25.7093  110.6683 H   0  0  0  0  0
   41.1815   26.8018  112.2696 H   0  0  0  0  0
   41.4883   28.4246  111.6454 H   0  0  0  0  0
   42.8568   27.6930  114.1960 H   0  0  0  0  0
   41.0870   27.9297  114.2651 H   0  0  0  0  0
   41.9009   29.9817  114.6101 H   0  0  0  0  0
   41.6457   30.0008  112.9321 H   0  0  0  0  0
   43.9213   29.6445  112.5185 H   0  0  0  0  0
   44.2089   29.5467  114.2703 H   0  0  0  0  0
   43.9285   31.7932  114.5887 H   0  0  0  0  0
   42.7779   31.9460  113.2100 H   0  0  0  0  0
   45.7555   31.9598  113.0534 H   0  0  0  0  0
   41.8510   33.6031  111.1564 H   0  0  0  0  0
   40.9060   35.8455  111.4965 H   0  0  0  0  0
   42.3732   37.7607  111.9733 H   0  0  0  0  0
   44.5847   38.6469  112.3680 H   0  0  0  0  0
   47.9559   36.2171  112.1890 H   0  0  0  0  0
   46.5991   34.2500  111.7022 H   0  0  0  0  0
   44.4905   28.7213  109.7609 H   0  0  0  0  0
   43.8607   30.2708  107.9485 H   0  0  0  0  0
  1  2  1  0  0  0
  2  3  4  0  0  0
  2 28  4  0  0  0
  3  4  4  0  0  0
  4  5  4  0  0  0
  5  6  1  0  0  0
  5 27  4  0  0  0
  6  7  1  0  0  0
  7  8  1  0  0  0
  8  9  1  0  0  0
  9 10  1  0  0  0
 10 11  1  0  0  0
 11 12  1  0  0  0
 12 13  1  0  0  0
 13 14  1  0  0  0
 14 15  2  0  0  0
 14 16  2  0  0  0
 14 17  1  0  0  0
 17 18  4  0  0  0
 17 26  4  0  0  0
 18 19  4  0  0  0
 19 20  4  0  0  0
 20 21  4  0  0  0
 21 22  4  0  0  0
 21 26  4  0  0  0
 22 23  4  0  0  0
 23 24  4  0  0  0
 24 25  4  0  0  0
 25 26  4  0  0  0
 27 28  4  0  0  0
  3 29  1  0  0  0
  4 30  1  0  0  0
  6 31  1  0  0  0
  6 32  1  0  0  0
  8 33  1  0  0  0
  8 34  1  0  0  0
  9 35  1  0  0  0
  9 36  1  0  0  0
 10 37  1  0  0  0
 10 38  1  0  0  0
 11 39  1  0  0  0
 11 40  1  0  0  0
 12 41  1  0  0  0
 12 42  1  0  0  0
 13 43  1  0  0  0
 18 44  1  0  0  0
 19 45  1  0  0  0
 20 46  1  0  0  0
 22 47  1  0  0  0
 24 48  1  0  0  0
 25 49  1  0  0  0
 27 50  1  0  0  0
 28 51  1  0  0  0
M  END
$$$$
