2pwd_ligand
  -I-interpret- 

 25 25  0  0  0  0  0  0  0  0999 V2000
    5.9730    3.5020    3.0760 C   0  0  0  0  0
    4.6440    4.3300    2.9520 C   0  0  0  0  0
    3.7180    3.6460    2.1370 O   0  0  0  0  0
    4.9660    5.7160    2.3550 C   0  0  0  0  0
    3.7900    6.5230    2.2090 O   0  0  0  0  0
    5.9570    6.4470    3.3000 C   0  0  0  0  0
    6.2860    7.7570    2.7580 O   0  0  0  0  0
    7.2400    5.5640    3.4760 C   0  0  0  0  0
    6.9210    4.2250    3.9460 N   0  3  0  0  0
    8.1990    6.1920    4.5040 C   0  0  0  0  0
    7.4640    6.1380    5.7720 O   0  0  0  0  0
    6.4135    3.3702    2.0877 H   0  0  0  0  0
    5.7546    2.5253    3.5078 H   0  0  0  0  0
    4.2000    4.4569    3.9394 H   0  0  0  0  0
    3.5284    2.7870    2.5214 H   0  0  0  0  0
    5.3982    5.5659    1.3657 H   0  0  0  0  0
    3.1695    6.0798    1.6258 H   0  0  0  0  0
    5.4999    6.5980    4.2779 H   0  0  0  0  0
    5.4824    8.2733    2.6618 H   0  0  0  0  0
    7.7050    5.5073    2.4918 H   0  0  0  0  0
    7.7901    3.6913    3.9604 H   0  0  0  0  0
    6.4833    4.3193    4.8625 H   0  0  0  0  0
    8.4758    7.2114    4.2352 H   0  0  0  0  0
    9.1473    5.6573    4.5582 H   0  0  0  0  0
    8.0039    6.5163    6.4699 H   0  0  0  0  0
  1  2  1  0  0  0
  1  9  1  0  0  0
  2  3  1  0  0  0
  2  4  1  0  0  0
  4  5  1  0  0  0
  4  6  1  0  0  0
  6  7  1  0  0  0
  6  8  1  0  0  0
  8  9  1  0  0  0
  8 10  1  0  0  0
 10 11  1  0  0  0
  1 12  1  0  0  0
  1 13  1  0  0  0
  2 14  1  0  0  0
  3 15  1  0  0  0
  4 16  1  0  0  0
  5 17  1  0  0  0
  6 18  1  0  0  0
  7 19  1  0  0  0
  8 20  1  0  0  0
  9 21  1  0  0  0
  9 22  1  0  0  0
 10 23  1  0  0  0
 10 24  1  0  0  0
 11 25  1  0  0  0
M  END
$$$$
