4af3_ligand
  -I-interpret- 

 61 65  0  0  0  0  0  0  0  0999 V2000
   26.8280  -20.5750  -15.1820 N   0  3  0  0  0
   25.4860  -20.5210  -15.8370 C   0  0  0  0  0
   24.4510  -20.1530  -14.8120 C   0  0  0  0  0
   24.3950  -21.2370  -13.8010 N   0  0  0  0  0
   25.5770  -22.1270  -13.6900 C   0  0  0  0  0
   26.8130  -21.3150  -13.8930 C   0  0  0  0  0
   27.4520  -19.2360  -14.9940 C   0  0  0  0  0
   23.3460  -21.4550  -12.9810 C   0  0  0  0  0
   22.0410  -21.0120  -13.2100 C   0  0  0  0  0
   21.0530  -21.3320  -12.2770 C   0  0  0  0  0
   21.3890  -22.0610  -11.1880 N   0  0  0  0  0
   22.6500  -22.4860  -10.9950 C   0  0  0  0  0
   23.5980  -22.1820  -11.8830 N   0  0  0  0  0
   19.8000  -20.8790  -12.5020 N   0  0  0  0  0
   18.7090  -21.2910  -11.8100 C   0  0  0  0  0
   18.5290  -22.2470  -10.8890 C   0  0  0  0  0
   17.2410  -22.1620  -10.5690 C   0  0  0  0  0
   16.6830  -21.1950  -11.2730 N   0  0  0  0  0
   17.5380  -20.6930  -11.9950 N   0  0  0  0  0
   16.4520  -23.0090   -9.5610 C   0  0  0  0  0
   23.1370  -23.4460   -9.5850 S   0  0  0  0  0
   21.7750  -23.2610   -8.5580 C   0  0  0  0  0
   21.6380  -22.1030   -7.8120 C   0  0  0  0  0
   20.5450  -21.9470   -6.9750 C   0  0  0  0  0
   19.5730  -22.9410   -6.8680 C   0  0  0  0  0
   19.7240  -24.1110   -7.6340 C   0  0  0  0  0
   20.8230  -24.2630   -8.4670 C   0  0  0  0  0
   18.5490  -22.6830   -6.0290 N   0  0  0  0  0
   17.5190  -23.5400   -5.9130 C   0  0  0  0  0
   17.4040  -24.6060   -6.5110 O   0  0  0  0  0
   16.4240  -23.0950   -4.9500 C   0  0  0  0  0
   14.9990  -22.9710   -5.5090 C   0  0  0  0  0
   15.3580  -24.1280   -4.6040 C   0  0  0  0  0
   27.4085  -21.0941  -15.8408 H   0  0  0  0  0
   25.2478  -21.4951  -16.2642 H   0  0  0  0  0
   25.4962  -19.7745  -16.6312 H   0  0  0  0  0
   23.4777  -20.0336  -15.2880 H   0  0  0  0  0
   24.7145  -19.2089  -14.3353 H   0  0  0  0  0
   25.5216  -22.9099  -14.4464 H   0  0  0  0  0
   25.5982  -22.5908  -12.7038 H   0  0  0  0  0
   26.8577  -20.5785  -13.0907 H   0  0  0  0  0
   27.6598  -22.0013  -13.8982 H   0  0  0  0  0
   26.8782  -18.6688  -14.2611 H   0  0  0  0  0
   28.4752  -19.3600  -14.6393 H   0  0  0  0  0
   27.4578  -18.7026  -15.9445 H   0  0  0  0  0
   21.7993  -20.4287  -14.0985 H   0  0  0  0  0
   19.6666  -20.1847  -13.2373 H   0  0  0  0  0
   19.2714  -22.9390  -10.4913 H   0  0  0  0  0
   16.4933  -24.0570   -9.8580 H   0  0  0  0  0
   16.8901  -22.8934   -8.5696 H   0  0  0  0  0
   15.4143  -22.6760   -9.5421 H   0  0  0  0  0
   22.3884  -21.3156   -7.8829 H   0  0  0  0  0
   20.4433  -21.0325   -6.3907 H   0  0  0  0  0
   18.9752  -24.9007   -7.5730 H   0  0  0  0  0
   20.9378  -25.1752   -9.0526 H   0  0  0  0  0
   18.5558  -21.8265   -5.4751 H   0  0  0  0  0
   17.0909  -22.4429   -4.3861 H   0  0  0  0  0
   14.5088  -22.8051   -6.4683 H   0  0  0  0  0
   14.2190  -22.2149   -5.5988 H   0  0  0  0  0
   14.9597  -24.6159   -3.7144 H   0  0  0  0  0
   15.2527  -25.2129   -4.5938 H   0  0  0  0  0
  1  2  1  0  0  0
  1  6  1  0  0  0
  1  7  1  0  0  0
  2  3  1  0  0  0
  3  4  1  0  0  0
  4  5  1  0  0  0
  4  8  1  0  0  0
  5  6  1  0  0  0
  8  9  4  0  0  0
  8 13  4  0  0  0
  9 10  4  0  0  0
 10 11  4  0  0  0
 10 14  1  0  0  0
 11 12  4  0  0  0
 12 13  4  0  0  0
 12 21  1  0  0  0
 14 15  1  0  0  0
 15 16  4  0  0  0
 15 19  4  0  0  0
 16 17  4  0  0  0
 17 18  4  0  0  0
 17 20  1  0  0  0
 18 19  4  0  0  0
 21 22  1  0  0  0
 22 23  4  0  0  0
 22 27  4  0  0  0
 23 24  4  0  0  0
 24 25  4  0  0  0
 25 26  4  0  0  0
 25 28  1  0  0  0
 26 27  4  0  0  0
 28 29  1  0  0  0
 29 30  2  0  0  0
 29 31  1  0  0  0
 31 32  1  0  0  0
 31 33  1  0  0  0
 32 33  1  0  0  0
  1 34  1  0  0  0
  2 35  1  0  0  0
  2 36  1  0  0  0
  3 37  1  0  0  0
  3 38  1  0  0  0
  5 39  1  0  0  0
  5 40  1  0  0  0
  6 41  1  0  0  0
  6 42  1  0  0  0
  7 43  1  0  0  0
  7 44  1  0  0  0
  7 45  1  0  0  0
  9 46  1  0  0  0
 14 47  1  0  0  0
 16 48  1  0  0  0
 20 49  1  0  0  0
 20 50  1  0  0  0
 20 51  1  0  0  0
 23 52  1  0  0  0
 24 53  1  0  0  0
 26 54  1  0  0  0
 27 55  1  0  0  0
 28 56  1  0  0  0
 31 57  1  0  0  0
 32 58  1  0  0  0
 32 59  1  0  0  0
 33 60  1  0  0  0
 33 61  1  0  0  0
M  END
$$$$
