### 
### Created by X-TOOL on Mon Sep 10 21:13:11 2018
### 

@<TRIPOS>MOLECULE
4af3_ligand
   61    65     1     0     0
SMALL
GAST_HUCK


@<TRIPOS>ATOM
      1 N1         26.8280  -20.5750  -15.1820 N.4       1 VX6         0.4035
      2 C2         25.4860  -20.5210  -15.8370 C.3       1 VX6        -0.0923
      3 C3         24.4510  -20.1530  -14.8120 C.3       1 VX6         0.0128
      4 N4         24.3950  -21.2370  -13.8010 N.pl3     1 VX6        -0.2962
      5 C5         25.5770  -22.1270  -13.6900 C.3       1 VX6         0.0128
      6 C6         26.8130  -21.3150  -13.8930 C.3       1 VX6        -0.0923
      7 C7         27.4520  -19.2360  -14.9940 C.3       1 VX6        -0.1255
      8 C8         23.3460  -21.4550  -12.9810 C.ar      1 VX6         0.1079
      9 C9         22.0410  -21.0120  -13.2100 C.ar      1 VX6         0.0174
     10 C10        21.0530  -21.3320  -12.2770 C.ar      1 VX6         0.1222
     11 N11        21.3890  -22.0610  -11.1880 N.ar      1 VX6        -0.2565
     12 C12        22.6500  -22.4860  -10.9950 C.ar      1 VX6         0.1445
     13 N13        23.5980  -22.1820  -11.8830 N.ar      1 VX6        -0.2590
     14 N14        19.8000  -20.8790  -12.5020 N.pl3     1 VX6        -0.2610
     15 C15        18.7090  -21.2910  -11.8100 C.2       1 VX6         0.0964
     16 C17        18.5290  -22.2470  -10.8890 C.2       1 VX6        -0.0260
     17 C18        17.2410  -22.1620  -10.5690 C.2       1 VX6         0.0559
     18 N19        16.6830  -21.1950  -11.2730 N.pl3     1 VX6        -0.2338
     19 N20        17.5380  -20.6930  -11.9950 N.2       1 VX6        -0.2287
     20 C21        16.4520  -23.0090   -9.5610 C.3       1 VX6        -0.0040
     21 S23        23.1370  -23.4460   -9.5850 S.3       1 VX6        -0.0159
     22 C24        21.7750  -23.2610   -8.5580 C.ar      1 VX6         0.0217
     23 C25        21.6380  -22.1030   -7.8120 C.ar      1 VX6        -0.0596
     24 C26        20.5450  -21.9470   -6.9750 C.ar      1 VX6        -0.0458
     25 C27        19.5730  -22.9410   -6.8680 C.ar      1 VX6         0.0602
     26 C28        19.7240  -24.1110   -7.6340 C.ar      1 VX6        -0.0458
     27 C29        20.8230  -24.2630   -8.4670 C.ar      1 VX6        -0.0596
     28 N30        18.5490  -22.6830   -6.0290 N.am      1 VX6        -0.2372
     29 C31        17.5190  -23.5400   -5.9130 C.2       1 VX6         0.2051
     30 O32        17.4040  -24.6060   -6.5110 O.2       1 VX6        -0.3854
     31 C33        16.4240  -23.0950   -4.9500 C.3       1 VX6         0.0545
     32 C34        14.9990  -22.9710   -5.5090 C.3       1 VX6        -0.0304
     33 C35        15.3580  -24.1280   -4.6040 C.3       1 VX6        -0.0304
     34 H          25.2478  -21.4951  -16.2642 H         1 VX6         0.0037
     35 H          25.4962  -19.7745  -16.6312 H         1 VX6         0.0037
     36 H          23.4777  -20.0336  -15.2880 H         1 VX6         0.0504
     37 H          24.7145  -19.2089  -14.3353 H         1 VX6         0.0504
     38 H          25.5216  -22.9099  -14.4464 H         1 VX6         0.0504
     39 H          25.5982  -22.5908  -12.7038 H         1 VX6         0.0504
     40 H          26.8577  -20.5785  -13.0907 H         1 VX6         0.0037
     41 H          27.6598  -22.0013  -13.8982 H         1 VX6         0.0037
     42 H          26.8782  -18.6688  -14.2611 H         1 VX6        -0.0019
     43 H          28.4752  -19.3600  -14.6393 H         1 VX6        -0.0019
     44 H          27.4578  -18.7026  -15.9445 H         1 VX6        -0.0019
     45 H          21.7993  -20.4287  -14.0985 H         1 VX6         0.0505
     46 H          19.6666  -20.1847  -13.2373 H         1 VX6         0.2116
     47 H          19.2714  -22.9390  -10.4913 H         1 VX6         0.0218
     48 H          15.7041  -20.9124  -11.2247 H         1 VX6         0.2453
     49 H          16.4933  -24.0570   -9.8580 H         1 VX6         0.0437
     50 H          16.8901  -22.8934   -8.5696 H         1 VX6         0.0437
     51 H          15.4143  -22.6760   -9.5421 H         1 VX6         0.0437
     52 H          22.3884  -21.3156   -7.8829 H         1 VX6         0.0535
     53 H          20.4433  -21.0325   -6.3907 H         1 VX6         0.0489
     54 H          18.9752  -24.9007   -7.5730 H         1 VX6         0.0489
     55 H          20.9378  -25.1752   -9.0526 H         1 VX6         0.0535
     56 H          18.5558  -21.8265   -5.4751 H         1 VX6         0.2236
     57 H          17.0909  -22.4429   -4.3861 H         1 VX6         0.0543
     58 H          14.5088  -22.8051   -6.4683 H         1 VX6         0.0294
     59 H          14.2190  -22.2149   -5.5988 H         1 VX6         0.0294
     60 H          14.9597  -24.6159   -3.7144 H         1 VX6         0.0294
     61 H          15.2527  -25.2129   -4.5938 H         1 VX6         0.0294
@<TRIPOS>BOND
     1    1    2 1  
     2    1    6 1  
     3    1    7 1  
     4    2    3 1  
     5    3    4 1  
     6    4    5 1  
     7    4    8 1  
     8    5    6 1  
     9    8    9 ar 
    10    8   13 ar 
    11    9   10 ar 
    12   10   11 ar 
    13   10   14 1  
    14   11   12 ar 
    15   12   13 ar 
    16   12   21 1  
    17   14   15 1  
    18   15   16 1  
    19   15   19 2  
    20   16   17 2  
    21   17   18 1  
    22   17   20 1  
    23   18   19 1  
    24   21   22 1  
    25   22   23 ar 
    26   22   27 ar 
    27   23   24 ar 
    28   24   25 ar 
    29   25   26 ar 
    30   25   28 1  
    31   26   27 ar 
    32   28   29 am 
    33   29   30 2  
    34   29   31 1  
    35   31   32 1  
    36   31   33 1  
    37   32   33 1  
    38    2   34 1  
    39    2   35 1  
    40    3   36 1  
    41    3   37 1  
    42    5   38 1  
    43    5   39 1  
    44    6   40 1  
    45    6   41 1  
    46    7   42 1  
    47    7   43 1  
    48    7   44 1  
    49    9   45 1  
    50   14   46 1  
    51   16   47 1  
    52   18   48 1  
    53   20   49 1  
    54   20   50 1  
    55   20   51 1  
    56   23   52 1  
    57   24   53 1  
    58   26   54 1  
    59   27   55 1  
    60   28   56 1  
    61   31   57 1  
    62   32   58 1  
    63   32   59 1  
    64   33   60 1  
    65   33   61 1  
@<TRIPOS>SUBSTRUCTURE
     1 VX6         1

