1oth_ligand
  -I-interpret- 

 32 31  0  0  0  0  0  0  0  0999 V2000
    5.1240    4.3770  -23.5400 N   0  3  0  0  0
    3.9640    4.1260  -22.7050 C   0  0  0  0  0
    3.0140    3.1880  -23.4580 C   0  0  0  0  0
    1.6420    2.9820  -22.8120 C   0  0  0  0  0
    0.8040    1.9740  -23.6080 C   0  0  0  0  0
   -0.6030    2.0950  -23.2570 N   0  0  0  0  0
    4.4530    3.4980  -21.4060 C   0  0  0  0  0
    4.0350    3.9450  -20.3410 O   0  0  0  0  0
    5.2710    2.5840  -21.4690 O   0  0  0  0  0
   -1.4600    1.0690  -23.2840 C   0  0  0  0  0
   -1.1480   -0.0840  -23.5820 O   0  0  0  0  0
   -2.8640    1.4360  -22.8430 C   0  0  0  0  0
   -3.1060    0.8570  -21.1450 P   0  0  0  0  0
   -1.8480    1.2590  -20.2430 O   0  0  0  0  0
   -3.2630   -0.7220  -21.1320 O   0  0  0  0  0
   -4.4170    1.5340  -20.5410 O   0  0  0  0  0
    4.8239    4.7987  -24.4189 H   0  0  0  0  0
    5.7588    5.0120  -23.0561 H   0  0  0  0  0
    5.6018    3.4961  -23.7299 H   0  0  0  0  0
    3.4240    5.0443  -22.4741 H   0  0  0  0  0
    3.4962    2.2107  -23.4806 H   0  0  0  0  0
    2.8334    3.6449  -24.4310 H   0  0  0  0  0
    1.1168    3.9370  -22.7956 H   0  0  0  0  0
    1.7856    2.5967  -21.8025 H   0  0  0  0  0
    1.1433    0.9654  -23.3721 H   0  0  0  0  0
    0.9230    2.1755  -24.6726 H   0  0  0  0  0
   -0.9539    3.0105  -22.9756 H   0  0  0  0  0
    3.4076    4.6504  -20.5155 H   0  0  0  0  0
   -3.5945    0.9675  -23.5025 H   0  0  0  0  0
   -2.9968    2.5169  -22.8890 H   0  0  0  0  0
   -1.7459    2.2135  -20.2455 H   0  0  0  0  0
   -4.3165    2.4887  -20.5513 H   0  0  0  0  0
  1  2  1  0  0  0
  2  3  1  0  0  0
  2  7  1  0  0  0
  3  4  1  0  0  0
  4  5  1  0  0  0
  5  6  1  0  0  0
  6 10  1  0  0  0
  7  8  1  0  0  0
  7  9  2  0  0  0
 10 11  2  0  0  0
 10 12  1  0  0  0
 12 13  1  0  0  0
 13 14  1  0  0  0
 13 15  2  0  0  0
 13 16  1  0  0  0
  1 17  1  0  0  0
  1 18  1  0  0  0
  1 19  1  0  0  0
  2 20  1  0  0  0
  3 21  1  0  0  0
  3 22  1  0  0  0
  4 23  1  0  0  0
  4 24  1  0  0  0
  5 25  1  0  0  0
  5 26  1  0  0  0
  6 27  1  0  0  0
  8 28  1  0  0  0
 12 29  1  0  0  0
 12 30  1  0  0  0
 14 31  1  0  0  0
 16 32  1  0  0  0
M  END
$$$$
