### 
### Created by X-TOOL on Mon Sep 10 21:12:46 2018
### 

@<TRIPOS>MOLECULE
1oth_ligand
   29    28     1     0     0
SMALL
GAST_HUCK


@<TRIPOS>ATOM
      1 N           5.1240    4.3770  -23.5400 N.4       1 PAO         0.2327
      2 CA          3.9640    4.1260  -22.7050 C.3       1 PAO         0.0284
      3 CB          3.0140    3.1880  -23.4580 C.3       1 PAO         0.0042
      4 CG          1.6420    2.9820  -22.8120 C.3       1 PAO        -0.0261
      5 CD          0.8040    1.9740  -23.6080 C.3       1 PAO         0.0312
      6 NE         -0.6030    2.0950  -23.2570 N.am      1 PAO        -0.2858
      7 C           4.4530    3.4980  -21.4060 C.2       1 PAO         0.0844
      8 O           4.0350    3.9450  -20.3410 O.co2     1 PAO        -0.5643
      9 OXT         5.2710    2.5840  -21.4690 O.co2     1 PAO        -0.5643
     10 C1         -1.4600    1.0690  -23.2840 C.2       1 PAO         0.1925
     11 O1         -1.1480   -0.0840  -23.5820 O.2       1 PAO        -0.3955
     12 C1P        -2.8640    1.4360  -22.8430 C.3       1 PAO         0.1083
     13 P          -3.1060    0.8570  -21.1450 P.3       1 PAO         0.0776
     14 O1P        -1.8480    1.2590  -20.2430 O.co2     1 PAO        -0.5606
     15 O2P        -3.2630   -0.7220  -21.1320 O.co2     1 PAO        -0.5606
     16 O3P        -4.4170    1.5340  -20.5410 O.co2     1 PAO        -0.5606
     17 H1          4.8286    4.7938  -24.4090 H         1 PAO         0.2010
     18 H2          5.5970    3.5070  -23.7284 H         1 PAO         0.2010
     19 H3          5.7521    5.0045  -23.0628 H         1 PAO         0.2010
     20 H4          3.4453    5.0706  -22.4843 H         1 PAO         0.1024
     21 H5          3.5015    2.2052  -23.5386 H         1 PAO         0.0339
     22 H6          2.8558    3.6025  -24.4645 H         1 PAO         0.0339
     23 H7          1.1113    3.9450  -22.7803 H         1 PAO         0.0288
     24 H8          1.7798    2.6054  -21.7877 H         1 PAO         0.0288
     25 H9          1.1484    0.9549  -23.3785 H         1 PAO         0.0520
     26 H10         0.9273    2.1692  -24.6835 H         1 PAO         0.0520
     27 H11        -0.9470    2.9925  -22.9811 H         1 PAO         0.1851
     28 H12        -3.5983    0.9557  -23.5064 H         1 PAO         0.0692
     29 H13        -2.9918    2.5278  -22.8839 H         1 PAO         0.0692
@<TRIPOS>BOND
     1    1    2 1  
     2    2    3 1  
     3    2    7 1  
     4    3    4 1  
     5    4    5 1  
     6    5    6 1  
     7    6   10 am 
     8    7    8 ar 
     9    7    9 ar 
    10   10   11 2  
    11   10   12 1  
    12   12   13 1  
    13   13   14 ar 
    14   13   15 ar 
    15   13   16 ar 
    16    1   17 1  
    17    1   18 1  
    18    1   19 1  
    19    2   20 1  
    20    3   21 1  
    21    3   22 1  
    22    4   23 1  
    23    4   24 1  
    24    5   25 1  
    25    5   26 1  
    26    6   27 1  
    27   12   28 1  
    28   12   29 1  
@<TRIPOS>SUBSTRUCTURE
     1 PAO         1

