6ftz_ligand
  -I-interpret- 

 39 41  0  0  0  0  0  0  0  0999 V2000
    2.0730    9.5510    2.0510 C   0  0  0  0  0
    1.4250   10.8080    2.1110 C   0  0  0  0  0
    2.1250   12.0020    1.8540 C   0  0  0  0  0
    4.1800    8.0830    1.6630 C   0  0  0  0  0
    3.9730    5.5780    1.5220 C   0  0  0  0  0
    3.0640    4.5870    1.1380 C   0  0  0  0  0
    4.7210    2.8570    1.4630 C   0  0  0  0  0
    5.6570    3.8250    1.8540 C   0  0  0  0  0
    3.4200    3.2270    1.0920 C   0  0  0  0  0
    5.2850    5.1840    1.8850 C   0  0  0  0  0
    2.3390    2.2080    0.6990 C   0  0  0  0  0
    3.4460    9.4210    1.7130 C   0  0  0  0  0
    4.1220   10.6350    1.4720 C   0  0  0  0  0
    3.4880   11.8760    1.5320 C   0  0  0  0  0
    4.3840   12.8460    1.2730 N   0  0  0  0  0
    5.5750   12.3610    1.0100 C   0  0  0  0  0
    5.5340   11.0210    1.1050 C   0  0  0  0  0
    6.7920   13.1500    0.6960 C   0  0  0  0  0
    6.7690   14.4960    0.6160 N   0  0  0  0  0
    7.8440   12.5430    0.5350 O   0  0  0  0  0
    5.4000    8.1080    1.7570 O   0  0  0  0  0
    3.4790    6.9190    1.5480 N   0  0  0  0  0
    2.6270    0.8480    1.1890 N   0  3  0  0  0
    1.4981    8.6517    2.2719 H   0  0  0  0  0
    0.3649   10.8523    2.3607 H   0  0  0  0  0
    1.6354   12.9747    1.9022 H   0  0  0  0  0
    2.0491    4.8772    0.8662 H   0  0  0  0  0
    5.0076    1.8055    1.4472 H   0  0  0  0  0
    6.6679    3.5277    2.1328 H   0  0  0  0  0
    6.0114    5.9372    2.1903 H   0  0  0  0  0
    2.2993    2.1681   -0.3895 H   0  0  0  0  0
    1.3990    2.5308    1.1464 H   0  0  0  0  0
    6.3683   10.3378    0.9460 H   0  0  0  0  0
    7.6282   15.0101    0.4212 H   0  0  0  0  0
    5.8924   15.0000    0.7503 H   0  0  0  0  0
    2.4669    7.0186    1.4701 H   0  0  0  0  0
    1.8789    0.2180    0.8993 H   0  0  0  0  0
    3.5132    0.5278    0.7985 H   0  0  0  0  0
    2.6875    0.8604    2.2071 H   0  0  0  0  0
  1  2  4  0  0  0
 12  1  4  0  0  0
  2  3  4  0  0  0
  3 14  4  0  0  0
  4 12  1  0  0  0
  4 21  2  0  0  0
 22  4  1  0  0  0
  6  5  4  0  0  0
  5 10  4  0  0  0
  5 22  1  0  0  0
  9  6  4  0  0  0
  7  8  4  0  0  0
  7  9  4  0  0  0
  8 10  4  0  0  0
  9 11  1  0  0  0
 11 23  1  0  0  0
 12 13  4  0  0  0
 13 14  4  0  0  0
 13 17  4  0  0  0
 14 15  4  0  0  0
 15 16  4  0  0  0
 16 17  4  0  0  0
 16 18  1  0  0  0
 18 19  1  0  0  0
 18 20  2  0  0  0
  1 24  1  0  0  0
  2 25  1  0  0  0
  3 26  1  0  0  0
  6 27  1  0  0  0
  7 28  1  0  0  0
  8 29  1  0  0  0
 10 30  1  0  0  0
 11 31  1  0  0  0
 11 32  1  0  0  0
 17 33  1  0  0  0
 19 34  1  0  0  0
 19 35  1  0  0  0
 22 36  1  0  0  0
 23 37  1  0  0  0
 23 38  1  0  0  0
 23 39  1  0  0  0
M  END
$$$$
