### 
### Created by X-TOOL on Mon Sep 10 21:12:59 2018
### 

@<TRIPOS>MOLECULE
2pj6_ligand
   62    63     1     0     0
SMALL
GAST_HUCK


@<TRIPOS>ATOM
      1 C36        -1.9620    5.3260    9.0040 C.ar      1 059        -0.0603
      2 C37        -3.0020    4.4860    8.5380 C.ar      1 059        -0.0686
      3 C38        -3.8640    3.8520    9.4690 C.ar      1 059        -0.0687
      4 C39        -3.6840    4.0570   10.8630 C.ar      1 059        -0.0686
      5 C40        -2.6420    4.8980   11.3290 C.ar      1 059        -0.0603
      6 C35        -1.7810    5.5350   10.4000 C.ar      1 059        -0.0414
      7 C34        -0.6870    6.4880   10.8930 C.3       1 059         0.0020
      8 C33         0.7170    5.8860   10.7420 C.3       1 059         0.0940
      9 S32         1.3320    4.9780   12.1980 S.o2      1 059         0.0424
     10 O32         1.4110    5.9170   13.3640 O.2       1 059        -0.1553
     11 O33         0.4190    3.8330   12.5390 O.2       1 059        -0.1553
     12 N31         2.8550    4.3800   11.8300 N.am      1 059        -0.2316
     13 C27         4.0560    4.7340   12.5080 C.3       1 059         0.1039
     14 C28         4.7760    3.4800   13.0620 C.3       1 059        -0.0107
     15 C30         5.0130    2.4010   11.9970 C.3       1 059        -0.0594
     16 C29         3.9670    2.8770   14.2180 C.3       1 059        -0.0594
     17 P24         5.1200    5.8930   11.5190 P.3       1 059         0.0106
     18 O25         6.3790    6.0750   12.2640 O.co2     1 059        -0.6177
     19 O26         4.2540    7.0860   11.2700 O.co2     1 059        -0.6177
     20 C15         5.4670    5.0790    9.9140 C.3       1 059         0.0387
     21 C1          5.9220    6.1310    8.8610 C.3       1 059         0.0592
     22 C2          4.7560    7.0510    8.4310 C.2       1 059         0.0508
     23 O14         5.0420    8.2430    8.1780 O.co2     1 059        -0.5660
     24 O13         3.6150    6.5320    8.3450 O.co2     1 059        -0.5660
     25 C3          6.4690    5.4620    7.5900 C.ar      1 059        -0.0322
     26 C8          7.6900    5.9200    7.0540 C.ar      1 059        -0.0522
     27 C4          5.6950    4.5000    6.8810 C.ar      1 059        -0.0653
     28 C5          6.1470    4.0180    5.6320 C.ar      1 059        -0.0748
     29 C6          7.3680    4.4870    5.0940 C.ar      1 059        -0.0621
     30 C7          8.1380    5.4350    5.8030 C.ar      1 059        -0.0052
     31 C9          9.4400    5.9540    5.2130 C.3       1 059        -0.0032
     32 N10         9.1720    7.1880    4.4600 N.4       1 059         0.2307
     33 H1         -1.3013    5.8116    8.2950 H         1 059         0.0557
     34 H2         -3.1389    4.3281    7.4743 H         1 059         0.0599
     35 H3         -4.6623    3.2093    9.1158 H         1 059         0.0559
     36 H4         -4.3442    3.5698   11.5715 H         1 059         0.0599
     37 H5         -2.5040    5.0536   12.3929 H         1 059         0.0557
     38 H6         -0.8642    6.7116   11.9553 H         1 059         0.0442
     39 H7         -0.7381    7.4187   10.3088 H         1 059         0.0442
     40 H8          1.4185    6.7067   10.5314 H         1 059         0.0541
     41 H9          0.6995    5.1908    9.8897 H         1 059         0.0541
     42 H10         2.9250    3.7252   11.0774 H         1 059         0.1689
     43 H11         3.7471    5.3101   13.3927 H         1 059         0.0720
     44 H12         5.7560    3.7976   13.4477 H         1 059         0.0330
     45 H13         5.5256    1.5415   12.4536 H         1 059         0.0233
     46 H14         5.6364    2.8131   11.1898 H         1 059         0.0233
     47 H15         4.0470    2.0748   11.5842 H         1 059         0.0233
     48 H16         3.7940    3.6464   14.9849 H         1 059         0.0233
     49 H17         4.5265    2.0389   14.6591 H         1 059         0.0233
     50 H18         3.0006    2.5135   13.8388 H         1 059         0.0233
     51 H19         4.5550    4.5788    9.5563 H         1 059         0.0508
     52 H20         6.2645    4.3338   10.0502 H         1 059         0.0508
     53 H21         6.7152    6.7455    9.3118 H         1 059         0.0638
     54 H22         8.2849    6.6431    7.6001 H         1 059         0.0499
     55 H23         4.7620    4.1385    7.2980 H         1 059         0.0502
     56 H24         5.5583    3.2893    5.0866 H         1 059         0.0582
     57 H25         7.7136    4.1179    4.1352 H         1 059         0.0503
     58 H26         9.8659    5.1967    4.5384 H         1 059         0.0978
     59 H27        10.1528    6.1653    6.0237 H         1 059         0.0978
     60 H28        10.0328    7.5355    4.0671 H         1 059         0.2008
     61 H29         8.7813    7.8811    5.0788 H         1 059         0.2008
     62 H30         8.5183    6.9935    3.7178 H         1 059         0.2008
@<TRIPOS>BOND
     1    1    2 ar 
     2    1    6 ar 
     3    2    3 ar 
     4    3    4 ar 
     5    4    5 ar 
     6    5    6 ar 
     7    6    7 1  
     8    7    8 1  
     9    8    9 1  
    10    9   10 2  
    11    9   11 2  
    12    9   12 am 
    13   12   13 1  
    14   13   14 1  
    15   13   17 1  
    16   14   15 1  
    17   14   16 1  
    18   17   18 ar 
    19   17   19 ar 
    20   17   20 1  
    21   20   21 1  
    22   21   22 1  
    23   21   25 1  
    24   22   23 ar 
    25   22   24 ar 
    26   25   26 ar 
    27   25   27 ar 
    28   26   30 ar 
    29   27   28 ar 
    30   28   29 ar 
    31   29   30 ar 
    32   30   31 1  
    33   31   32 1  
    34    1   33 1  
    35    2   34 1  
    36    3   35 1  
    37    4   36 1  
    38    5   37 1  
    39    7   38 1  
    40    7   39 1  
    41    8   40 1  
    42    8   41 1  
    43   12   42 1  
    44   13   43 1  
    45   14   44 1  
    46   15   45 1  
    47   15   46 1  
    48   15   47 1  
    49   16   48 1  
    50   16   49 1  
    51   16   50 1  
    52   20   51 1  
    53   20   52 1  
    54   21   53 1  
    55   26   54 1  
    56   27   55 1  
    57   28   56 1  
    58   29   57 1  
    59   31   58 1  
    60   31   59 1  
    61   32   60 1  
    62   32   61 1  
    63   32   62 1  
@<TRIPOS>SUBSTRUCTURE
     1 059         1

