2pj6_ligand
  -I-interpret- 

 64 65  0  0  0  0  0  0  0  0999 V2000
   -1.9620    5.3260    9.0040 C   0  0  0  0  0
   -3.0020    4.4860    8.5380 C   0  0  0  0  0
   -3.8640    3.8520    9.4690 C   0  0  0  0  0
   -3.6840    4.0570   10.8630 C   0  0  0  0  0
   -2.6420    4.8980   11.3290 C   0  0  0  0  0
   -1.7810    5.5350   10.4000 C   0  0  0  0  0
   -0.6870    6.4880   10.8930 C   0  0  0  0  0
    0.7170    5.8860   10.7420 C   0  0  0  0  0
    1.3320    4.9780   12.1980 S   0  0  0  0  0
    1.4110    5.9170   13.3640 O   0  0  0  0  0
    0.4190    3.8330   12.5390 O   0  0  0  0  0
    2.8550    4.3800   11.8300 N   0  0  0  0  0
    4.0560    4.7340   12.5080 C   0  0  0  0  0
    4.7760    3.4800   13.0620 C   0  0  0  0  0
    5.0130    2.4010   11.9970 C   0  0  0  0  0
    3.9670    2.8770   14.2180 C   0  0  0  0  0
    5.1200    5.8930   11.5190 P   0  0  0  0  0
    6.3790    6.0750   12.2640 O   0  0  0  0  0
    4.2540    7.0860   11.2700 O   0  0  0  0  0
    5.4670    5.0790    9.9140 C   0  0  0  0  0
    5.9220    6.1310    8.8610 C   0  0  0  0  0
    4.7560    7.0510    8.4310 C   0  0  0  0  0
    5.0420    8.2430    8.1780 O   0  0  0  0  0
    3.6150    6.5320    8.3450 O   0  0  0  0  0
    6.4690    5.4620    7.5900 C   0  0  0  0  0
    7.6900    5.9200    7.0540 C   0  0  0  0  0
    5.6950    4.5000    6.8810 C   0  0  0  0  0
    6.1470    4.0180    5.6320 C   0  0  0  0  0
    7.3680    4.4870    5.0940 C   0  0  0  0  0
    8.1380    5.4350    5.8030 C   0  0  0  0  0
    9.4400    5.9540    5.2130 C   0  0  0  0  0
    9.1720    7.1880    4.4600 N   0  3  0  0  0
   -1.2976    5.8143    8.2911 H   0  0  0  0  0
   -3.1397    4.3272    7.4685 H   0  0  0  0  0
   -4.6667    3.2058    9.1138 H   0  0  0  0  0
   -4.3478    3.5671   11.5754 H   0  0  0  0  0
   -2.5032    5.0544   12.3988 H   0  0  0  0  0
   -0.8599    6.6846   11.9511 H   0  0  0  0  0
   -0.7329    7.3967   10.2928 H   0  0  0  0  0
    1.3999    6.7203   10.5818 H   0  0  0  0  0
    0.6633    5.1672    9.9244 H   0  0  0  0  0
    2.9264    3.7121   11.0624 H   0  0  0  0  0
    3.7937    5.3218   13.3876 H   0  0  0  0  0
    5.7534    3.8141   13.4102 H   0  0  0  0  0
    4.0551    2.0787   11.5887 H   0  0  0  0  0
    5.6307    2.8106   11.1978 H   0  0  0  0  0
    5.5209    1.5499   12.4506 H   0  0  0  0  0
    3.8678    3.6149   15.0141 H   0  0  0  0  0
    2.9779    2.5934   13.8584 H   0  0  0  0  0
    4.4826    1.9958   14.5998 H   0  0  0  0  0
    3.4748    6.8173   10.7777 H   0  0  0  0  0
    4.5593    4.5906    9.5594 H   0  0  0  0  0
    6.2624    4.3465   10.0515 H   0  0  0  0  0
    6.7038    6.7154    9.3462 H   0  0  0  0  0
    3.6661    5.6063    8.5942 H   0  0  0  0  0
    8.2882    6.6471    7.6031 H   0  0  0  0  0
    4.7568    4.1365    7.3003 H   0  0  0  0  0
    5.5551    3.2853    5.0836 H   0  0  0  0  0
    7.7155    4.1159    4.1298 H   0  0  0  0  0
    9.8640    5.2034    4.5460 H   0  0  0  0  0
   10.1479    6.1617    6.0154 H   0  0  0  0  0
   10.0436    7.5387    4.0629 H   0  0  0  0  0
    8.5105    6.9899    3.7093 H   0  0  0  0  0
    8.7766    7.8885    5.0872 H   0  0  0  0  0
  1  2  4  0  0  0
  1  6  4  0  0  0
  2  3  4  0  0  0
  3  4  4  0  0  0
  4  5  4  0  0  0
  5  6  4  0  0  0
  6  7  1  0  0  0
  7  8  1  0  0  0
  8  9  1  0  0  0
  9 10  2  0  0  0
  9 11  2  0  0  0
  9 12  1  0  0  0
 12 13  1  0  0  0
 13 14  1  0  0  0
 13 17  1  0  0  0
 14 15  1  0  0  0
 14 16  1  0  0  0
 17 18  2  0  0  0
 17 19  1  0  0  0
 17 20  1  0  0  0
 20 21  1  0  0  0
 21 22  1  0  0  0
 21 25  1  0  0  0
 22 23  2  0  0  0
 22 24  1  0  0  0
 25 26  4  0  0  0
 25 27  4  0  0  0
 26 30  4  0  0  0
 27 28  4  0  0  0
 28 29  4  0  0  0
 29 30  4  0  0  0
 30 31  1  0  0  0
 31 32  1  0  0  0
  1 33  1  0  0  0
  2 34  1  0  0  0
  3 35  1  0  0  0
  4 36  1  0  0  0
  5 37  1  0  0  0
  7 38  1  0  0  0
  7 39  1  0  0  0
  8 40  1  0  0  0
  8 41  1  0  0  0
 12 42  1  0  0  0
 13 43  1  0  0  0
 14 44  1  0  0  0
 15 45  1  0  0  0
 15 46  1  0  0  0
 15 47  1  0  0  0
 16 48  1  0  0  0
 16 49  1  0  0  0
 16 50  1  0  0  0
 19 51  1  0  0  0
 20 52  1  0  0  0
 20 53  1  0  0  0
 21 54  1  0  0  0
 24 55  1  0  0  0
 26 56  1  0  0  0
 27 57  1  0  0  0
 28 58  1  0  0  0
 29 59  1  0  0  0
 31 60  1  0  0  0
 31 61  1  0  0  0
 32 62  1  0  0  0
 32 63  1  0  0  0
 32 64  1  0  0  0
M  END
$$$$
