2kfg_ligand
  -I-interpret- 

193196  0  0  0  0  0  0  0  0999 V2000
   -0.3970   23.1650    2.5180 N   0  3  0  0  0
    0.3530   23.1250    3.7900 C   0  0  0  0  0
    1.8100   22.7710    3.5240 C   0  0  0  0  0
    2.2070   22.6110    2.3710 O   0  0  0  0  0
   -0.2720   22.1000    4.7400 C   0  0  0  0  0
   -1.6830   22.4300    5.1390 C   0  0  0  0  0
   -1.9340   23.2760    6.2070 C   0  0  0  0  0
   -2.7560   21.8860    4.4530 C   0  0  0  0  0
   -3.2270   23.5760    6.5830 C   0  0  0  0  0
   -4.0530   22.1840    4.8240 C   0  0  0  0  0
   -4.2940   23.0470    5.8600 C   0  0  0  0  0
    2.6020   22.6570    4.5850 N   0  0  0  0  0
    4.0280   22.3660    4.4440 C   0  0  0  0  0
    4.2570   20.8860    4.1740 C   0  0  0  0  0
    4.3810   20.0890    5.1080 O   0  0  0  0  0
    4.8150   22.7930    5.6890 C   0  0  0  0  0
    4.7110   24.2790    5.9760 C   0  0  0  0  0
    4.4870   25.0890    5.0760 O   0  0  0  0  0
    4.8880   24.6500    7.2320 N   0  0  0  0  0
    4.3130   20.5480    2.8830 N   0  0  0  0  0
    4.4840   19.1720    2.3900 C   0  0  0  0  0
    3.6210   18.1460    3.1410 C   0  0  0  0  0
    2.6530   18.4950    3.8200 O   0  0  0  0  0
    5.9720   18.7460    2.3660 C   0  0  0  0  0
    6.7270   18.8690    3.6780 C   0  0  0  0  0
    6.6440   17.8820    4.6540 C   0  0  0  0  0
    7.5460   19.9660    3.9280 C   0  0  0  0  0
    7.3500   17.9890    5.8400 C   0  0  0  0  0
    8.2510   20.0780    5.1100 C   0  0  0  0  0
    8.1520   19.0880    6.0610 C   0  0  0  0  0
    8.8670   19.1940    7.2330 O   0  0  0  0  0
    3.9530   16.8740    2.9670 N   0  0  0  0  0
    3.1840   15.7780    3.5460 C   0  0  0  0  0
    4.0710   14.5480    3.6990 C   0  0  0  0  0
    3.5880   13.4200    3.8190 O   0  0  0  0  0
    1.9980   15.4620    2.6320 C   0  0  0  0  0
    2.4160   15.1520    1.2010 C   0  0  0  0  0
    1.2430   15.0450    0.2610 C   0  0  0  0  0
    0.6480   13.9520    0.1680 O   0  0  0  0  0
    0.9220   16.0520   -0.4030 O   0  0  0  0  0
    5.3720   14.7820    3.7130 N   0  0  0  0  0
    6.3450   13.7080    3.6500 C   0  0  0  0  0
    6.7750   13.2460    5.0390 C   0  0  0  0  0
    7.2640   14.0350    5.8480 O   0  0  0  0  0
    7.5560   14.1780    2.8550 C   0  0  0  0  0
    7.1460   14.8780    1.6900 O   0  0  0  0  0
    6.5590   11.9700    5.3060 N   0  0  0  0  0
    7.0460   11.3390    6.5210 C   0  0  0  0  0
    7.5440    9.9370    6.1790 C   0  0  0  0  0
    7.8180    9.1150    7.0560 O   0  0  0  0  0
    5.9420   11.2740    7.6090 C   0  0  0  0  0
    6.4690   10.7340    8.8290 O   0  0  0  0  0
    4.7550   10.4330    7.1510 C   0  0  0  0  0
    7.6890    9.6940    4.8810 N   0  0  0  0  0
    8.0070    8.3720    4.3680 C   0  0  0  0  0
    9.5190    8.1390    4.3290 C   0  0  0  0  0
   10.3070    9.0740    4.1640 O   0  0  0  0  0
    7.4190    8.2070    2.9650 C   0  0  0  0  0
    8.0290    9.1790    1.9800 C   0  0  0  0  0
    9.0600    8.8390    1.3690 O   0  0  0  0  0
    7.4950   10.3000    1.8440 O   0  0  0  0  0
    9.9350    6.8720    4.4670 N   0  0  0  0  0
   11.3510    6.4820    4.5010 C   0  0  0  0  0
   12.0750    6.6600    3.1650 C   0  0  0  0  0
   13.2550    6.3280    3.0480 O   0  0  0  0  0
   11.3080    5.0010    4.8810 C   0  0  0  0  0
    9.9630    4.5330    4.4490 C   0  0  0  0  0
    9.0420    5.7070    4.6150 C   0  0  0  0  0
   11.3690    7.1350    2.1540 N   0  0  0  0  0
   11.9420    7.2610    0.8220 C   0  0  0  0  0
   12.4120    8.6880    0.5610 C   0  0  0  0  0
   13.5240    8.9050    0.0810 O   0  0  0  0  0
   10.9150    6.8360   -0.2310 C   0  0  0  0  0
   10.2930    5.5050    0.0780 C   0  0  0  0  0
   11.0340    4.3400   -0.0200 C   0  0  0  0  0
    8.9770    5.4240    0.5010 C   0  0  0  0  0
   10.4710    3.1190    0.2930 C   0  0  0  0  0
    8.4140    4.2080    0.8210 C   0  0  0  0  0
    9.1610    3.0530    0.7150 C   0  0  0  0  0
   11.5840    9.6610    0.9080 N   0  0  0  0  0
   11.8850   11.0530    0.5920 C   0  0  0  0  0
   12.6880   11.7360    1.7000 C   0  0  0  0  0
   12.6750   12.9610    1.8270 O   0  0  0  0  0
   10.5980   11.8560    0.3230 C   0  0  0  0  0
    9.7360   11.8210    1.4690 O   0  0  0  0  0
    9.8600   11.3070   -0.8850 C   0  0  0  0  0
   13.4190   10.9460    2.4710 N   0  0  0  0  0
   14.1810   11.4680    3.5980 C   0  0  0  0  0
   15.6470   11.6820    3.2320 C   0  0  0  0  0
   16.4520   12.0940    4.0710 O   0  0  0  0  0
   14.0620   10.5290    4.7880 C   0  0  0  0  0
   15.9960   11.4040    1.9840 N   0  0  0  0  0
   17.3690   11.5560    1.5230 C   0  0  0  0  0
   17.4170   12.1840    0.1360 C   0  0  0  0  0
   17.8720   13.3410    0.0280 O   0  0  0  0  0
   18.0960   10.2070    1.5290 C   0  0  0  0  0
   18.8090    9.9100    2.8400 C   0  0  0  0  0
   19.4180    8.5170    2.8530 C   0  0  0  0  0
   20.4250    8.3570    3.9800 C   0  0  0  0  0
   19.8480    8.7160    5.3020 N   0  3  0  0  0
   16.9820   11.5330   -0.8330 O   0  0  0  0  0
    0.0291   23.8509    1.8949 H   0  0  0  0  0
   -0.3712   22.2440    2.0804 H   0  0  0  0  0
   -1.3650   23.4276    2.7036 H   0  0  0  0  0
    0.3071   24.1089    4.2569 H   0  0  0  0  0
    0.3298   22.0877    5.6487 H   0  0  0  0  0
   -0.2955   21.1432    4.2183 H   0  0  0  0  0
   -1.0992   23.7101    6.7572 H   0  0  0  0  0
   -2.5755   21.2162    3.6122 H   0  0  0  0  0
   -3.4127   24.2229    7.4404 H   0  0  0  0  0
   -4.8880   21.7304    4.2900 H   0  0  0  0  0
   -5.3175   23.3191    6.1180 H   0  0  0  0  0
    2.2066   22.7750    5.5178 H   0  0  0  0  0
    4.3908   22.9425    3.5930 H   0  0  0  0  0
    5.8655   22.5618    5.5129 H   0  0  0  0  0
    4.3986   22.2600    6.5438 H   0  0  0  0  0
    4.8410   25.6374    7.4836 H   0  0  0  0  0
    5.0716   23.9490    7.9498 H   0  0  0  0  0
    4.2318   21.2940    2.1922 H   0  0  0  0  0
    4.1233   19.1820    1.3615 H   0  0  0  0  0
    6.4690   19.4168    1.6652 H   0  0  0  0  0
    5.9809   17.6869    2.1083 H   0  0  0  0  0
    6.0129   17.0100    4.4825 H   0  0  0  0  0
    7.6326   20.7512    3.1770 H   0  0  0  0  0
    7.2720   17.2075    6.5958 H   0  0  0  0  0
    8.8836   20.9473    5.2893 H   0  0  0  0  0
    9.3695   20.0120    7.2271 H   0  0  0  0  0
    4.7769   16.6538    2.4074 H   0  0  0  0  0
    2.8160   16.0667    4.5305 H   0  0  0  0  0
    1.3545   16.3414    2.6069 H   0  0  0  0  0
    1.4976   14.5794    3.0304 H   0  0  0  0  0
    2.9305   14.1911    1.2040 H   0  0  0  0  0
    3.0492   15.9684    0.8536 H   0  0  0  0  0
    1.5058   16.7806   -0.1796 H   0  0  0  0  0
    5.7012   15.7457    3.7697 H   0  0  0  0  0
    5.8804   12.8546    3.1561 H   0  0  0  0  0
    8.1428   13.3090    2.5574 H   0  0  0  0  0
    8.1507   14.8459    3.4781 H   0  0  0  0  0
    7.9208   15.1663    1.2020 H   0  0  0  0  0
    6.0325   11.4089    4.6364 H   0  0  0  0  0
    7.8628   11.9353    6.9278 H   0  0  0  0  0
    5.5962   12.2930    7.7828 H   0  0  0  0  0
    5.7734   10.7011    9.4898 H   0  0  0  0  0
    4.3267   10.8717    6.2498 H   0  0  0  0  0
    5.0909    9.4181    6.9383 H   0  0  0  0  0
    4.0020   10.4103    7.9387 H   0  0  0  0  0
    7.5730   10.4628    4.2208 H   0  0  0  0  0
    7.5690    7.6328    5.0387 H   0  0  0  0  0
    6.3478    8.4015    3.0183 H   0  0  0  0  0
    7.6317    7.1944    2.6222 H   0  0  0  0  0
    6.7165   10.3523    2.4033 H   0  0  0  0  0
   11.9074    7.1110    5.1959 H   0  0  0  0  0
   11.4639    4.8529    5.9496 H   0  0  0  0  0
   12.1066    4.4365    4.3996 H   0  0  0  0  0
    9.6306    3.6835    5.0457 H   0  0  0  0  0
    9.9789    4.1873    3.4154 H   0  0  0  0  0
    8.2317    5.7076    3.8859 H   0  0  0  0  0
    8.5239    5.6981    5.5739 H   0  0  0  0  0
   10.4020    7.4194    2.3104 H   0  0  0  0  0
   12.8100    6.6049    0.7574 H   0  0  0  0  0
   11.4293    6.7530   -1.1885 H   0  0  0  0  0
   10.1212    7.5828   -0.2475 H   0  0  0  0  0
   12.0725    4.3871   -0.3476 H   0  0  0  0  0
    8.3799    6.3323    0.5817 H   0  0  0  0  0
   11.0625    2.2076    0.2063 H   0  0  0  0  0
    7.3785    4.1585    1.1579 H   0  0  0  0  0
    8.7157    2.0899    0.9646 H   0  0  0  0  0
   10.7222    9.4338    1.4040 H   0  0  0  0  0
   12.4942   11.0370   -0.3117 H   0  0  0  0  0
   10.8843   12.8881    0.1206 H   0  0  0  0  0
    8.9401   12.3253    1.2849 H   0  0  0  0  0
   10.5037   11.3709   -1.7623 H   0  0  0  0  0
    9.5930   10.2659   -0.7038 H   0  0  0  0  0
    8.9554   11.8915   -1.0531 H   0  0  0  0  0
   13.4496    9.9463    2.2709 H   0  0  0  0  0
   13.7635   12.4386    3.8659 H   0  0  0  0  0
   13.0142   10.4387    5.0746 H   0  0  0  0  0
   14.4513    9.5480    4.5155 H   0  0  0  0  0
   14.6355   10.9295    5.6240 H   0  0  0  0  0
   15.2853   11.0755    1.3302 H   0  0  0  0  0
   17.8805   12.2262    2.2138 H   0  0  0  0  0
   18.1509   13.6558    0.8910 H   0  0  0  0  0
   18.8515   10.2377    0.7439 H   0  0  0  0  0
   17.3468    9.4296    1.3792 H   0  0  0  0  0
   18.0788    9.9707    3.6469 H   0  0  0  0  0
   19.6134   10.6352    2.9629 H   0  0  0  0  0
   19.9331    8.3576    1.9057 H   0  0  0  0  0
   18.6172    7.7925    3.0013 H   0  0  0  0  0
   21.2640    9.0244    3.7831 H   0  0  0  0  0
   20.7314    7.3116    4.0158 H   0  0  0  0  0
   20.5567    8.5939    6.0254 H   0  0  0  0  0
   19.5417    9.6888    5.2851 H   0  0  0  0  0
   19.0511    8.1108    5.4995 H   0  0  0  0  0
  1  2  1  0  0  0
  2  3  1  0  0  0
  2  5  1  0  0  0
  3  4  2  0  0  0
  3 12  1  0  0  0
  5  6  1  0  0  0
  6  7  4  0  0  0
  6  8  4  0  0  0
  7  9  4  0  0  0
  8 10  4  0  0  0
  9 11  4  0  0  0
 10 11  4  0  0  0
 12 13  1  0  0  0
 13 14  1  0  0  0
 13 16  1  0  0  0
 14 15  2  0  0  0
 14 20  1  0  0  0
 16 17  1  0  0  0
 17 18  2  0  0  0
 17 19  1  0  0  0
 20 21  1  0  0  0
 21 22  1  0  0  0
 21 24  1  0  0  0
 22 23  2  0  0  0
 22 32  1  0  0  0
 24 25  1  0  0  0
 25 26  4  0  0  0
 25 27  4  0  0  0
 26 28  4  0  0  0
 27 29  4  0  0  0
 28 30  4  0  0  0
 29 30  4  0  0  0
 30 31  1  0  0  0
 32 33  1  0  0  0
 33 34  1  0  0  0
 33 36  1  0  0  0
 34 35  2  0  0  0
 34 41  1  0  0  0
 36 37  1  0  0  0
 37 38  1  0  0  0
 38 39  2  0  0  0
 38 40  1  0  0  0
 41 42  1  0  0  0
 42 43  1  0  0  0
 42 45  1  0  0  0
 43 44  2  0  0  0
 43 47  1  0  0  0
 45 46  1  0  0  0
 47 48  1  0  0  0
 48 49  1  0  0  0
 48 51  1  0  0  0
 49 50  2  0  0  0
 49 54  1  0  0  0
 51 52  1  0  0  0
 51 53  1  0  0  0
 54 55  1  0  0  0
 55 56  1  0  0  0
 55 58  1  0  0  0
 56 57  2  0  0  0
 56 62  1  0  0  0
 58 59  1  0  0  0
 59 60  2  0  0  0
 59 61  1  0  0  0
 62 63  1  0  0  0
 62 68  1  0  0  0
 63 64  1  0  0  0
 63 66  1  0  0  0
 64 65  2  0  0  0
 64 69  1  0  0  0
 66 67  1  0  0  0
 67 68  1  0  0  0
 69 70  1  0  0  0
 70 71  1  0  0  0
 70 73  1  0  0  0
 71 72  2  0  0  0
 71 80  1  0  0  0
 73 74  1  0  0  0
 74 75  4  0  0  0
 74 76  4  0  0  0
 75 77  4  0  0  0
 76 78  4  0  0  0
 77 79  4  0  0  0
 78 79  4  0  0  0
 80 81  1  0  0  0
 81 82  1  0  0  0
 81 84  1  0  0  0
 82 83  2  0  0  0
 82 87  1  0  0  0
 84 85  1  0  0  0
 84 86  1  0  0  0
 87 88  1  0  0  0
 88 89  1  0  0  0
 88 91  1  0  0  0
 89 90  2  0  0  0
 89 92  1  0  0  0
 92 93  1  0  0  0
 93 94  1  0  0  0
 93 96  1  0  0  0
 94 95  1  0  0  0
 94101  2  0  0  0
 96 97  1  0  0  0
 97 98  1  0  0  0
 98 99  1  0  0  0
 99100  1  0  0  0
  1102  1  0  0  0
  1103  1  0  0  0
  1104  1  0  0  0
  2105  1  0  0  0
  5106  1  0  0  0
  5107  1  0  0  0
  7108  1  0  0  0
  8109  1  0  0  0
  9110  1  0  0  0
 10111  1  0  0  0
 11112  1  0  0  0
 12113  1  0  0  0
 13114  1  0  0  0
 16115  1  0  0  0
 16116  1  0  0  0
 19117  1  0  0  0
 19118  1  0  0  0
 20119  1  0  0  0
 21120  1  0  0  0
 24121  1  0  0  0
 24122  1  0  0  0
 26123  1  0  0  0
 27124  1  0  0  0
 28125  1  0  0  0
 29126  1  0  0  0
 31127  1  0  0  0
 32128  1  0  0  0
 33129  1  0  0  0
 36130  1  0  0  0
 36131  1  0  0  0
 37132  1  0  0  0
 37133  1  0  0  0
 40134  1  0  0  0
 41135  1  0  0  0
 42136  1  0  0  0
 45137  1  0  0  0
 45138  1  0  0  0
 46139  1  0  0  0
 47140  1  0  0  0
 48141  1  0  0  0
 51142  1  0  0  0
 52143  1  0  0  0
 53144  1  0  0  0
 53145  1  0  0  0
 53146  1  0  0  0
 54147  1  0  0  0
 55148  1  0  0  0
 58149  1  0  0  0
 58150  1  0  0  0
 61151  1  0  0  0
 63152  1  0  0  0
 66153  1  0  0  0
 66154  1  0  0  0
 67155  1  0  0  0
 67156  1  0  0  0
 68157  1  0  0  0
 68158  1  0  0  0
 69159  1  0  0  0
 70160  1  0  0  0
 73161  1  0  0  0
 73162  1  0  0  0
 75163  1  0  0  0
 76164  1  0  0  0
 77165  1  0  0  0
 78166  1  0  0  0
 79167  1  0  0  0
 80168  1  0  0  0
 81169  1  0  0  0
 84170  1  0  0  0
 85171  1  0  0  0
 86172  1  0  0  0
 86173  1  0  0  0
 86174  1  0  0  0
 87175  1  0  0  0
 88176  1  0  0  0
 91177  1  0  0  0
 91178  1  0  0  0
 91179  1  0  0  0
 92180  1  0  0  0
 93181  1  0  0  0
 95182  1  0  0  0
 96183  1  0  0  0
 96184  1  0  0  0
 97185  1  0  0  0
 97186  1  0  0  0
 98187  1  0  0  0
 98188  1  0  0  0
 99189  1  0  0  0
 99190  1  0  0  0
100191  1  0  0  0
100192  1  0  0  0
100193  1  0  0  0
M  END
$$$$
