### 
### Created by X-TOOL on Mon Sep 10 21:13:02 2018
### 

@<TRIPOS>MOLECULE
2kfg_ligand
  190   193     1     0     0
SMALL
GAST_HUCK


@<TRIPOS>ATOM
      1 N          -0.3970   23.1650    2.5180 N.4       1 PHE         0.2394
      2 CA          0.3530   23.1250    3.7900 C.3       1 PHE         0.0744
      3 C           1.8100   22.7710    3.5240 C.2       1 PHE         0.2289
      4 O           2.2070   22.6110    2.3710 O.2       1 PHE        -0.3905
      5 CB         -0.2720   22.1000    4.7400 C.3       1 PHE         0.0416
      6 CG         -1.6830   22.4300    5.1390 C.ar      1 PHE        -0.0353
      7 CD1        -1.9340   23.2760    6.2070 C.ar      1 PHE        -0.0600
      8 CD2        -2.7560   21.8860    4.4530 C.ar      1 PHE        -0.0600
      9 CE1        -3.2270   23.5760    6.5830 C.ar      1 PHE        -0.0686
     10 CE2        -4.0530   22.1840    4.8240 C.ar      1 PHE        -0.0686
     11 CZ         -4.2940   23.0470    5.8600 C.ar      1 PHE        -0.0687
     12 N           2.6020   22.6570    4.5850 N.am      1 ASN        -0.2587
     13 CA          4.0280   22.3660    4.4440 C.3       1 ASN         0.1477
     14 C           4.2570   20.8860    4.1740 C.2       1 ASN         0.2064
     15 O           4.3810   20.0890    5.1080 O.2       1 ASN        -0.3942
     16 CB          4.8150   22.7930    5.6890 C.3       1 ASN         0.0773
     17 CG          4.7110   24.2790    5.9760 C.2       1 ASN         0.1780
     18 OD1         4.4870   25.0890    5.0760 O.2       1 ASN        -0.3970
     19 ND2         4.8880   24.6500    7.2320 N.am      1 ASN        -0.3007
     20 N           4.3130   20.5480    2.8830 N.am      1 TYR        -0.2620
     21 CA          4.4840   19.1720    2.3900 C.3       1 TYR         0.1390
     22 C           3.6210   18.1460    3.1410 C.2       1 TYR         0.2057
     23 O           2.6530   18.4950    3.8200 O.2       1 TYR        -0.3942
     24 CB          5.9720   18.7460    2.3660 C.3       1 TYR         0.0163
     25 CG          6.7270   18.8690    3.6780 C.ar      1 TYR        -0.0493
     26 CD1         6.6440   17.8820    4.6540 C.ar      1 TYR        -0.0685
     27 CD2         7.5460   19.9660    3.9280 C.ar      1 TYR        -0.0685
     28 CE1         7.3500   17.9890    5.8400 C.ar      1 TYR        -0.0398
     29 CE2         8.2510   20.0780    5.1100 C.ar      1 TYR        -0.0398
     30 CZ          8.1520   19.0880    6.0610 C.ar      1 TYR         0.0805
     31 OH          8.8670   19.1940    7.2330 O.3       1 TYR        -0.3376
     32 N           3.9530   16.8740    2.9670 N.am      1 GLU        -0.2635
     33 CA          3.1840   15.7780    3.5460 C.3       1 GLU         0.1325
     34 C           4.0710   14.5480    3.6990 C.2       1 GLU         0.2041
     35 O           3.5880   13.4200    3.8190 O.2       1 GLU        -0.3944
     36 CB          1.9980   15.4620    2.6320 C.3       1 GLU        -0.0008
     37 CG          2.4160   15.1520    1.2010 C.3       1 GLU         0.0044
     38 CD          1.2430   15.0450    0.2610 C.2       1 GLU         0.0350
     39 OE1         0.6480   13.9520    0.1680 O.co2     1 GLU        -0.5690
     40 OE2         0.9220   16.0520   -0.4030 O.co2     1 GLU        -0.5690
     41 N           5.3720   14.7820    3.7130 N.am      1 SER        -0.2616
     42 CA          6.3450   13.7080    3.6500 C.3       1 SER         0.1539
     43 C           6.7750   13.2460    5.0390 C.2       1 SER         0.2063
     44 O           7.2640   14.0350    5.8480 O.2       1 SER        -0.3943
     45 CB          7.5560   14.1780    2.8550 C.3       1 SER         0.0843
     46 OG          7.1460   14.8780    1.6900 O.3       1 SER        -0.3903
     47 N           6.5590   11.9700    5.3060 N.am      1 THR        -0.2613
     48 CA          7.0460   11.3390    6.5210 C.3       1 THR         0.1565
     49 C           7.5440    9.9370    6.1790 C.2       1 THR         0.2066
     50 O           7.8180    9.1150    7.0560 O.2       1 THR        -0.3943
     51 CB          5.9420   11.2740    7.6090 C.3       1 THR         0.0924
     52 OG1         6.4690   10.7340    8.8290 O.3       1 THR        -0.3874
     53 CG2         4.7550   10.4330    7.1510 C.3       1 THR        -0.0346
     54 N           7.6890    9.6940    4.8810 N.am      1 ASP        -0.2621
     55 CA          8.0070    8.3720    4.3680 C.3       1 ASP         0.1425
     56 C           9.5190    8.1390    4.3290 C.2       1 ASP         0.2081
     57 O          10.3070    9.0740    4.1640 O.2       1 ASP        -0.3941
     58 CB          7.4190    8.2070    2.9650 C.3       1 ASP         0.0406
     59 CG          8.0290    9.1790    1.9800 C.2       1 ASP         0.0393
     60 OD1         9.0600    8.8390    1.3690 O.co2     1 ASP        -0.5688
     61 OD2         7.4950   10.3000    1.8440 O.co2     1 ASP        -0.5688
     62 N           9.9350    6.8720    4.4670 N.am      1 PRO        -0.2497
     63 CA         11.3510    6.4820    4.5010 C.3       1 PRO         0.1338
     64 C          12.0750    6.6600    3.1650 C.2       1 PRO         0.2042
     65 O          13.2550    6.3280    3.0480 O.2       1 PRO        -0.3944
     66 CB         11.3080    5.0010    4.8810 C.3       1 PRO        -0.0104
     67 CG          9.9630    4.5330    4.4490 C.3       1 PRO        -0.0281
     68 CD          9.0420    5.7070    4.6150 C.3       1 PRO         0.0369
     69 N          11.3690    7.1350    2.1540 N.am      1 PHE        -0.2619
     70 CA         11.9420    7.2610    0.8220 C.3       1 PHE         0.1404
     71 C          12.4120    8.6880    0.5610 C.2       1 PHE         0.2060
     72 O          13.5240    8.9050    0.0810 O.2       1 PHE        -0.3942
     73 CB         10.9150    6.8360   -0.2310 C.3       1 PHE         0.0214
     74 CG         10.2930    5.5050    0.0780 C.ar      1 PHE        -0.0386
     75 CD1        11.0340    4.3400   -0.0200 C.ar      1 PHE        -0.0601
     76 CD2         8.9770    5.4240    0.5010 C.ar      1 PHE        -0.0601
     77 CE1        10.4710    3.1190    0.2930 C.ar      1 PHE        -0.0686
     78 CE2         8.4140    4.2080    0.8210 C.ar      1 PHE        -0.0686
     79 CZ          9.1610    3.0530    0.7150 C.ar      1 PHE        -0.0687
     80 N          11.5840    9.6610    0.9080 N.am      1 THR        -0.2612
     81 CA         11.8850   11.0530    0.5920 C.3       1 THR         0.1565
     82 C          12.6880   11.7360    1.7000 C.2       1 THR         0.2065
     83 O          12.6750   12.9610    1.8270 O.2       1 THR        -0.3943
     84 CB         10.5980   11.8560    0.3230 C.3       1 THR         0.0924
     85 OG1         9.7360   11.8210    1.4690 O.3       1 THR        -0.3874
     86 CG2         9.8600   11.3070   -0.8850 C.3       1 THR        -0.0346
     87 N          13.4190   10.9460    2.4710 N.am      1 ALA        -0.2639
     88 CA         14.1810   11.4680    3.5980 C.3       1 ALA         0.1282
     89 C          15.6470   11.6820    3.2320 C.2       1 ALA         0.2031
     90 O          16.4520   12.0940    4.0710 O.2       1 ALA        -0.3944
     91 CB         14.0620   10.5290    4.7880 C.3       1 ALA        -0.0244
     92 N          15.9960   11.4040    1.9840 N.am      1 LYS        -0.2695
     93 CA         17.3690   11.5560    1.5230 C.3       1 LYS         0.0944
     94 C          17.4170   12.1840    0.1360 C.2       1 LYS         0.0601
     95 O          17.8720   13.3410    0.0280 O.co2     1 LYS        -0.5666
     96 CB         18.0960   10.2070    1.5290 C.3       1 LYS        -0.0177
     97 CG         18.8090    9.9100    2.8400 C.3       1 LYS        -0.0446
     98 CD         19.4180    8.5170    2.8530 C.3       1 LYS        -0.0125
     99 CE         20.4250    8.3570    3.9800 C.3       1 LYS        -0.0354
    100 NZ         19.8480    8.7160    5.3020 N.4       1 LYS         0.2185
    101 OXT        16.9820   11.5330   -0.8330 O.co2     1 LYS        -0.5666
    102 H1         -1.3597   23.3998    2.7028 H         1 PHE         0.2017
    103 H2         -0.3510   22.2621    2.0723 H         1 PHE         0.2017
    104 H3          0.0078   23.8604    1.9109 H         1 PHE         0.2017
    105 H4          0.3083   24.1184    4.2603 H         1 PHE         0.1122
    106 H5          0.3436   22.0490    5.6502 H         1 PHE         0.0507
    107 H6         -0.2721   21.1192    4.2419 H         1 PHE         0.0507
    108 H7         -1.1038   23.7077    6.7542 H         1 PHE         0.0557
    109 H8         -2.5765   21.2199    3.6168 H         1 PHE         0.0557
    110 H9         -3.4116   24.2193    7.4357 H         1 PHE         0.0599
    111 H10        -4.8834   21.7329    4.2930 H         1 PHE         0.0599
    112 H11        -5.3119   23.3176    6.1166 H         1 PHE         0.0559
    113 H12         2.2144   22.7727    5.4995 H         1 ASN         0.1886
    114 H13         4.4079   22.9374    3.5843 H         1 ASN         0.0826
    115 H14         5.8745   22.5386    5.5382 H         1 ASN         0.0551
    116 H15         4.4251   22.2405    6.5566 H         1 ASN         0.0551
    117 H16         4.8309   25.6169    7.4805 H         1 ASN         0.1814
    118 H17         5.0790   23.9638    7.9339 H         1 ASN         0.1814
    119 H18         4.2333   21.2794    2.2057 H         1 TYR         0.1885
    120 H19         4.1359   19.1701    1.3465 H         1 TYR         0.0821
    121 H20         6.4879   19.3711    1.6223 H         1 TYR         0.0453
    122 H21         6.0143   17.6926    2.0522 H         1 TYR         0.0453
    123 H22         6.0164   17.0148    4.4834 H         1 TYR         0.0530
    124 H23         7.6321   20.7469    3.1811 H         1 TYR         0.0530
    125 H24         7.2724   17.2118    6.5917 H         1 TYR         0.0525
    126 H25         8.8802   20.9425    5.2883 H         1 TYR         0.0525
    127 H26         8.6913   18.4370    7.7794 H         1 TYR         0.2458
    128 H27         4.7607   16.6581    2.4184 H         1 GLU         0.1883
    129 H28         2.8099   16.0782    4.5359 H         1 GLU         0.0801
    130 H29         1.3236   16.3309    2.6197 H         1 GLU         0.0330
    131 H30         1.4650   14.5897    3.0382 H         1 GLU         0.0330
    132 H31         2.9612   14.1966    1.1930 H         1 GLU         0.0433
    133 H32         3.0786   15.9553    0.8464 H         1 GLU         0.0433
    134 H33         5.6948   15.7268    3.7686 H         1 SER         0.1884
    135 H34         5.8880   12.8539    3.1288 H         1 SER         0.0823
    136 H35         8.1562   13.3047    2.5599 H         1 SER         0.0606
    137 H36         8.1642   14.8457    3.4830 H         1 SER         0.0606
    138 H37         7.9128   15.1633    1.2071 H         1 SER         0.2097
    139 H38         6.0428   11.4199    4.6496 H         1 THR         0.1884
    140 H39         7.8862   11.9302    6.9141 H         1 THR         0.0826
    141 H40         5.5887   12.2977    7.8020 H         1 THR         0.0639
    142 H41         6.7978    9.8570    8.6698 H         1 THR         0.2101
    143 H42         3.9943   10.4093    7.9452 H         1 THR         0.0257
    144 H43         5.0927    9.4084    6.9361 H         1 THR         0.0257
    145 H44         4.3218   10.8747    6.2415 H         1 THR         0.0257
    146 H45         7.5753   10.4478    4.2338 H         1 ASP         0.1884
    147 H46         7.5551    7.6210    5.0327 H         1 ASP         0.0819
    148 H47         6.3340    8.3817    3.0113 H         1 ASP         0.0478
    149 H48         7.6108    7.1812    2.6174 H         1 ASP         0.0478
    150 H49        11.8812    7.0648    5.2686 H         1 PRO         0.0802
    151 H50        11.4305    4.8765    5.9670 H         1 PRO         0.0313
    152 H51        12.0983    4.4439    4.3566 H         1 PRO         0.0313
    153 H52         9.6300    3.6944    5.0782 H         1 PRO         0.0287
    154 H53         9.9893    4.2140    3.3966 H         1 PRO         0.0287
    155 H54         8.2631    5.7080    3.8383 H         1 PRO         0.0524
    156 H55         8.5694    5.6980    5.6083 H         1 PRO         0.0524
    157 H56        10.4210    7.4138    2.3073 H         1 PHE         0.1885
    158 H57        12.8121    6.5916    0.7527 H         1 PHE         0.0823
    159 H58        11.4166    6.7728   -1.2079 H         1 PHE         0.0474
    160 H59        10.1202    7.5951   -0.2754 H         1 PHE         0.0474
    161 H60        12.0668    4.3869   -0.3458 H         1 PHE         0.0557
    162 H61         8.3832    6.3273    0.5812 H         1 PHE         0.0557
    163 H62        11.0593    2.2126    0.2068 H         1 PHE         0.0599
    164 H63         7.3842    4.1588    1.1560 H         1 PHE         0.0599
    165 H64         8.7181    2.0952    0.9633 H         1 PHE         0.0559
    166 H65        10.7391    9.4383    1.3943 H         1 THR         0.1884
    167 H66        12.4935   11.0628   -0.3243 H         1 THR         0.0826
    168 H67        10.8750   12.9012    0.1210 H         1 THR         0.0639
    169 H68         9.5040   10.9202    1.6619 H         1 THR         0.2101
    170 H69         8.9468   11.8961   -1.0557 H         1 THR         0.0257
    171 H70         9.5899   10.2563   -0.7033 H         1 THR         0.0257
    172 H71        10.5085   11.3710   -1.7712 H         1 THR         0.0257
    173 H72        13.4490    9.9659    2.2749 H         1 ALA         0.1883
    174 H73        13.7535   12.4415    3.8799 H         1 ALA         0.0797
    175 H74        14.6404   10.9321    5.6324 H         1 ALA         0.0277
    176 H75        14.4546    9.5386    4.5143 H         1 ALA         0.0277
    177 H76        13.0050   10.4370    5.0783 H         1 ALA         0.0277
    178 H77        15.2993   11.0819    1.3431 H         1 LYS         0.1875
    179 H78        17.8898   12.2288    2.2202 H         1 LYS         0.0726
    180 H79        18.8410   10.2089    0.7197 H         1 LYS         0.0305
    181 H80        17.3578    9.4123    1.3460 H         1 LYS         0.0305
    182 H81        18.0848    9.9888    3.6642 H         1 LYS         0.0269
    183 H82        19.6105   10.6495    2.9841 H         1 LYS         0.0269
    184 H83        19.9255    8.3403    1.8932 H         1 LYS         0.0317
    185 H84        18.6145    7.7774    2.9846 H         1 LYS         0.0317
    186 H85        21.2872    9.0102    3.7804 H         1 LYS         0.0813
    187 H86        20.7583    7.3092    4.0115 H         1 LYS         0.0813
    188 H87        20.5475    8.5957    6.0177 H         1 LYS         0.1994
    189 H88        19.0603    8.1185    5.4983 H         1 LYS         0.1994
    190 H89        19.5450    9.6772    5.2865 H         1 LYS         0.1994
@<TRIPOS>BOND
     1    1    2 1  
     2    2    3 1  
     3    2    5 1  
     4    3    4 2  
     5    3   12 am 
     6    5    6 1  
     7    6    7 ar 
     8    6    8 ar 
     9    7    9 ar 
    10    8   10 ar 
    11    9   11 ar 
    12   10   11 ar 
    13   12   13 1  
    14   13   14 1  
    15   13   16 1  
    16   14   15 2  
    17   14   20 am 
    18   16   17 1  
    19   17   18 2  
    20   17   19 am 
    21   20   21 1  
    22   21   22 1  
    23   21   24 1  
    24   22   23 2  
    25   22   32 am 
    26   24   25 1  
    27   25   26 ar 
    28   25   27 ar 
    29   26   28 ar 
    30   27   29 ar 
    31   28   30 ar 
    32   29   30 ar 
    33   30   31 1  
    34   32   33 1  
    35   33   34 1  
    36   33   36 1  
    37   34   35 2  
    38   34   41 am 
    39   36   37 1  
    40   37   38 1  
    41   38   39 ar 
    42   38   40 ar 
    43   41   42 1  
    44   42   43 1  
    45   42   45 1  
    46   43   44 2  
    47   43   47 am 
    48   45   46 1  
    49   47   48 1  
    50   48   49 1  
    51   48   51 1  
    52   49   50 2  
    53   49   54 am 
    54   51   52 1  
    55   51   53 1  
    56   54   55 1  
    57   55   56 1  
    58   55   58 1  
    59   56   57 2  
    60   56   62 am 
    61   58   59 1  
    62   59   60 ar 
    63   59   61 ar 
    64   62   63 1  
    65   62   68 1  
    66   63   64 1  
    67   63   66 1  
    68   64   65 2  
    69   64   69 am 
    70   66   67 1  
    71   67   68 1  
    72   69   70 1  
    73   70   71 1  
    74   70   73 1  
    75   71   72 2  
    76   71   80 am 
    77   73   74 1  
    78   74   75 ar 
    79   74   76 ar 
    80   75   77 ar 
    81   76   78 ar 
    82   77   79 ar 
    83   78   79 ar 
    84   80   81 1  
    85   81   82 1  
    86   81   84 1  
    87   82   83 2  
    88   82   87 am 
    89   84   85 1  
    90   84   86 1  
    91   87   88 1  
    92   88   89 1  
    93   88   91 1  
    94   89   90 2  
    95   89   92 am 
    96   92   93 1  
    97   93   94 1  
    98   93   96 1  
    99   94   95 ar 
   100   94  101 ar 
   101   96   97 1  
   102   97   98 1  
   103   98   99 1  
   104   99  100 1  
   105    1  102 1  
   106    1  103 1  
   107    1  104 1  
   108    2  105 1  
   109    5  106 1  
   110    5  107 1  
   111    7  108 1  
   112    8  109 1  
   113    9  110 1  
   114   10  111 1  
   115   11  112 1  
   116   12  113 1  
   117   13  114 1  
   118   16  115 1  
   119   16  116 1  
   120   19  117 1  
   121   19  118 1  
   122   20  119 1  
   123   21  120 1  
   124   24  121 1  
   125   24  122 1  
   126   26  123 1  
   127   27  124 1  
   128   28  125 1  
   129   29  126 1  
   130   31  127 1  
   131   32  128 1  
   132   33  129 1  
   133   36  130 1  
   134   36  131 1  
   135   37  132 1  
   136   37  133 1  
   137   41  134 1  
   138   42  135 1  
   139   45  136 1  
   140   45  137 1  
   141   46  138 1  
   142   47  139 1  
   143   48  140 1  
   144   51  141 1  
   145   52  142 1  
   146   53  143 1  
   147   53  144 1  
   148   53  145 1  
   149   54  146 1  
   150   55  147 1  
   151   58  148 1  
   152   58  149 1  
   153   63  150 1  
   154   66  151 1  
   155   66  152 1  
   156   67  153 1  
   157   67  154 1  
   158   68  155 1  
   159   68  156 1  
   160   69  157 1  
   161   70  158 1  
   162   73  159 1  
   163   73  160 1  
   164   75  161 1  
   165   76  162 1  
   166   77  163 1  
   167   78  164 1  
   168   79  165 1  
   169   80  166 1  
   170   81  167 1  
   171   84  168 1  
   172   85  169 1  
   173   86  170 1  
   174   86  171 1  
   175   86  172 1  
   176   87  173 1  
   177   88  174 1  
   178   91  175 1  
   179   91  176 1  
   180   91  177 1  
   181   92  178 1  
   182   93  179 1  
   183   96  180 1  
   184   96  181 1  
   185   97  182 1  
   186   97  183 1  
   187   98  184 1  
   188   98  185 1  
   189   99  186 1  
   190   99  187 1  
   191  100  188 1  
   192  100  189 1  
   193  100  190 1  
@<TRIPOS>SUBSTRUCTURE
     1 PHE         1

