5o0b_ligand
  -I-interpret- 

 17 18  0  0  0  0  0  0  0  0999 V2000
    9.5320   31.7230  -16.8980 C   0  0  0  0  0
   12.0000   32.1970  -15.5350 O   0  0  0  0  0
   11.1850   33.1510  -15.6820 C   0  0  0  0  0
   11.5350   34.3470  -15.5020 O   0  0  0  0  0
    9.7650   32.8410  -16.0820 C   0  0  0  0  0
    8.7110   33.6510  -15.6470 C   0  0  0  0  0
    7.4080   33.3260  -16.0460 C   0  0  0  0  0
    6.0940   33.8790  -15.8290 C   0  0  0  0  0
    5.6660   35.4340  -14.7990 Br  0  0  0  0  0
    5.2400   33.1070  -16.4760 N   0  0  0  0  0
    5.8500   32.1290  -17.0800 N   0  0  0  0  0
    7.1760   32.2020  -16.8620 C   0  0  0  0  0
    8.2370   31.4010  -17.2850 C   0  0  0  0  0
   10.3680   31.1066  -17.2285 H   0  0  0  0  0
   11.5539   31.3660  -15.7140 H   0  0  0  0  0
    8.8993   34.5163  -15.0114 H   0  0  0  0  0
    8.0516   30.5301  -17.9137 H   0  0  0  0  0
  5  1  4  0  0  0
  1 13  4  0  0  0
  3  2  1  0  0  0
  3  4  2  0  0  0
  3  5  1  0  0  0
  5  6  4  0  0  0
  6  7  4  0  0  0
  7  8  4  0  0  0
  7 12  4  0  0  0
  8  9  1  0  0  0
  8 10  4  0  0  0
 10 11  4  0  0  0
 11 12  4  0  0  0
 12 13  4  0  0  0
  1 14  1  0  0  0
  2 15  1  0  0  0
  6 16  1  0  0  0
 13 17  1  0  0  0
M  END
$$$$
