6ncj_ligand
  -I-interpret- 

 84 89  0  0  0  0  0  0  0  0999 V2000
  -26.6380   14.8980  -17.2660 C   0  0  0  0  0
  -25.7460   13.8100  -17.2370 C   0  0  0  0  0
  -24.3860   14.0480  -16.9460 C   0  0  0  0  0
  -24.8130   16.3730  -16.6770 C   0  0  0  0  0
  -26.2400   12.4060  -17.5610 C   0  0  0  0  0
  -25.7270   12.0110  -18.9250 C   0  0  0  0  0
  -26.4660   11.1860  -15.3740 C   0  0  0  0  0
  -26.9810   21.2220  -17.3080 C   0  0  0  0  0
  -26.2750   12.3180  -14.3540 C   0  0  0  0  0
  -27.4670   19.8230  -16.8780 C   0  0  0  0  0
  -27.8140   14.9600  -20.0770 C   0  0  0  0  0
  -28.6480   14.6620  -18.8420 C   0  0  0  0  0
  -28.0910   14.6780  -17.5560 C   0  0  0  0  0
  -28.8850   14.4040  -16.4330 C   0  0  0  0  0
  -30.2330   14.1100  -16.5750 C   0  0  0  0  0
  -30.7990   14.0810  -17.8520 C   0  0  0  0  0
  -30.0150   14.3720  -18.9870 C   0  0  0  0  0
  -30.6270   14.3540  -20.3880 C   0  0  0  0  0
  -32.1550   14.4300  -20.3200 C   0  0  0  0  0
  -32.6630   13.4480  -19.2550 C   0  0  0  0  0
  -32.0940   13.8090  -17.9620 O   0  0  0  0  0
  -30.9620   13.8560  -15.4900 F   0  0  0  0  0
  -26.1780   16.2070  -17.0300 C   0  0  0  0  0
  -23.9890   15.3020  -16.6410 N   0  0  0  0  0
  -25.4530   12.8660  -19.7570 O   0  0  0  0  0
  -25.5490   10.7350  -19.2020 O   0  0  0  0  0
  -25.7870   11.4170  -16.6230 O   0  0  0  0  0
  -27.9690   10.9030  -15.5370 C   0  0  0  0  0
  -25.7780    9.9310  -14.8150 C   0  0  0  0  0
  -23.2980   12.9800  -16.8610 C   0  0  0  0  0
  -24.2080   17.7530  -16.3910 C   0  0  0  0  0
  -25.2700   18.8510  -16.1930 C   0  0  0  0  0
  -26.4480   18.7490  -17.0990 N   0  3  0  0  0
  -27.1130   17.4100  -17.0660 C   0  0  0  0  0
  -27.2160   21.6250  -18.7690 C   0  0  0  0  0
  -27.9940   22.3220  -17.6410 C   0  0  0  0  0
  -29.4890   22.0670  -17.5160 C   0  0  0  0  0
  -30.2570   21.6090  -18.6020 C   0  0  0  0  0
  -31.6340   21.3800  -18.4560 C   0  0  0  0  0
  -32.2630   21.6430  -17.2340 C   0  0  0  0  0
  -31.4990   22.1060  -16.1510 C   0  0  0  0  0
  -30.1180   22.3180  -16.2940 C   0  0  0  0  0
  -27.3287   12.4376  -17.5191 H   0  0  0  0  0
  -26.1264   21.1663  -16.6338 H   0  0  0  0  0
  -25.2136   12.4309  -14.1330 H   0  0  0  0  0
  -26.6620   13.2486  -14.7692 H   0  0  0  0  0
  -26.8143   12.0751  -13.4384 H   0  0  0  0  0
  -28.3408   19.5776  -17.4817 H   0  0  0  0  0
  -27.6788   19.8616  -15.8095 H   0  0  0  0  0
  -27.3990   15.9650  -19.9998 H   0  0  0  0  0
  -27.0031   14.2353  -20.1498 H   0  0  0  0  0
  -28.4438   14.8927  -20.9641 H   0  0  0  0  0
  -28.4384   14.4223  -15.4389 H   0  0  0  0  0
  -30.3446   13.4239  -20.8812 H   0  0  0  0  0
  -30.2581   15.2172  -20.9420 H   0  0  0  0  0
  -32.5776   14.1681  -21.2900 H   0  0  0  0  0
  -32.4593   15.4433  -20.0578 H   0  0  0  0  0
  -32.3613   12.4341  -19.5178 H   0  0  0  0  0
  -33.7507   13.4948  -19.2026 H   0  0  0  0  0
  -25.8117   10.2049  -18.4460 H   0  0  0  0  0
  -28.3877   10.6054  -14.5756 H   0  0  0  0  0
  -28.4708   11.8039  -15.8901 H   0  0  0  0  0
  -28.1098   10.0999  -16.2603 H   0  0  0  0  0
  -24.7172   10.1345  -14.6685 H   0  0  0  0  0
  -26.2330    9.6631  -13.8614 H   0  0  0  0  0
  -25.8974    9.1083  -15.5199 H   0  0  0  0  0
  -23.5554   12.2621  -16.0822 H   0  0  0  0  0
  -23.2195   12.4661  -17.8190 H   0  0  0  0  0
  -22.3452   13.4521  -16.6213 H   0  0  0  0  0
  -23.6002   18.0323  -17.2516 H   0  0  0  0  0
  -23.6343   17.6775  -15.4672 H   0  0  0  0  0
  -24.7855   19.8033  -16.4088 H   0  0  0  0  0
  -25.6440   18.7503  -15.1741 H   0  0  0  0  0
  -26.0483   18.8797  -18.0283 H   0  0  0  0  0
  -27.6935   17.3768  -16.1441 H   0  0  0  0  0
  -27.6859   17.3276  -17.9896 H   0  0  0  0  0
  -27.4165   21.1473  -19.7280 H   0  0  0  0  0
  -26.6309   21.8950  -19.6481 H   0  0  0  0  0
  -28.1359   23.3500  -17.3076 H   0  0  0  0  0
  -29.7786   21.4305  -19.5650 H   0  0  0  0  0
  -32.2141   20.9968  -19.2955 H   0  0  0  0  0
  -33.3365   21.4898  -17.1240 H   0  0  0  0  0
  -31.9807   22.3022  -15.1931 H   0  0  0  0  0
  -29.5342   22.6800  -15.4477 H   0  0  0  0  0
  1  2  4  0  0  0
  1 13  1  0  0  0
 23  1  4  0  0  0
  3  2  4  0  0  0
  2  5  1  0  0  0
 24  3  4  0  0  0
  3 30  1  0  0  0
  4 23  4  0  0  0
  4 24  4  0  0  0
 31  4  1  0  0  0
  5  6  1  0  0  0
  5 27  1  0  0  0
  6 25  2  0  0  0
  6 26  1  0  0  0
  7  9  1  0  0  0
 27  7  1  0  0  0
  7 28  1  0  0  0
  7 29  1  0  0  0
 10  8  1  0  0  0
  8 35  1  0  0  0
  8 36  1  0  0  0
 33 10  1  0  0  0
 12 11  1  0  0  0
 13 12  4  0  0  0
 12 17  4  0  0  0
 13 14  4  0  0  0
 14 15  4  0  0  0
 15 16  4  0  0  0
 15 22  1  0  0  0
 17 16  4  0  0  0
 16 21  1  0  0  0
 17 18  1  0  0  0
 18 19  1  0  0  0
 19 20  1  0  0  0
 21 20  1  0  0  0
 23 34  1  0  0  0
 32 31  1  0  0  0
 32 33  1  0  0  0
 33 34  1  0  0  0
 35 36  1  0  0  0
 36 37  1  0  0  0
 37 38  4  0  0  0
 37 42  4  0  0  0
 38 39  4  0  0  0
 39 40  4  0  0  0
 40 41  4  0  0  0
 41 42  4  0  0  0
  5 43  1  0  0  0
  8 44  1  0  0  0
  9 45  1  0  0  0
  9 46  1  0  0  0
  9 47  1  0  0  0
 10 48  1  0  0  0
 10 49  1  0  0  0
 11 50  1  0  0  0
 11 51  1  0  0  0
 11 52  1  0  0  0
 14 53  1  0  0  0
 18 54  1  0  0  0
 18 55  1  0  0  0
 19 56  1  0  0  0
 19 57  1  0  0  0
 20 58  1  0  0  0
 20 59  1  0  0  0
 26 60  1  0  0  0
 28 61  1  0  0  0
 28 62  1  0  0  0
 28 63  1  0  0  0
 29 64  1  0  0  0
 29 65  1  0  0  0
 29 66  1  0  0  0
 30 67  1  0  0  0
 30 68  1  0  0  0
 30 69  1  0  0  0
 31 70  1  0  0  0
 31 71  1  0  0  0
 32 72  1  0  0  0
 32 73  1  0  0  0
 33 74  1  0  0  0
 34 75  1  0  0  0
 34 76  1  0  0  0
 35 77  1  0  0  0
 35 78  1  0  0  0
 36 79  1  0  0  0
 38 80  1  0  0  0
 39 81  1  0  0  0
 40 82  1  0  0  0
 41 83  1  0  0  0
 42 84  1  0  0  0
M  END
$$$$
