6bmi_ligand
  -I-interpret- 

 15 14  0  0  0  0  0  0  0  0999 V2000
    7.0290    6.9520   -5.1470 N   0  3  0  0  0
    6.9910    8.2800   -5.8200 C   0  0  0  0  0
    8.1650    8.4510   -6.7680 C   0  0  0  0  0
    8.9910    7.5520   -6.9100 O   0  0  0  0  0
    6.9800    9.4080   -4.7860 C   0  0  0  0  0
    5.7220    9.4930   -4.1270 O   0  0  0  0  0
    8.2935    9.5245   -7.4150 O   0  0  0  0  0
    7.0358    6.2149   -5.8521 H   0  0  0  0  0
    7.8715    6.8856   -4.5759 H   0  0  0  0  0
    6.2056    6.8491   -4.5538 H   0  0  0  0  0
    6.0722    8.3287   -6.4044 H   0  0  0  0  0
    7.1672   10.3511   -5.2994 H   0  0  0  0  0
    7.7488    9.2032   -4.0410 H   0  0  0  0  0
    5.7454   10.2074   -3.4861 H   0  0  0  0  0
    7.5729   10.1187   -7.1932 H   0  0  0  0  0
  1  2  1  0  0  0
  2  3  1  0  0  0
  2  5  1  0  0  0
  3  4  2  0  0  0
  5  6  1  0  0  0
  3  7  1  0  0  0
  1  8  1  0  0  0
  1  9  1  0  0  0
  1 10  1  0  0  0
  2 11  1  0  0  0
  5 12  1  0  0  0
  5 13  1  0  0  0
  6 14  1  0  0  0
  7 15  1  0  0  0
M  END
$$$$
