4er1_ligand
  -I-interpret- 

126131  0  0  0  0  0  0  0  0999 V2000
    3.3700   29.0970   17.3370 C   0  0  0  0  0
    3.2220   28.1590   16.5360 O   0  0  0  0  0
    4.0370   28.8700   18.6880 C   0  0  0  0  0
    3.8690   27.4850   19.1450 C   0  0  0  0  0
    2.3400   27.2190   19.4680 C   0  0  0  0  0
    1.4790   28.3200   19.5730 C   0  0  0  0  0
    0.1180   28.1550   19.8270 C   0  0  0  0  0
   -0.4120   26.8810   19.9770 C   0  0  0  0  0
    0.4190   25.7710   19.8720 C   0  0  0  0  0
   -0.1390   24.5010   20.0400 C   0  0  0  0  0
    0.6920   23.3770   19.9910 C   0  0  0  0  0
    2.0610   23.5230   19.7340 C   0  0  0  0  0
    2.6090   24.7970   19.5370 C   0  0  0  0  0
    1.7880   25.9270   19.6150 C   0  0  0  0  0
    5.5310   29.1860   18.4440 C   0  0  0  0  0
    6.4800   28.5800   19.4690 C   0  0  0  0  0
    7.0100   27.3130   19.1990 C   0  0  0  0  0
    7.8720   26.7120   20.0960 C   0  0  0  0  0
    8.2060   27.3680   21.2590 C   0  0  0  0  0
    7.7010   28.6380   21.5590 C   0  0  0  0  0
    8.0170   29.3460   22.7460 C   0  0  0  0  0
    7.4600   30.6290   22.9630 C   0  0  0  0  0
    6.6280   31.2250   22.0830 C   0  0  0  0  0
    6.2810   30.5840   20.9100 C   0  0  0  0  0
    6.7930   29.3290   20.6460 C   0  0  0  0  0
    2.9880   30.3470   17.1990 N   0  0  0  0  0
    2.5080   30.9410   15.9480 C   0  0  0  0  0
    3.2180   32.2710   15.7340 C   0  0  0  0  0
    2.7840   33.3000   16.2810 O   0  0  0  0  0
    1.1010   31.5170   15.9360 C   0  0  0  0  0
   -0.1290   30.6940   16.2880 C   0  0  0  0  0
   -0.1240   29.3730   16.7380 N   0  0  0  0  0
   -1.4150   31.1070   16.2550 C   0  0  0  0  0
   -1.3990   29.0360   16.9760 C   0  0  0  0  0
   -2.1750   30.0670   16.6930 N   0  0  0  0  0
    4.1920   32.2850   14.9390 N   0  0  0  0  0
    5.0220   33.4600   14.6390 C   0  0  0  0  0
    6.5010   33.0720   14.7890 C   0  0  0  0  0
    6.8090   32.4940   16.1800 C   0  0  0  0  0
    6.6550   33.6180   17.2190 C   0  0  0  0  0
    8.1100   31.9450   16.1970 C   0  0  0  0  0
    7.0080   33.1300   18.6240 C   0  0  0  0  0
    8.4780   31.4240   17.5950 C   0  0  0  0  0
    8.4130   32.5520   18.6160 C   0  0  0  0  0
    4.6940   33.9640   13.2150 C   0  0  0  0  0
    5.2640   33.0830   12.2530 O   0  0  0  0  0
    3.1570   34.0070   13.0160 C   0  0  0  0  0
    2.7270   35.1090   12.1030 C   0  0  0  0  0
    1.2620   35.0630   11.9100 C   0  0  0  0  0
    0.9130   34.7720   10.4470 C   0  0  0  0  0
    0.8890   33.2610   10.2090 C   0  0  0  0  0
   -0.4680   35.3460   10.1130 C   0  0  0  0  0
    3.0120   36.2820   12.6290 C   0  0  0  0  0
    2.5120   36.6230   13.7090 O   0  0  0  0  0
    3.8280   37.0190   11.9200 N   0  0  0  0  0
    4.2820   38.3150   12.3940 C   0  0  0  0  0
    3.6260   39.4460   11.6220 C   0  0  0  0  0
    3.4910   40.7150   12.4610 C   0  0  0  0  0
    2.2200   39.1200   11.1240 C   0  0  0  0  0
    4.4400   41.8240   12.0150 C   0  0  0  0  0
    3.5982   29.4956   19.4653 H   0  0  0  0  0
    4.4643   27.3235   20.0437 H   0  0  0  0  0
    4.2003   26.8011   18.3635 H   0  0  0  0  0
    1.8817   29.3258   19.4536 H   0  0  0  0  0
   -0.5304   29.0274   19.9079 H   0  0  0  0  0
   -1.4757   26.7511   20.1764 H   0  0  0  0  0
   -1.2101   24.3875   20.2074 H   0  0  0  0  0
    0.2727   22.3841   20.1534 H   0  0  0  0  0
    2.7020   22.6426   19.6871 H   0  0  0  0  0
    3.6722   24.9076   19.3235 H   0  0  0  0  0
    5.6425   30.2685   18.5067 H   0  0  0  0  0
    5.7932   28.7601   17.4755 H   0  0  0  0  0
    6.7414   26.7980   18.2766 H   0  0  0  0  0
    8.2845   25.7256   19.8842 H   0  0  0  0  0
    8.8818   26.8854   21.9650 H   0  0  0  0  0
    8.6844   28.9052   23.4865 H   0  0  0  0  0
    7.7141   31.1589   23.8810 H   0  0  0  0  0
    6.2285   32.2159   22.2990 H   0  0  0  0  0
    5.6090   31.0644   20.1989 H   0  0  0  0  0
    3.0285   30.9475   18.0225 H   0  0  0  0  0
    2.6373   30.1092   15.2556 H   0  0  0  0  0
    0.9424   31.7673   14.8871 H   0  0  0  0  0
    1.1322   32.2693   16.7241 H   0  0  0  0  0
   -1.7747   32.0859   15.9381 H   0  0  0  0  0
   -1.7404   28.0683   17.3435 H   0  0  0  0  0
    4.4243   31.4122   14.4650 H   0  0  0  0  0
    4.8139   34.2740   15.3334 H   0  0  0  0  0
    7.1036   33.9700   14.6529 H   0  0  0  0  0
    6.7293   32.3085   14.0454 H   0  0  0  0  0
    6.1140   31.6904   16.4233 H   0  0  0  0  0
    5.6169   33.9505   17.2184 H   0  0  0  0  0
    7.3322   34.4299   16.9540 H   0  0  0  0  0
    8.8193   32.7248   15.9195 H   0  0  0  0  0
    8.1439   31.1111   15.4959 H   0  0  0  0  0
    6.2990   32.3618   18.9325 H   0  0  0  0  0
    6.9607   33.9650   19.3231 H   0  0  0  0  0
    9.4924   31.0259   17.5698 H   0  0  0  0  0
    7.7712   30.6451   17.8810 H   0  0  0  0  0
    8.6581   32.1670   19.6058 H   0  0  0  0  0
    9.1293   33.3297   18.3512 H   0  0  0  0  0
    5.1072   34.9645   13.0873 H   0  0  0  0  0
    5.0584   33.3989   11.3701 H   0  0  0  0  0
    2.6972   34.1788   13.9892 H   0  0  0  0  0
    2.8499   33.0616   12.5688 H   0  0  0  0  0
    3.2508   34.9775   11.1562 H   0  0  0  0  0
    0.8414   36.0301   12.1853 H   0  0  0  0  0
    0.8508   34.2690   12.5334 H   0  0  0  0  0
    1.6671   35.2351    9.8107 H   0  0  0  0  0
    1.8699   32.8432   10.4356 H   0  0  0  0  0
    0.1399   32.8044   10.8560 H   0  0  0  0  0
    0.6401   33.0626    9.1665 H   0  0  0  0  0
   -1.2166   34.8872   10.7588 H   0  0  0  0  0
   -0.4602   36.4242   10.2727 H   0  0  0  0  0
   -0.7060   35.1335    9.0708 H   0  0  0  0  0
    4.1522   36.6765   11.0156 H   0  0  0  0  0
    5.3608   38.3779   12.2516 H   0  0  0  0  0
    4.0147   38.4126   13.4462 H   0  0  0  0  0
    4.2949   39.5937   10.7742 H   0  0  0  0  0
    3.7366   40.4607   13.4921 H   0  0  0  0  0
    2.4713   41.0830   12.3472 H   0  0  0  0  0
    2.2622   38.2567   10.4598 H   0  0  0  0  0
    1.5777   38.8941   11.9752 H   0  0  0  0  0
    1.8198   39.9773   10.5827 H   0  0  0  0  0
    5.4694   41.4759   12.1007 H   0  0  0  0  0
    4.2288   42.0860   10.9782 H   0  0  0  0  0
    4.2972   42.6993   12.6487 H   0  0  0  0  0
 26 27  1  0  0  0
 27 30  1  0  0  0
 27 28  1  0  0  0
 28 29  2  0  0  0
 30 31  1  0  0  0
 31 32  4  0  0  0
 31 33  4  0  0  0
 33 35  4  0  0  0
 35 34  4  0  0  0
 32 34  4  0  0  0
  1  2  2  0  0  0
  1  3  1  0  0  0
  1 26  1  0  0  0
  3  4  1  0  0  0
  3 15  1  0  0  0
  4  5  1  0  0  0
  5  6  4  0  0  0
  5 14  4  0  0  0
  6  7  4  0  0  0
  7  8  4  0  0  0
  8  9  4  0  0  0
  9 10  4  0  0  0
  9 14  4  0  0  0
 10 11  4  0  0  0
 11 12  4  0  0  0
 12 13  4  0  0  0
 13 14  4  0  0  0
 15 16  1  0  0  0
 16 17  4  0  0  0
 16 25  4  0  0  0
 17 18  4  0  0  0
 18 19  4  0  0  0
 19 20  4  0  0  0
 20 21  4  0  0  0
 20 25  4  0  0  0
 21 22  4  0  0  0
 22 23  4  0  0  0
 23 24  4  0  0  0
 24 25  4  0  0  0
 28 36  1  0  0  0
 36 37  1  0  0  0
 37 38  1  0  0  0
 37 45  1  0  0  0
 38 39  1  0  0  0
 39 40  1  0  0  0
 39 41  1  0  0  0
 40 42  1  0  0  0
 41 43  1  0  0  0
 42 44  1  0  0  0
 43 44  1  0  0  0
 45 46  1  0  0  0
 45 47  1  0  0  0
 47 48  1  0  0  0
 48 49  1  0  0  0
 48 53  1  0  0  0
 49 50  1  0  0  0
 50 51  1  0  0  0
 50 52  1  0  0  0
 53 54  2  0  0  0
 53 55  1  0  0  0
 55 56  1  0  0  0
 56 57  1  0  0  0
 57 58  1  0  0  0
 57 59  1  0  0  0
 58 60  1  0  0  0
  3 61  1  0  0  0
  4 62  1  0  0  0
  4 63  1  0  0  0
  6 64  1  0  0  0
  7 65  1  0  0  0
  8 66  1  0  0  0
 10 67  1  0  0  0
 11 68  1  0  0  0
 12 69  1  0  0  0
 13 70  1  0  0  0
 15 71  1  0  0  0
 15 72  1  0  0  0
 17 73  1  0  0  0
 18 74  1  0  0  0
 19 75  1  0  0  0
 21 76  1  0  0  0
 22 77  1  0  0  0
 23 78  1  0  0  0
 24 79  1  0  0  0
 26 80  1  0  0  0
 27 81  1  0  0  0
 30 82  1  0  0  0
 30 83  1  0  0  0
 33 84  1  0  0  0
 34 85  1  0  0  0
 36 86  1  0  0  0
 37 87  1  0  0  0
 38 88  1  0  0  0
 38 89  1  0  0  0
 39 90  1  0  0  0
 40 91  1  0  0  0
 40 92  1  0  0  0
 41 93  1  0  0  0
 41 94  1  0  0  0
 42 95  1  0  0  0
 42 96  1  0  0  0
 43 97  1  0  0  0
 43 98  1  0  0  0
 44 99  1  0  0  0
 44100  1  0  0  0
 45101  1  0  0  0
 46102  1  0  0  0
 47103  1  0  0  0
 47104  1  0  0  0
 48105  1  0  0  0
 49106  1  0  0  0
 49107  1  0  0  0
 50108  1  0  0  0
 51109  1  0  0  0
 51110  1  0  0  0
 51111  1  0  0  0
 52112  1  0  0  0
 52113  1  0  0  0
 52114  1  0  0  0
 55115  1  0  0  0
 56116  1  0  0  0
 56117  1  0  0  0
 57118  1  0  0  0
 58119  1  0  0  0
 58120  1  0  0  0
 59121  1  0  0  0
 59122  1  0  0  0
 59123  1  0  0  0
 60124  1  0  0  0
 60125  1  0  0  0
 60126  1  0  0  0
M  END
$$$$
