6c67_ligand
  -I-interpret- 

 33 35  0  0  0  0  0  0  0  0999 V2000
  -15.9010  -20.8720   13.5340 O   0  0  0  0  0
  -14.7220  -20.6160   12.7740 C   0  0  0  0  0
  -14.3950  -21.7770   11.8690 C   0  0  0  0  0
  -15.5130  -22.0260   11.0020 O   0  0  0  0  0
  -15.0620  -22.5890    9.7970 C   0  0  0  0  0
  -16.0490  -22.2140    8.7860 N   0  0  0  0  0
  -16.2210  -20.9750    8.3030 C   0  0  0  0  0
  -17.3160  -21.0140    7.4130 C   0  0  0  0  0
  -17.8250  -22.3530    7.4020 C   0  0  0  0  0
  -18.8920  -23.0470    6.7340 C   0  0  0  0  0
  -19.0830  -24.3430    6.9760 N   0  0  0  0  0
  -18.2790  -25.0020    7.8340 C   0  0  0  0  0
  -17.2740  -24.3990    8.4770 N   0  0  0  0  0
  -17.0270  -23.0760    8.2750 C   0  0  0  0  0
  -19.7510  -22.3390    5.8090 N   0  0  0  0  0
  -13.6400  -22.0670    9.5660 C   0  0  0  0  0
  -12.8240  -23.0650    8.9910 O   0  0  0  0  0
  -13.1730  -21.6070   10.9670 C   0  0  0  0  0
  -12.1200  -22.4510   11.4410 O   0  0  0  0  0
  -18.0700  -19.3700    6.3140 I   0  0  0  0  0
  -16.0854  -20.1188   14.0999 H   0  0  0  0  0
  -13.8900  -20.4656   13.4619 H   0  0  0  0  0
  -14.8891  -19.7315   12.1593 H   0  0  0  0  0
  -14.1693  -22.5941   12.5542 H   0  0  0  0  0
  -14.9876  -23.6763    9.7800 H   0  0  0  0  0
  -15.6241  -20.0977    8.5522 H   0  0  0  0  0
  -18.4544  -26.0634    8.0096 H   0  0  0  0  0
  -19.5997  -21.3462    5.6303 H   0  0  0  0  0
  -20.5077  -22.8328    5.3358 H   0  0  0  0  0
  -13.5873  -21.2437    8.8536 H   0  0  0  0  0
  -13.1703  -23.3016    8.1275 H   0  0  0  0  0
  -12.7986  -20.5834   10.9508 H   0  0  0  0  0
  -11.8404  -22.1544   12.3101 H   0  0  0  0  0
  1  2  1  0  0  0
  2  3  1  0  0  0
  3  4  1  0  0  0
  3 18  1  0  0  0
  4  5  1  0  0  0
  5  6  1  0  0  0
  5 16  1  0  0  0
  6  7  4  0  0  0
  6 14  4  0  0  0
  7  8  4  0  0  0
  8  9  4  0  0  0
  8 20  1  0  0  0
  9 10  4  0  0  0
  9 14  4  0  0  0
 10 11  4  0  0  0
 10 15  1  0  0  0
 11 12  4  0  0  0
 12 13  4  0  0  0
 13 14  4  0  0  0
 16 17  1  0  0  0
 16 18  1  0  0  0
 18 19  1  0  0  0
  1 21  1  0  0  0
  2 22  1  0  0  0
  2 23  1  0  0  0
  3 24  1  0  0  0
  5 25  1  0  0  0
  7 26  1  0  0  0
 12 27  1  0  0  0
 15 28  1  0  0  0
 15 29  1  0  0  0
 16 30  1  0  0  0
 17 31  1  0  0  0
 18 32  1  0  0  0
 19 33  1  0  0  0
M  END
$$$$
