2xoi_ligand
  -I-interpret- 

 65 69  0  0  0  0  0  0  0  0999 V2000
   35.3620    5.9940   22.3830 N   0  0  0  0  0
   38.9350    5.5860   18.6820 C   0  0  0  0  0
   37.3860   -0.2510   12.0990 C   0  0  0  0  0
   36.5960   -1.4920   12.2300 N   0  0  0  0  0
   39.2850    1.8510   14.4210 C   0  0  0  0  0
   39.6900    0.6350   16.6700 O   0  0  0  0  0
   35.7660    6.9150   21.4920 C   0  0  0  0  0
   40.3690    5.8780   19.1020 C   0  0  0  0  0
   40.4600    7.2290   19.5570 O   0  0  0  0  0
   37.3980    0.5450   13.4020 C   0  0  0  0  0
   35.4470   -1.6890   11.4240 C   0  0  0  0  0
   35.0920   -0.8160   10.6040 O   0  0  0  0  0
   41.6100    1.1550   15.2970 O   0  0  0  0  0
   36.7180    6.6300   20.5870 N   0  0  0  0  0
   41.2090    5.6520   17.8590 C   0  0  0  0  0
   41.9250    6.8360   17.4930 O   0  0  0  0  0
   38.8410    0.4990   13.8760 C   0  0  0  0  0
   34.7250   -2.8160   11.5350 N   0  0  0  0  0
   40.4590    2.9330   16.5100 N   0  0  0  0  0
   37.2940    5.3990   20.5540 C   0  0  0  0  0
   40.2060    5.2790   16.7710 C   0  0  0  0  0
   39.0130    4.8640   17.4520 O   0  0  0  0  0
   39.6620    0.0360   12.6800 C   0  0  0  0  0
   38.7460   -0.5440   11.7470 O   0  0  0  0  0
   35.0710   -3.7780   12.4060 C   0  0  0  0  0
   34.3850   -4.8200   12.4950 O   0  0  0  0  0
   36.8950    4.4320   21.4640 C   0  0  0  0  0
   40.7050    4.1930   15.8200 C   0  0  0  0  0
   42.1070    4.3380   15.5500 O   0  0  0  0  0
   40.7350   -0.9830   13.0580 C   0  0  0  0  0
   40.1470   -2.1440   13.6590 O   0  0  0  0  0
   36.1960   -3.6180   13.2110 C   0  0  0  0  0
   35.9080    4.7530   22.3930 C   0  0  0  0  0
   35.4940    3.8330   23.2950 N   0  0  0  0  0
   36.9520   -2.4530   13.1020 C   0  0  0  0  0
   37.6160    3.3210   21.2120 N   0  0  0  0  0
   38.4430    3.5940   20.1740 C   0  0  0  0  0
   38.2380    4.8600   19.7760 N   0  0  0  0  0
   40.2800    1.6320   15.7430 S   0  0  0  0  0
   38.3432    6.4856   18.5130 H   0  0  0  0  0
   36.9121    0.3384   11.3140 H   0  0  0  0  0
   38.4073    2.4227   14.7226 H   0  0  0  0  0
   39.8304    2.3894   13.6459 H   0  0  0  0  0
   35.3153    7.9074   21.5033 H   0  0  0  0  0
   40.7102    5.2418   19.9187 H   0  0  0  0  0
   39.9187    7.3381   20.3423 H   0  0  0  0  0
   36.7161    0.1228   14.1402 H   0  0  0  0  0
   37.0533    1.5684   13.2539 H   0  0  0  0  0
   41.9604    4.8783   18.0169 H   0  0  0  0  0
   42.4460    6.6630   16.7055 H   0  0  0  0  0
   38.9751   -0.1915   14.7086 H   0  0  0  0  0
   33.9004   -2.9434   10.9482 H   0  0  0  0  0
   40.4058    2.9236   17.5286 H   0  0  0  0  0
   40.0320    6.1409   16.1268 H   0  0  0  0  0
   40.1918    0.8897   12.2573 H   0  0  0  0  0
   40.1950    4.2485   14.8583 H   0  0  0  0  0
   42.2599    5.1698   15.0958 H   0  0  0  0  0
   41.4176   -0.5248   13.7737 H   0  0  0  0  0
   41.2653   -1.2856   12.1551 H   0  0  0  0  0
   40.8384   -2.7694   13.8879 H   0  0  0  0  0
   36.4820   -4.3960   13.9188 H   0  0  0  0  0
   34.7685    4.0720   23.9709 H   0  0  0  0  0
   35.9075    2.9006   23.2989 H   0  0  0  0  0
   37.8358   -2.3193   13.7258 H   0  0  0  0  0
   39.1582    2.8992   19.7338 H   0  0  0  0  0
  7  1  4  0  0  0
  1 33  4  0  0  0
  2  8  1  0  0  0
 22  2  1  0  0  0
  2 38  1  0  0  0
  3  4  1  0  0  0
 10  3  1  0  0  0
  3 24  1  0  0  0
  4 11  1  0  0  0
  4 35  1  0  0  0
  5 17  1  0  0  0
 39  5  1  0  0  0
 39  6  2  0  0  0
 14  7  4  0  0  0
  8  9  1  0  0  0
 15  8  1  0  0  0
 17 10  1  0  0  0
 11 12  2  0  0  0
 11 18  1  0  0  0
 39 13  2  0  0  0
 20 14  4  0  0  0
 15 16  1  0  0  0
 21 15  1  0  0  0
 17 23  1  0  0  0
 18 25  1  0  0  0
 28 19  1  0  0  0
 19 39  1  0  0  0
 20 27  4  0  0  0
 38 20  4  0  0  0
 21 22  1  0  0  0
 21 28  1  0  0  0
 23 24  1  0  0  0
 23 30  1  0  0  0
 25 26  2  0  0  0
 25 32  1  0  0  0
 27 33  4  0  0  0
 27 36  4  0  0  0
 28 29  1  0  0  0
 30 31  1  0  0  0
 32 35  2  0  0  0
 33 34  1  0  0  0
 36 37  4  0  0  0
 37 38  4  0  0  0
  2 40  1  0  0  0
  3 41  1  0  0  0
  5 42  1  0  0  0
  5 43  1  0  0  0
  7 44  1  0  0  0
  8 45  1  0  0  0
  9 46  1  0  0  0
 10 47  1  0  0  0
 10 48  1  0  0  0
 15 49  1  0  0  0
 16 50  1  0  0  0
 17 51  1  0  0  0
 18 52  1  0  0  0
 19 53  1  0  0  0
 21 54  1  0  0  0
 23 55  1  0  0  0
 28 56  1  0  0  0
 29 57  1  0  0  0
 30 58  1  0  0  0
 30 59  1  0  0  0
 31 60  1  0  0  0
 32 61  1  0  0  0
 34 62  1  0  0  0
 34 63  1  0  0  0
 35 64  1  0  0  0
 37 65  1  0  0  0
M  END
$$$$
