1pmu_ligand
  -I-interpret- 

 33 36  0  0  0  0  0  0  0  0999 V2000
   22.3110   23.4790   47.0970 C   0  0  0  0  0
   23.5300   23.4880   47.9300 C   0  0  0  0  0
   23.5400   22.8160   49.1950 C   0  0  0  0  0
   22.3640   22.1630   49.6050 C   0  0  0  0  0
   21.2220   22.1490   48.8470 N   0  0  0  0  0
   21.1770   22.7770   47.6340 C   0  0  0  0  0
   22.3530   24.1910   45.8060 C   0  0  0  0  0
   23.6340   24.8330   45.4700 C   0  0  0  0  0
   24.7770   24.8190   46.3080 C   0  0  0  0  0
   24.7410   24.1450   47.5380 C   0  0  0  0  0
   21.2800   24.2860   44.8610 C   0  0  0  0  0
   21.4180   24.9880   43.6460 C   0  0  0  0  0
   22.6670   25.5900   43.3760 C   0  0  0  0  0
   23.7040   25.5090   44.2620 N   0  0  0  0  0
   18.4540   24.1920   41.3030 C   0  0  0  0  0
   19.5380   24.0020   42.2010 C   0  0  0  0  0
   20.2770   25.1130   42.6790 C   0  0  0  0  0
   19.9130   26.4000   42.2440 C   0  0  0  0  0
   18.8510   26.6010   41.3630 C   0  0  0  0  0
   18.1130   25.5110   40.8900 C   0  0  0  0  0
   17.0730   25.7590   40.0360 O   0  0  0  0  0
   24.4323   22.8110   49.8210 H   0  0  0  0  0
   22.3604   21.6468   50.5650 H   0  0  0  0  0
   20.2534   22.7447   47.0561 H   0  0  0  0  0
   25.6861   25.3331   45.9961 H   0  0  0  0  0
   25.6188   24.1217   48.1837 H   0  0  0  0  0
   20.3302   23.8018   45.0879 H   0  0  0  0  0
   22.8066   26.1311   42.4402 H   0  0  0  0  0
   17.8888   23.3363   40.9337 H   0  0  0  0  0
   19.8032   22.9955   42.5245 H   0  0  0  0  0
   20.4749   27.2616   42.6045 H   0  0  0  0  0
   18.5951   27.6107   41.0419 H   0  0  0  0  0
   17.0060   26.7041   39.8811 H   0  0  0  0  0
  1  2  4  0  0  0
  1  6  4  0  0  0
  7  1  4  0  0  0
  2  3  4  0  0  0
  2 10  4  0  0  0
  3  4  4  0  0  0
  5  4  4  0  0  0
  6  5  4  0  0  0
  7  8  4  0  0  0
 11  7  4  0  0  0
  8  9  4  0  0  0
 14  8  4  0  0  0
  9 10  4  0  0  0
 12 11  4  0  0  0
 12 13  4  0  0  0
 17 12  1  0  0  0
 13 14  4  0  0  0
 16 15  4  0  0  0
 15 20  4  0  0  0
 16 17  4  0  0  0
 17 18  4  0  0  0
 18 19  4  0  0  0
 19 20  4  0  0  0
 20 21  1  0  0  0
  3 22  1  0  0  0
  4 23  1  0  0  0
  6 24  1  0  0  0
  9 25  1  0  0  0
 10 26  1  0  0  0
 11 27  1  0  0  0
 13 28  1  0  0  0
 15 29  1  0  0  0
 16 30  1  0  0  0
 18 31  1  0  0  0
 19 32  1  0  0  0
 21 33  1  0  0  0
M  END
$$$$
