5q0v_ligand
  -I-interpret- 

 58 62  0  0  0  0  0  0  0  0999 V2000
   22.9760   18.0130    3.7140 N   0  0  0  0  0
   22.7320   16.4150    2.1530 N   0  0  0  0  0
   24.2230   17.4260    3.5710 C   0  0  0  0  0
   24.0610   16.4350    2.6040 C   0  0  0  0  0
   23.3140   20.4310    4.1970 C   0  0  0  0  0
   22.5850   19.1400    4.6270 C   0  0  0  0  0
   25.4310   17.6790    4.2070 C   0  0  0  0  0
   25.1650   15.6500    2.2390 C   0  0  0  0  0
   26.3670   15.9120    2.8770 C   0  0  0  0  0
   22.7220   18.7840    6.1250 C   0  0  0  0  0
   18.0530   18.5120    2.3770 C   0  0  0  0  0
   18.3630   17.5020    3.2740 C   0  0  0  0  0
   26.0270   22.5100    1.0280 C   0  0  0  0  0
   26.0740   20.3520    2.0060 F   0  0  0  0  0
   25.3870   21.5050    1.7220 C   0  0  0  0  0
   25.3160   23.6700    0.7500 C   0  0  0  0  0
   24.0010   23.8030    1.1620 C   0  0  0  0  0
   23.3730   22.7790    1.8630 C   0  0  0  0  0
   24.0720   21.6010    2.1530 C   0  0  0  0  0
   23.4610   20.5450    2.8590 N   0  0  0  0  0
   23.7140   21.2570    5.0130 O   0  0  0  0  0
   21.9330   19.7630    7.0130 C   0  0  0  0  0
   22.0160   19.3920    8.5060 C   0  0  0  0  0
   21.5380   17.9630    8.7510 C   0  0  0  0  0
   22.3250   16.9640    7.8860 C   0  0  0  0  0
   22.2450   17.3410    6.3950 C   0  0  0  0  0
   22.1260   17.3700    2.8440 C   0  0  0  0  0
   27.4490   15.1910    2.5610 F   0  0  0  0  0
   26.4900   16.9040    3.8360 C   0  0  0  0  0
   27.6910   17.1140    4.4180 F   0  0  0  0  0
   20.7020   17.7340    2.6980 C   0  0  0  0  0
   20.3570   18.7540    1.8080 C   0  0  0  0  0
   19.0330   19.1430    1.6430 C   0  0  0  0  0
   16.3910   18.9970    2.1750 Cl  0  0  0  0  0
   19.6900   17.1190    3.4340 C   0  0  0  0  0
   21.5167   19.3277    4.5193 H   0  0  0  0  0
   25.5279   18.4572    4.9640 H   0  0  0  0  0
   25.0809   14.8670    1.4854 H   0  0  0  0  0
   23.7794   18.8636    6.3774 H   0  0  0  0  0
   17.5754   17.0134    3.8476 H   0  0  0  0  0
   27.0624   22.3971    0.7065 H   0  0  0  0  0
   25.7966   24.4815    0.2036 H   0  0  0  0  0
   23.4534   24.7177    0.9351 H   0  0  0  0  0
   22.3383   22.8934    2.1861 H   0  0  0  0  0
   23.0877   19.7807    2.2961 H   0  0  0  0  0
   20.8860   19.7249    6.7121 H   0  0  0  0  0
   22.3625   20.7568    6.8864 H   0  0  0  0  0
   21.3766   20.0725    9.0683 H   0  0  0  0  0
   23.0554   19.4693    8.8251 H   0  0  0  0  0
   20.4820   17.8972    8.4889 H   0  0  0  0  0
   21.6949   17.7165    9.8011 H   0  0  0  0  0
   21.8943   15.9716    8.0190 H   0  0  0  0  0
   23.3701   16.9816    8.1953 H   0  0  0  0  0
   22.8938   16.6627    5.8409 H   0  0  0  0  0
   21.2028   17.2672    6.0845 H   0  0  0  0  0
   21.1382   19.2525    1.2341 H   0  0  0  0  0
   18.7736   19.9366    0.9423 H   0  0  0  0  0
   19.9418   16.3297    4.1423 H   0  0  0  0  0
  1  3  4  0  0  0
  1  6  1  0  0  0
 27  1  4  0  0  0
  2  4  4  0  0  0
 27  2  4  0  0  0
  4  3  4  0  0  0
  3  7  4  0  0  0
  4  8  4  0  0  0
  6  5  1  0  0  0
  5 20  1  0  0  0
  5 21  2  0  0  0
  6 10  1  0  0  0
  7 29  4  0  0  0
  8  9  4  0  0  0
  9 28  1  0  0  0
  9 29  4  0  0  0
 10 22  1  0  0  0
 10 26  1  0  0  0
 12 11  4  0  0  0
 11 33  4  0  0  0
 11 34  1  0  0  0
 35 12  4  0  0  0
 15 13  4  0  0  0
 13 16  4  0  0  0
 15 14  1  0  0  0
 19 15  4  0  0  0
 17 16  4  0  0  0
 18 17  4  0  0  0
 19 18  4  0  0  0
 20 19  1  0  0  0
 22 23  1  0  0  0
 23 24  1  0  0  0
 25 24  1  0  0  0
 26 25  1  0  0  0
 31 27  1  0  0  0
 29 30  1  0  0  0
 31 32  4  0  0  0
 31 35  4  0  0  0
 32 33  4  0  0  0
  6 36  1  0  0  0
  7 37  1  0  0  0
  8 38  1  0  0  0
 10 39  1  0  0  0
 12 40  1  0  0  0
 13 41  1  0  0  0
 16 42  1  0  0  0
 17 43  1  0  0  0
 18 44  1  0  0  0
 20 45  1  0  0  0
 22 46  1  0  0  0
 22 47  1  0  0  0
 23 48  1  0  0  0
 23 49  1  0  0  0
 24 50  1  0  0  0
 24 51  1  0  0  0
 25 52  1  0  0  0
 25 53  1  0  0  0
 26 54  1  0  0  0
 26 55  1  0  0  0
 32 56  1  0  0  0
 33 57  1  0  0  0
 35 58  1  0  0  0
M  END
$$$$
