6qgk_ligand
  -I-interpret- 

 77 80  0  0  0  0  0  0  0  0999 V2000
   -2.2850   -2.4560   16.8900 C   0  0  0  0  0
   -2.2880   -1.7030   18.1630 C   0  0  0  0  0
   -0.8790   -1.5950   18.6730 C   0  0  0  0  0
   -0.8870   -0.5940   19.7900 C   0  0  0  0  0
    0.4870   -0.4560   20.4330 N   0  0  0  0  0
    1.0360   -1.5800   21.2440 C   0  0  0  0  0
    0.6370   -1.5000   22.7210 C   0  0  0  0  0
    1.4120   -2.5890   23.5430 C   0  0  0  0  0
    1.0140   -2.4340   25.0120 C   0  0  0  0  0
    1.1840    0.6740   20.2880 C   0  0  0  0  0
    2.2630    0.8830   20.8370 O   0  0  0  0  0
    0.7930    1.7520   19.3470 C   0  0  0  0  0
    0.6350    1.5150   18.0830 N   0  0  0  0  0
    0.5770    3.1000   19.6250 C   0  0  0  0  0
    0.3120    3.6660   18.3820 C   0  0  0  0  0
   -0.0270    5.0860   18.0890 C   0  0  0  0  0
    0.3470    2.6620   17.4770 N   0  0  0  0  0
    0.2520    2.7520   16.0210 C   0  0  0  0  0
   -0.8290    3.2170   15.3100 C   0  0  0  0  0
   -0.7150    3.2880   13.9730 C   0  0  0  0  0
    0.4070    2.8320   13.2940 C   0  0  0  0  0
    1.4900    2.3380   14.0400 C   0  0  0  0  0
    1.4070    2.3460   15.3920 C   0  0  0  0  0
    2.5820    1.8150   16.2160 C   0  0  0  0  0
    3.1740    2.5790   17.0140 O   0  0  0  0  0
    3.0040    0.5610   16.0320 N   0  0  0  0  0
    2.2560   -0.4270   15.2300 C   0  0  0  0  0
    2.0670   -1.7570   15.9270 C   0  0  0  0  0
    1.2850   -2.7200   15.3200 C   0  0  0  0  0
    1.1050   -3.9470   15.9320 C   0  0  0  0  0
    1.7380   -4.2080   17.1250 C   0  0  0  0  0
    2.4880   -3.2670   17.7830 C   0  0  0  0  0
    2.6720   -2.0260   17.1350 C   0  0  0  0  0
    3.4950   -0.9740   17.7950 C   0  0  0  0  0
    4.0980    0.0180   16.8380 C   0  0  0  0  0
    5.2100   -0.6570   16.0550 C   0  0  0  0  0
    6.0100    0.3790   15.4040 N   0  3  0  0  0
   -1.6692   -1.9306   16.1600 H   0  0  0  0  0
   -1.8783   -3.4529   17.0600 H   0  0  0  0  0
   -3.3053   -2.5375   16.5151 H   0  0  0  0  0
   -2.9045   -2.2237   18.8958 H   0  0  0  0  0
   -2.6960   -0.7057   17.9984 H   0  0  0  0  0
   -0.2060   -1.2764   17.8769 H   0  0  0  0  0
   -0.5239   -2.5627   19.0274 H   0  0  0  0  0
   -1.5895   -0.9341   20.5508 H   0  0  0  0  0
   -1.1735    0.3748   19.3808 H   0  0  0  0  0
    2.1235   -1.5295   21.1897 H   0  0  0  0  0
    0.6338   -2.5092   20.8404 H   0  0  0  0  0
   -0.4349   -1.6746   22.8139 H   0  0  0  0  0
    0.8867   -0.5121   23.1080 H   0  0  0  0  0
    2.4878   -2.4583   23.4258 H   0  0  0  0  0
    1.1582   -3.5866   23.1846 H   0  0  0  0  0
    1.2831   -1.4355   25.3566 H   0  0  0  0  0
   -0.0619   -2.5768   25.1126 H   0  0  0  0  0
    1.5383   -3.1796   25.6098 H   0  0  0  0  0
    0.6084    3.5973   20.5944 H   0  0  0  0  0
   -0.9406    5.3567   18.6182 H   0  0  0  0  0
    0.7894    5.7286   18.4187 H   0  0  0  0  0
   -0.1770    5.2085   17.0163 H   0  0  0  0  0
   -1.7475    3.5179   15.8139 H   0  0  0  0  0
   -1.5349    3.7202   13.3994 H   0  0  0  0  0
    0.4467    2.8568   12.2050 H   0  0  0  0  0
    2.3801    1.9556   13.5404 H   0  0  0  0  0
    2.8305   -0.6129   14.3226 H   0  0  0  0  0
    1.2652   -0.0128   15.0432 H   0  0  0  0  0
    0.8107   -2.5134   14.3606 H   0  0  0  0  0
    0.4664   -4.7015   15.4725 H   0  0  0  0  0
    1.6398   -5.2007   17.5642 H   0  0  0  0  0
    2.9225   -3.4681   18.7622 H   0  0  0  0  0
    4.3184   -1.4771   18.3019 H   0  0  0  0  0
    2.8369   -0.4199   18.4643 H   0  0  0  0  0
    4.5772    0.8622   17.3338 H   0  0  0  0  0
    4.7861   -1.3264   15.3065 H   0  0  0  0  0
    5.8358   -1.2446   16.7267 H   0  0  0  0  0
    6.7630   -0.0582   14.8727 H   0  0  0  0  0
    5.4169    0.9192   14.7740 H   0  0  0  0  0
    6.4063    0.9963   16.1127 H   0  0  0  0  0
  1  2  1  0  0  0
  2  3  1  0  0  0
  3  4  1  0  0  0
  4  5  1  0  0  0
  5  6  1  0  0  0
  5 10  1  0  0  0
  6  7  1  0  0  0
  7  8  1  0  0  0
  8  9  1  0  0  0
 10 11  2  0  0  0
 10 12  1  0  0  0
 12 13  4  0  0  0
 12 14  4  0  0  0
 13 17  4  0  0  0
 14 15  4  0  0  0
 15 16  1  0  0  0
 15 17  4  0  0  0
 17 18  1  0  0  0
 18 19  4  0  0  0
 18 23  4  0  0  0
 19 20  4  0  0  0
 20 21  4  0  0  0
 21 22  4  0  0  0
 22 23  4  0  0  0
 23 24  1  0  0  0
 24 25  2  0  0  0
 24 26  1  0  0  0
 26 27  1  0  0  0
 26 35  1  0  0  0
 27 28  1  0  0  0
 28 29  4  0  0  0
 28 33  4  0  0  0
 29 30  4  0  0  0
 30 31  4  0  0  0
 31 32  4  0  0  0
 32 33  4  0  0  0
 33 34  1  0  0  0
 34 35  1  0  0  0
 35 36  1  0  0  0
 36 37  1  0  0  0
  1 38  1  0  0  0
  1 39  1  0  0  0
  1 40  1  0  0  0
  2 41  1  0  0  0
  2 42  1  0  0  0
  3 43  1  0  0  0
  3 44  1  0  0  0
  4 45  1  0  0  0
  4 46  1  0  0  0
  6 47  1  0  0  0
  6 48  1  0  0  0
  7 49  1  0  0  0
  7 50  1  0  0  0
  8 51  1  0  0  0
  8 52  1  0  0  0
  9 53  1  0  0  0
  9 54  1  0  0  0
  9 55  1  0  0  0
 14 56  1  0  0  0
 16 57  1  0  0  0
 16 58  1  0  0  0
 16 59  1  0  0  0
 19 60  1  0  0  0
 20 61  1  0  0  0
 21 62  1  0  0  0
 22 63  1  0  0  0
 27 64  1  0  0  0
 27 65  1  0  0  0
 29 66  1  0  0  0
 30 67  1  0  0  0
 31 68  1  0  0  0
 32 69  1  0  0  0
 34 70  1  0  0  0
 34 71  1  0  0  0
 35 72  1  0  0  0
 36 73  1  0  0  0
 36 74  1  0  0  0
 37 75  1  0  0  0
 37 76  1  0  0  0
 37 77  1  0  0  0
M  END
$$$$
