3ewj_ligand
  -I-interpret- 

 59 64  0  0  0  0  0  0  0  0999 V2000
   48.3220   34.1510   39.5790 C   0  0  0  0  0
   48.3980   32.6310   39.5670 C   0  0  0  0  0
   48.3980   33.4070   38.2620 C   0  0  0  0  0
   49.4750   34.9150   40.1700 C   0  0  0  0  0
   50.6700   34.3040   39.9480 O   0  0  0  0  0
   49.4350   35.9670   40.8560 O   0  0  0  0  0
   47.1830   31.8040   39.8720 C   0  0  0  0  0
   47.5150   30.6990   40.5540 N   0  0  0  0  0
   46.0630   32.1100   39.5240 O   0  0  0  0  0
   48.9610   30.6530   40.8380 C   0  0  0  0  0
   49.5960   31.7490   39.9430 C   0  0  0  0  0
   49.1120   30.9790   42.3220 C   0  0  0  0  0
   50.1630   30.4550   43.0890 C   0  0  0  0  0
   50.2390   30.7420   44.4530 C   0  0  0  0  0
   49.2570   31.5740   45.0810 C   0  0  0  0  0
   48.2280   32.1270   44.3000 C   0  0  0  0  0
   48.1490   31.8260   42.9370 C   0  0  0  0  0
   49.2970   31.8520   46.4360 O   0  0  0  0  0
   50.2610   31.1670   47.2500 C   0  0  0  0  0
   49.8780   29.6820   47.4790 C   0  0  0  0  0
   49.1090   26.9690   47.9050 N   0  0  0  0  0
   48.1960   27.9230   47.5620 C   0  0  0  0  0
   48.5380   29.3010   47.3140 C   0  0  0  0  0
   50.3850   27.3250   48.0150 C   0  0  0  0  0
   50.8130   28.6620   47.8330 C   0  0  0  0  0
   52.2000   28.9310   48.0070 C   0  0  0  0  0
   53.1150   27.9380   48.3400 C   0  0  0  0  0
   52.7110   26.6380   48.4990 C   0  0  0  0  0
   51.3400   26.3560   48.3600 C   0  0  0  0  0
   46.7990   27.5130   47.3460 C   0  0  0  0  0
   46.4000   26.1670   47.3220 C   0  0  0  0  0
   45.0380   25.8520   47.0900 C   0  0  0  0  0
   44.0980   26.8570   46.8400 C   0  0  0  0  0
   44.4950   28.1810   46.8370 C   0  0  0  0  0
   45.8260   28.5170   47.0930 C   0  0  0  0  0
   47.6456   34.9175   39.9572 H   0  0  0  0  0
   48.9714   33.4450   37.3358 H   0  0  0  0  0
   47.8793   33.3906   37.3035 H   0  0  0  0  0
   50.5324   33.5199   39.4115 H   0  0  0  0  0
   46.8506   29.9801   40.8406 H   0  0  0  0  0
   49.4373   29.6940   40.6341 H   0  0  0  0  0
   50.3837   32.3041   40.4524 H   0  0  0  0  0
   50.1056   31.3377   39.0717 H   0  0  0  0  0
   50.9191   29.8248   42.6208 H   0  0  0  0  0
   51.0544   30.3284   45.0464 H   0  0  0  0  0
   47.4925   32.7896   44.7562 H   0  0  0  0  0
   47.3401   32.2453   42.3387 H   0  0  0  0  0
   50.3009   31.6621   48.2203 H   0  0  0  0  0
   51.2222   31.1957   46.7368 H   0  0  0  0  0
   47.7807   30.0230   47.0084 H   0  0  0  0  0
   52.5578   29.9520   47.8745 H   0  0  0  0  0
   54.1651   28.1965   48.4761 H   0  0  0  0  0
   53.4281   25.8490   48.7256 H   0  0  0  0  0
   51.0022   25.3335   48.5287 H   0  0  0  0  0
   47.1299   25.3731   47.4801 H   0  0  0  0  0
   44.7179   24.8102   47.1066 H   0  0  0  0  0
   43.0569   26.5973   46.6484 H   0  0  0  0  0
   43.7663   28.9658   46.6340 H   0  0  0  0  0
   46.1231   29.5657   47.0988 H   0  0  0  0  0
  2  1  1  0  0  0
  3  1  1  0  0  0
  1  4  1  0  0  0
  2  3  1  0  0  0
  2  7  1  0  0  0
 11  2  1  0  0  0
  4  5  1  0  0  0
  4  6  2  0  0  0
  8  7  1  0  0  0
  7  9  2  0  0  0
 10  8  1  0  0  0
 10 11  1  0  0  0
 12 10  1  0  0  0
 13 12  4  0  0  0
 17 12  4  0  0  0
 14 13  4  0  0  0
 15 14  4  0  0  0
 15 16  4  0  0  0
 18 15  1  0  0  0
 16 17  4  0  0  0
 19 18  1  0  0  0
 20 19  1  0  0  0
 23 20  4  0  0  0
 20 25  4  0  0  0
 22 21  4  0  0  0
 21 24  4  0  0  0
 22 23  4  0  0  0
 22 30  1  0  0  0
 24 25  4  0  0  0
 24 29  4  0  0  0
 25 26  4  0  0  0
 26 27  4  0  0  0
 27 28  4  0  0  0
 28 29  4  0  0  0
 30 31  4  0  0  0
 30 35  4  0  0  0
 31 32  4  0  0  0
 32 33  4  0  0  0
 33 34  4  0  0  0
 34 35  4  0  0  0
  1 36  1  0  0  0
  3 37  1  0  0  0
  3 38  1  0  0  0
  5 39  1  0  0  0
  8 40  1  0  0  0
 10 41  1  0  0  0
 11 42  1  0  0  0
 11 43  1  0  0  0
 13 44  1  0  0  0
 14 45  1  0  0  0
 16 46  1  0  0  0
 17 47  1  0  0  0
 19 48  1  0  0  0
 19 49  1  0  0  0
 23 50  1  0  0  0
 26 51  1  0  0  0
 27 52  1  0  0  0
 28 53  1  0  0  0
 29 54  1  0  0  0
 31 55  1  0  0  0
 32 56  1  0  0  0
 33 57  1  0  0  0
 34 58  1  0  0  0
 35 59  1  0  0  0
M  END
$$$$
