### 
### Created by X-TOOL on Mon Sep 10 21:13:07 2018
### 

@<TRIPOS>MOLECULE
2yak_ligand
   64    72     1     0     0
SMALL
GAST_HUCK


@<TRIPOS>ATOM
      1 C         -11.0700  -12.0330   20.3670 C.1       1 OSV        -0.2790
      2 N         -10.8450  -11.1470   19.6550 N.2       1 OSV        -0.5665
      3 S         -11.4610  -13.3430   21.4510 S.2       1 OSV        -0.1546
      4 C6        -14.6070   -8.9640   18.2810 C.3       1 OSV         0.0003
      5 C7        -13.9120   -8.1130   17.2150 C.3       1 OSV         0.0026
      6 C8        -11.5360   -7.1840   17.1280 C.3       1 OSV         0.0003
      7 C9        -11.2280   -6.8970   18.6330 C.3       1 OSV        -0.0273
      8 C10       -11.7990   -8.1880   20.8320 C.3       1 OSV        -0.2664
      9 C11       -13.2690   -8.5370   20.5430 C.3       1 OSV        -0.1235
     10 S16       -13.3920   -9.5760   19.2480 S.3       1 OSV        -0.1916
     11 S17       -12.3460   -8.6380   16.9560 S.3       1 OSV        -0.1592
     12 S18       -10.9840   -8.3470   19.4230 S.3       1 OSV        -0.3489
     13 CAA       -14.8370  -17.5040   15.2610 C.3       1 OSV        -0.0350
     14 CAB       -14.6830  -15.8320   13.1320 C.3       1 OSV        -0.0350
     15 OAC        -7.5290  -12.0560   12.6590 O.2       1 OSV        -0.4095
     16 OAD       -11.2350  -14.5830   12.6520 O.2       1 OSV        -0.3983
     17 F1         -6.6240   -8.5240   16.0780 F         1 OSV        -0.1963
     18 CAF       -15.0770  -13.6960   16.8990 C.ar      1 OSV        -0.0439
     19 CAG       -14.2510  -12.6990   17.3520 C.ar      1 OSV        -0.0455
     20 CAH        -8.6710   -9.0750   17.1290 C.ar      1 OSV        -0.0263
     21 CAI        -7.9630  -10.2720   15.1240 C.ar      1 OSV        -0.0606
     22 CAJ       -13.5190  -14.1580   15.0780 C.ar      1 OSV        -0.0424
     23 NAK        -9.8760   -9.8660   17.1220 N.ar      1 OSV        -0.3719
     24 NAL        -9.2710  -13.4700   12.3830 N.am      1 OSV        -0.2198
     25 NAM       -12.1900  -11.5680   16.9670 N.pl3     1 OSV        -0.1621
     26 OAN       -15.6340  -15.4330   15.4590 O.3       1 OSV        -0.3240
     27 CAO        -7.7390   -9.2830   16.1140 C.ar      1 OSV         0.1011
     28 CAP       -14.7070  -14.4490   15.8070 C.ar      1 OSV         0.0764
     29 CAQ        -8.6210  -12.5060   13.0330 C.2       1 OSV         0.1796
     30 CAR       -10.4220  -13.7230   13.0390 C.2       1 OSV         0.1915
     31 CAS       -13.0770  -12.4650   16.6800 C.ar      1 OSV         0.0831
     32 CAT       -12.6760  -13.1730   15.5310 C.ar      1 OSV        -0.0185
     33 CAU        -9.1090  -11.0760   15.1410 C.ar      1 OSV        -0.0511
     34 CAV       -10.0430  -10.8690   16.1350 C.ar      1 OSV         0.0133
     35 CAW       -11.1850  -11.6420   16.1260 C.ar      1 OSV         0.0845
     36 CAX        -9.3520  -12.0810   14.1720 C.ar      1 OSV         0.0005
     37 CAY       -10.5180  -12.8790   14.1760 C.ar      1 OSV         0.0026
     38 CAZ       -11.4530  -12.6410   15.1550 C.ar      1 OSV        -0.0253
     39 CBA       -15.4270  -16.4060   14.3630 C.3       1 OSV         0.0729
     40 RU        -11.6880   -9.8710   18.2930 Ru        1 OSV         6.0000
     41 H         -15.1907   -9.7649   17.8271 H         1 OSV         0.0383
     42 H         -15.3116   -8.3694   18.8624 H         1 OSV         0.0383
     43 H         -13.8818   -7.0789   17.5582 H         1 OSV         0.0384
     44 H         -14.4684   -8.1989   16.2816 H         1 OSV         0.0384
     45 H         -10.5952   -7.2381   16.5802 H         1 OSV         0.0383
     46 H         -12.1640   -6.3829   16.7381 H         1 OSV         0.0383
     47 H         -12.0667   -6.3680   19.0857 H         1 OSV         0.0359
     48 H         -10.3339   -6.2789   18.7141 H         1 OSV         0.0359
     49 H         -11.3800   -7.8911   21.7934 H         1 OSV        -0.1954
     50 H         -13.8065   -7.6186   20.3068 H         1 OSV         0.0035
     51 H         -13.6926   -9.0224   21.4223 H         1 OSV         0.0035
     52 H         -14.6483  -18.3968   14.6648 H         1 OSV         0.0258
     53 H         -13.9018  -17.1520   15.6964 H         1 OSV         0.0258
     54 H         -15.5437  -17.7396   16.0567 H         1 OSV         0.0258
     55 H         -13.7398  -15.3898   13.4528 H         1 OSV         0.0258
     56 H         -14.4863  -16.6346   12.4212 H         1 OSV         0.0258
     57 H         -15.3011  -15.0691   12.6587 H         1 OSV         0.0258
     58 H         -16.0239  -13.8918   17.4021 H         1 OSV         0.0506
     59 H         -14.5207  -12.1059   18.2258 H         1 OSV         0.0509
     60 H          -8.4934   -8.3335   17.9079 H         1 OSV         0.0462
     61 H          -7.2269  -10.4097   14.3320 H         1 OSV         0.0278
     62 H         -13.2811  -14.7114   14.1696 H         1 OSV         0.0476
     63 H          -8.9526  -13.9372   11.5340 H         1 OSV         0.2177
     64 H         -16.2576  -16.7651   13.7553 H         1 OSV         0.0639
@<TRIPOS>BOND
     1    2    1 2  
     2    1    3 2  
     3    5    4 1  
     4   10    4 1  
     5   11    5 1  
     6    7    6 1  
     7   11    6 1  
     8   12    7 1  
     9    8    9 1  
    10   12    8 1  
    11   10    9 1  
    12   39   13 1  
    13   39   14 1  
    14   29   15 2  
    15   30   16 2  
    16   27   17 1  
    17   19   18 ar 
    18   28   18 ar 
    19   31   19 ar 
    20   23   20 ar 
    21   20   27 ar 
    22   27   21 ar 
    23   33   21 ar 
    24   22   28 ar 
    25   32   22 ar 
    26   23   34 ar 
    27   29   24 am 
    28   30   24 am 
    29   25   31 1  
    30   35   25 1  
    31   28   26 1  
    32   26   39 1  
    33   36   29 1  
    34   37   30 1  
    35   32   31 ar 
    36   38   32 1  
    37   34   33 ar 
    38   33   36 ar 
    39   34   35 ar 
    40   35   38 ar 
    41   36   37 ar 
    42   38   37 ar 
    43   40    2 1  
    44   40   10 1  
    45   40   11 1  
    46   40   12 1  
    47   40   23 1  
    48   40   25 1  
    49    4   41 1  
    50    4   42 1  
    51    5   43 1  
    52    5   44 1  
    53    6   45 1  
    54    6   46 1  
    55    7   47 1  
    56    7   48 1  
    57    8   49 1  
    58    9   50 1  
    59    9   51 1  
    60   13   52 1  
    61   13   53 1  
    62   13   54 1  
    63   14   55 1  
    64   14   56 1  
    65   14   57 1  
    66   18   58 1  
    67   19   59 1  
    68   20   60 1  
    69   21   61 1  
    70   22   62 1  
    71   24   63 1  
    72   39   64 1  
@<TRIPOS>SUBSTRUCTURE
     1 OSV         1

