2yak_ligand
  -I-interpret- 

 65 73  0  0  0  0  0  0  0  0999 V2000
  -11.0700  -12.0330   20.3670 C   0  0  0  0  0
  -10.8450  -11.1470   19.6550 N   0  0  0  0  0
  -11.4610  -13.3430   21.4510 S   0  0  0  0  0
  -14.6070   -8.9640   18.2810 C   0  0  0  0  0
  -13.9120   -8.1130   17.2150 C   0  0  0  0  0
  -11.5360   -7.1840   17.1280 C   0  0  0  0  0
  -11.2280   -6.8970   18.6330 C   0  0  0  0  0
  -11.7990   -8.1880   20.8320 C   0  0  0  0  0
  -13.2690   -8.5370   20.5430 C   0  0  0  0  0
  -13.3920   -9.5760   19.2480 S   0  0  0  0  0
  -12.3460   -8.6380   16.9560 S   0  0  0  0  0
  -10.9840   -8.3470   19.4230 S   0  0  0  0  0
  -14.8370  -17.5040   15.2610 C   0  0  0  0  0
  -14.6830  -15.8320   13.1320 C   0  0  0  0  0
   -7.5290  -12.0560   12.6590 O   0  0  0  0  0
  -11.2350  -14.5830   12.6520 O   0  0  0  0  0
   -6.6240   -8.5240   16.0780 F   0  0  0  0  0
  -15.0770  -13.6960   16.8990 C   0  0  0  0  0
  -14.2510  -12.6990   17.3520 C   0  0  0  0  0
   -8.6710   -9.0750   17.1290 C   0  0  0  0  0
   -7.9630  -10.2720   15.1240 C   0  0  0  0  0
  -13.5190  -14.1580   15.0780 C   0  0  0  0  0
   -9.8760   -9.8660   17.1220 N   0  0  0  0  0
   -9.2710  -13.4700   12.3830 N   0  0  0  0  0
  -12.1900  -11.5680   16.9670 N   0  0  0  0  0
  -15.6340  -15.4330   15.4590 O   0  0  0  0  0
   -7.7390   -9.2830   16.1140 C   0  0  0  0  0
  -14.7070  -14.4490   15.8070 C   0  0  0  0  0
   -8.6210  -12.5060   13.0330 C   0  0  0  0  0
  -10.4220  -13.7230   13.0390 C   0  0  0  0  0
  -13.0770  -12.4650   16.6800 C   0  0  0  0  0
  -12.6760  -13.1730   15.5310 C   0  0  0  0  0
   -9.1090  -11.0760   15.1410 C   0  0  0  0  0
  -10.0430  -10.8690   16.1350 C   0  0  0  0  0
  -11.1850  -11.6420   16.1260 C   0  0  0  0  0
   -9.3520  -12.0810   14.1720 C   0  0  0  0  0
  -10.5180  -12.8790   14.1760 C   0  0  0  0  0
  -11.4530  -12.6410   15.1550 C   0  0  0  0  0
  -15.4270  -16.4060   14.3630 C   0  0  0  0  0
  -11.6880   -9.8710   18.2930 Ru  0  0  0  0  0
  -15.1907   -9.7649   17.8271 H   0  0  0  0  0
  -15.3116   -8.3694   18.8624 H   0  0  0  0  0
  -13.8818   -7.0789   17.5582 H   0  0  0  0  0
  -14.4684   -8.1989   16.2816 H   0  0  0  0  0
  -10.5952   -7.2381   16.5802 H   0  0  0  0  0
  -12.1640   -6.3829   16.7381 H   0  0  0  0  0
  -12.0667   -6.3680   19.0857 H   0  0  0  0  0
  -10.3339   -6.2789   18.7141 H   0  0  0  0  0
  -11.3874   -8.8514   21.5926 H   0  0  0  0  0
  -11.7121   -7.1713   21.2152 H   0  0  0  0  0
  -13.8065   -7.6186   20.3068 H   0  0  0  0  0
  -13.6926   -9.0224   21.4223 H   0  0  0  0  0
  -14.6483  -18.3968   14.6648 H   0  0  0  0  0
  -13.9018  -17.1520   15.6964 H   0  0  0  0  0
  -15.5437  -17.7396   16.0567 H   0  0  0  0  0
  -13.7398  -15.3898   13.4528 H   0  0  0  0  0
  -14.4863  -16.6346   12.4212 H   0  0  0  0  0
  -15.3011  -15.0691   12.6587 H   0  0  0  0  0
  -16.0239  -13.8918   17.4021 H   0  0  0  0  0
  -14.5207  -12.1059   18.2258 H   0  0  0  0  0
   -8.4934   -8.3335   17.9079 H   0  0  0  0  0
   -7.2269  -10.4097   14.3320 H   0  0  0  0  0
  -13.2811  -14.7114   14.1696 H   0  0  0  0  0
   -8.9526  -13.9372   11.5340 H   0  0  0  0  0
  -16.2576  -16.7651   13.7553 H   0  0  0  0  0
  2  1  2  0  0  0
  1  3  2  0  0  0
  5  4  1  0  0  0
 10  4  1  0  0  0
 11  5  1  0  0  0
  7  6  1  0  0  0
 11  6  1  0  0  0
 12  7  1  0  0  0
  8  9  1  0  0  0
 12  8  1  0  0  0
 10  9  1  0  0  0
 39 13  1  0  0  0
 39 14  1  0  0  0
 29 15  2  0  0  0
 30 16  2  0  0  0
 27 17  1  0  0  0
 19 18  4  0  0  0
 28 18  4  0  0  0
 31 19  4  0  0  0
 23 20  4  0  0  0
 20 27  4  0  0  0
 27 21  4  0  0  0
 33 21  4  0  0  0
 22 28  4  0  0  0
 32 22  4  0  0  0
 23 34  4  0  0  0
 29 24  1  0  0  0
 30 24  1  0  0  0
 25 31  4  0  0  0
 35 25  4  0  0  0
 28 26  1  0  0  0
 26 39  1  0  0  0
 36 29  1  0  0  0
 37 30  1  0  0  0
 32 31  4  0  0  0
 38 32  4  0  0  0
 34 33  4  0  0  0
 33 36  4  0  0  0
 34 35  4  0  0  0
 35 38  4  0  0  0
 36 37  4  0  0  0
 38 37  4  0  0  0
 40  2  1  0  0  0
 40 10  1  0  0  0
 40 11  1  0  0  0
 40 12  1  0  0  0
 40 23  1  0  0  0
 40 25  1  0  0  0
  4 41  1  0  0  0
  4 42  1  0  0  0
  5 43  1  0  0  0
  5 44  1  0  0  0
  6 45  1  0  0  0
  6 46  1  0  0  0
  7 47  1  0  0  0
  7 48  1  0  0  0
  8 49  1  0  0  0
  8 50  1  0  0  0
  9 51  1  0  0  0
  9 52  1  0  0  0
 13 53  1  0  0  0
 13 54  1  0  0  0
 13 55  1  0  0  0
 14 56  1  0  0  0
 14 57  1  0  0  0
 14 58  1  0  0  0
 18 59  1  0  0  0
 19 60  1  0  0  0
 20 61  1  0  0  0
 21 62  1  0  0  0
 22 63  1  0  0  0
 24 64  1  0  0  0
 39 65  1  0  0  0
M  END
$$$$
