1nfu_ligand
  -I-interpret- 

 49 52  0  0  0  0  0  0  0  0999 V2000
    7.7990    0.4050   16.6500 N   0  0  0  0  0
    6.6810    1.0070   17.0690 C   0  0  0  0  0
    5.6500    1.1520   16.2090 N   0  0  0  0  0
    6.5450    1.5100   18.4550 C   0  0  0  0  0
    5.6790    2.6020   18.7490 C   0  0  0  0  0
    5.5380    3.0890   20.0770 C   0  0  0  0  0
    6.2730    2.4720   21.1150 C   0  0  0  0  0
    7.1300    1.3950   20.8350 C   0  0  0  0  0
    7.2720    0.9110   19.5180 C   0  0  0  0  0
    4.6130    4.2550   20.3660 C   0  0  0  0  0
    5.2400    5.3030   21.2030 N   0  0  0  0  0
    4.9050    5.4240   22.5450 C   0  0  0  0  0
    4.0950    4.6980   23.1190 O   0  0  0  0  0
    5.6160    6.5420   23.3200 C   0  0  0  0  0
    5.9860    7.7240   22.4970 N   0  0  0  0  0
    6.8820    7.2660   21.3990 C   0  0  0  0  0
    6.2230    6.1930   20.5160 C   0  0  0  0  0
    6.5220    9.0100   23.3700 S   0  0  0  0  0
    6.7240   10.0460   22.4060 O   0  0  0  0  0
    5.5370    9.2960   24.3990 O   0  0  0  0  0
    8.0180    8.5900   24.0920 C   0  0  0  0  0
    8.0470    7.9730   25.3790 C   0  0  0  0  0
    9.4290    7.7150   25.7380 C   0  0  0  0  0
   10.3100    8.1500   24.7190 C   0  0  0  0  0
    9.5610    8.8390   23.3840 S   0  0  0  0  0
   11.7310    7.9480   24.9430 C   0  0  0  0  0
   12.1760    7.3380   26.1300 C   0  0  0  0  0
   13.8710    7.1120   26.3290 Cl  0  0  0  0  0
   11.2610    6.9150   27.1380 C   0  0  0  0  0
    9.8670    7.1140   26.9230 C   0  0  0  0  0
    8.5835    0.2834   17.2904 H   0  0  0  0  0
    5.7302    0.8043   15.2535 H   0  0  0  0  0
    4.7911    1.6092   16.5150 H   0  0  0  0  0
    5.1154    3.0717   17.9428 H   0  0  0  0  0
    6.1741    2.8341   22.1383 H   0  0  0  0  0
    7.6914    0.9282   21.6444 H   0  0  0  0  0
    7.9414    0.0750   19.3153 H   0  0  0  0  0
    3.7529    3.8670   20.9117 H   0  0  0  0  0
    4.3465    4.7097   19.4119 H   0  0  0  0  0
    6.5433    6.1209   23.7084 H   0  0  0  0  0
    4.9224    6.8906   24.0852 H   0  0  0  0  0
    7.7741    6.8313   21.8500 H   0  0  0  0  0
    7.1127    8.1260   20.7703 H   0  0  0  0  0
    5.6690    6.7265   19.7436 H   0  0  0  0  0
    7.0273    5.5486   20.1612 H   0  0  0  0  0
    7.1762    7.7354   25.9901 H   0  0  0  0  0
   12.4523    8.2690   24.1915 H   0  0  0  0  0
   11.6209    6.4486   28.0550 H   0  0  0  0  0
    9.1457    6.7998   27.6774 H   0  0  0  0  0
  1  2  2  0  0  0
  2  3  1  0  0  0
  2  4  1  0  0  0
  4  5  4  0  0  0
  4  9  4  0  0  0
  5  6  4  0  0  0
  6  7  4  0  0  0
  6 10  1  0  0  0
  7  8  4  0  0  0
  8  9  4  0  0  0
 10 11  1  0  0  0
 11 12  1  0  0  0
 11 17  1  0  0  0
 12 13  2  0  0  0
 12 14  1  0  0  0
 14 15  1  0  0  0
 15 16  1  0  0  0
 15 18  1  0  0  0
 16 17  1  0  0  0
 18 19  2  0  0  0
 18 20  2  0  0  0
 18 21  1  0  0  0
 21 22  4  0  0  0
 21 25  4  0  0  0
 22 23  4  0  0  0
 23 24  4  0  0  0
 23 30  4  0  0  0
 24 25  4  0  0  0
 24 26  4  0  0  0
 26 27  4  0  0  0
 27 28  1  0  0  0
 27 29  4  0  0  0
 29 30  4  0  0  0
  1 31  1  0  0  0
  3 32  1  0  0  0
  3 33  1  0  0  0
  5 34  1  0  0  0
  7 35  1  0  0  0
  8 36  1  0  0  0
  9 37  1  0  0  0
 10 38  1  0  0  0
 10 39  1  0  0  0
 14 40  1  0  0  0
 14 41  1  0  0  0
 16 42  1  0  0  0
 16 43  1  0  0  0
 17 44  1  0  0  0
 17 45  1  0  0  0
 22 46  1  0  0  0
 26 47  1  0  0  0
 29 48  1  0  0  0
 30 49  1  0  0  0
M  END
$$$$
