1l83_ligand
  -I-interpret- 

 12 12  0  0  0  0  0  0  0  0999 V2000
   27.3850    5.8810    2.9280 C   0  0  0  0  0
   26.4080    5.0860    3.5120 C   0  0  0  0  0
   27.8910    6.9730    3.6200 C   0  0  0  0  0
   25.9570    5.3520    4.8050 C   0  0  0  0  0
   27.4410    7.2400    4.9130 C   0  0  0  0  0
   26.4900    6.4180    5.5200 C   0  0  0  0  0
   27.7537    5.6484    1.9290 H   0  0  0  0  0
   25.9899    4.2471    2.9556 H   0  0  0  0  0
   28.6362    7.6185    3.1552 H   0  0  0  0  0
   25.1873    4.7244    5.2542 H   0  0  0  0  0
   27.8360    8.0993    5.4550 H   0  0  0  0  0
   26.1689    6.6101    6.5438 H   0  0  0  0  0
  3  5  4  0  0  0
  5  6  4  0  0  0
  6  4  4  0  0  0
  4  2  4  0  0  0
  2  1  4  0  0  0
  3  1  4  0  0  0
  1  7  1  0  0  0
  2  8  1  0  0  0
  3  9  1  0  0  0
  4 10  1  0  0  0
  5 11  1  0  0  0
  6 12  1  0  0  0
M  END
$$$$
