### 
### Created by X-TOOL on Mon Sep 10 21:13:07 2018
### 

@<TRIPOS>MOLECULE
3szm_ligand
   97    97     1     0     0
SMALL
GAST_HUCK


@<TRIPOS>ATOM
      1 N          24.6150    6.6810   65.4290 N.4       1 GLN         0.2380
      2 CA         25.8090    7.2370   66.0610 C.3       1 GLN         0.0671
      3 C          25.4580    8.1330   67.2560 C.2       1 GLN         0.2268
      4 O          24.6820    9.0880   67.1370 O.2       1 GLN        -0.3907
      5 CB         26.6420    8.0300   65.0480 C.3       1 GLN         0.0247
      6 CG         25.8980    9.1850   64.3940 C.3       1 GLN         0.0443
      7 CD         24.8390    8.7210   63.4100 C.2       1 GLN         0.1738
      8 OE1        24.8580    7.5790   62.9490 O.2       1 GLN        -0.3973
      9 NE2        23.9080    9.6090   63.0850 N.am      1 GLN        -0.3009
     10 N          26.0550    7.8220   68.4050 N.am      1 ALA        -0.2613
     11 CA         25.8100    8.5680   69.6350 C.3       1 ALA         0.1283
     12 C          26.4740    9.9420   69.5930 C.2       1 ALA         0.2037
     13 O          27.5380   10.1110   68.9930 O.2       1 ALA        -0.3944
     14 CB         26.3090    7.7780   70.8390 C.3       1 ALA        -0.0244
     15 N          25.8430   10.9230   70.2310 N.am      1 SEP        -0.2613
     16 CA         26.4250   12.2560   70.3200 C.3       1 SEP         0.1586
     17 CB         25.5080   13.2070   71.0970 C.3       1 SEP         0.1184
     18 OG         24.2680   13.3410   70.4270 O.3       1 SEP        -0.2714
     19 C          27.8260   12.1810   70.9370 C.2       1 SEP         0.2065
     20 O          28.0540   11.4930   71.9310 O.2       1 SEP        -0.3943
     21 P          23.0350   13.8920   71.3270 P.3       1 SEP         0.2010
     22 O1P        23.5010   15.1790   72.1850 O.co2     1 SEP        -0.5537
     23 O2P        22.5540   12.7300   72.3060 O.co2     1 SEP        -0.5537
     24 O3P        21.8590   14.3260   70.3230 O.co2     1 SEP        -0.5537
     25 N          28.7650   12.8870   70.3220 N.am      1 GLN        -0.2635
     26 CA         30.1500   12.8420   70.7500 C.3       1 GLN         0.1330
     27 C          30.2580   13.4790   72.1220 C.2       1 GLN         0.2040
     28 O          29.5220   14.4160   72.4510 O.2       1 GLN        -0.3944
     29 CB         31.0520   13.5420   69.7210 C.3       1 GLN         0.0045
     30 CG         32.5250   13.3970   69.9910 C.3       1 GLN         0.0412
     31 CD         33.3790   13.9010   68.8390 C.2       1 GLN         0.1737
     32 OE1        32.8640   14.2270   67.7640 O.2       1 GLN        -0.3973
     33 NE2        34.6970   13.9690   69.0610 N.am      1 GLN        -0.3009
     34 N          31.1540   12.9300   72.9260 N.am      1 GLU        -0.2636
     35 CA         31.5050   13.5010   74.2070 C.3       1 GLU         0.1324
     36 C          32.8160   14.2970   74.0680 C.2       1 GLU         0.2036
     37 O          33.8380   13.7730   73.6270 O.2       1 GLU        -0.3944
     38 CB         31.6870   12.3730   75.2100 C.3       1 GLU        -0.0008
     39 CG         32.0420   12.8300   76.6150 C.3       1 GLU         0.0044
     40 CD         32.2750   11.6630   77.5740 C.2       1 GLU         0.0350
     41 OE1        32.7700   10.5900   77.1300 O.co2     1 GLU        -0.5690
     42 OE2        31.9460   11.8280   78.7720 O.co2     1 GLU        -0.5690
     43 N          32.7860   15.5680   74.4410 N.am      1 TYR        -0.2679
     44 CA         33.9930   16.3910   74.4310 C.3       1 TYR         0.1025
     45 C          34.5480   16.6210   75.8290 C.2       1 TYR         0.0619
     46 O          35.6220   17.1900   75.9730 O.co2     1 TYR        -0.5665
     47 CB         33.6890   17.7240   73.7670 C.3       1 TYR         0.0108
     48 CG         33.1950   17.5880   72.3510 C.ar      1 TYR        -0.0499
     49 CD1        31.8260   17.5570   72.0640 C.ar      1 TYR        -0.0686
     50 CD2        34.0880   17.4790   71.2920 C.ar      1 TYR        -0.0686
     51 CE1        31.3540   17.4360   70.7390 C.ar      1 TYR        -0.0398
     52 CE2        33.6300   17.3520   69.9590 C.ar      1 TYR        -0.0398
     53 CZ         32.2600   17.3270   69.6920 C.ar      1 TYR         0.0805
     54 OH         31.8020   17.2160   68.3860 O.3       1 TYR        -0.3376
     55 OXT        33.9570   16.2670   76.8500 O.co2     1 TYR        -0.5665
     56 H          24.0775    6.1587   66.1208 H         1 GLN         0.2015
     57 H          24.0447    7.4398   65.0558 H         1 GLN         0.2015
     58 H          24.8921    6.0577   64.6707 H         1 GLN         0.2015
     59 H          26.3959    6.3952   66.4285 H         1 GLN         0.1100
     60 H          26.9242    7.3391   64.2536 H         1 GLN         0.0370
     61 H          27.4852    8.4575   65.5905 H         1 GLN         0.0370
     62 H          26.6256    9.7821   63.8443 H         1 GLN         0.0506
     63 H          25.3977    9.7484   65.1817 H         1 GLN         0.0506
     64 H          23.1692    9.3563   62.4287 H         1 GLN         0.1814
     65 H          23.9312   10.5442   63.4915 H         1 GLN         0.1814
     66 H          26.7051    7.0363   68.4260 H         1 ALA         0.1884
     67 H          24.7344    8.7178   69.7280 H         1 ALA         0.0797
     68 H          25.7837    6.8242   70.8892 H         1 ALA         0.0277
     69 H          27.3794    7.5998   70.7367 H         1 ALA         0.0277
     70 H          26.1195    8.3470   71.7492 H         1 ALA         0.0277
     71 H          24.9381   10.7399   70.6646 H         1 SEP         0.1884
     72 H          26.5242   12.6630   69.3137 H         1 SEP         0.0827
     73 H          25.9841   14.1849   71.1684 H         1 SEP         0.0662
     74 H          25.3344   12.8022   72.0941 H         1 SEP         0.0662
     75 H          28.5073   13.4753   69.5296 H         1 GLN         0.1883
     76 H          30.4886   11.8082   70.8183 H         1 GLN         0.0801
     77 H          30.8210   14.6064   69.7627 H         1 GLN         0.0337
     78 H          30.8555   13.0790   68.7540 H         1 GLN         0.0337
     79 H          32.7391   12.3374   70.1305 H         1 GLN         0.0504
     80 H          32.7656   13.9902   70.8732 H         1 GLN         0.0504
     81 H          35.3215   14.3010   68.3260 H         1 GLN         0.1814
     82 H          35.0770   13.6889   69.9652 H         1 GLN         0.1814
     83 H          31.6154   12.0697   72.6303 H         1 GLU         0.1883
     84 H          30.7171   14.1718   74.5495 H         1 GLU         0.0801
     85 H          32.5160   11.7610   74.8547 H         1 GLU         0.0330
     86 H          30.7338   11.8485   75.2765 H         1 GLU         0.0330
     87 H          31.2060   13.4156   76.9976 H         1 GLU         0.0433
     88 H          32.9664   13.4045   76.5564 H         1 GLU         0.0433
     89 H          31.9025   15.9801   74.7411 H         1 TYR         0.1877
     90 H          34.7562   15.8547   73.8671 H         1 TYR         0.0747
     91 H          34.6166   18.2956   73.7378 H         1 TYR         0.0446
     92 H          32.9009   18.2068   74.3449 H         1 TYR         0.0446
     93 H          31.1082   17.6278   72.8812 H         1 TYR         0.0530
     94 H          35.1595   17.4915   71.4914 H         1 TYR         0.0530
     95 H          30.2826   17.4282   70.5385 H         1 TYR         0.0525
     96 H          34.3465   17.2738   69.1413 H         1 TYR         0.0525
     97 H          32.1256   16.3973   68.0031 H         1 TYR         0.2458
@<TRIPOS>BOND
     1    1    2 1  
     2    2    3 1  
     3    2    5 1  
     4    3    4 2  
     5    3   10 am 
     6    5    6 1  
     7    6    7 1  
     8    7    8 2  
     9    7    9 am 
    10   10   11 1  
    11   11   12 1  
    12   11   14 1  
    13   12   13 2  
    14   12   15 am 
    15   15   16 1  
    16   16   17 1  
    17   16   19 1  
    18   17   18 1  
    19   18   21 1  
    20   19   20 2  
    21   19   25 am 
    22   21   22 ar 
    23   21   23 ar 
    24   21   24 ar 
    25   25   26 1  
    26   26   27 1  
    27   26   29 1  
    28   27   28 2  
    29   27   34 am 
    30   29   30 1  
    31   30   31 1  
    32   31   32 2  
    33   31   33 am 
    34   34   35 1  
    35   35   36 1  
    36   35   38 1  
    37   36   37 2  
    38   36   43 am 
    39   38   39 1  
    40   39   40 1  
    41   40   41 ar 
    42   40   42 ar 
    43   43   44 1  
    44   44   45 1  
    45   44   47 1  
    46   45   46 ar 
    47   45   55 ar 
    48   47   48 1  
    49   48   49 ar 
    50   48   50 ar 
    51   49   51 ar 
    52   50   52 ar 
    53   51   53 ar 
    54   52   53 ar 
    55   53   54 1  
    56    1   56 1  
    57    1   57 1  
    58    1   58 1  
    59    2   59 1  
    60    5   60 1  
    61    5   61 1  
    62    6   62 1  
    63    6   63 1  
    64    9   64 1  
    65    9   65 1  
    66   10   66 1  
    67   11   67 1  
    68   14   68 1  
    69   14   69 1  
    70   14   70 1  
    71   15   71 1  
    72   16   72 1  
    73   17   73 1  
    74   17   74 1  
    75   25   75 1  
    76   26   76 1  
    77   29   77 1  
    78   29   78 1  
    79   30   79 1  
    80   30   80 1  
    81   33   81 1  
    82   33   82 1  
    83   34   83 1  
    84   35   84 1  
    85   38   85 1  
    86   38   86 1  
    87   39   87 1  
    88   39   88 1  
    89   43   89 1  
    90   44   90 1  
    91   47   91 1  
    92   47   92 1  
    93   49   93 1  
    94   50   94 1  
    95   51   95 1  
    96   52   96 1  
    97   54   97 1  
@<TRIPOS>SUBSTRUCTURE
     1 GLN         1

