3szm_ligand
  -I-interpret- 

101101  0  0  0  0  0  0  0  0999 V2000
   24.6150    6.6810   65.4290 N   0  3  0  0  0
   25.8090    7.2370   66.0610 C   0  0  0  0  0
   25.4580    8.1330   67.2560 C   0  0  0  0  0
   24.6820    9.0880   67.1370 O   0  0  0  0  0
   26.6420    8.0300   65.0480 C   0  0  0  0  0
   25.8980    9.1850   64.3940 C   0  0  0  0  0
   24.8390    8.7210   63.4100 C   0  0  0  0  0
   24.8580    7.5790   62.9490 O   0  0  0  0  0
   23.9080    9.6090   63.0850 N   0  0  0  0  0
   26.0550    7.8220   68.4050 N   0  0  0  0  0
   25.8100    8.5680   69.6350 C   0  0  0  0  0
   26.4740    9.9420   69.5930 C   0  0  0  0  0
   27.5380   10.1110   68.9930 O   0  0  0  0  0
   26.3090    7.7780   70.8390 C   0  0  0  0  0
   25.8430   10.9230   70.2310 N   0  0  0  0  0
   26.4250   12.2560   70.3200 C   0  0  0  0  0
   25.5080   13.2070   71.0970 C   0  0  0  0  0
   24.2680   13.3410   70.4270 O   0  0  0  0  0
   27.8260   12.1810   70.9370 C   0  0  0  0  0
   28.0540   11.4930   71.9310 O   0  0  0  0  0
   23.0350   13.8920   71.3270 P   0  0  0  0  0
   23.5010   15.1790   72.1850 O   0  0  0  0  0
   22.5540   12.7300   72.3060 O   0  0  0  0  0
   21.8590   14.3260   70.3230 O   0  0  0  0  0
   28.7650   12.8870   70.3220 N   0  0  0  0  0
   30.1500   12.8420   70.7500 C   0  0  0  0  0
   30.2580   13.4790   72.1220 C   0  0  0  0  0
   29.5220   14.4160   72.4510 O   0  0  0  0  0
   31.0520   13.5420   69.7210 C   0  0  0  0  0
   32.5250   13.3970   69.9910 C   0  0  0  0  0
   33.3790   13.9010   68.8390 C   0  0  0  0  0
   32.8640   14.2270   67.7640 O   0  0  0  0  0
   34.6970   13.9690   69.0610 N   0  0  0  0  0
   31.1540   12.9300   72.9260 N   0  0  0  0  0
   31.5050   13.5010   74.2070 C   0  0  0  0  0
   32.8160   14.2970   74.0680 C   0  0  0  0  0
   33.8380   13.7730   73.6270 O   0  0  0  0  0
   31.6870   12.3730   75.2100 C   0  0  0  0  0
   32.0420   12.8300   76.6150 C   0  0  0  0  0
   32.2750   11.6630   77.5740 C   0  0  0  0  0
   32.7700   10.5900   77.1300 O   0  0  0  0  0
   31.9460   11.8280   78.7720 O   0  0  0  0  0
   32.7860   15.5680   74.4410 N   0  0  0  0  0
   33.9930   16.3910   74.4310 C   0  0  0  0  0
   34.5480   16.6210   75.8290 C   0  0  0  0  0
   35.6220   17.1900   75.9730 O   0  0  0  0  0
   33.6890   17.7240   73.7670 C   0  0  0  0  0
   33.1950   17.5880   72.3510 C   0  0  0  0  0
   31.8260   17.5570   72.0640 C   0  0  0  0  0
   34.0880   17.4790   71.2920 C   0  0  0  0  0
   31.3540   17.4360   70.7390 C   0  0  0  0  0
   33.6300   17.3520   69.9590 C   0  0  0  0  0
   32.2600   17.3270   69.6920 C   0  0  0  0  0
   31.8020   17.2160   68.3860 O   0  0  0  0  0
   33.9570   16.2670   76.8500 O   0  0  0  0  0
   24.0775    6.1587   66.1208 H   0  0  0  0  0
   24.0447    7.4398   65.0558 H   0  0  0  0  0
   24.8921    6.0577   64.6707 H   0  0  0  0  0
   26.3959    6.3952   66.4285 H   0  0  0  0  0
   26.9242    7.3391   64.2536 H   0  0  0  0  0
   27.4852    8.4575   65.5905 H   0  0  0  0  0
   26.6256    9.7821   63.8443 H   0  0  0  0  0
   25.3977    9.7484   65.1817 H   0  0  0  0  0
   23.1692    9.3563   62.4287 H   0  0  0  0  0
   23.9312   10.5442   63.4915 H   0  0  0  0  0
   26.7051    7.0363   68.4260 H   0  0  0  0  0
   24.7344    8.7178   69.7280 H   0  0  0  0  0
   25.7837    6.8242   70.8892 H   0  0  0  0  0
   27.3794    7.5998   70.7367 H   0  0  0  0  0
   26.1195    8.3470   71.7492 H   0  0  0  0  0
   24.9381   10.7399   70.6646 H   0  0  0  0  0
   26.5242   12.6630   69.3137 H   0  0  0  0  0
   25.9841   14.1849   71.1684 H   0  0  0  0  0
   25.3344   12.8022   72.0941 H   0  0  0  0  0
   23.7888   15.8733   71.5877 H   0  0  0  0  0
   22.1743   15.0254   69.7459 H   0  0  0  0  0
   28.5073   13.4753   69.5296 H   0  0  0  0  0
   30.4886   11.8082   70.8183 H   0  0  0  0  0
   30.8210   14.6064   69.7627 H   0  0  0  0  0
   30.8555   13.0790   68.7540 H   0  0  0  0  0
   32.7391   12.3374   70.1305 H   0  0  0  0  0
   32.7656   13.9902   70.8732 H   0  0  0  0  0
   35.3215   14.3010   68.3260 H   0  0  0  0  0
   35.0770   13.6889   69.9652 H   0  0  0  0  0
   31.6154   12.0697   72.6303 H   0  0  0  0  0
   30.7171   14.1718   74.5495 H   0  0  0  0  0
   32.5160   11.7610   74.8547 H   0  0  0  0  0
   30.7338   11.8485   75.2765 H   0  0  0  0  0
   31.2060   13.4156   76.9976 H   0  0  0  0  0
   32.9664   13.4045   76.5564 H   0  0  0  0  0
   32.9454   10.6844   76.1909 H   0  0  0  0  0
   31.9025   15.9801   74.7411 H   0  0  0  0  0
   34.7562   15.8547   73.8671 H   0  0  0  0  0
   34.6166   18.2956   73.7378 H   0  0  0  0  0
   32.9009   18.2068   74.3449 H   0  0  0  0  0
   31.1082   17.6278   72.8812 H   0  0  0  0  0
   35.1595   17.4915   71.4914 H   0  0  0  0  0
   30.2826   17.4282   70.5385 H   0  0  0  0  0
   34.3465   17.2738   69.1413 H   0  0  0  0  0
   32.5515   17.1503   67.7897 H   0  0  0  0  0
   33.1339   15.8358   76.6087 H   0  0  0  0  0
  1  2  1  0  0  0
  2  3  1  0  0  0
  2  5  1  0  0  0
  3  4  2  0  0  0
  3 10  1  0  0  0
  5  6  1  0  0  0
  6  7  1  0  0  0
  7  8  2  0  0  0
  7  9  1  0  0  0
 10 11  1  0  0  0
 11 12  1  0  0  0
 11 14  1  0  0  0
 12 13  2  0  0  0
 12 15  1  0  0  0
 15 16  1  0  0  0
 16 17  1  0  0  0
 16 19  1  0  0  0
 17 18  1  0  0  0
 18 21  1  0  0  0
 19 20  2  0  0  0
 19 25  1  0  0  0
 21 22  1  0  0  0
 21 23  2  0  0  0
 21 24  1  0  0  0
 25 26  1  0  0  0
 26 27  1  0  0  0
 26 29  1  0  0  0
 27 28  2  0  0  0
 27 34  1  0  0  0
 29 30  1  0  0  0
 30 31  1  0  0  0
 31 32  2  0  0  0
 31 33  1  0  0  0
 34 35  1  0  0  0
 35 36  1  0  0  0
 35 38  1  0  0  0
 36 37  2  0  0  0
 36 43  1  0  0  0
 38 39  1  0  0  0
 39 40  1  0  0  0
 40 41  1  0  0  0
 40 42  2  0  0  0
 43 44  1  0  0  0
 44 45  1  0  0  0
 44 47  1  0  0  0
 45 46  2  0  0  0
 45 55  1  0  0  0
 47 48  1  0  0  0
 48 49  4  0  0  0
 48 50  4  0  0  0
 49 51  4  0  0  0
 50 52  4  0  0  0
 51 53  4  0  0  0
 52 53  4  0  0  0
 53 54  1  0  0  0
  1 56  1  0  0  0
  1 57  1  0  0  0
  1 58  1  0  0  0
  2 59  1  0  0  0
  5 60  1  0  0  0
  5 61  1  0  0  0
  6 62  1  0  0  0
  6 63  1  0  0  0
  9 64  1  0  0  0
  9 65  1  0  0  0
 10 66  1  0  0  0
 11 67  1  0  0  0
 14 68  1  0  0  0
 14 69  1  0  0  0
 14 70  1  0  0  0
 15 71  1  0  0  0
 16 72  1  0  0  0
 17 73  1  0  0  0
 17 74  1  0  0  0
 22 75  1  0  0  0
 24 76  1  0  0  0
 25 77  1  0  0  0
 26 78  1  0  0  0
 29 79  1  0  0  0
 29 80  1  0  0  0
 30 81  1  0  0  0
 30 82  1  0  0  0
 33 83  1  0  0  0
 33 84  1  0  0  0
 34 85  1  0  0  0
 35 86  1  0  0  0
 38 87  1  0  0  0
 38 88  1  0  0  0
 39 89  1  0  0  0
 39 90  1  0  0  0
 41 91  1  0  0  0
 43 92  1  0  0  0
 44 93  1  0  0  0
 47 94  1  0  0  0
 47 95  1  0  0  0
 49 96  1  0  0  0
 50 97  1  0  0  0
 51 98  1  0  0  0
 52 99  1  0  0  0
 54100  1  0  0  0
 55101  1  0  0  0
M  END
$$$$
