3fsj_ligand
  -I-interpret- 

 86 88  0  0  0  0  0  0  0  0999 V2000
   27.0510    6.7110   30.3630 P   0  0  0  0  0
   26.8620    6.0090   31.8130 O   0  0  0  0  0
   28.4210    7.1450   30.1110 O   0  0  0  0  0
   24.3250    9.7660   30.7880 O   0  0  0  0  0
   24.5220    8.1860   30.4060 P   0  0  0  0  0
   24.0200    7.2200   31.6290 O   0  0  0  0  0
   23.9210    7.8600   29.1050 O   0  0  0  0  0
   26.1430    8.0550   30.2520 O   0  0  0  0  0
   26.5390    5.6390   29.2520 O   0  0  0  0  0
   26.8760    5.8180   27.9050 C   0  0  0  0  0
   25.6810    5.2030   27.1790 C   0  0  0  0  0
   25.8700    5.2630   25.6740 C   0  0  0  0  0
   26.5120    4.1330   24.8110 C   0  0  0  0  0
   27.0380    2.8010   25.3570 C   0  0  0  0  0
   25.6860    6.6280   24.7750 S   0  0  0  0  0
   26.2820    6.0360   23.1880 C   0  0  0  0  0
   26.5460    4.5330   23.3090 N   0  3  0  0  0
   26.9370    3.6080   22.2580 C   0  0  0  0  0
   28.4590    3.4750   22.1430 C   0  0  0  0  0
   29.1220    2.1600   22.4290 C   0  0  0  0  0
   29.3060    4.6480   21.6920 C   0  0  0  0  0
   28.7270    5.9220   21.3940 N   0  3  0  0  0
   30.7420    4.5400   21.5620 N   0  3  0  0  0
   31.4010    3.2430   21.8600 C   0  0  0  0  0
   30.5660    2.0450   22.2880 N   0  3  0  0  0
   32.9080    3.1560   21.7010 C   0  0  0  0  0
   23.3850    6.9890   20.1690 O   0  0  0  0  0
   23.9710    6.0950   21.4300 P   0  0  0  0  0
   24.0810    4.6930   21.0470 O   0  0  0  0  0
   22.9740    6.2540   22.7390 O   0  0  0  0  0
   21.6800    6.7580   22.5620 C   0  0  0  0  0
   25.6960    6.6630   21.8810 C   0  0  0  0  0
   26.4630    6.3050   20.7520 O   0  0  0  0  0
   25.7580    8.2010   22.0080 C   0  0  0  0  0
   26.9880    8.9580   21.4220 C   0  0  0  0  0
   27.0720   10.4820   21.5350 C   0  0  0  0  0
   25.9330   11.2700   22.2400 C   0  0  0  0  0
   24.7170   10.5250   22.8270 C   0  0  0  0  0
   24.6300    8.9860   22.7100 C   0  0  0  0  0
   25.9454    5.7454   31.9226 H   0  0  0  0  0
   24.7290    9.9406   31.6412 H   0  0  0  0  0
   24.4502    7.4881   32.4443 H   0  0  0  0  0
   27.8240    5.3516   27.6370 H   0  0  0  0  0
   27.0431    6.8626   27.6424 H   0  0  0  0  0
   24.7848    5.7650   27.4418 H   0  0  0  0  0
   25.5888    4.1591   27.4788 H   0  0  0  0  0
   24.9873    4.9301   26.2200 H   0  0  0  0  0
   26.8891    3.2196   25.2710 H   0  0  0  0  0
   27.8306    2.9938   26.0800 H   0  0  0  0  0
   26.2245    2.2623   25.8429 H   0  0  0  0  0
   27.4317    2.2030   24.5351 H   0  0  0  0  0
   27.2464    6.4894   22.9588 H   0  0  0  0  0
   26.1665    4.0845   22.4752 H   0  0  0  0  0
   26.5568    3.9900   21.3105 H   0  0  0  0  0
   26.5275    2.6270   22.4992 H   0  0  0  0  0
   28.2358    3.9472   23.0997 H   0  0  0  0  0
   28.7143    1.4752   21.6854 H   0  0  0  0  0
   28.9300    1.9755   23.4860 H   0  0  0  0  0
   28.6757    3.7588   21.7047 H   0  0  0  0  0
   29.4618    6.5702   21.1106 H   0  0  0  0  0
   28.0523    5.8186   20.6360 H   0  0  0  0  0
   28.2555    6.2823   22.2236 H   0  0  0  0  0
   31.1164    5.1884   22.2546 H   0  0  0  0  0
   30.9279    4.7063   20.5730 H   0  0  0  0  0
   31.3906    2.4080   22.5605 H   0  0  0  0  0
   30.6907    1.3706   21.5330 H   0  0  0  0  0
   30.8936    1.8358   23.2310 H   0  0  0  0  0
   33.1767    3.3803   20.6687 H   0  0  0  0  0
   33.3844    3.8759   22.3664 H   0  0  0  0  0
   33.2413    2.1495   21.9540 H   0  0  0  0  0
   23.3177    7.9091   20.4346 H   0  0  0  0  0
   21.7369    7.7627   22.1431 H   0  0  0  0  0
   21.1289    6.1096   21.8808 H   0  0  0  0  0
   21.1702    6.7928   23.5248 H   0  0  0  0  0
   26.0801    6.7034   19.9670 H   0  0  0  0  0
   24.6890    8.2860   22.2031 H   0  0  0  0  0
   26.9414    8.7659   20.3501 H   0  0  0  0  0
   27.8350    8.5941   22.0036 H   0  0  0  0  0
   27.0506   10.8343   20.5037 H   0  0  0  0  0
   27.9521   10.6624   22.1523 H   0  0  0  0  0
   25.5115   11.8959   21.4534 H   0  0  0  0  0
   26.4151   11.7233   23.1061 H   0  0  0  0  0
   23.8666   10.8924   22.2526 H   0  0  0  0  0
   24.7693   10.7162   23.8988 H   0  0  0  0  0
   24.6525    8.6325   23.7408 H   0  0  0  0  0
   23.7494    8.8088   22.0925 H   0  0  0  0  0
  1  2  1  0  0  0
  1  3  2  0  0  0
  1  8  1  0  0  0
  9  1  1  0  0  0
  5  4  1  0  0  0
  5  6  1  0  0  0
  5  7  2  0  0  0
  8  5  1  0  0  0
 10  9  1  0  0  0
 11 10  1  0  0  0
 12 11  1  0  0  0
 13 12  1  0  0  0
 15 12  1  0  0  0
 13 14  1  0  0  0
 17 13  1  0  0  0
 16 15  1  0  0  0
 16 17  1  0  0  0
 32 16  1  0  0  0
 17 18  1  0  0  0
 18 19  1  0  0  0
 19 20  1  0  0  0
 19 21  1  0  0  0
 20 25  1  0  0  0
 21 22  1  0  0  0
 21 23  1  0  0  0
 23 24  1  0  0  0
 25 24  1  0  0  0
 24 26  1  0  0  0
 28 27  1  0  0  0
 28 29  2  0  0  0
 28 30  1  0  0  0
 28 32  1  0  0  0
 30 31  1  0  0  0
 32 33  1  0  0  0
 32 34  1  0  0  0
 34 35  1  0  0  0
 34 39  1  0  0  0
 35 36  1  0  0  0
 36 37  1  0  0  0
 37 38  1  0  0  0
 38 39  1  0  0  0
  2 40  1  0  0  0
  4 41  1  0  0  0
  6 42  1  0  0  0
 10 43  1  0  0  0
 10 44  1  0  0  0
 11 45  1  0  0  0
 11 46  1  0  0  0
 12 47  1  0  0  0
 13 48  1  0  0  0
 14 49  1  0  0  0
 14 50  1  0  0  0
 14 51  1  0  0  0
 16 52  1  0  0  0
 17 53  1  0  0  0
 18 54  1  0  0  0
 18 55  1  0  0  0
 19 56  1  0  0  0
 20 57  1  0  0  0
 20 58  1  0  0  0
 21 59  1  0  0  0
 22 60  1  0  0  0
 22 61  1  0  0  0
 22 62  1  0  0  0
 23 63  1  0  0  0
 23 64  1  0  0  0
 24 65  1  0  0  0
 25 66  1  0  0  0
 25 67  1  0  0  0
 26 68  1  0  0  0
 26 69  1  0  0  0
 26 70  1  0  0  0
 27 71  1  0  0  0
 31 72  1  0  0  0
 31 73  1  0  0  0
 31 74  1  0  0  0
 33 75  1  0  0  0
 34 76  1  0  0  0
 35 77  1  0  0  0
 35 78  1  0  0  0
 36 79  1  0  0  0
 36 80  1  0  0  0
 37 81  1  0  0  0
 37 82  1  0  0  0
 38 83  1  0  0  0
 38 84  1  0  0  0
 39 85  1  0  0  0
 39 86  1  0  0  0
M  END
$$$$
