### 
### Created by X-TOOL on Mon Sep 10 21:12:59 2018
### 

@<TRIPOS>MOLECULE
3fsj_ligand
   82    84     1     0     0
SMALL
GAST_HUCK


@<TRIPOS>ATOM
      1 PA         27.0510    6.7110   30.3630 P.3       1 D7K         0.3275
      2 O1A        26.8620    6.0090   31.8130 O.co2     1 D7K        -0.5556
      3 O2A        28.4210    7.1450   30.1110 O.co2     1 D7K        -0.5556
      4 O1B        24.3250    9.7660   30.7880 O.co2     1 D7K        -0.5891
      5 PB         24.5220    8.1860   30.4060 P.3       1 D7K         0.2069
      6 O2B        24.0200    7.2200   31.6290 O.co2     1 D7K        -0.5891
      7 O3B        23.9210    7.8600   29.1050 O.co2     1 D7K        -0.5891
      8 O3A        26.1430    8.0550   30.2520 O.3       1 D7K        -0.1548
      9 O01        26.5390    5.6390   29.2520 O.3       1 D7K        -0.2462
     10 C01        26.8760    5.8180   27.9050 C.3       1 D7K         0.0856
     11 C05        25.6810    5.2030   27.1790 C.3       1 D7K        -0.0071
     12 C04        25.8700    5.2630   25.6740 C.3       1 D7K         0.0555
     13 C03        26.5120    4.1330   24.8110 C.3       1 D7K        -0.0102
     14 CM4        27.0380    2.8010   25.3570 C.3       1 D7K        -0.0205
     15 S1         25.6860    6.6280   24.7750 S.3       1 D7K        -0.0947
     16 C02        26.2820    6.0360   23.1880 C.3       1 D7K         0.0757
     17 N3         26.5460    4.5330   23.3090 N.4       1 D7K         0.2516
     18 C18        26.9370    3.6080   22.2580 C.3       1 D7K        -0.0114
     19 C19        28.4590    3.4750   22.1430 C.3       1 D7K         0.1255
     20 C20        29.1220    2.1600   22.4290 C.3       1 D7K        -0.0094
     21 C21        29.3060    4.6480   21.6920 C.3       1 D7K         0.0105
     22 N22        28.7270    5.9220   21.3940 N.4       1 D7K         0.2555
     23 N23        30.7420    4.5400   21.5620 N.4       1 D7K         0.2970
     24 C24        31.4010    3.2430   21.8600 C.3       1 D7K        -0.0036
     25 N25        30.5660    2.0450   22.2880 N.4       1 D7K         0.2633
     26 CM2        32.9080    3.1560   21.7010 C.3       1 D7K         0.0237
     27 O12        23.3850    6.9890   20.1690 O.co2     1 D7K        -0.6184
     28 P8         23.9710    6.0950   21.4300 P.3       1 D7K         0.1588
     29 O11        24.0810    4.6930   21.0470 O.co2     1 D7K        -0.6184
     30 O9         22.9740    6.2540   22.7390 O.3       1 D7K        -0.2801
     31 C10        21.6800    6.7580   22.5620 C.3       1 D7K         0.0712
     32 C7         25.6960    6.6630   21.8810 C.3       1 D7K         0.2095
     33 O7         26.4630    6.3050   20.7520 O.3       1 D7K        -0.3648
     34 C2         25.7580    8.2010   22.0080 C.3       1 D7K         0.0130
     35 C3         26.9880    8.9580   21.4220 C.3       1 D7K        -0.0458
     36 C4         27.0720   10.4820   21.5350 C.3       1 D7K        -0.0527
     37 C5         25.9330   11.2700   22.2400 C.3       1 D7K        -0.0530
     38 C6         24.7170   10.5250   22.8270 C.3       1 D7K        -0.0527
     39 C1         24.6300    8.9860   22.7100 C.3       1 D7K        -0.0458
     40 H1         27.8077    5.2894   27.6549 H         1 D7K         0.0621
     41 H2         26.9829    6.8852   27.6607 H         1 D7K         0.0621
     42 H3         24.7708    5.7582   27.4497 H         1 D7K         0.0304
     43 H4         25.5748    4.1523   27.4867 H         1 D7K         0.0304
     44 H5         24.8404    4.9152   25.5042 H         1 D7K         0.0470
     45 H6         27.5146    4.5569   24.9692 H         1 D7K         0.0860
     46 H7         27.4356    2.1965   24.5284 H         1 D7K         0.0284
     47 H8         26.2179    2.2563   25.8476 H         1 D7K         0.0284
     48 H9         27.8381    2.9941   26.0868 H         1 D7K         0.0284
     49 H10        27.3032    6.4432   23.1513 H         1 D7K         0.1022
     50 H11        25.5771    4.3011   23.1555 H         1 D7K         0.2050
     51 H12        26.5395    3.9722   21.2992 H         1 D7K         0.0824
     52 H13        26.5104    2.6186   22.4797 H         1 D7K         0.0824
     53 H14        28.5746    3.7792   23.1938 H         1 D7K         0.0524
     54 H15        28.6733    1.4200   21.7500 H         1 D7K         0.0824
     55 H16        28.8793    1.8977   23.4693 H         1 D7K         0.0824
     56 H17        29.1755    4.3311   20.6468 H         1 D7K         0.1478
     57 H18        29.4523    6.5634   21.1138 H         1 D7K         0.2051
     58 H19        28.2608    6.2791   22.2132 H         1 D7K         0.2051
     59 H20        28.0601    5.8211   20.6450 H         1 D7K         0.2051
     60 H21        31.1461    5.2248   22.1815 H         1 D7K         0.2135
     61 H22        30.9698    4.7737   20.6083 H         1 D7K         0.2135
     62 H23        31.5231    3.5320   22.9143 H         1 D7K         0.1469
     63 H24        30.7324    1.3200   21.6078 H         1 D7K         0.2072
     64 H25        30.9208    1.7521   23.1849 H         1 D7K         0.2072
     65 H26        33.3006    4.1343   21.3866 H         1 D7K         0.0344
     66 H27        33.1534    2.4007   20.9400 H         1 D7K         0.0344
     67 H28        33.3621    2.8701   22.6612 H         1 D7K         0.0344
     68 H29        21.1644    6.7936   23.5330 H         1 D7K         0.0586
     69 H30        21.1228    6.1045   21.8747 H         1 D7K         0.0586
     70 H31        21.7360    7.7720   22.1393 H         1 D7K         0.0586
     71 H32        26.4128    5.3653   20.6215 H         1 D7K         0.2123
     72 H33        25.2300    8.3039   21.0485 H         1 D7K         0.0348
     73 H34        27.0287    8.7162   20.3497 H         1 D7K         0.0269
     74 H35        27.8792    8.5526   21.9235 H         1 D7K         0.0269
     75 H36        27.1422   10.8737   20.5095 H         1 D7K         0.0265
     76 H37        28.0005   10.7100   22.0790 H         1 D7K         0.0265
     77 H38        25.5394   11.9843   21.5019 H         1 D7K         0.0265
     78 H39        26.3975   11.8204   23.0714 H         1 D7K         0.0265
     79 H40        23.8237   10.9332   22.3317 H         1 D7K         0.0265
     80 H41        24.6835   10.7654   23.8999 H         1 D7K         0.0265
     81 H42        24.5598    8.5930   23.7350 H         1 D7K         0.0269
     82 H43        23.7005    8.7609   22.1665 H         1 D7K         0.0269
@<TRIPOS>BOND
     1    1    2 ar 
     2    1    3 ar 
     3    1    8 1  
     4    9    1 1  
     5    5    4 ar 
     6    5    6 ar 
     7    5    7 ar 
     8    8    5 1  
     9   10    9 1  
    10   11   10 1  
    11   12   11 1  
    12   13   12 1  
    13   15   12 1  
    14   13   14 1  
    15   17   13 1  
    16   16   15 1  
    17   16   17 1  
    18   32   16 1  
    19   17   18 1  
    20   18   19 1  
    21   19   20 1  
    22   19   21 1  
    23   20   25 1  
    24   21   22 1  
    25   21   23 1  
    26   23   24 1  
    27   25   24 1  
    28   24   26 1  
    29   28   27 ar 
    30   28   29 ar 
    31   28   30 1  
    32   28   32 1  
    33   30   31 1  
    34   32   33 1  
    35   32   34 1  
    36   34   35 1  
    37   34   39 1  
    38   35   36 1  
    39   36   37 1  
    40   37   38 1  
    41   38   39 1  
    42   10   40 1  
    43   10   41 1  
    44   11   42 1  
    45   11   43 1  
    46   12   44 1  
    47   13   45 1  
    48   14   46 1  
    49   14   47 1  
    50   14   48 1  
    51   16   49 1  
    52   17   50 1  
    53   18   51 1  
    54   18   52 1  
    55   19   53 1  
    56   20   54 1  
    57   20   55 1  
    58   21   56 1  
    59   22   57 1  
    60   22   58 1  
    61   22   59 1  
    62   23   60 1  
    63   23   61 1  
    64   24   62 1  
    65   25   63 1  
    66   25   64 1  
    67   26   65 1  
    68   26   66 1  
    69   26   67 1  
    70   31   68 1  
    71   31   69 1  
    72   31   70 1  
    73   33   71 1  
    74   34   72 1  
    75   35   73 1  
    76   35   74 1  
    77   36   75 1  
    78   36   76 1  
    79   37   77 1  
    80   37   78 1  
    81   38   79 1  
    82   38   80 1  
    83   39   81 1  
    84   39   82 1  
@<TRIPOS>SUBSTRUCTURE
     1 D7K         1

