4oue_ligand
  -I-interpret- 

 33 33  0  0  0  0  0  0  0  0999 V2000
   26.1420  -31.7770    6.1590 C   0  0  0  0  0
   25.4350  -32.9690    6.7050 C   0  0  0  0  0
   25.0320  -33.7990    5.6790 O   0  0  0  0  0
   24.2690  -32.5000    7.5180 C   0  0  0  0  0
   23.6340  -33.5970    8.0820 O   0  0  0  0  0
   24.7270  -31.5360    8.5770 C   0  0  0  0  0
   25.4790  -32.2090    9.5290 O   0  0  0  0  0
   25.5670  -30.4650    7.9440 C   0  0  0  0  0
   26.6210  -31.0280    7.2280 O   0  0  0  0  0
   26.1240  -29.5580    8.9960 C   0  0  0  0  0
   26.5280  -28.3580    8.4400 O   0  0  0  0  0
   27.4490  -32.3180    5.0770 S   0  0  0  0  0
   27.9690  -30.9690    4.0500 C   0  0  0  0  0
   27.4210  -31.1020    2.6680 C   0  0  0  0  0
   27.4130  -29.6970    4.5770 C   0  0  0  0  0
   25.4713  -31.1490    5.5726 H   0  0  0  0  0
   26.1058  -33.5449    7.3426 H   0  0  0  0  0
   25.8001  -34.0821    5.1775 H   0  0  0  0  0
   23.5609  -31.9763    6.8757 H   0  0  0  0  0
   23.3523  -34.1951    7.3859 H   0  0  0  0  0
   23.8579  -31.0858    9.0566 H   0  0  0  0  0
   24.9418  -32.8939    9.9338 H   0  0  0  0  0
   24.9333  -29.8955    7.2642 H   0  0  0  0  0
   26.9850  -30.0405    9.4585 H   0  0  0  0  0
   25.3502  -29.3607    9.7379 H   0  0  0  0  0
   26.8817  -27.7905    9.1288 H   0  0  0  0  0
   29.0589  -30.9762    4.0414 H   0  0  0  0  0
   27.7751  -32.0334    2.2262 H   0  0  0  0  0
   26.3318  -31.1091    2.7095 H   0  0  0  0  0
   27.7573  -30.2603    2.0626 H   0  0  0  0  0
   26.3244  -29.7514    4.5800 H   0  0  0  0  0
   27.7729  -29.5382    5.5935 H   0  0  0  0  0
   27.7350  -28.8709    3.9430 H   0  0  0  0  0
  1  2  1  0  0  0
  1  9  1  0  0  0
  1 12  1  0  0  0
  2  3  1  0  0  0
  2  4  1  0  0  0
  4  5  1  0  0  0
  4  6  1  0  0  0
  6  7  1  0  0  0
  6  8  1  0  0  0
  8  9  1  0  0  0
  8 10  1  0  0  0
 10 11  1  0  0  0
 12 13  1  0  0  0
 13 14  1  0  0  0
 13 15  1  0  0  0
  1 16  1  0  0  0
  2 17  1  0  0  0
  3 18  1  0  0  0
  4 19  1  0  0  0
  5 20  1  0  0  0
  6 21  1  0  0  0
  7 22  1  0  0  0
  8 23  1  0  0  0
 10 24  1  0  0  0
 10 25  1  0  0  0
 11 26  1  0  0  0
 13 27  1  0  0  0
 14 28  1  0  0  0
 14 29  1  0  0  0
 14 30  1  0  0  0
 15 31  1  0  0  0
 15 32  1  0  0  0
 15 33  1  0  0  0
M  END
$$$$
