2zxd_ligand
  -I-interpret- 

 30 30  0  0  0  0  0  0  0  0999 V2000
    1.4890   29.4010   26.9320 C   0  0  0  0  0
    1.2300   28.9010   25.5070 C   0  0  0  0  0
    2.3070   27.8780   25.1350 C   0  0  0  0  0
   -0.1720   28.2870   25.4200 C   0  0  0  0  0
   -0.2240   27.0110   26.1540 N   0  3  0  0  0
   -1.6000   26.4880   26.1950 C   0  0  0  0  0
   -2.0660   26.2140   24.7590 C   0  0  0  0  0
   -3.3820   25.6550   24.7520 O   0  0  0  0  0
   -2.0570   27.5250   23.9690 C   0  0  0  0  0
   -2.4910   27.2890   22.6290 O   0  0  0  0  0
   -0.6340   28.0860   23.9730 C   0  0  0  0  0
    0.2340   27.1550   23.3240 O   0  0  0  0  0
    0.7470   30.1562   27.1912 H   0  0  0  0  0
    1.4168   28.5650   27.6277 H   0  0  0  0  0
    2.4868   29.8362   26.9872 H   0  0  0  0  0
    1.2772   29.7311   24.8021 H   0  0  0  0  0
    2.2544   27.0316   25.8199 H   0  0  0  0  0
    2.1410   27.5323   24.1147 H   0  0  0  0  0
    3.2896   28.3444   25.2066 H   0  0  0  0  0
   -0.8584   28.9962   25.8826 H   0  0  0  0  0
    0.0973   27.1674   27.1093 H   0  0  0  0  0
    0.3718   26.3332   25.6785 H   0  0  0  0  0
   -2.2593   27.2177   26.6650 H   0  0  0  0  0
   -1.6281   25.5658   26.7754 H   0  0  0  0  0
   -1.3865   25.4975   24.2975 H   0  0  0  0  0
   -3.3821   24.8334   25.2485 H   0  0  0  0  0
   -2.7368   28.2425   24.4286 H   0  0  0  0  0
   -2.4824   28.1156   22.1408 H   0  0  0  0  0
   -0.6111   29.0411   23.4482 H   0  0  0  0  0
    1.1294   27.5012   23.3230 H   0  0  0  0  0
  1  2  1  0  0  0
  2  3  1  0  0  0
  2  4  1  0  0  0
  4  5  1  0  0  0
  4 11  1  0  0  0
  5  6  1  0  0  0
  6  7  1  0  0  0
  7  8  1  0  0  0
  7  9  1  0  0  0
  9 10  1  0  0  0
  9 11  1  0  0  0
 11 12  1  0  0  0
  1 13  1  0  0  0
  1 14  1  0  0  0
  1 15  1  0  0  0
  2 16  1  0  0  0
  3 17  1  0  0  0
  3 18  1  0  0  0
  3 19  1  0  0  0
  4 20  1  0  0  0
  5 21  1  0  0  0
  5 22  1  0  0  0
  6 23  1  0  0  0
  6 24  1  0  0  0
  7 25  1  0  0  0
  8 26  1  0  0  0
  9 27  1  0  0  0
 10 28  1  0  0  0
 11 29  1  0  0  0
 12 30  1  0  0  0
M  END
$$$$
