### 
### Created by X-TOOL on Mon Sep 10 21:13:07 2018
### 

@<TRIPOS>MOLECULE
3pma_ligand
   69    70     1     0     0
SMALL
GAST_HUCK


@<TRIPOS>ATOM
      1 C1          7.8410  -41.0750   43.5250 C.3       1 SCR         0.1938
      2 C2          9.2900  -41.4730   43.8330 C.3       1 SCR         0.1659
      3 C3         10.0940  -41.6390   42.5210 C.3       1 SCR         0.1482
      4 C4          9.4100  -42.5650   41.4820 C.3       1 SCR         0.1438
      5 C5          7.8760  -42.3710   41.4430 C.3       1 SCR         0.1180
      6 C6          7.0970  -43.5060   40.7370 C.3       1 SCR         0.1025
      7 C11         5.4180  -39.7550   42.2350 C.3       1 SCR         0.1303
      8 C12         6.8500  -39.2100   42.0160 C.3       1 SCR         0.2302
      9 C13         6.8350  -37.6670   41.9590 C.3       1 SCR         0.1711
     10 C14         6.8900  -37.3330   40.4590 C.3       1 SCR         0.1462
     11 C15         6.6880  -38.6960   39.7920 C.3       1 SCR         0.1184
     12 C16         7.3300  -38.8170   38.4090 C.3       1 SCR         0.1025
     13 O1          7.8140  -39.6730   43.0280 O.3       1 SCR        -0.3122
     14 O2          9.8760  -40.4720   44.6880 O.3       1 SCR        -0.2546
     15 O22        10.2320  -39.4690   46.8490 O.co2     1 SCR        -0.4611
     16 O23        10.4340  -41.8890   46.5600 O.co2     1 SCR        -0.4611
     17 O24         8.2320  -40.8030   46.4770 O.co2     1 SCR        -0.4611
     18 O3         11.4270  -42.1110   42.7950 O.3       1 SCR        -0.2568
     19 O32        12.4340  -39.9870   43.3270 O.co2     1 SCR        -0.4611
     20 O33        13.7990  -41.8370   42.4950 O.co2     1 SCR        -0.4611
     21 O34        12.2450  -40.7070   40.9910 O.co2     1 SCR        -0.4611
     22 O4          9.9340  -42.2160   40.1910 O.3       1 SCR        -0.2570
     23 O42        11.7490  -43.3420   39.0900 O.co2     1 SCR        -0.4611
     24 O43         9.6430  -42.9190   37.9290 O.co2     1 SCR        -0.4611
     25 O44         9.7470  -44.6040   39.7120 O.co2     1 SCR        -0.4611
     26 O5          7.2610  -42.1520   42.7400 O.3       1 SCR        -0.3401
     27 O6          6.6550  -44.5390   41.6360 O.3       1 SCR        -0.2631
     28 O62         7.6230  -46.5120   40.6620 O.co2     1 SCR        -0.4611
     29 O63         5.4000  -45.7450   39.9730 O.co2     1 SCR        -0.4611
     30 O64         5.7320  -46.6890   42.2090 O.co2     1 SCR        -0.4611
     31 O10         7.3490  -39.5850   40.7150 O.3       1 SCR        -0.3359
     32 O51         7.7870  -37.5520   37.9590 O.3       1 SCR        -0.2631
     33 O52         6.1020  -37.6370   36.2160 O.co2     1 SCR        -0.4611
     34 O53         8.4110  -36.9990   35.7480 O.co2     1 SCR        -0.4611
     35 O54         6.9670  -35.5160   37.0600 O.co2     1 SCR        -0.4611
     36 O71         5.8920  -36.3360   40.0740 O.3       1 SCR        -0.2569
     37 O72         3.7570  -35.3010   39.6900 O.co2     1 SCR        -0.4611
     38 O73         3.8680  -37.2890   41.0810 O.co2     1 SCR        -0.4611
     39 O74         4.2390  -37.4570   38.6660 O.co2     1 SCR        -0.4611
     40 O81         5.0580  -39.8670   43.6200 O.3       1 SCR        -0.2603
     41 O82         4.6210  -42.2230   43.4670 O.co2     1 SCR        -0.4611
     42 O83         2.7820  -40.6030   43.5630 O.co2     1 SCR        -0.4611
     43 O84         4.1780  -41.0100   45.5420 O.co2     1 SCR        -0.4611
     44 O91         7.9920  -37.1200   42.6070 O.3       1 SCR        -0.2542
     45 O92         8.8670  -35.7440   44.3490 O.co2     1 SCR        -0.4611
     46 O93         6.5280  -36.4560   44.4090 O.co2     1 SCR        -0.4611
     47 O94         7.2910  -34.8240   42.7240 O.co2     1 SCR        -0.4611
     48 S2          9.6870  -40.6630   46.1170 S.o2      1 SCR        -0.0732
     49 S3         12.4550  -41.1740   42.4050 S.o2      1 SCR        -0.0733
     50 S4         10.2580  -43.2660   39.2550 S.o2      1 SCR        -0.0733
     51 S6          6.3550  -45.8520   41.1280 S.o2      1 SCR        -0.0736
     52 S11         4.1710  -40.9130   44.0430 S.o2      1 SCR        -0.0736
     53 S12         7.6630  -36.0500   43.5110 S.o2      1 SCR        -0.0732
     54 S13         4.4690  -36.6080   39.8860 S.o2      1 SCR        -0.0733
     55 S14         7.3130  -36.9400   36.7620 S.o2      1 SCR        -0.0736
     56 H           7.1704  -41.0012   44.3811 H         1 SCR         0.0939
     57 H           9.3110  -42.4329   44.3489 H         1 SCR         0.0698
     58 H          10.1367  -40.6458   42.0740 H         1 SCR         0.0676
     59 H           9.6095  -43.6013   41.7547 H         1 SCR         0.0674
     60 H           7.7928  -41.4608   40.8491 H         1 SCR         0.0648
     61 H           7.7696  -43.9657   40.0128 H         1 SCR         0.0610
     62 H           6.2104  -43.0635   40.2828 H         1 SCR         0.0610
     63 H           5.3765  -40.7545   41.8022 H         1 SCR         0.0638
     64 H           4.7244  -39.0542   41.7703 H         1 SCR         0.0638
     65 H           5.9588  -37.2549   42.4596 H         1 SCR         0.0702
     66 H           7.8259  -36.8644   40.1547 H         1 SCR         0.0675
     67 H           5.6323  -38.8995   39.6126 H         1 SCR         0.0649
     68 H           6.5872  -39.1948   37.7064 H         1 SCR         0.0610
     69 H           8.1791  -39.4976   38.4719 H         1 SCR         0.0610
@<TRIPOS>BOND
     1    1    2 1  
     2   13    1 1  
     3    1   26 1  
     4    2    3 1  
     5    2   14 1  
     6    3    4 1  
     7    3   18 1  
     8    5    4 1  
     9    4   22 1  
    10    5    6 1  
    11   26    5 1  
    12    6   27 1  
    13    8    7 1  
    14    7   40 1  
    15    8    9 1  
    16    8   13 1  
    17    8   31 1  
    18    9   10 1  
    19    9   44 1  
    20   10   11 1  
    21   10   36 1  
    22   11   12 1  
    23   11   31 1  
    24   12   32 1  
    25   14   48 1  
    26   48   15 ar 
    27   48   16 ar 
    28   48   17 ar 
    29   18   49 1  
    30   49   19 ar 
    31   49   20 ar 
    32   49   21 ar 
    33   22   50 1  
    34   50   23 ar 
    35   50   24 ar 
    36   50   25 ar 
    37   27   51 1  
    38   51   28 ar 
    39   51   29 ar 
    40   51   30 ar 
    41   32   55 1  
    42   55   33 ar 
    43   55   34 ar 
    44   55   35 ar 
    45   36   54 1  
    46   54   37 ar 
    47   54   38 ar 
    48   54   39 ar 
    49   40   52 1  
    50   52   41 ar 
    51   52   42 ar 
    52   52   43 ar 
    53   44   53 1  
    54   53   45 ar 
    55   53   46 ar 
    56   53   47 ar 
    57    1   56 1  
    58    2   57 1  
    59    3   58 1  
    60    4   59 1  
    61    5   60 1  
    62    6   61 1  
    63    6   62 1  
    64    7   63 1  
    65    7   64 1  
    66    9   65 1  
    67   10   66 1  
    68   11   67 1  
    69   12   68 1  
    70   12   69 1  
@<TRIPOS>SUBSTRUCTURE
     1 SCR         1

