3pma_ligand
  -I-interpret- 

 77 78  0  0  0  0  0  0  0  0999 V2000
    7.8410  -41.0750   43.5250 C   0  0  0  0  0
    9.2900  -41.4730   43.8330 C   0  0  0  0  0
   10.0940  -41.6390   42.5210 C   0  0  0  0  0
    9.4100  -42.5650   41.4820 C   0  0  0  0  0
    7.8760  -42.3710   41.4430 C   0  0  0  0  0
    7.0970  -43.5060   40.7370 C   0  0  0  0  0
    5.4180  -39.7550   42.2350 C   0  0  0  0  0
    6.8500  -39.2100   42.0160 C   0  0  0  0  0
    6.8350  -37.6670   41.9590 C   0  0  0  0  0
    6.8900  -37.3330   40.4590 C   0  0  0  0  0
    6.6880  -38.6960   39.7920 C   0  0  0  0  0
    7.3300  -38.8170   38.4090 C   0  0  0  0  0
    7.8140  -39.6730   43.0280 O   0  0  0  0  0
    9.8760  -40.4720   44.6880 O   0  0  0  0  0
   10.2320  -39.4690   46.8490 O   0  0  0  0  0
   10.4340  -41.8890   46.5600 O   0  0  0  0  0
    8.2320  -40.8030   46.4770 O   0  0  0  0  0
   11.4270  -42.1110   42.7950 O   0  0  0  0  0
   12.4340  -39.9870   43.3270 O   0  0  0  0  0
   13.7990  -41.8370   42.4950 O   0  0  0  0  0
   12.2450  -40.7070   40.9910 O   0  0  0  0  0
    9.9340  -42.2160   40.1910 O   0  0  0  0  0
   11.7490  -43.3420   39.0900 O   0  0  0  0  0
    9.6430  -42.9190   37.9290 O   0  0  0  0  0
    9.7470  -44.6040   39.7120 O   0  0  0  0  0
    7.2610  -42.1520   42.7400 O   0  0  0  0  0
    6.6550  -44.5390   41.6360 O   0  0  0  0  0
    7.6230  -46.5120   40.6620 O   0  0  0  0  0
    5.4000  -45.7450   39.9730 O   0  0  0  0  0
    5.7320  -46.6890   42.2090 O   0  0  0  0  0
    7.3490  -39.5850   40.7150 O   0  0  0  0  0
    7.7870  -37.5520   37.9590 O   0  0  0  0  0
    6.1020  -37.6370   36.2160 O   0  0  0  0  0
    8.4110  -36.9990   35.7480 O   0  0  0  0  0
    6.9670  -35.5160   37.0600 O   0  0  0  0  0
    5.8920  -36.3360   40.0740 O   0  0  0  0  0
    3.7570  -35.3010   39.6900 O   0  0  0  0  0
    3.8680  -37.2890   41.0810 O   0  0  0  0  0
    4.2390  -37.4570   38.6660 O   0  0  0  0  0
    5.0580  -39.8670   43.6200 O   0  0  0  0  0
    4.6210  -42.2230   43.4670 O   0  0  0  0  0
    2.7820  -40.6030   43.5630 O   0  0  0  0  0
    4.1780  -41.0100   45.5420 O   0  0  0  0  0
    7.9920  -37.1200   42.6070 O   0  0  0  0  0
    8.8670  -35.7440   44.3490 O   0  0  0  0  0
    6.5280  -36.4560   44.4090 O   0  0  0  0  0
    7.2910  -34.8240   42.7240 O   0  0  0  0  0
    9.6870  -40.6630   46.1170 S   0  0  0  0  0
   12.4550  -41.1740   42.4050 S   0  0  0  0  0
   10.2580  -43.2660   39.2550 S   0  0  0  0  0
    6.3550  -45.8520   41.1280 S   0  0  0  0  0
    4.1710  -40.9130   44.0430 S   0  0  0  0  0
    7.6630  -36.0500   43.5110 S   0  0  0  0  0
    4.4690  -36.6080   39.8860 S   0  0  0  0  0
    7.3130  -36.9400   36.7620 S   0  0  0  0  0
    7.1704  -41.0012   44.3811 H   0  0  0  0  0
    9.3110  -42.4329   44.3489 H   0  0  0  0  0
   10.1367  -40.6458   42.0740 H   0  0  0  0  0
    9.6095  -43.6013   41.7547 H   0  0  0  0  0
    7.7928  -41.4608   40.8491 H   0  0  0  0  0
    7.7696  -43.9657   40.0128 H   0  0  0  0  0
    6.2104  -43.0635   40.2828 H   0  0  0  0  0
    5.3765  -40.7545   41.8022 H   0  0  0  0  0
    4.7244  -39.0542   41.7703 H   0  0  0  0  0
    5.9588  -37.2549   42.4596 H   0  0  0  0  0
    7.8259  -36.8644   40.1547 H   0  0  0  0  0
    5.6323  -38.8995   39.6126 H   0  0  0  0  0
    6.5872  -39.1948   37.7064 H   0  0  0  0  0
    8.1791  -39.4976   38.4719 H   0  0  0  0  0
    7.8619  -41.5616   46.0196 H   0  0  0  0  0
   12.2580  -41.4635   40.4001 H   0  0  0  0  0
    8.7940  -44.5617   39.8193 H   0  0  0  0  0
    8.2353  -46.5818   41.3981 H   0  0  0  0  0
    5.3945  -37.6015   36.8639 H   0  0  0  0  0
    4.6881  -38.2986   38.7739 H   0  0  0  0  0
    3.8908  -40.1742   45.9170 H   0  0  0  0  0
    6.5198  -35.0132   42.1845 H   0  0  0  0  0
  1  2  1  0  0  0
 13  1  1  0  0  0
  1 26  1  0  0  0
  2  3  1  0  0  0
  2 14  1  0  0  0
  3  4  1  0  0  0
  3 18  1  0  0  0
  5  4  1  0  0  0
  4 22  1  0  0  0
  5  6  1  0  0  0
 26  5  1  0  0  0
  6 27  1  0  0  0
  8  7  1  0  0  0
  7 40  1  0  0  0
  8  9  1  0  0  0
  8 13  1  0  0  0
  8 31  1  0  0  0
  9 10  1  0  0  0
  9 44  1  0  0  0
 10 11  1  0  0  0
 10 36  1  0  0  0
 11 12  1  0  0  0
 11 31  1  0  0  0
 12 32  1  0  0  0
 14 48  1  0  0  0
 48 15  2  0  0  0
 48 16  2  0  0  0
 48 17  1  0  0  0
 18 49  1  0  0  0
 49 19  2  0  0  0
 49 20  2  0  0  0
 49 21  1  0  0  0
 22 50  1  0  0  0
 50 23  2  0  0  0
 50 24  2  0  0  0
 50 25  1  0  0  0
 27 51  1  0  0  0
 51 28  1  0  0  0
 51 29  2  0  0  0
 51 30  2  0  0  0
 32 55  1  0  0  0
 55 33  1  0  0  0
 55 34  2  0  0  0
 55 35  2  0  0  0
 36 54  1  0  0  0
 54 37  2  0  0  0
 54 38  2  0  0  0
 54 39  1  0  0  0
 40 52  1  0  0  0
 52 41  2  0  0  0
 52 42  2  0  0  0
 52 43  1  0  0  0
 44 53  1  0  0  0
 53 45  2  0  0  0
 53 46  2  0  0  0
 53 47  1  0  0  0
  1 56  1  0  0  0
  2 57  1  0  0  0
  3 58  1  0  0  0
  4 59  1  0  0  0
  5 60  1  0  0  0
  6 61  1  0  0  0
  6 62  1  0  0  0
  7 63  1  0  0  0
  7 64  1  0  0  0
  9 65  1  0  0  0
 10 66  1  0  0  0
 11 67  1  0  0  0
 12 68  1  0  0  0
 12 69  1  0  0  0
 17 70  1  0  0  0
 21 71  1  0  0  0
 25 72  1  0  0  0
 28 73  1  0  0  0
 33 74  1  0  0  0
 39 75  1  0  0  0
 43 76  1  0  0  0
 47 77  1  0  0  0
M  END
$$$$
