5eyz_ligand
  -I-interpret- 

 96 95  0  0  0  0  0  0  0  0999 V2000
   34.7030  -31.1000    0.4230 N   0  3  0  0  0
   35.1640  -30.4480   -0.7940 C   0  0  0  0  0
   35.2570  -31.3930   -1.9730 C   0  0  0  0  0
   36.3430  -31.5890   -2.5270 O   0  0  0  0  0
   34.1100  -31.9860   -2.3610 N   0  0  0  0  0
   33.9950  -32.9320   -3.4750 C   0  0  0  0  0
   34.2710  -32.2810   -4.8310 C   0  0  0  0  0
   33.7440  -31.2050   -5.1210 O   0  0  0  0  0
   32.6070  -33.5980   -3.4850 C   0  0  0  0  0
   32.4570  -34.7870   -2.5340 C   0  0  0  0  0
   32.9250  -36.1160   -3.1260 C   0  0  0  0  0
   32.3030  -36.4220   -4.4190 N   0  0  0  0  0
   31.1270  -37.0250   -4.5720 C   0  0  0  0  0
   30.4170  -37.3930   -3.5120 N   0  0  0  0  0
   30.6500  -37.2600   -5.7860 N   0  0  0  0  0
   35.0990  -32.9450   -5.6530 N   0  0  0  0  0
   35.4710  -32.4990   -6.9950 C   0  0  0  0  0
   35.3660  -33.6740   -7.9720 C   0  0  0  0  0
   35.9150  -34.7460   -7.7060 O   0  0  0  0  0
   36.8880  -31.8990   -6.9950 C   0  0  0  0  0
   37.2560  -31.1690   -8.2790 C   0  0  0  0  0
   38.6970  -30.7080   -8.3840 C   0  0  0  0  0
   39.6100  -31.5070   -8.0700 O   0  0  0  0  0
   38.9160  -29.5590   -8.8290 O   0  0  0  0  0
   34.6540  -33.4700   -9.0950 N   0  0  0  0  0
   34.4500  -34.5050  -10.1120 C   0  0  0  0  0
   34.9180  -34.0400  -11.4940 C   0  0  0  0  0
   34.5510  -32.9490  -11.9340 O   0  0  0  0  0
   32.9810  -34.9760  -10.1170 C   0  0  0  0  0
   32.5560  -35.2230   -8.7770 O   0  0  0  0  0
   32.7610  -36.2310  -10.9590 C   0  0  0  0  0
   35.7110  -34.8850  -12.1750 N   0  0  0  0  0
   36.2100  -34.6280  -13.5260 C   0  0  0  0  0
   35.1440  -35.0840  -14.5230 C   0  0  0  0  0
   34.7770  -36.2620  -14.5270 O   0  0  0  0  0
   37.5350  -35.3760  -13.7840 C   0  0  0  0  0
   38.7130  -34.8950  -12.9520 C   0  0  0  0  0
   40.0530  -35.5180  -13.2960 C   0  0  0  0  0
   40.4340  -35.5040  -14.4890 O   0  0  0  0  0
   40.7440  -35.9830  -12.3610 O   0  0  0  0  0
   34.6250  -34.1500  -15.3420 N   0  0  0  0  0
   33.5990  -34.4420  -16.3560 C   0  0  0  0  0
   34.0680  -34.1200  -17.7890 C   0  0  0  0  0
   33.3830  -34.5310  -18.7510 O   0  0  0  0  0
   32.1850  -33.8640  -16.0360 C   0  0  0  0  0
   31.5600  -34.5500  -14.8230 C   0  0  0  0  0
   32.2090  -32.3480  -15.8590 C   0  0  0  0  0
   35.1280  -33.4760  -17.9470 O   0  0  0  0  0
   34.6609  -30.4162    1.1786 H   0  0  0  0  0
   33.7748  -31.4928    0.2662 H   0  0  0  0  0
   35.3514  -31.8464    0.6740 H   0  0  0  0  0
   36.1632  -30.0566   -0.6028 H   0  0  0  0  0
   34.4431  -29.6708   -1.0477 H   0  0  0  0  0
   33.2613  -31.7602   -1.8422 H   0  0  0  0  0
   34.7601  -33.6920   -3.3163 H   0  0  0  0  0
   32.4465  -33.9783   -4.4938 H   0  0  0  0  0
   31.8917  -32.8421   -3.1608 H   0  0  0  0  0
   31.3958  -34.8889   -2.3071 H   0  0  0  0  0
   33.0776  -34.5844   -1.6611 H   0  0  0  0  0
   32.6447  -36.9057   -2.4289 H   0  0  0  0  0
   34.0012  -36.0468   -3.2847 H   0  0  0  0  0
   32.8093  -36.1527   -5.2625 H   0  0  0  0  0
   29.5144  -37.8515   -3.6369 H   0  0  0  0  0
   30.7742  -37.2172   -2.5729 H   0  0  0  0  0
   31.1850  -36.9783   -6.6075 H   0  0  0  0  0
   35.4967  -33.8225   -5.3178 H   0  0  0  0  0
   34.7845  -31.7157   -7.3164 H   0  0  0  0  0
   37.5880  -32.7271   -6.8837 H   0  0  0  0  0
   36.9282  -31.1687   -6.1868 H   0  0  0  0  0
   36.6413  -30.2694   -8.3095 H   0  0  0  0  0
   37.0986  -31.8772   -9.0925 H   0  0  0  0  0
   39.2220  -32.3262   -7.7537 H   0  0  0  0  0
   34.2365  -32.5516   -9.2456 H   0  0  0  0  0
   35.0688  -35.3644   -9.8539 H   0  0  0  0  0
   32.3908  -34.1787  -10.5688 H   0  0  0  0  0
   31.6418  -35.5160   -8.7813 H   0  0  0  0  0
   33.0489  -36.0298  -11.9909 H   0  0  0  0  0
   33.3692  -37.0441  -10.5627 H   0  0  0  0  0
   31.7084  -36.5117  -10.9223 H   0  0  0  0  0
   35.9812  -35.7583  -11.7225 H   0  0  0  0  0
   36.4096  -33.5627  -13.6419 H   0  0  0  0  0
   37.7956  -35.2057  -14.8286 H   0  0  0  0  0
   37.3656  -36.4194  -13.5181 H   0  0  0  0  0
   38.4977  -35.1718  -11.9199 H   0  0  0  0  0
   38.8102  -33.8258  -13.1404 H   0  0  0  0  0
   39.7536  -35.1052  -15.0364 H   0  0  0  0  0
   34.9601  -33.1905  -15.2553 H   0  0  0  0  0
   33.4665  -35.5228  -16.3067 H   0  0  0  0  0
   32.6140  -34.9993  -18.4179 H   0  0  0  0  0
   31.5565  -34.0769  -16.9007 H   0  0  0  0  0
   31.4598  -35.6169  -15.0222 H   0  0  0  0  0
   32.1992  -34.4000  -13.9529 H   0  0  0  0  0
   30.5765  -34.1209  -14.6312 H   0  0  0  0  0
   32.8754  -32.0901  -15.0359 H   0  0  0  0  0
   32.5664  -31.8819  -16.7772 H   0  0  0  0  0
   31.2023  -31.9933  -15.6380 H   0  0  0  0  0
  1  2  1  0  0  0
  2  3  1  0  0  0
  3  4  2  0  0  0
  3  5  1  0  0  0
  5  6  1  0  0  0
  6  7  1  0  0  0
  6  9  1  0  0  0
  7  8  2  0  0  0
  7 16  1  0  0  0
  9 10  1  0  0  0
 10 11  1  0  0  0
 11 12  1  0  0  0
 12 13  1  0  0  0
 13 14  1  0  0  0
 13 15  2  0  0  0
 16 17  1  0  0  0
 17 18  1  0  0  0
 17 20  1  0  0  0
 18 19  2  0  0  0
 18 25  1  0  0  0
 20 21  1  0  0  0
 21 22  1  0  0  0
 22 23  1  0  0  0
 22 24  2  0  0  0
 25 26  1  0  0  0
 26 27  1  0  0  0
 26 29  1  0  0  0
 27 28  2  0  0  0
 27 32  1  0  0  0
 29 30  1  0  0  0
 29 31  1  0  0  0
 32 33  1  0  0  0
 33 34  1  0  0  0
 33 36  1  0  0  0
 34 35  2  0  0  0
 34 41  1  0  0  0
 36 37  1  0  0  0
 37 38  1  0  0  0
 38 39  1  0  0  0
 38 40  2  0  0  0
 41 42  1  0  0  0
 42 43  1  0  0  0
 42 45  1  0  0  0
 43 44  1  0  0  0
 43 48  2  0  0  0
 45 46  1  0  0  0
 45 47  1  0  0  0
  1 49  1  0  0  0
  1 50  1  0  0  0
  1 51  1  0  0  0
  2 52  1  0  0  0
  2 53  1  0  0  0
  5 54  1  0  0  0
  6 55  1  0  0  0
  9 56  1  0  0  0
  9 57  1  0  0  0
 10 58  1  0  0  0
 10 59  1  0  0  0
 11 60  1  0  0  0
 11 61  1  0  0  0
 12 62  1  0  0  0
 14 63  1  0  0  0
 14 64  1  0  0  0
 15 65  1  0  0  0
 16 66  1  0  0  0
 17 67  1  0  0  0
 20 68  1  0  0  0
 20 69  1  0  0  0
 21 70  1  0  0  0
 21 71  1  0  0  0
 23 72  1  0  0  0
 25 73  1  0  0  0
 26 74  1  0  0  0
 29 75  1  0  0  0
 30 76  1  0  0  0
 31 77  1  0  0  0
 31 78  1  0  0  0
 31 79  1  0  0  0
 32 80  1  0  0  0
 33 81  1  0  0  0
 36 82  1  0  0  0
 36 83  1  0  0  0
 37 84  1  0  0  0
 37 85  1  0  0  0
 39 86  1  0  0  0
 41 87  1  0  0  0
 42 88  1  0  0  0
 44 89  1  0  0  0
 45 90  1  0  0  0
 46 91  1  0  0  0
 46 92  1  0  0  0
 46 93  1  0  0  0
 47 94  1  0  0  0
 47 95  1  0  0  0
 47 96  1  0  0  0
M  END
$$$$
