### 
### Created by X-TOOL on Mon Sep 10 21:13:29 2018
### 

@<TRIPOS>MOLECULE
5eyz_ligand
   94    93     1     0     0
SMALL
GAST_HUCK


@<TRIPOS>ATOM
      1 N          34.7030  -31.1000    0.4230 N.4       1 GLY         0.2357
      2 CA         35.1640  -30.4480   -0.7940 C.3       1 GLY         0.0545
      3 C          35.2570  -31.3930   -1.9730 C.2       1 GLY         0.2236
      4 O          36.3430  -31.5890   -2.5270 O.2       1 GLY        -0.3910
      5 N          34.1100  -31.9860   -2.3610 N.am      1 ARG        -0.2613
      6 CA         33.9950  -32.9320   -3.4750 C.3       1 ARG         0.1312
      7 C          34.2710  -32.2810   -4.8310 C.2       1 ARG         0.2039
      8 O          33.7440  -31.2050   -5.1210 O.2       1 ARG        -0.3944
      9 CB         32.6070  -33.5980   -3.4850 C.3       1 ARG        -0.0092
     10 CG         32.4570  -34.7870   -2.5340 C.3       1 ARG        -0.0156
     11 CD         32.9250  -36.1160   -3.1260 C.3       1 ARG         0.0627
     12 NE         32.3030  -36.4220   -4.4190 N.pl3     1 ARG        -0.2723
     13 CZ         31.1270  -37.0250   -4.5720 C.cat     1 ARG         0.2882
     14 NH1        30.4170  -37.3930   -3.5120 N.pl3     1 ARG        -0.2849
     15 NH2        30.6500  -37.2600   -5.7860 N.pl3     1 ARG        -0.2849
     16 N          35.0990  -32.9450   -5.6530 N.am      1 GLU        -0.2636
     17 CA         35.4710  -32.4990   -6.9950 C.3       1 GLU         0.1325
     18 C          35.3660  -33.6740   -7.9720 C.2       1 GLU         0.2041
     19 O          35.9150  -34.7460   -7.7060 O.2       1 GLU        -0.3944
     20 CB         36.8880  -31.8990   -6.9950 C.3       1 GLU        -0.0008
     21 CG         37.2560  -31.1690   -8.2790 C.3       1 GLU         0.0044
     22 CD         38.6970  -30.7080   -8.3840 C.2       1 GLU         0.0350
     23 OE1        39.6100  -31.5070   -8.0700 O.co2     1 GLU        -0.5690
     24 OE2        38.9160  -29.5590   -8.8290 O.co2     1 GLU        -0.5690
     25 N          34.6540  -33.4700   -9.0950 N.am      1 THR        -0.2613
     26 CA         34.4500  -34.5050  -10.1120 C.3       1 THR         0.1565
     27 C          34.9180  -34.0400  -11.4940 C.2       1 THR         0.2065
     28 O          34.5510  -32.9490  -11.9340 O.2       1 THR        -0.3943
     29 CB         32.9810  -34.9760  -10.1170 C.3       1 THR         0.0924
     30 OG1        32.5560  -35.2230   -8.7770 O.3       1 THR        -0.3874
     31 CG2        32.7610  -36.2310  -10.9590 C.3       1 THR        -0.0346
     32 N          35.7110  -34.8850  -12.1750 N.am      1 GLU        -0.2635
     33 CA         36.2100  -34.6280  -13.5260 C.3       1 GLU         0.1324
     34 C          35.1440  -35.0840  -14.5230 C.2       1 GLU         0.2035
     35 O          34.7770  -36.2620  -14.5270 O.2       1 GLU        -0.3944
     36 CB         37.5350  -35.3760  -13.7840 C.3       1 GLU        -0.0008
     37 CG         38.7130  -34.8950  -12.9520 C.3       1 GLU         0.0044
     38 CD         40.0530  -35.5180  -13.2960 C.2       1 GLU         0.0350
     39 OE1        40.4340  -35.5040  -14.4890 O.co2     1 GLU        -0.5690
     40 OE2        40.7440  -35.9830  -12.3610 O.co2     1 GLU        -0.5690
     41 N          34.6250  -34.1500  -15.3420 N.am      1 VAL        -0.2692
     42 CA         33.5990  -34.4420  -16.3560 C.3       1 VAL         0.0967
     43 C          34.0680  -34.1200  -17.7890 C.2       1 VAL         0.0603
     44 O          33.3830  -34.5310  -18.7510 O.co2     1 VAL        -0.5666
     45 CB         32.1850  -33.8640  -16.0360 C.3       1 VAL        -0.0118
     46 CG1        31.5600  -34.5500  -14.8230 C.3       1 VAL        -0.0590
     47 CG2        32.2090  -32.3480  -15.8590 C.3       1 VAL        -0.0590
     48 OXT        35.1280  -33.4760  -17.9470 O.co2     1 VAL        -0.5666
     49 H1         34.6610  -30.4251    1.1705 H         1 GLY         0.2012
     50 H2         35.3430  -31.8378    0.6721 H         1 GLY         0.2012
     51 H3         33.7857  -31.4885    0.2693 H         1 GLY         0.2012
     52 H4         36.1606  -30.0216   -0.6072 H         1 GLY         0.1061
     53 H5         34.4612  -29.6405   -1.0468 H         1 GLY         0.1061
     54 H6         33.2780  -31.7646   -1.8524 H         1 ARG         0.1884
     55 H7         34.7493  -33.7178   -3.3216 H         1 ARG         0.0800
     56 H8         32.4042  -33.9502   -4.5072 H         1 ARG         0.0313
     57 H9         31.8618  -32.8393   -3.2039 H         1 ARG         0.0313
     58 H10        31.3949  -34.8829   -2.2641 H         1 ARG         0.0301
     59 H11        33.0484  -34.5836   -1.6291 H         1 ARG         0.0301
     60 H12        32.6762  -36.9210   -2.4189 H         1 ARG         0.0689
     61 H13        34.0155  -36.0730   -3.2638 H         1 ARG         0.0689
     62 H14        32.8143  -36.1500   -5.2708 H         1 ARG         0.2642
     63 H15        29.5073  -37.8594   -3.6381 H         1 ARG         0.2615
     64 H16        30.7759  -37.2121   -2.5637 H         1 ARG         0.2615
     65 H17        31.1920  -36.9790   -6.6156 H         1 ARG         0.2615
     66 H18        29.7373  -37.7237   -5.8999 H         1 ARG         0.2615
     67 H19        35.4889  -33.8053   -5.3244 H         1 GLU         0.1883
     68 H20        34.7658  -31.7170   -7.3129 H         1 GLU         0.0801
     69 H21        37.6087  -32.7161   -6.8440 H         1 GLU         0.0330
     70 H22        36.9611  -31.1866   -6.1600 H         1 GLU         0.0330
     71 H23        36.6107  -30.2819   -8.3602 H         1 GLU         0.0433
     72 H24        37.0557  -31.8465   -9.1221 H         1 GLU         0.0433
     73 H25        34.2447  -32.5696   -9.2427 H         1 THR         0.1884
     74 H26        35.0708  -35.3693   -9.8335 H         1 THR         0.0826
     75 H27        32.3654  -34.1687  -10.5405 H         1 THR         0.0639
     76 H28        32.6310  -34.4233   -8.2697 H         1 THR         0.2101
     77 H29        31.6990  -36.5153  -10.9227 H         1 THR         0.0257
     78 H30        33.3743  -37.0524  -10.5601 H         1 THR         0.0257
     79 H31        33.0511  -36.0292  -12.0007 H         1 THR         0.0257
     80 H32        35.9759  -35.7411  -11.7313 H         1 GLU         0.1883
     81 H33        36.3842  -33.5486  -13.6469 H         1 GLU         0.0801
     82 H34        37.7946  -35.2552  -14.8461 H         1 GLU         0.0330
     83 H35        37.3742  -36.4419  -13.5648 H         1 GLU         0.0330
     84 H36        38.4964  -35.1182  -11.8969 H         1 GLU         0.0433
     85 H37        38.8008  -33.8068  -13.0861 H         1 GLU         0.0433
     86 H38        34.9535  -33.2093  -15.2570 H         1 VAL         0.1875
     87 H39        33.4732  -35.5344  -16.3286 H         1 VAL         0.0729
     88 H40        31.5426  -34.0805  -16.9023 H         1 VAL         0.0336
     89 H41        30.5673  -34.1178  -14.6284 H         1 VAL         0.0234
     90 H42        32.2041  -34.3993  -13.9442 H         1 VAL         0.0234
     91 H43        31.4583  -35.6269  -15.0228 H         1 VAL         0.0234
     92 H44        32.6635  -31.8825  -16.7460 H         1 VAL         0.0234
     93 H45        32.8001  -32.0922  -14.9673 H         1 VAL         0.0234
     94 H46        31.1808  -31.9768  -15.7363 H         1 VAL         0.0234
@<TRIPOS>BOND
     1    1    2 1  
     2    2    3 1  
     3    3    4 2  
     4    3    5 am 
     5    5    6 1  
     6    6    7 1  
     7    6    9 1  
     8    7    8 2  
     9    7   16 am 
    10    9   10 1  
    11   10   11 1  
    12   11   12 1  
    13   12   13 ar 
    14   13   14 ar 
    15   13   15 ar 
    16   16   17 1  
    17   17   18 1  
    18   17   20 1  
    19   18   19 2  
    20   18   25 am 
    21   20   21 1  
    22   21   22 1  
    23   22   23 ar 
    24   22   24 ar 
    25   25   26 1  
    26   26   27 1  
    27   26   29 1  
    28   27   28 2  
    29   27   32 am 
    30   29   30 1  
    31   29   31 1  
    32   32   33 1  
    33   33   34 1  
    34   33   36 1  
    35   34   35 2  
    36   34   41 am 
    37   36   37 1  
    38   37   38 1  
    39   38   39 ar 
    40   38   40 ar 
    41   41   42 1  
    42   42   43 1  
    43   42   45 1  
    44   43   44 ar 
    45   43   48 ar 
    46   45   46 1  
    47   45   47 1  
    48    1   49 1  
    49    1   50 1  
    50    1   51 1  
    51    2   52 1  
    52    2   53 1  
    53    5   54 1  
    54    6   55 1  
    55    9   56 1  
    56    9   57 1  
    57   10   58 1  
    58   10   59 1  
    59   11   60 1  
    60   11   61 1  
    61   12   62 1  
    62   14   63 1  
    63   14   64 1  
    64   15   65 1  
    65   15   66 1  
    66   16   67 1  
    67   17   68 1  
    68   20   69 1  
    69   20   70 1  
    70   21   71 1  
    71   21   72 1  
    72   25   73 1  
    73   26   74 1  
    74   29   75 1  
    75   30   76 1  
    76   31   77 1  
    77   31   78 1  
    78   31   79 1  
    79   32   80 1  
    80   33   81 1  
    81   36   82 1  
    82   36   83 1  
    83   37   84 1  
    84   37   85 1  
    85   41   86 1  
    86   42   87 1  
    87   45   88 1  
    88   46   89 1  
    89   46   90 1  
    90   46   91 1  
    91   47   92 1  
    92   47   93 1  
    93   47   94 1  
@<TRIPOS>SUBSTRUCTURE
     1 GLY         1

