4qyo_ligand
  -I-interpret- 

161161  0  0  0  0  0  0  0  0999 V2000
   29.8300    6.2230   41.7540 C   0  0  0  0  0
   28.6420    5.8980   41.5600 O   0  0  0  0  0
   30.9220    5.8260   40.7960 C   0  0  0  0  0
   30.1980    7.1190   42.6820 N   0  0  0  0  0
   29.2710    7.5640   43.7280 C   0  0  0  0  0
   28.2350    8.5610   43.2180 C   0  0  0  0  0
   27.2550    8.9110   43.9380 O   0  0  0  0  0
   30.0060    8.1540   44.9290 C   0  0  0  0  0
   29.1300    8.2250   46.1710 C   0  0  0  0  0
   28.3220    7.3360   46.4370 O   0  0  0  0  0
   29.3020    9.2770   46.9460 N   0  0  0  0  0
   28.3800    8.9910   41.9650 N   0  0  0  0  0
   27.3520    9.8040   41.3610 C   0  0  0  0  0
   26.0350    9.0500   41.3160 C   0  0  0  0  0
   25.0050    9.6760   41.3050 O   0  0  0  0  0
   27.7360   10.2830   39.9600 C   0  0  0  0  0
   26.0520    7.7250   41.2670 N   0  0  0  0  0
   24.8050    6.9770   41.2550 C   0  0  0  0  0
   24.0070    7.2930   42.5160 C   0  0  0  0  0
   22.7900    7.5080   42.4660 O   0  0  0  0  0
   25.0820    5.4720   41.2020 C   0  0  0  0  0
   23.8470    4.5820   41.2620 C   0  0  0  0  0
   23.3570    3.9950   40.1190 C   0  0  0  0  0
   23.1970    4.3410   42.4570 C   0  0  0  0  0
   22.2510    3.1440   40.1710 C   0  0  0  0  0
   22.0930    3.5080   42.5210 C   0  0  0  0  0
   21.6210    2.9180   41.3800 C   0  0  0  0  0
   20.5170    2.0840   41.4780 O   0  0  0  0  0
   24.6830    7.2700   43.6560 N   0  0  0  0  0
   24.0120    7.4010   44.9410 C   0  0  0  0  0
   23.5990    8.8200   45.2680 C   0  0  0  0  0
   22.5750    9.0240   45.9400 O   0  0  0  0  0
   24.9130    6.8480   46.0440 C   0  0  0  0  0
   25.2410    5.4050   45.8310 C   0  0  0  0  0
   24.3520    4.5730   45.6820 O   0  0  0  0  0
   26.5370    5.0810   45.7850 N   0  0  0  0  0
   24.3740    9.8000   44.8060 N   0  0  0  0  0
   24.2290   11.1640   45.2980 C   0  0  0  0  0
   23.9310   12.2210   44.2520 C   0  0  0  0  0
   23.6840   13.3600   44.6270 O   0  0  0  0  0
   25.4720   11.5560   46.0820 C   0  0  0  0  0
   25.6710   10.7250   47.3290 C   0  0  0  0  0
   24.3630   11.0370   48.5300 S   0  0  0  0  0
   24.8520   12.6660   49.0880 C   0  0  0  0  0
   23.9220   11.8880   42.9640 N   0  0  0  0  0
   23.5190   12.8830   41.9610 C   0  0  0  0  0
   22.0080   13.0850   41.9190 C   0  0  0  0  0
   21.5310   14.0610   41.3520 O   0  0  0  0  0
   24.1020   12.6250   40.5580 C   0  0  0  0  0
   23.5620   11.4750   39.9260 O   0  0  0  0  0
   21.2600   12.1990   42.5650 N   0  0  0  0  0
   19.8550   12.4280   42.8930 C   0  0  0  0  0
   19.6810   12.0780   44.3660 C   0  0  0  0  0
   20.4210   11.2620   44.9050 O   0  0  0  0  0
   18.8550   11.6080   42.0260 C   0  0  0  0  0
   18.9590   10.1000   42.3130 C   0  0  0  0  0
   19.0560   11.9140   40.5480 C   0  0  0  0  0
   17.8190    9.2950   41.7320 C   0  0  0  0  0
   18.6820   12.6810   45.0180 N   0  0  0  0  0
   18.2980   12.2600   46.3530 C   0  0  0  0  0
   17.4470   10.9960   46.2860 C   0  0  0  0  0
   16.4040   10.9470   45.6510 O   0  0  0  0  0
   17.5180   13.3330   47.1110 C   0  0  0  0  0
   17.1470   12.8710   48.5120 C   0  0  0  0  0
   16.4660   13.9480   49.3220 C   0  0  0  0  0
   15.1790   14.2550   48.7290 N   0  0  0  0  0
   14.1380   13.4280   48.7430 C   0  0  0  0  0
   14.2270   12.2490   49.3480 N   0  0  0  0  0
   13.0020   13.7850   48.1610 N   0  0  0  0  0
   17.9260    9.9670   46.9520 N   0  0  0  0  0
   17.2420    8.6810   47.0060 C   0  0  0  0  0
   16.5510    8.5060   48.3570 C   0  0  0  0  0
   15.3440    8.2300   48.4200 O   0  0  0  0  0
   18.2340    7.5500   46.7090 C   0  0  0  0  0
   18.7670    7.6150   45.2900 C   0  0  0  0  0
   19.6530    6.4210   44.9280 C   0  0  0  0  0
   20.2710    6.5700   43.6100 N   0  0  0  0  0
   19.7780    6.1170   42.4650 C   0  0  0  0  0
   18.6470    5.4350   42.4470 N   0  0  0  0  0
   20.4230    6.3370   41.3300 N   0  0  0  0  0
   17.2820    8.7180   49.4340 N   0  0  0  0  0
   30.9690    4.7390   40.7310 H   0  0  0  0  0
   30.7083    6.2413   39.8111 H   0  0  0  0  0
   31.8763    6.2114   41.1549 H   0  0  0  0  0
   31.1441    7.4996   42.6597 H   0  0  0  0  0
   28.7414    6.6659   44.0459 H   0  0  0  0  0
   30.3086    9.1692   44.6725 H   0  0  0  0  0
   30.8557    7.5091   45.1532 H   0  0  0  0  0
   28.7549    9.3754   47.8012 H   0  0  0  0  0
   29.9823    9.9928   46.6906 H   0  0  0  0  0
   29.2157    8.7460   41.4340 H   0  0  0  0  0
   27.2382   10.6897   41.9860 H   0  0  0  0  0
   28.6468   10.8790   40.0181 H   0  0  0  0  0
   27.9054    9.4200   39.3161 H   0  0  0  0  0
   26.9285   10.8902   39.5510 H   0  0  0  0  0
   26.9427    7.2288   41.2376 H   0  0  0  0  0
   24.2360    7.2656   40.3712 H   0  0  0  0  0
   25.6824    5.2334   42.0799 H   0  0  0  0  0
   25.5624    5.2760   40.2434 H   0  0  0  0  0
   23.8374    4.1963   39.1615 H   0  0  0  0  0
   23.5607    4.8163   43.3680 H   0  0  0  0  0
   21.8871    2.6612   39.2640 H   0  0  0  0  0
   21.6018    3.3229   43.4763 H   0  0  0  0  0
   20.2211    2.0526   42.3907 H   0  0  0  0  0
   25.6965    7.1579   43.6322 H   0  0  0  0  0
   23.0890    6.8249   44.8756 H   0  0  0  0  0
   24.3847    6.9403   46.9929 H   0  0  0  0  0
   25.8450    7.4133   46.0373 H   0  0  0  0  0
   26.8153    4.1134   45.6213 H   0  0  0  0  0
   27.2476    5.8013   45.9136 H   0  0  0  0  0
   25.0786    9.5928   44.0982 H   0  0  0  0  0
   23.3407   11.1410   45.9293 H   0  0  0  0  0
   25.3558   12.5949   46.3906 H   0  0  0  0  0
   26.3355   11.3972   45.4361 H   0  0  0  0  0
   26.6280   10.9916   47.7775 H   0  0  0  0  0
   25.6482    9.6706   47.0536 H   0  0  0  0  0
   25.8517   12.6159   49.5196 H   0  0  0  0  0
   24.8542   13.3530   48.2418 H   0  0  0  0  0
   24.1469   13.0175   49.8412 H   0  0  0  0  0
   24.1931   10.9482   42.6748 H   0  0  0  0  0
   23.9638   13.8198   42.2967 H   0  0  0  0  0
   25.1740   12.4642   40.6722 H   0  0  0  0  0
   23.8571   13.4867   39.9369 H   0  0  0  0  0
   23.9631   11.3690   39.0603 H   0  0  0  0  0
   21.6866   11.3161   42.8458 H   0  0  0  0  0
   19.6204   13.4712   42.6814 H   0  0  0  0  0
   17.8442   11.9111   42.2989 H   0  0  0  0  0
   18.9335    9.9701   43.3949 H   0  0  0  0  0
   19.8802    9.7420   41.8533 H   0  0  0  0  0
   18.8893   12.9768   40.3724 H   0  0  0  0  0
   20.0738   11.6519   40.2592 H   0  0  0  0  0
   18.3482   11.3316   39.9582 H   0  0  0  0  0
   16.8770    9.6439   42.1550 H   0  0  0  0  0
   17.8015    9.4211   40.6495 H   0  0  0  0  0
   17.9594    8.2415   41.9741 H   0  0  0  0  0
   18.1817   13.4490   44.5704 H   0  0  0  0  0
   19.2260   12.0711   46.8927 H   0  0  0  0  0
   16.5994   13.5427   46.5630 H   0  0  0  0  0
   18.1460   14.2199   47.1959 H   0  0  0  0  0
   18.0673   12.5970   49.0278 H   0  0  0  0  0
   16.4525   12.0365   48.4154 H   0  0  0  0  0
   17.0862   14.8443   49.3303 H   0  0  0  0  0
   16.3217   13.5984   50.3443 H   0  0  0  0  0
   15.0653   15.1605   48.2734 H   0  0  0  0  0
   13.4228   11.6218   49.3636 H   0  0  0  0  0
   15.0996   11.9708   49.7970 H   0  0  0  0  0
   12.9271   14.6933   47.7030 H   0  0  0  0  0
   18.8100   10.0735   47.4496 H   0  0  0  0  0
   16.4658    8.6457   46.2416 H   0  0  0  0  0
   17.7135    6.6004   46.8331 H   0  0  0  0  0
   19.0767    7.6490   47.3932 H   0  0  0  0  0
   19.3738    8.5164   45.2045 H   0  0  0  0  0
   17.9120    7.6108   44.6139 H   0  0  0  0  0
   19.0279    5.5282   44.9103 H   0  0  0  0  0
   20.4488    6.3523   45.6697 H   0  0  0  0  0
   21.1608    7.0668   43.5680 H   0  0  0  0  0
   18.1469    5.2537   43.3173 H   0  0  0  0  0
   20.0458    5.9809   40.4518 H   0  0  0  0  0
   21.2971    6.8626   41.3338 H   0  0  0  0  0
   16.8568    8.6571   50.3591 H   0  0  0  0  0
   18.2726    8.9429   49.3419 H   0  0  0  0  0
  1  2  2  0  0  0
  1  3  1  0  0  0
  1  4  1  0  0  0
  4  5  1  0  0  0
  5  6  1  0  0  0
  5  8  1  0  0  0
  6  7  2  0  0  0
  6 12  1  0  0  0
  8  9  1  0  0  0
  9 10  2  0  0  0
  9 11  1  0  0  0
 12 13  1  0  0  0
 13 14  1  0  0  0
 13 16  1  0  0  0
 14 15  2  0  0  0
 14 17  1  0  0  0
 17 18  1  0  0  0
 18 19  1  0  0  0
 18 21  1  0  0  0
 19 20  2  0  0  0
 19 29  1  0  0  0
 21 22  1  0  0  0
 22 23  4  0  0  0
 22 24  4  0  0  0
 23 25  4  0  0  0
 24 26  4  0  0  0
 25 27  4  0  0  0
 26 27  4  0  0  0
 27 28  1  0  0  0
 29 30  1  0  0  0
 30 31  1  0  0  0
 30 33  1  0  0  0
 31 32  2  0  0  0
 31 37  1  0  0  0
 33 34  1  0  0  0
 34 35  2  0  0  0
 34 36  1  0  0  0
 37 38  1  0  0  0
 38 39  1  0  0  0
 38 41  1  0  0  0
 39 40  2  0  0  0
 39 45  1  0  0  0
 41 42  1  0  0  0
 42 43  1  0  0  0
 43 44  1  0  0  0
 45 46  1  0  0  0
 46 47  1  0  0  0
 46 49  1  0  0  0
 47 48  2  0  0  0
 47 51  1  0  0  0
 49 50  1  0  0  0
 51 52  1  0  0  0
 52 53  1  0  0  0
 52 55  1  0  0  0
 53 54  2  0  0  0
 53 59  1  0  0  0
 55 56  1  0  0  0
 55 57  1  0  0  0
 56 58  1  0  0  0
 59 60  1  0  0  0
 60 61  1  0  0  0
 60 63  1  0  0  0
 61 62  2  0  0  0
 61 70  1  0  0  0
 63 64  1  0  0  0
 64 65  1  0  0  0
 65 66  1  0  0  0
 66 67  1  0  0  0
 67 68  1  0  0  0
 67 69  2  0  0  0
 70 71  1  0  0  0
 71 72  1  0  0  0
 71 74  1  0  0  0
 72 73  2  0  0  0
 72 81  1  0  0  0
 74 75  1  0  0  0
 75 76  1  0  0  0
 76 77  1  0  0  0
 77 78  1  0  0  0
 78 79  2  0  0  0
 78 80  1  0  0  0
  3 82  1  0  0  0
  3 83  1  0  0  0
  3 84  1  0  0  0
  4 85  1  0  0  0
  5 86  1  0  0  0
  8 87  1  0  0  0
  8 88  1  0  0  0
 11 89  1  0  0  0
 11 90  1  0  0  0
 12 91  1  0  0  0
 13 92  1  0  0  0
 16 93  1  0  0  0
 16 94  1  0  0  0
 16 95  1  0  0  0
 17 96  1  0  0  0
 18 97  1  0  0  0
 21 98  1  0  0  0
 21 99  1  0  0  0
 23100  1  0  0  0
 24101  1  0  0  0
 25102  1  0  0  0
 26103  1  0  0  0
 28104  1  0  0  0
 29105  1  0  0  0
 30106  1  0  0  0
 33107  1  0  0  0
 33108  1  0  0  0
 36109  1  0  0  0
 36110  1  0  0  0
 37111  1  0  0  0
 38112  1  0  0  0
 41113  1  0  0  0
 41114  1  0  0  0
 42115  1  0  0  0
 42116  1  0  0  0
 44117  1  0  0  0
 44118  1  0  0  0
 44119  1  0  0  0
 45120  1  0  0  0
 46121  1  0  0  0
 49122  1  0  0  0
 49123  1  0  0  0
 50124  1  0  0  0
 51125  1  0  0  0
 52126  1  0  0  0
 55127  1  0  0  0
 56128  1  0  0  0
 56129  1  0  0  0
 57130  1  0  0  0
 57131  1  0  0  0
 57132  1  0  0  0
 58133  1  0  0  0
 58134  1  0  0  0
 58135  1  0  0  0
 59136  1  0  0  0
 60137  1  0  0  0
 63138  1  0  0  0
 63139  1  0  0  0
 64140  1  0  0  0
 64141  1  0  0  0
 65142  1  0  0  0
 65143  1  0  0  0
 66144  1  0  0  0
 68145  1  0  0  0
 68146  1  0  0  0
 69147  1  0  0  0
 70148  1  0  0  0
 71149  1  0  0  0
 74150  1  0  0  0
 74151  1  0  0  0
 75152  1  0  0  0
 75153  1  0  0  0
 76154  1  0  0  0
 76155  1  0  0  0
 77156  1  0  0  0
 79157  1  0  0  0
 80158  1  0  0  0
 80159  1  0  0  0
 81160  1  0  0  0
 81161  1  0  0  0
M  END
$$$$
