### 
### Created by X-TOOL on Mon Sep 10 21:13:20 2018
### 

@<TRIPOS>MOLECULE
4qyo_ligand
  163   163     1     0     0
SMALL
GAST_HUCK


@<TRIPOS>ATOM
      1 C          29.8300    6.2230   41.7540 C.2       1 ACE         0.1752
      2 O          28.6420    5.8980   41.5600 O.2       1 ACE        -0.3972
      3 CH3        30.9220    5.8260   40.7960 C.3       1 ACE         0.0258
      4 N          30.1980    7.1190   42.6820 N.am      1 ASN        -0.2637
      5 CA         29.2710    7.5640   43.7280 C.3       1 ASN         0.1475
      6 C          28.2350    8.5610   43.2180 C.2       1 ASN         0.2062
      7 O          27.2550    8.9110   43.9380 O.2       1 ASN        -0.3942
      8 CB         30.0060    8.1540   44.9290 C.3       1 ASN         0.0773
      9 CG         29.1300    8.2250   46.1710 C.2       1 ASN         0.1780
     10 OD1        28.3220    7.3360   46.4370 O.2       1 ASN        -0.3970
     11 ND2        29.3020    9.2770   46.9460 N.am      1 ASN        -0.3007
     12 N          28.3800    8.9910   41.9650 N.am      1 ALA        -0.2639
     13 CA         27.3520    9.8040   41.3610 C.3       1 ALA         0.1282
     14 C          26.0350    9.0500   41.3160 C.2       1 ALA         0.2037
     15 O          25.0050    9.6760   41.3050 O.2       1 ALA        -0.3944
     16 CB         27.7360   10.2830   39.9600 C.3       1 ALA        -0.0244
     17 N          26.0520    7.7250   41.2670 N.am      1 TYR        -0.2621
     18 CA         24.8050    6.9770   41.2550 C.3       1 TYR         0.1390
     19 C          24.0070    7.2930   42.5160 C.2       1 TYR         0.2059
     20 O          22.7900    7.5080   42.4660 O.2       1 TYR        -0.3942
     21 CB         25.0820    5.4720   41.2020 C.3       1 TYR         0.0163
     22 CG         23.8470    4.5820   41.2620 C.ar      1 TYR        -0.0493
     23 CD1        23.3570    3.9950   40.1190 C.ar      1 TYR        -0.0685
     24 CD2        23.1970    4.3410   42.4570 C.ar      1 TYR        -0.0685
     25 CE1        22.2510    3.1440   40.1710 C.ar      1 TYR        -0.0398
     26 CE2        22.0930    3.5080   42.5210 C.ar      1 TYR        -0.0398
     27 CZ         21.6210    2.9180   41.3800 C.ar      1 TYR         0.0805
     28 OH         20.5170    2.0840   41.4780 O.3       1 TYR        -0.3376
     29 N          24.6830    7.2700   43.6560 N.am      1 ASN        -0.2615
     30 CA         24.0120    7.4010   44.9410 C.3       1 ASN         0.1476
     31 C          23.5990    8.8200   45.2680 C.2       1 ASN         0.2063
     32 O          22.5750    9.0240   45.9400 O.2       1 ASN        -0.3942
     33 CB         24.9130    6.8480   46.0440 C.3       1 ASN         0.0773
     34 CG         25.2410    5.4050   45.8310 C.2       1 ASN         0.1780
     35 OD1        24.3520    4.5730   45.6820 O.2       1 ASN        -0.3970
     36 ND2        26.5370    5.0810   45.7850 N.am      1 ASN        -0.3007
     37 N          24.3740    9.8000   44.8060 N.am      1 MET        -0.2636
     38 CA         24.2290   11.1640   45.2980 C.3       1 MET         0.1317
     39 C          23.9310   12.2210   44.2520 C.2       1 MET         0.2040
     40 O          23.6840   13.3600   44.6270 O.2       1 MET        -0.3944
     41 CB         25.4720   11.5560   46.0820 C.3       1 MET        -0.0034
     42 CG         25.6710   10.7250   47.3290 C.3       1 MET        -0.0024
     43 SD         24.3630   11.0370   48.5300 S.3       1 MET        -0.1639
     44 CE         24.8520   12.6660   49.0880 C.3       1 MET        -0.0181
     45 N          23.9220   11.8880   42.9640 N.am      1 SER        -0.2616
     46 CA         23.5190   12.8830   41.9610 C.3       1 SER         0.1539
     47 C          22.0080   13.0850   41.9190 C.2       1 SER         0.2062
     48 O          21.5310   14.0610   41.3520 O.2       1 SER        -0.3943
     49 CB         24.1020   12.6250   40.5580 C.3       1 SER         0.0843
     50 OG         23.5620   11.4750   39.9260 O.3       1 SER        -0.3903
     51 N          21.2600   12.1990   42.5650 N.am      1 ILE        -0.2634
     52 CA         19.8550   12.4280   42.8930 C.3       1 ILE         0.1335
     53 C          19.6810   12.0780   44.3660 C.2       1 ILE         0.2042
     54 O          20.4210   11.2620   44.9050 O.2       1 ILE        -0.3944
     55 CB         18.8550   11.6080   42.0260 C.3       1 ILE        -0.0037
     56 CG1        18.9590   10.1000   42.3130 C.3       1 ILE        -0.0491
     57 CG2        19.0560   11.9140   40.5480 C.3       1 ILE        -0.0582
     58 CD1        17.8190    9.2950   41.7320 C.3       1 ILE        -0.0648
     59 N          18.6820   12.6810   45.0180 N.am      1 ARG        -0.2637
     60 CA         18.2980   12.2600   46.3530 C.3       1 ARG         0.1311
     61 C          17.4470   10.9960   46.2860 C.2       1 ARG         0.2039
     62 O          16.4040   10.9470   45.6510 O.2       1 ARG        -0.3944
     63 CB         17.5180   13.3330   47.1110 C.3       1 ARG        -0.0092
     64 CG         17.1470   12.8710   48.5120 C.3       1 ARG        -0.0156
     65 CD         16.4660   13.9480   49.3220 C.3       1 ARG         0.0627
     66 NE         15.1790   14.2550   48.7290 N.pl3     1 ARG        -0.2723
     67 CZ         14.1380   13.4280   48.7430 C.cat     1 ARG         0.2882
     68 NH1        14.2270   12.2490   49.3480 N.pl3     1 ARG        -0.2849
     69 NH2        13.0020   13.7850   48.1610 N.pl3     1 ARG        -0.2849
     70 N          17.9260    9.9670   46.9520 N.am      1 ARG        -0.2637
     71 CA         17.2420    8.6810   47.0060 C.3       1 ARG         0.1307
     72 C          16.5510    8.5060   48.3570 C.2       1 ARG         0.1992
     73 O          15.3440    8.2300   48.4200 O.2       1 ARG        -0.3947
     74 CB         18.2340    7.5500   46.7090 C.3       1 ARG        -0.0092
     75 CG         18.7670    7.6150   45.2900 C.3       1 ARG        -0.0156
     76 CD         19.6530    6.4210   44.9280 C.3       1 ARG         0.0627
     77 NE         20.2710    6.5700   43.6100 N.pl3     1 ARG        -0.2723
     78 CZ         19.7780    6.1170   42.4650 C.cat     1 ARG         0.2882
     79 NH1        18.6470    5.4350   42.4470 N.pl3     1 ARG        -0.2849
     80 NH2        20.4230    6.3370   41.3300 N.pl3     1 ARG        -0.2849
     81 N          17.2820    8.7180   49.4340 N.am      1 NH2        -0.2990
     82 H1         31.8857    6.2144   41.1572 H         1 ACE         0.0467
     83 H2         30.7075    6.2445   39.8016 H         1 ACE         0.0467
     84 H3         30.9706    4.7291   40.7295 H         1 ACE         0.0467
     85 H4         31.1255    7.4921   42.6602 H         1 ASN         0.1884
     86 H5         28.7274    6.6732   44.0756 H         1 ASN         0.0826
     87 H6         30.3393    9.1708   44.6739 H         1 ASN         0.0551
     88 H7         30.8814    7.5258   45.1503 H         1 ASN         0.0551
     89 H8         28.7556    9.3804   47.7771 H         1 ASN         0.1814
     90 H9         29.9789    9.9718   46.7029 H         1 ASN         0.1814
     91 H10        29.1994    8.7508   41.4444 H         1 ALA         0.1883
     92 H11        27.2151   10.6936   41.9933 H         1 ALA         0.0797
     93 H12        26.9217   10.8959   39.5461 H         1 ALA         0.0277
     94 H13        27.9072    9.4129   39.3091 H         1 ALA         0.0277
     95 H14        28.6551   10.8847   40.0173 H         1 ALA         0.0277
     96 H15        26.9252    7.2385   41.2382 H         1 TYR         0.1885
     97 H16        24.2196    7.2680   40.3703 H         1 TYR         0.0821
     98 H17        25.7283    5.2148   42.0541 H         1 TYR         0.0453
     99 H18        25.6113    5.2564   40.2621 H         1 TYR         0.0453
    100 H19        23.8347    4.1952   39.1668 H         1 TYR         0.0530
    101 H20        23.5587    4.8137   43.3630 H         1 TYR         0.0530
    102 H21        21.8891    2.6639   39.2690 H         1 TYR         0.0525
    103 H22        21.6045    3.3239   43.4710 H         1 TYR         0.0525
    104 H23        20.2995    1.7460   40.6172 H         1 TYR         0.2458
    105 H24        25.6767    7.1601   43.6327 H         1 ASN         0.1885
    106 H25        23.0975    6.7909   44.9031 H         1 ASN         0.0826
    107 H26        24.3982    6.9559   47.0101 H         1 ASN         0.0551
    108 H27        25.8489    7.4258   46.0606 H         1 ASN         0.0551
    109 H28        26.8098    4.1292   45.6446 H         1 ASN         0.1814
    110 H29        27.2338    5.7904   45.8910 H         1 ASN         0.1814
    111 H30        25.0648    9.5969   44.1120 H         1 MET         0.1883
    112 H31        23.3768   11.1598   45.9935 H         1 MET         0.0800
    113 H32        25.3826   12.6123   46.3755 H         1 MET         0.0320
    114 H33        26.3506   11.4290   45.4324 H         1 MET         0.0320
    115 H34        26.6414   10.9799   47.7799 H         1 MET         0.0378
    116 H35        25.6620    9.6594   47.0563 H         1 MET         0.0378
    117 H36        24.1411   13.0219   49.8482 H         1 MET         0.0340
    118 H37        24.8546   13.3604   48.2349 H         1 MET         0.0340
    119 H38        25.8608   12.6168   49.5239 H         1 MET         0.0340
    120 H39        24.1878   10.9666   42.6805 H         1 SER         0.1884
    121 H40        23.9484   13.8387   42.2960 H         1 SER         0.0823
    122 H41        25.1900   12.4929   40.6514 H         1 SER         0.0606
    123 H42        23.8918   13.5009   39.9266 H         1 SER         0.0606
    124 H43        23.7443   10.7084   40.4567 H         1 SER         0.2097
    125 H44        21.6782   11.3334   42.8403 H         1 ILE         0.1883
    126 H45        19.6326   13.4950   42.7447 H         1 ILE         0.0803
    127 H46        17.8378   11.9263   42.2978 H         1 ILE         0.0345
    128 H47        18.9687    9.9530   43.4031 H         1 ILE         0.0267
    129 H48        19.9014    9.7283   41.8844 H         1 ILE         0.0267
    130 H49        18.9746   12.9986   40.3838 H         1 ILE         0.0235
    131 H50        18.2861   11.3951   39.9581 H         1 ILE         0.0235
    132 H51        20.0525   11.5695   40.2344 H         1 ILE         0.0235
    133 H52        17.9596    8.2316   41.9757 H         1 ILE         0.0230
    134 H53        17.8003    9.4214   40.6395 H         1 ILE         0.0230
    135 H54        16.8676    9.6461   42.1581 H         1 ILE         0.0230
    136 H55        18.1915   13.4339   44.5792 H         1 ARG         0.1883
    137 H56        19.2168   12.0389   46.9160 H         1 ARG         0.0800
    138 H57        16.5970   13.5640   46.5558 H         1 ARG         0.0313
    139 H58        18.1377   14.2387   47.1863 H         1 ARG         0.0313
    140 H59        18.0646   12.5647   49.0356 H         1 ARG         0.0301
    141 H60        16.4670   12.0103   48.4297 H         1 ARG         0.0301
    142 H61        17.0918   14.8526   49.3295 H         1 ARG         0.0689
    143 H62        16.3199   13.5946   50.3534 H         1 ARG         0.0689
    144 H63        15.0642   15.1694   48.2689 H         1 ARG         0.2642
    145 H64        13.4177   11.6119   49.3561 H         1 ARG         0.2615
    146 H65        15.1053   11.9718   49.8091 H         1 ARG         0.2615
    147 H66        12.9291   14.6985   47.6908 H         1 ARG         0.2615
    148 H67        12.1921   13.1489   48.1789 H         1 ARG         0.2615
    149 H68        18.7927   10.0714   47.4398 H         1 ARG         0.1883
    150 H69        16.4672    8.6669   46.2253 H         1 ARG         0.0800
    151 H70        17.7253    6.5854   46.8527 H         1 ARG         0.0313
    152 H71        19.0791    7.6267   47.4089 H         1 ARG         0.0313
    153 H72        19.3581    8.5361   45.1796 H         1 ARG         0.0301
    154 H73        17.9139    7.6413   44.5961 H         1 ARG         0.0301
    155 H74        19.0370    5.5097   44.9293 H         1 ARG         0.0689
    156 H75        20.4474    6.3277   45.6831 H         1 ARG         0.0689
    157 H76        21.1695    7.0717   43.5676 H         1 ARG         0.2642
    158 H77        18.2701    5.0863   41.5541 H         1 ARG         0.2615
    159 H78        18.1420    5.2519   43.3258 H         1 ARG         0.2615
    160 H79        21.3057    6.8678   41.3338 H         1 ARG         0.2615
    161 H80        20.0421    5.9774   40.4431 H         1 ARG         0.2615
    162 H81        16.8757    8.6163   50.3421 H         1 NH2         0.1815
    163 H82        18.2426    8.9804   49.3426 H         1 NH2         0.1815
@<TRIPOS>BOND
     1    1    2 2  
     2    1    3 1  
     3    1    4 am 
     4    4    5 1  
     5    5    6 1  
     6    5    8 1  
     7    6    7 2  
     8    6   12 am 
     9    8    9 1  
    10    9   10 2  
    11    9   11 am 
    12   12   13 1  
    13   13   14 1  
    14   13   16 1  
    15   14   15 2  
    16   14   17 am 
    17   17   18 1  
    18   18   19 1  
    19   18   21 1  
    20   19   20 2  
    21   19   29 am 
    22   21   22 1  
    23   22   23 ar 
    24   22   24 ar 
    25   23   25 ar 
    26   24   26 ar 
    27   25   27 ar 
    28   26   27 ar 
    29   27   28 1  
    30   29   30 1  
    31   30   31 1  
    32   30   33 1  
    33   31   32 2  
    34   31   37 am 
    35   33   34 1  
    36   34   35 2  
    37   34   36 am 
    38   37   38 1  
    39   38   39 1  
    40   38   41 1  
    41   39   40 2  
    42   39   45 am 
    43   41   42 1  
    44   42   43 1  
    45   43   44 1  
    46   45   46 1  
    47   46   47 1  
    48   46   49 1  
    49   47   48 2  
    50   47   51 am 
    51   49   50 1  
    52   51   52 1  
    53   52   53 1  
    54   52   55 1  
    55   53   54 2  
    56   53   59 am 
    57   55   56 1  
    58   55   57 1  
    59   56   58 1  
    60   59   60 1  
    61   60   61 1  
    62   60   63 1  
    63   61   62 2  
    64   61   70 am 
    65   63   64 1  
    66   64   65 1  
    67   65   66 1  
    68   66   67 ar 
    69   67   68 ar 
    70   67   69 ar 
    71   70   71 1  
    72   71   72 1  
    73   71   74 1  
    74   72   73 2  
    75   72   81 am 
    76   74   75 1  
    77   75   76 1  
    78   76   77 1  
    79   77   78 ar 
    80   78   79 ar 
    81   78   80 ar 
    82    3   82 1  
    83    3   83 1  
    84    3   84 1  
    85    4   85 1  
    86    5   86 1  
    87    8   87 1  
    88    8   88 1  
    89   11   89 1  
    90   11   90 1  
    91   12   91 1  
    92   13   92 1  
    93   16   93 1  
    94   16   94 1  
    95   16   95 1  
    96   17   96 1  
    97   18   97 1  
    98   21   98 1  
    99   21   99 1  
   100   23  100 1  
   101   24  101 1  
   102   25  102 1  
   103   26  103 1  
   104   28  104 1  
   105   29  105 1  
   106   30  106 1  
   107   33  107 1  
   108   33  108 1  
   109   36  109 1  
   110   36  110 1  
   111   37  111 1  
   112   38  112 1  
   113   41  113 1  
   114   41  114 1  
   115   42  115 1  
   116   42  116 1  
   117   44  117 1  
   118   44  118 1  
   119   44  119 1  
   120   45  120 1  
   121   46  121 1  
   122   49  122 1  
   123   49  123 1  
   124   50  124 1  
   125   51  125 1  
   126   52  126 1  
   127   55  127 1  
   128   56  128 1  
   129   56  129 1  
   130   57  130 1  
   131   57  131 1  
   132   57  132 1  
   133   58  133 1  
   134   58  134 1  
   135   58  135 1  
   136   59  136 1  
   137   60  137 1  
   138   63  138 1  
   139   63  139 1  
   140   64  140 1  
   141   64  141 1  
   142   65  142 1  
   143   65  143 1  
   144   66  144 1  
   145   68  145 1  
   146   68  146 1  
   147   69  147 1  
   148   69  148 1  
   149   70  149 1  
   150   71  150 1  
   151   74  151 1  
   152   74  152 1  
   153   75  153 1  
   154   75  154 1  
   155   76  155 1  
   156   76  156 1  
   157   77  157 1  
   158   79  158 1  
   159   79  159 1  
   160   80  160 1  
   161   80  161 1  
   162   81  162 1  
   163   81  163 1  
@<TRIPOS>SUBSTRUCTURE
     1 ACE         1

