4c6v_ligand
  -I-interpret- 

 30 30  0  0  0  0  0  0  0  0999 V2000
   40.1450    0.1850   31.9240 S   0  0  0  0  0
   40.2230    4.8800   32.5890 C   0  0  0  0  0
   40.6810    1.3790   29.4590 C   0  0  0  0  0
   39.6980    1.4940   30.6510 C   0  0  0  0  0
   37.7010    1.8450   29.1680 O   0  0  0  0  0
   43.0690    4.0170   32.2050 C   0  0  0  0  0
   42.0470    3.2910   31.8210 C   0  0  0  0  0
   40.6020    3.5920   31.9110 C   0  0  0  0  0
   39.6180    2.8260   31.3720 C   0  0  0  0  0
   38.6000   -0.7370   31.7800 C   0  0  0  0  0
   38.3840   -1.7420   32.4280 O   0  0  0  0  0
   37.7620   -0.0620   30.7680 C   0  0  0  0  0
   36.4320   -0.5230   30.4120 C   0  0  0  0  0
   35.6350    0.1610   29.3420 C   0  0  0  0  0
   38.3010    1.0790   30.1580 C   0  0  0  0  0
   35.9010   -1.4170   31.0730 O   0  0  0  0  0
   39.7237    5.5328   31.8730 H   0  0  0  0  0
   39.5500    4.6675   33.4197 H   0  0  0  0  0
   41.1216    5.3699   32.9639 H   0  0  0  0  0
   40.4073    2.1043   28.6927 H   0  0  0  0  0
   41.6949    1.5794   29.8052 H   0  0  0  0  0
   40.6299    0.3727   29.0434 H   0  0  0  0  0
   38.2843    2.5684   28.9271 H   0  0  0  0  0
   42.9033    4.9918   32.6637 H   0  0  0  0  0
   44.0843    3.6457   32.0656 H   0  0  0  0  0
   42.2979    2.3299   31.3721 H   0  0  0  0  0
   38.6120    3.2330   31.4738 H   0  0  0  0  0
   35.3158   -0.5737   28.6028 H   0  0  0  0  0
   34.7598    0.6331   29.7884 H   0  0  0  0  0
   36.2520    0.9191   28.8597 H   0  0  0  0  0
  4  1  1  0  0  0
  1 10  1  0  0  0
  8  2  1  0  0  0
  4  3  1  0  0  0
  9  4  1  0  0  0
  4 15  1  0  0  0
 15  5  1  0  0  0
  7  6  2  0  0  0
  8  7  1  0  0  0
  8  9  2  0  0  0
 10 11  2  0  0  0
 10 12  1  0  0  0
 12 13  1  0  0  0
 12 15  2  0  0  0
 13 14  1  0  0  0
 13 16  2  0  0  0
  2 17  1  0  0  0
  2 18  1  0  0  0
  2 19  1  0  0  0
  3 20  1  0  0  0
  3 21  1  0  0  0
  3 22  1  0  0  0
  5 23  1  0  0  0
  6 24  1  0  0  0
  6 25  1  0  0  0
  7 26  1  0  0  0
  9 27  1  0  0  0
 14 28  1  0  0  0
 14 29  1  0  0  0
 14 30  1  0  0  0
M  END
$$$$
