6d4w_ligand
  -I-interpret- 

 49 52  0  0  0  0  0  0  0  0999 V2000
  120.0690    1.7810   -6.3200 C   0  0  0  0  0
  117.7840    2.6000   -6.2080 N   0  0  0  0  0
  117.3250    1.3540   -5.6410 C   0  0  0  0  0
  114.4390    3.4490   -4.9060 C   0  0  0  0  0
  113.3870    3.2970   -3.9950 C   0  0  0  0  0
  114.6960    5.7390   -4.2330 C   0  0  0  0  0
  116.4460    7.2440   -5.2690 C   0  0  0  0  0
  120.2290   -0.7300   -2.4310 C   0  0  0  0  0
  118.7400   -1.3440    0.7990 F   0  0  0  0  0
  119.0050   -1.4620   -0.4800 C   0  0  0  0  0
  118.3500   -2.4510   -1.2870 C   0  0  0  0  0
  118.6530   -2.5460   -2.6580 C   0  0  0  0  0
  119.6060   -1.6730   -3.2180 C   0  0  0  0  0
  119.9740   -1.7330   -4.6950 C   0  0  0  0  0
  120.5000   -0.4000   -5.1760 C   0  0  0  0  0
  121.6040   -0.0970   -5.0290 O   0  0  0  0  0
  119.6110    0.5200   -5.8400 N   0  0  0  0  0
  119.1490    2.9410   -5.9230 C   0  0  0  0  0
  118.2700    0.2080   -6.0540 C   0  0  0  0  0
  116.7920    3.6170   -7.0550 S   0  0  0  0  0
  117.5140    4.1920   -8.2150 O   0  0  0  0  0
  115.7580    2.8680   -7.6300 O   0  0  0  0  0
  116.2210    4.9310   -5.9940 C   0  0  0  0  0
  115.1030    4.7110   -5.0360 C   0  0  0  0  0
  112.9850    4.3490   -3.1920 N   0  0  0  0  0
  113.5960    5.5440   -3.2820 C   0  0  0  0  0
  115.3540    7.0330   -4.3210 C   0  0  0  0  0
  116.8610    6.2000   -6.0850 C   0  0  0  0  0
  119.9140   -0.6280   -1.0250 C   0  0  0  0  0
  120.0937    1.7336   -7.4087 H   0  0  0  0  0
  121.0489    1.9682   -5.8808 H   0  0  0  0  0
  116.3209    1.1411   -6.0078 H   0  0  0  0  0
  117.3145    1.4365   -4.5542 H   0  0  0  0  0
  114.7537    2.6040   -5.5184 H   0  0  0  0  0
  112.8777    2.3364   -3.9174 H   0  0  0  0  0
  116.9328    8.2170   -5.3352 H   0  0  0  0  0
  120.9641   -0.0566   -2.8717 H   0  0  0  0  0
  117.6204   -3.1262   -0.8399 H   0  0  0  0  0
  118.1546   -3.2886   -3.2810 H   0  0  0  0  0
  119.0816   -1.9845   -5.2681 H   0  0  0  0  0
  120.7504   -2.4856   -4.8319 H   0  0  0  0  0
  119.4243    3.8295   -6.4913 H   0  0  0  0  0
  119.2560    3.1363   -4.8560 H   0  0  0  0  0
  118.1327    0.0260   -7.1199 H   0  0  0  0  0
  118.0264   -0.6643   -5.4475 H   0  0  0  0  0
  113.2732    6.3691   -2.6471 H   0  0  0  0  0
  115.0308    7.8502   -3.6761 H   0  0  0  0  0
  117.6751    6.3514   -6.7939 H   0  0  0  0  0
  120.4093    0.1205   -0.4066 H   0  0  0  0  0
  1 17  1  0  0  0
 18  1  1  0  0  0
  2  3  1  0  0  0
  2 18  1  0  0  0
 20  2  1  0  0  0
  3 19  1  0  0  0
  4  5  4  0  0  0
 24  4  4  0  0  0
  5 25  4  0  0  0
 24  6  4  0  0  0
  6 26  4  0  0  0
  6 27  4  0  0  0
 27  7  4  0  0  0
  7 28  4  0  0  0
 13  8  4  0  0  0
  8 29  4  0  0  0
 10  9  1  0  0  0
 11 10  4  0  0  0
 29 10  4  0  0  0
 12 11  4  0  0  0
 13 12  4  0  0  0
 14 13  1  0  0  0
 15 14  1  0  0  0
 15 16  2  0  0  0
 17 15  1  0  0  0
 19 17  1  0  0  0
 20 21  2  0  0  0
 20 22  2  0  0  0
 23 20  1  0  0  0
 23 24  4  0  0  0
 23 28  4  0  0  0
 25 26  4  0  0  0
  1 30  1  0  0  0
  1 31  1  0  0  0
  3 32  1  0  0  0
  3 33  1  0  0  0
  4 34  1  0  0  0
  5 35  1  0  0  0
  7 36  1  0  0  0
  8 37  1  0  0  0
 11 38  1  0  0  0
 12 39  1  0  0  0
 14 40  1  0  0  0
 14 41  1  0  0  0
 18 42  1  0  0  0
 18 43  1  0  0  0
 19 44  1  0  0  0
 19 45  1  0  0  0
 26 46  1  0  0  0
 27 47  1  0  0  0
 28 48  1  0  0  0
 29 49  1  0  0  0
M  END
$$$$
