1h1r_ligand
  -I-interpret- 

 44 47  0  0  0  0  0  0  0  0999 V2000
    8.2730   43.8540   49.7200 C   0  0  0  0  0
    7.2960   44.5980   50.5040 N   0  0  0  0  0
    7.6880   45.5050   51.3510 C   0  0  0  0  0
    6.8040   46.2010   52.0640 O   0  0  0  0  0
    5.5450   45.5290   51.8610 C   0  0  0  0  0
    4.4980   45.9170   52.8940 C   0  0  0  0  0
    4.6810   45.2640   54.2930 C   0  0  0  0  0
    3.6190   45.5920   55.3380 C   0  0  0  0  0
    2.1490   45.2400   54.7900 C   0  0  0  0  0
    1.9870   45.9430   53.4450 C   0  0  0  0  0
    3.0800   45.6370   52.3580 C   0  0  0  0  0
    9.0930   45.7840   51.5470 C   0  0  0  0  0
    9.8900   46.6560   52.3640 N   0  0  0  0  0
   11.1310   46.4380   52.1100 C   0  0  0  0  0
   11.2310   45.5000   51.1730 N   0  0  0  0  0
   10.0070   45.0950   50.8360 C   0  0  0  0  0
    9.5500   44.0970   49.9120 N   0  0  0  0  0
    7.8690   42.9660   48.8680 N   0  0  0  0  0
    6.7600   42.1990   48.8230 C   0  0  0  0  0
    5.8240   42.0800   49.8460 C   0  0  0  0  0
    4.5950   41.4630   49.6930 C   0  0  0  0  0
    4.2830   40.9410   48.4330 C   0  0  0  0  0
    5.1920   41.0440   47.3860 C   0  0  0  0  0
    6.4470   41.6530   47.5550 C   0  0  0  0  0
    3.3610   41.3060   50.9190 Cl  0  0  0  0  0
    5.7203   44.4568   51.9492 H   0  0  0  0  0
    5.1679   45.8150   50.8791 H   0  0  0  0  0
    4.6400   46.9860   53.0524 H   0  0  0  0  0
    5.6220   45.6488   54.6862 H   0  0  0  0  0
    4.6271   44.1870   54.1340 H   0  0  0  0  0
    3.6643   46.6578   55.5619 H   0  0  0  0  0
    3.8115   44.9992   56.2322 H   0  0  0  0  0
    1.3870   45.5768   55.4929 H   0  0  0  0  0
    2.0301   44.1625   54.6762 H   0  0  0  0  0
    2.0577   47.0108   53.6520 H   0  0  0  0  0
    1.0425   45.5895   53.0314 H   0  0  0  0  0
    3.0137   44.5834   52.0867 H   0  0  0  0  0
    2.9017   46.2804   51.4964 H   0  0  0  0  0
   11.9703   46.9432   52.5881 H   0  0  0  0  0
    8.5076   42.8194   48.0863 H   0  0  0  0  0
    6.0729   42.4961   50.8222 H   0  0  0  0  0
    3.3227   40.4512   48.2714 H   0  0  0  0  0
    4.9242   40.6420   46.4089 H   0  0  0  0  0
    7.1601   41.7036   46.7322 H   0  0  0  0  0
  1  2  4  0  0  0
  1 17  4  0  0  0
  1 18  1  0  0  0
  2  3  4  0  0  0
  3  4  1  0  0  0
  3 12  4  0  0  0
  4  5  1  0  0  0
  5  6  1  0  0  0
  6  7  1  0  0  0
  6 11  1  0  0  0
  7  8  1  0  0  0
  8  9  1  0  0  0
  9 10  1  0  0  0
 10 11  1  0  0  0
 12 13  4  0  0  0
 12 16  4  0  0  0
 13 14  4  0  0  0
 14 15  4  0  0  0
 15 16  4  0  0  0
 16 17  4  0  0  0
 18 19  1  0  0  0
 19 20  4  0  0  0
 19 24  4  0  0  0
 20 21  4  0  0  0
 21 22  4  0  0  0
 21 25  1  0  0  0
 22 23  4  0  0  0
 23 24  4  0  0  0
  5 26  1  0  0  0
  5 27  1  0  0  0
  6 28  1  0  0  0
  7 29  1  0  0  0
  7 30  1  0  0  0
  8 31  1  0  0  0
  8 32  1  0  0  0
  9 33  1  0  0  0
  9 34  1  0  0  0
 10 35  1  0  0  0
 10 36  1  0  0  0
 11 37  1  0  0  0
 11 38  1  0  0  0
 14 39  1  0  0  0
 18 40  1  0  0  0
 20 41  1  0  0  0
 22 42  1  0  0  0
 23 43  1  0  0  0
 24 44  1  0  0  0
M  END
$$$$
