4dtt_ligand
  -I-interpret- 

 49 50  0  0  0  0  0  0  0  0999 V2000
   85.5110  -67.0810    5.5240 O   0  0  0  0  0
   84.3500  -67.4840    5.5240 C   0  0  0  0  0
   83.3140  -66.5280    5.9380 O   0  0  0  0  0
   83.2530  -65.2350    5.3210 C   0  0  0  0  0
   84.0040  -68.8760    4.9850 C   0  0  0  0  0
   83.8320  -70.1870    5.8310 C   0  0  0  0  0
   83.8860  -70.2770    7.3630 C   0  0  0  0  0
   83.3690  -71.3630    8.0870 C   0  0  0  0  0
   83.5740  -71.2140    9.4250 N   0  0  0  0  0
   84.2780  -69.9530    9.6210 C   0  0  0  0  0
   84.4450  -69.4140    8.2670 N   0  0  0  0  0
   84.8690  -69.1520    3.8020 N   0  0  0  0  0
   86.1660  -69.4890    3.5640 C   0  0  0  0  0
   87.0380  -69.6700    4.3960 O   0  0  0  0  0
   86.5200  -69.5970    2.0800 C   0  0  0  0  0
   86.9760  -70.8910    1.5200 N   0  3  0  0  0
   85.8850  -71.4960    0.6760 C   0  0  0  0  0
   84.5700  -72.0690    1.2660 C   0  0  0  0  0
   83.6350  -72.3020    0.4810 O   0  0  0  0  0
   84.3800  -72.3270    2.4760 O   0  0  0  0  0
   88.1100  -70.4570    0.6490 C   0  0  0  0  0
   89.3540  -71.3280    0.4760 C   0  0  0  0  0
   89.9020  -71.4540   -0.8190 C   0  0  0  0  0
   91.0980  -72.2650   -1.1200 C   0  0  0  0  0
   91.6680  -72.9150    0.0730 C   0  0  0  0  0
   91.1090  -72.7620    1.3550 C   0  0  0  0  0
   89.9630  -71.9760    1.5620 C   0  0  0  0  0
   84.1898  -64.7059    5.4957 H   0  0  0  0  0
   83.0950  -65.3525    4.2489 H   0  0  0  0  0
   82.4279  -64.6672    5.7511 H   0  0  0  0  0
   82.9379  -68.7048    4.8358 H   0  0  0  0  0
   84.7097  -70.7633    5.5383 H   0  0  0  0  0
   82.7966  -70.4572    5.6237 H   0  0  0  0  0
   82.8666  -72.2181    7.6349 H   0  0  0  0  0
   84.6063  -69.5104   10.5614 H   0  0  0  0  0
   84.3442  -69.0640    2.9318 H   0  0  0  0  0
   87.3725  -68.9296    1.9537 H   0  0  0  0  0
   85.5844  -69.3896    1.5606 H   0  0  0  0  0
   87.2261  -71.5887    2.2208 H   0  0  0  0  0
   86.3654  -72.3754    0.2471 H   0  0  0  0  0
   85.5392  -70.6518    0.0795 H   0  0  0  0  0
   85.1685  -72.1057    2.9769 H   0  0  0  0  0
   88.4853  -69.5568    1.1356 H   0  0  0  0  0
   87.6747  -70.4195   -0.3496 H   0  0  0  0  0
   89.4167  -70.9249   -1.6391 H   0  0  0  0  0
   91.5161  -72.3719   -2.1209 H   0  0  0  0  0
   92.5555  -73.5373   -0.0418 H   0  0  0  0  0
   91.5740  -73.2630    2.2041 H   0  0  0  0  0
   89.5476  -71.8696    2.5641 H   0  0  0  0  0
  1  2  2  0  0  0
  2  3  1  0  0  0
  2  5  1  0  0  0
  3  4  1  0  0  0
  5  6  1  0  0  0
  5 12  1  0  0  0
  6  7  1  0  0  0
  7  8  4  0  0  0
  7 11  4  0  0  0
  8  9  4  0  0  0
  9 10  4  0  0  0
 10 11  4  0  0  0
 12 13  1  0  0  0
 13 14  2  0  0  0
 13 15  1  0  0  0
 15 16  1  0  0  0
 16 17  1  0  0  0
 16 21  1  0  0  0
 17 18  1  0  0  0
 18 19  2  0  0  0
 18 20  1  0  0  0
 21 22  1  0  0  0
 22 23  4  0  0  0
 22 27  4  0  0  0
 23 24  4  0  0  0
 24 25  4  0  0  0
 25 26  4  0  0  0
 26 27  4  0  0  0
  4 28  1  0  0  0
  4 29  1  0  0  0
  4 30  1  0  0  0
  5 31  1  0  0  0
  6 32  1  0  0  0
  6 33  1  0  0  0
  8 34  1  0  0  0
 10 35  1  0  0  0
 12 36  1  0  0  0
 15 37  1  0  0  0
 15 38  1  0  0  0
 16 39  1  0  0  0
 17 40  1  0  0  0
 17 41  1  0  0  0
 20 42  1  0  0  0
 21 43  1  0  0  0
 21 44  1  0  0  0
 23 45  1  0  0  0
 24 46  1  0  0  0
 25 47  1  0  0  0
 26 48  1  0  0  0
 27 49  1  0  0  0
M  END
$$$$
