4k4e_ligand
  -I-interpret- 

 55 58  0  0  0  0  0  0  0  0999 V2000
   -5.5810   44.2770   26.7720 N   0  0  0  0  0
   -6.0330   44.6300   28.0360 C   0  0  0  0  0
   -5.1930   44.4450   29.1820 C   0  0  0  0  0
   -5.7850   44.8050   30.4490 C   0  0  0  0  0
   -7.1160   45.3160   30.6170 C   0  0  0  0  0
   -7.9670   45.5130   29.4800 C   0  0  0  0  0
   -7.3960   45.1570   28.1920 C   0  0  0  0  0
   -8.1600   45.2920   27.0080 O   0  0  0  0  0
   -9.3810   44.5000   26.9410 C   0  0  0  0  0
   -4.9580   44.6990   32.0070 Cl  0  0  0  0  0
   -4.6220   43.1870   26.5940 C   0  0  0  0  0
   -5.2810   41.8550   26.7240 C   0  0  0  0  0
   -4.6570   40.8470   26.5300 O   0  0  0  0  0
   -6.5480   41.8580   27.0460 N   0  0  0  0  0
   -7.3560   40.6490   27.0030 C   0  0  0  0  0
   -7.8280   40.3130   28.4570 C   0  0  0  0  0
   -8.8680   39.2050   28.5320 C   0  0  0  0  0
   -8.5870   40.9020   26.0560 C   0  0  0  0  0
   -9.7240   39.8380   26.1830 C   0  0  0  0  0
  -10.0670   39.4910   27.6540 C   0  0  0  0  0
  -11.0190   38.3440   27.6880 N   0  0  0  0  0
  -10.9760   37.1060   27.1620 C   0  0  0  0  0
  -10.0890   36.6480   26.5220 O   0  0  0  0  0
  -12.0640   36.3930   27.4120 N   0  0  0  0  0
  -12.8840   37.2150   28.1050 C   0  0  0  0  0
  -12.2250   38.4520   28.3060 C   0  0  0  0  0
  -12.8320   39.5510   29.0030 C   0  0  0  0  0
  -14.1740   39.3340   29.4970 C   0  0  0  0  0
  -14.8340   38.0630   29.2800 C   0  0  0  0  0
  -14.2070   36.9640   28.5770 C   0  0  0  0  0
   -5.9224   44.7848   25.9559 H   0  0  0  0  0
   -4.1767   44.0590   29.1028 H   0  0  0  0  0
   -7.4820   45.5558   31.6153 H   0  0  0  0  0
   -8.9794   45.9054   29.5758 H   0  0  0  0  0
   -9.1312   43.4421   27.0214 H   0  0  0  0  0
  -10.0410   44.7821   27.7613 H   0  0  0  0  0
   -9.8811   44.6853   25.9904 H   0  0  0  0  0
   -3.8560   43.2708   27.3649 H   0  0  0  0  0
   -4.1918   43.2642   25.5954 H   0  0  0  0  0
   -6.9829   42.7339   27.3360 H   0  0  0  0  0
   -6.7830   39.8063   26.6162 H   0  0  0  0  0
   -8.2870   41.2142   28.8634 H   0  0  0  0  0
   -6.9526   39.9716   29.0094 H   0  0  0  0  0
   -9.2117   39.1299   29.5637 H   0  0  0  0  0
   -8.4058   38.2803   28.1864 H   0  0  0  0  0
   -8.2183   40.8571   25.0312 H   0  0  0  0  0
   -9.0152   41.8644   26.3362 H   0  0  0  0  0
   -9.3797   38.9246   25.6979 H   0  0  0  0  0
  -10.6203   40.2531   25.7221 H   0  0  0  0  0
  -10.5242   40.3860   28.0759 H   0  0  0  0  0
  -12.2451   35.4270   27.1391 H   0  0  0  0  0
  -12.3103   40.4964   29.1516 H   0  0  0  0  0
  -14.6903   40.1295   30.0343 H   0  0  0  0  0
  -15.8458   37.9284   29.6624 H   0  0  0  0  0
  -14.7107   36.0104   28.4190 H   0  0  0  0  0
  1  2  1  0  0  0
  1 11  1  0  0  0
  2  3  4  0  0  0
  2  7  4  0  0  0
  3  4  4  0  0  0
  4  5  4  0  0  0
  4 10  1  0  0  0
  5  6  4  0  0  0
  6  7  4  0  0  0
  7  8  1  0  0  0
  8  9  1  0  0  0
 11 12  1  0  0  0
 12 13  2  0  0  0
 12 14  1  0  0  0
 14 15  1  0  0  0
 15 16  1  0  0  0
 15 18  1  0  0  0
 16 17  1  0  0  0
 17 20  1  0  0  0
 18 19  1  0  0  0
 19 20  1  0  0  0
 20 21  1  0  0  0
 21 22  1  0  0  0
 21 26  1  0  0  0
 22 23  2  0  0  0
 22 24  1  0  0  0
 24 25  1  0  0  0
 25 26  4  0  0  0
 25 30  4  0  0  0
 26 27  4  0  0  0
 27 28  4  0  0  0
 28 29  4  0  0  0
 29 30  4  0  0  0
  1 31  1  0  0  0
  3 32  1  0  0  0
  5 33  1  0  0  0
  6 34  1  0  0  0
  9 35  1  0  0  0
  9 36  1  0  0  0
  9 37  1  0  0  0
 11 38  1  0  0  0
 11 39  1  0  0  0
 14 40  1  0  0  0
 15 41  1  0  0  0
 16 42  1  0  0  0
 16 43  1  0  0  0
 17 44  1  0  0  0
 17 45  1  0  0  0
 18 46  1  0  0  0
 18 47  1  0  0  0
 19 48  1  0  0  0
 19 49  1  0  0  0
 20 50  1  0  0  0
 24 51  1  0  0  0
 27 52  1  0  0  0
 28 53  1  0  0  0
 29 54  1  0  0  0
 30 55  1  0  0  0
M  END
$$$$
