1p7m_ligand
  -I-interpret- 

 18 19  0  0  0  0  0  0  0  0999 V2000
  139.8440   20.3960   -9.5280 N   0  0  0  0  0
  140.5400   20.9730   -8.4890 C   0  0  0  0  0
  140.6500   22.2820   -8.2200 N   0  0  0  0  0
  141.3810   22.5290   -7.1540 C   0  0  0  0  0
  141.9740   21.6310   -6.3690 N   0  0  0  0  0
  141.8610   20.3160   -6.6420 C   0  0  0  0  0
  142.4400   19.4310   -5.8310 N   0  0  0  0  0
  141.0990   19.9480   -7.7640 C   0  0  0  0  0
  140.7760   18.7150   -8.3270 N   0  0  0  0  0
  140.0520   19.0680   -9.3340 C   0  0  0  0  0
  140.0350   23.3470   -9.0280 C   0  0  0  0  0
  141.5151   23.5769   -6.8856 H   0  0  0  0  0
  142.9611   19.7517   -5.0149 H   0  0  0  0  0
  142.3620   18.4329   -6.0264 H   0  0  0  0  0
  139.6217   18.3259  -10.0065 H   0  0  0  0  0
  140.4201   23.2969  -10.0465 H   0  0  0  0  0
  138.9533   23.2134   -9.0402 H   0  0  0  0  0
  140.2777   24.3169   -8.5937 H   0  0  0  0  0
  1  2  4  0  0  0
  1 10  4  0  0  0
  2  3  4  0  0  0
  2  8  4  0  0  0
  3  4  4  0  0  0
  3 11  1  0  0  0
  4  5  4  0  0  0
  5  6  4  0  0  0
  6  7  1  0  0  0
  6  8  4  0  0  0
  8  9  4  0  0  0
  9 10  4  0  0  0
  4 12  1  0  0  0
  7 13  1  0  0  0
  7 14  1  0  0  0
 10 15  1  0  0  0
 11 16  1  0  0  0
 11 17  1  0  0  0
 11 18  1  0  0  0
M  END
$$$$
