6qg4_ligand
  -I-interpret- 

 49 52  0  0  0  0  0  0  0  0999 V2000
  -25.0810    9.3430   -5.2780 N   0  0  0  0  0
  -24.9880   12.9500   -6.0350 N   0  0  0  0  0
  -25.2910   10.7980   -5.0770 C   0  0  0  0  0
  -23.9480    8.3250   -3.3060 N   0  0  0  0  0
  -27.0490   12.5870   -4.9500 C   0  0  0  0  0
  -26.3980   13.2960   -6.1300 C   0  0  0  0  0
  -22.6560   13.4700   -6.0500 C   0  0  0  0  0
  -25.3150    7.5350   -6.5910 C   0  0  0  0  0
  -25.6610    6.6540   -7.7400 C   0  0  0  0  0
  -26.9620    6.6330   -8.2270 C   0  0  0  0  0
  -27.2850    5.8160   -9.3030 C   0  0  0  0  0
  -26.3090    5.0220   -9.8930 C   0  0  0  0  0
  -25.0080    5.0430   -9.4070 C   0  0  0  0  0
  -24.6830    5.8620   -8.3310 C   0  0  0  0  0
  -23.4780    7.1600   -2.8240 C   0  0  0  0  0
  -24.1560    4.7210   -5.3780 N   0  0  0  0  0
  -24.0990    5.9050   -4.7210 C   0  0  0  0  0
  -24.3080   14.9630   -5.3220 O   0  0  0  0  0
  -24.6400    7.1470   -5.3220 C   0  0  0  0  0
  -24.6770   11.5450   -6.2560 C   0  0  0  0  0
  -24.5290    8.3840   -4.5280 C   0  0  0  0  0
  -26.7870   11.0870   -5.0140 C   0  0  0  0  0
  -24.0510   13.8560   -5.7680 C   0  0  0  0  0
  -21.8470   14.2500   -7.0790 C   0  0  0  0  0
  -25.5560    8.8650   -6.5130 N   0  0  0  0  0
  -23.5430    5.9930   -3.4920 N   0  0  0  0  0
  -26.6320    4.2210  -10.9450 O   0  0  0  0  0
  -24.8227   11.1209   -4.1472 H   0  0  0  0  0
  -28.1248   12.7593   -4.9844 H   0  0  0  0  0
  -26.6266   12.9800   -4.0252 H   0  0  0  0  0
  -26.8304   12.9848   -7.0809 H   0  0  0  0  0
  -26.5560   14.3739   -6.0949 H   0  0  0  0  0
  -22.7284   12.4642   -6.4638 H   0  0  0  0  0
  -22.1312   13.6325   -5.1086 H   0  0  0  0  0
  -27.7278    7.2565   -7.7656 H   0  0  0  0  0
  -28.3056    5.7977   -9.6852 H   0  0  0  0  0
  -24.2429    4.4185   -9.8682 H   0  0  0  0  0
  -23.6616    5.8830   -7.9510 H   0  0  0  0  0
  -23.0181    7.1612   -1.8358 H   0  0  0  0  0
  -24.5776    4.6722   -6.3055 H   0  0  0  0  0
  -23.7773    3.8787   -4.9450 H   0  0  0  0  0
  -23.6012   11.3799   -6.3154 H   0  0  0  0  0
  -25.0810   11.1922   -7.2049 H   0  0  0  0  0
  -27.1965   10.6211   -4.1177 H   0  0  0  0  0
  -27.2594   10.6867   -5.9110 H   0  0  0  0  0
  -22.3407   14.1899   -8.0489 H   0  0  0  0  0
  -21.7769   15.2928   -6.7696 H   0  0  0  0  0
  -20.8466   13.8234   -7.1520 H   0  0  0  0  0
  -25.8511    3.7426  -11.2331 H   0  0  0  0  0
  1  3  1  0  0  0
  1 21  4  0  0  0
 25  1  4  0  0  0
  2  6  1  0  0  0
 20  2  1  0  0  0
  2 23  1  0  0  0
  3 20  1  0  0  0
  3 22  1  0  0  0
  4 15  4  0  0  0
 21  4  4  0  0  0
  5  6  1  0  0  0
 22  5  1  0  0  0
 23  7  1  0  0  0
  7 24  1  0  0  0
  8  9  1  0  0  0
 19  8  4  0  0  0
  8 25  4  0  0  0
  9 10  4  0  0  0
  9 14  4  0  0  0
 10 11  4  0  0  0
 11 12  4  0  0  0
 13 12  4  0  0  0
 12 27  1  0  0  0
 14 13  4  0  0  0
 15 26  4  0  0  0
 17 16  1  0  0  0
 17 19  4  0  0  0
 17 26  4  0  0  0
 23 18  2  0  0  0
 19 21  4  0  0  0
  3 28  1  0  0  0
  5 29  1  0  0  0
  5 30  1  0  0  0
  6 31  1  0  0  0
  6 32  1  0  0  0
  7 33  1  0  0  0
  7 34  1  0  0  0
 10 35  1  0  0  0
 11 36  1  0  0  0
 13 37  1  0  0  0
 14 38  1  0  0  0
 15 39  1  0  0  0
 16 40  1  0  0  0
 16 41  1  0  0  0
 20 42  1  0  0  0
 20 43  1  0  0  0
 22 44  1  0  0  0
 22 45  1  0  0  0
 24 46  1  0  0  0
 24 47  1  0  0  0
 24 48  1  0  0  0
 27 49  1  0  0  0
M  END
$$$$
