3u4r_ligand
  -I-interpret- 

 65 69  0  0  0  0  0  0  0  0999 V2000
   27.9230   43.8370   35.9090 S   0  0  0  0  0
   26.5620   43.3350   35.9570 O   0  0  0  0  0
   28.9390   43.0360   35.2470 O   0  0  0  0  0
   24.1930   44.8640   40.3680 S   0  0  0  0  0
   23.4540   46.1090   40.2580 O   0  0  0  0  0
   23.9360   43.7110   39.5540 O   0  0  0  0  0
   23.3250   46.0130   45.9830 C   0  0  0  0  0
   24.5360   43.7910   47.9060 C   0  0  0  0  0
   25.1610   42.7100   48.5310 C   0  0  0  0  0
   24.6520   43.9280   46.5030 C   0  0  0  0  0
   25.3890   42.9670   45.7640 C   0  0  0  0  0
   25.3520   43.3510   44.4480 N   0  0  0  0  0
   24.6330   44.5390   44.3180 C   0  0  0  0  0
   24.1640   44.8880   45.6030 C   0  0  0  0  0
   25.8830   41.7480   47.7870 C   0  0  0  0  0
   26.0060   41.8630   46.3900 C   0  0  0  0  0
   24.4630   45.2430   43.0570 C   0  0  0  0  0
   25.9820   42.6070   43.3340 C   0  0  0  0  0
   24.4890   46.4690   42.9470 O   0  0  0  0  0
   22.0170   46.2130   45.2140 C   0  0  0  0  0
   21.2140   47.3050   45.6130 N   0  0  0  0  0
   21.5480   48.1510   46.6390 C   0  0  0  0  0
   22.6830   47.9820   47.3330 C   0  0  0  0  0
   23.5890   46.8830   46.9880 C   0  0  0  0  0
   21.6970   45.4440   44.3050 O   0  0  0  0  0
   24.3090   44.3730   41.9660 N   0  0  0  0  0
   25.8330   45.3090   39.9070 C   0  0  0  0  0
   27.2870   43.1290   42.8320 C   0  0  0  0  0
   27.9080   42.5000   41.7500 C   0  0  0  0  0
   29.1130   43.0080   41.3030 C   0  0  0  0  0
   29.7460   44.0850   41.8650 N   0  0  0  0  0
   29.1460   44.7040   42.9220 C   0  0  0  0  0
   27.9140   44.2500   43.4270 C   0  0  0  0  0
   29.7840   45.8000   43.4990 N   0  0  0  0  0
   25.0240   42.5720   50.2460 Cl  0  0  0  0  0
   26.4440   46.4200   40.5050 C   0  0  0  0  0
   27.7390   46.7640   40.1160 C   0  0  0  0  0
   28.3940   46.0070   39.1320 C   0  0  0  0  0
   27.7790   44.8810   38.5310 C   0  0  0  0  0
   26.4900   44.5310   38.9140 C   0  0  0  0  0
   28.5270   44.1700   37.5160 N   0  0  0  0  0
   27.9880   45.3920   35.0250 C   0  0  0  0  0
   23.9687   44.5165   48.4890 H   0  0  0  0  0
   26.3495   40.9080   48.3016 H   0  0  0  0  0
   26.5594   41.1240   45.8107 H   0  0  0  0  0
   25.2884   42.6773   42.4961 H   0  0  0  0  0
   26.1864   41.6077   43.7183 H   0  0  0  0  0
   20.8805   48.9739   46.8946 H   0  0  0  0  0
   22.3538   47.7584   48.3478 H   0  0  0  0  0
   23.2608   48.8856   47.1389 H   0  0  0  0  0
   24.5085   46.7609   47.5605 H   0  0  0  0  0
   24.2646   43.3725   42.1594 H   0  0  0  0  0
   27.4544   41.6321   41.2714 H   0  0  0  0  0
   29.5888   42.5220   40.4512 H   0  0  0  0  0
   27.4457   44.7577   44.2702 H   0  0  0  0  0
   30.6787   46.1218   43.1299 H   0  0  0  0  0
   29.3563   46.2806   44.2906 H   0  0  0  0  0
   25.9173   47.0041   41.2597 H   0  0  0  0  0
   28.2399   47.6168   40.5742 H   0  0  0  0  0
   29.3996   46.2922   38.8229 H   0  0  0  0  0
   25.9907   43.6745   38.4610 H   0  0  0  0  0
   29.4638   43.8432   37.7526 H   0  0  0  0  0
   27.6285   45.2448   34.0066 H   0  0  0  0  0
   27.3583   46.1232   35.5319 H   0  0  0  0  0
   29.0167   45.7516   35.0001 H   0  0  0  0  0
  1  2  2  0  0  0
  1  3  2  0  0  0
 41  1  1  0  0  0
  1 42  1  0  0  0
  4  5  2  0  0  0
  4  6  2  0  0  0
  4 26  1  0  0  0
 27  4  1  0  0  0
 14  7  1  0  0  0
  7 20  1  0  0  0
  7 24  2  0  0  0
  8  9  4  0  0  0
 10  8  4  0  0  0
  9 15  4  0  0  0
  9 35  1  0  0  0
 10 11  4  0  0  0
 14 10  4  0  0  0
 12 11  4  0  0  0
 11 16  4  0  0  0
 13 12  4  0  0  0
 12 18  1  0  0  0
 13 14  4  0  0  0
 17 13  1  0  0  0
 16 15  4  0  0  0
 17 19  2  0  0  0
 26 17  1  0  0  0
 18 28  1  0  0  0
 20 21  1  0  0  0
 20 25  2  0  0  0
 21 22  2  0  0  0
 23 22  1  0  0  0
 24 23  1  0  0  0
 27 36  4  0  0  0
 40 27  4  0  0  0
 28 29  4  0  0  0
 28 33  4  0  0  0
 29 30  4  0  0  0
 30 31  4  0  0  0
 32 31  4  0  0  0
 33 32  4  0  0  0
 32 34  1  0  0  0
 37 36  4  0  0  0
 38 37  4  0  0  0
 39 38  4  0  0  0
 39 40  4  0  0  0
 39 41  1  0  0  0
  8 43  1  0  0  0
 15 44  1  0  0  0
 16 45  1  0  0  0
 18 46  1  0  0  0
 18 47  1  0  0  0
 22 48  1  0  0  0
 23 49  1  0  0  0
 23 50  1  0  0  0
 24 51  1  0  0  0
 26 52  1  0  0  0
 29 53  1  0  0  0
 30 54  1  0  0  0
 33 55  1  0  0  0
 34 56  1  0  0  0
 34 57  1  0  0  0
 36 58  1  0  0  0
 37 59  1  0  0  0
 38 60  1  0  0  0
 40 61  1  0  0  0
 41 62  1  0  0  0
 42 63  1  0  0  0
 42 64  1  0  0  0
 42 65  1  0  0  0
M  END
$$$$
