5dyw_ligand
  -I-interpret- 

 65 68  0  0  0  0  0  0  0  0999 V2000
   -7.1780    8.8780  -13.1980 C   0  0  0  0  0
   -6.4500    6.2770  -12.0800 C   0  0  0  0  0
   -6.4400    4.0800  -13.2010 C   0  0  0  0  0
   -8.3810    4.8400  -11.9210 C   0  0  0  0  0
   -3.2220   13.4650  -14.2690 C   0  0  0  0  0
   -2.5830   12.0540  -16.2250 C   0  0  0  0  0
   -1.9340   10.7090  -18.1750 C   0  0  0  0  0
   -5.1730   14.1630   -7.5170 C   0  0  0  0  0
   -4.9400   15.1160   -8.5580 O   0  0  0  0  0
   -5.6670   14.9590   -9.7170 C   0  0  0  0  0
   -4.9040   14.6580  -10.9990 C   0  0  0  0  0
   -5.1060   13.3420  -11.6570 N   0  0  0  0  0
   -6.2060   12.4990  -11.0820 C   0  0  0  0  0
   -6.4060   11.2210  -11.8980 C   0  0  0  0  0
   -7.3770   11.4210  -12.9440 C   0  0  0  0  0
   -7.4900   10.2280  -13.8100 C   0  0  0  0  0
   -6.7170    8.7850  -11.8110 N   0  3  0  0  0
   -5.7440    7.6140  -11.7180 C   0  0  0  0  0
   -5.8090    5.2940  -12.8760 C   0  0  0  0  0
   -7.7320    3.8610  -12.7180 C   0  0  0  0  0
   -7.7580    6.0410  -11.5870 C   0  0  0  0  0
   -6.6900   10.0290  -11.0240 C   0  0  0  0  0
   -3.6490   12.4820  -11.7810 S   0  0  0  0  0
   -3.5690   11.1720  -11.0840 O   0  0  0  0  0
   -2.6010   13.2870  -11.0950 O   0  0  0  0  0
   -3.2410   12.3040  -13.4590 C   0  0  0  0  0
   -2.8980   13.3370  -15.6700 C   0  0  0  0  0
   -2.2470   11.9430  -17.6360 C   0  0  0  0  0
   -1.9520    9.5590  -17.3530 C   0  0  0  0  0
   -2.2700    9.6610  -15.9890 C   0  0  0  0  0
   -2.5880   10.9400  -15.4360 C   0  0  0  0  0
   -2.9370   11.0640  -13.9860 C   0  0  0  0  0
   -6.3416    8.5012  -13.7867 H   0  0  0  0  0
   -8.1330    8.3526  -13.2012 H   0  0  0  0  0
   -5.9354    3.3317  -13.8121 H   0  0  0  0  0
   -9.3918    4.6476  -11.5613 H   0  0  0  0  0
   -3.4487   14.4415  -13.8410 H   0  0  0  0  0
   -1.6742   10.6231  -19.2301 H   0  0  0  0  0
   -6.2202   14.2032   -7.2171 H   0  0  0  0  0
   -4.9363   13.1634   -7.8816 H   0  0  0  0  0
   -4.5395   14.3987   -6.6619 H   0  0  0  0  0
   -6.1536   15.9194   -9.8871 H   0  0  0  0  0
   -6.3023   14.0899   -9.5461 H   0  0  0  0  0
   -3.8523   14.6732  -10.7129 H   0  0  0  0  0
   -5.2610   15.3931  -11.7203 H   0  0  0  0  0
   -7.1320   13.0736  -11.1021 H   0  0  0  0  0
   -5.9366   12.2228  -10.0626 H   0  0  0  0  0
   -5.4658   10.9866  -12.3971 H   0  0  0  0  0
   -7.0577   12.2643  -13.5563 H   0  0  0  0  0
   -8.3474   11.6084  -12.4844 H   0  0  0  0  0
   -8.5390   10.1792  -14.1021 H   0  0  0  0  0
   -6.7488   10.3687  -14.5967 H   0  0  0  0  0
   -7.4001    8.5035  -11.1078 H   0  0  0  0  0
   -4.9268    7.7804  -12.4198 H   0  0  0  0  0
   -5.3710    7.5482  -10.6959 H   0  0  0  0  0
   -4.8013    5.4842  -13.2454 H   0  0  0  0  0
   -8.2466    2.9299  -12.9552 H   0  0  0  0  0
   -8.2628    6.7790  -10.9635 H   0  0  0  0  0
   -7.6649   10.1655  -10.5561 H   0  0  0  0  0
   -5.9007    9.9503  -10.2764 H   0  0  0  0  0
   -2.8930   14.2204  -16.3086 H   0  0  0  0  0
   -2.2420   12.8315  -18.2674 H   0  0  0  0  0
   -1.7170    8.5847  -17.7816 H   0  0  0  0  0
   -2.2743    8.7725  -15.3575 H   0  0  0  0  0
   -2.9512   10.1798  -13.3487 H   0  0  0  0  0
 16  1  1  0  0  0
 17  1  1  0  0  0
 18  2  1  0  0  0
  2 19  4  0  0  0
  2 21  4  0  0  0
 19  3  4  0  0  0
  3 20  4  0  0  0
  4 20  4  0  0  0
 21  4  4  0  0  0
 26  5  4  0  0  0
  5 27  4  0  0  0
 27  6  4  0  0  0
  6 28  4  0  0  0
  6 31  4  0  0  0
 28  7  4  0  0  0
  7 29  4  0  0  0
  9  8  1  0  0  0
 10  9  1  0  0  0
 11 10  1  0  0  0
 12 11  1  0  0  0
 12 13  1  0  0  0
 23 12  1  0  0  0
 13 14  1  0  0  0
 14 15  1  0  0  0
 14 22  1  0  0  0
 15 16  1  0  0  0
 17 18  1  0  0  0
 22 17  1  0  0  0
 23 24  2  0  0  0
 23 25  2  0  0  0
 23 26  1  0  0  0
 26 32  4  0  0  0
 29 30  4  0  0  0
 30 31  4  0  0  0
 31 32  4  0  0  0
  1 33  1  0  0  0
  1 34  1  0  0  0
  3 35  1  0  0  0
  4 36  1  0  0  0
  5 37  1  0  0  0
  7 38  1  0  0  0
  8 39  1  0  0  0
  8 40  1  0  0  0
  8 41  1  0  0  0
 10 42  1  0  0  0
 10 43  1  0  0  0
 11 44  1  0  0  0
 11 45  1  0  0  0
 13 46  1  0  0  0
 13 47  1  0  0  0
 14 48  1  0  0  0
 15 49  1  0  0  0
 15 50  1  0  0  0
 16 51  1  0  0  0
 16 52  1  0  0  0
 17 53  1  0  0  0
 18 54  1  0  0  0
 18 55  1  0  0  0
 19 56  1  0  0  0
 20 57  1  0  0  0
 21 58  1  0  0  0
 22 59  1  0  0  0
 22 60  1  0  0  0
 27 61  1  0  0  0
 28 62  1  0  0  0
 29 63  1  0  0  0
 30 64  1  0  0  0
 32 65  1  0  0  0
M  END
$$$$
