4cd8_ligand
  -I-interpret- 

 47 49  0  0  0  0  0  0  0  0999 V2000
   15.0700  -19.3520  -21.4970 C   0  0  0  0  0
   16.0080  -19.1930  -22.4150 N   0  0  0  0  0
   16.2470  -17.9800  -19.8530 C   0  0  0  0  0
   17.3220  -17.8280  -20.9530 C   0  0  0  0  0
   16.7590  -17.9400  -22.3840 C   0  0  0  0  0
   17.8040  -17.9300  -23.5030 C   0  0  0  0  0
   15.1000  -21.1300  -22.7700 C   0  0  0  0  0
   16.0560  -20.2530  -23.2380 C   0  0  0  0  0
   14.4910  -20.5400  -21.7090 N   0  0  0  0  0
   16.5590  -19.0130  -18.9190 O   0  0  0  0  0
   13.9960  -18.7320  -19.3930 O   0  0  0  0  0
   14.8660  -18.3030  -20.4470 C   0  0  0  0  0
   18.7730  -18.9890  -23.3800 O   0  0  0  0  0
   19.1540  -16.5170  -20.2970 C   0  0  0  0  0
   19.8840  -15.2000  -20.5150 C   0  0  0  0  0
   21.1490  -15.2040  -19.6610 C   0  0  0  0  0
   20.7820  -15.5780  -18.2300 C   0  0  0  0  0
   20.0600  -16.9250  -18.1830 C   0  0  0  0  0
   19.7940  -17.4440  -16.7710 C   0  0  0  0  0
   17.9570  -16.5240  -21.0540 O   0  0  0  0  0
   19.1810  -14.0520  -20.1270 O   0  0  0  0  0
   21.8060  -13.9270  -19.7070 O   0  0  0  0  0
   22.0240  -15.7050  -17.5620 O   0  0  0  0  0
   18.8450  -16.7350  -18.9170 O   0  0  0  0  0
   18.7560  -18.4380  -16.7850 O   0  0  0  0  0
   16.2285  -17.0174  -19.3420 H   0  0  0  0  0
   18.0028  -18.6200  -20.6411 H   0  0  0  0  0
   16.1531  -17.0563  -22.5839 H   0  0  0  0  0
   18.3398  -16.9824  -23.4477 H   0  0  0  0  0
   17.2790  -18.0693  -24.4480 H   0  0  0  0  0
   14.8746  -22.1157  -23.1769 H   0  0  0  0  0
   16.7132  -20.3914  -24.0965 H   0  0  0  0  0
   17.4188  -18.8407  -18.5284 H   0  0  0  0  0
   13.1311  -18.9356  -19.7564 H   0  0  0  0  0
   14.3967  -17.4350  -20.9101 H   0  0  0  0  0
   19.3998  -18.9335  -24.1050 H   0  0  0  0  0
   19.8140  -17.3211  -20.6225 H   0  0  0  0  0
   20.0517  -15.1464  -21.5907 H   0  0  0  0  0
   21.8476  -15.9409  -20.0574 H   0  0  0  0  0
   20.1209  -14.8355  -17.7831 H   0  0  0  0  0
   20.6915  -17.6984  -18.6203 H   0  0  0  0  0
   19.4776  -16.6116  -16.1424 H   0  0  0  0  0
   20.7078  -17.8928  -16.3816 H   0  0  0  0  0
   19.7176  -13.2753  -20.3014 H   0  0  0  0  0
   22.5967  -13.9554  -19.1633 H   0  0  0  0  0
   21.8699  -15.9420  -16.6446 H   0  0  0  0  0
   18.6030  -18.7519  -15.8908 H   0  0  0  0  0
  2  1  4  0  0  0
  1  9  4  0  0  0
 12  1  1  0  0  0
  5  2  1  0  0  0
  2  8  4  0  0  0
  4  3  1  0  0  0
  3 10  1  0  0  0
  3 12  1  0  0  0
  4  5  1  0  0  0
 20  4  1  0  0  0
  5  6  1  0  0  0
  6 13  1  0  0  0
  8  7  4  0  0  0
  7  9  4  0  0  0
 12 11  1  0  0  0
 14 15  1  0  0  0
 14 20  1  0  0  0
 14 24  1  0  0  0
 15 16  1  0  0  0
 15 21  1  0  0  0
 16 17  1  0  0  0
 16 22  1  0  0  0
 17 18  1  0  0  0
 17 23  1  0  0  0
 18 19  1  0  0  0
 18 24  1  0  0  0
 19 25  1  0  0  0
  3 26  1  0  0  0
  4 27  1  0  0  0
  5 28  1  0  0  0
  6 29  1  0  0  0
  6 30  1  0  0  0
  7 31  1  0  0  0
  8 32  1  0  0  0
 10 33  1  0  0  0
 11 34  1  0  0  0
 12 35  1  0  0  0
 13 36  1  0  0  0
 14 37  1  0  0  0
 15 38  1  0  0  0
 16 39  1  0  0  0
 17 40  1  0  0  0
 18 41  1  0  0  0
 19 42  1  0  0  0
 19 43  1  0  0  0
 21 44  1  0  0  0
 22 45  1  0  0  0
 23 46  1  0  0  0
 25 47  1  0  0  0
M  END
$$$$
