6dih_ligand
  -I-interpret- 

 19 19  0  0  0  0  0  0  0  0999 V2000
   -8.2840  -14.2320   34.6880 C   0  0  0  0  0
   -6.9620  -12.0690   34.8290 C   0  0  0  0  0
   -7.0700  -13.5690   34.5560 C   0  0  0  0  0
   -5.9300  -14.2580   34.1570 C   0  0  0  0  0
   -6.0020  -15.6240   33.9060 C   0  0  0  0  0
   -7.2090  -16.2900   34.0530 C   0  0  0  0  0
   -8.3460  -15.5950   34.4440 C   0  0  0  0  0
   -9.5520  -13.4840   35.1330 C   0  0  0  0  0
   -7.6340  -11.2490   34.1640 O   0  0  0  0  0
   -6.1870  -11.6620   35.7250 O   0  0  0  0  0
   -7.2870  -17.6680   33.7960 O   0  0  0  0  0
   -9.4880  -12.6990   36.1040 O   0  0  0  0  0
  -10.6610  -13.6470   34.5540 O   0  0  0  0  0
   -4.9837  -13.7296   34.0414 H   0  0  0  0  0
   -5.1114  -16.1698   33.5944 H   0  0  0  0  0
   -9.2920  -16.1241   34.5596 H   0  0  0  0  0
   -5.7514  -12.4128   36.1351 H   0  0  0  0  0
   -8.1862  -17.9696   33.9444 H   0  0  0  0  0
  -10.5557  -14.2728   33.8337 H   0  0  0  0  0
  1  3  4  0  0  0
  1  7  4  0  0  0
  1  8  1  0  0  0
  3  2  1  0  0  0
  2  9  2  0  0  0
  2 10  1  0  0  0
  3  4  4  0  0  0
  4  5  4  0  0  0
  5  6  4  0  0  0
  6  7  4  0  0  0
  6 11  1  0  0  0
  8 12  2  0  0  0
  8 13  1  0  0  0
  4 14  1  0  0  0
  5 15  1  0  0  0
  7 16  1  0  0  0
 10 17  1  0  0  0
 11 18  1  0  0  0
 13 19  1  0  0  0
M  END
$$$$
