4dkp_ligand
  -I-interpret- 

 40 42  0  0  0  0  0  0  0  0999 V2000
   27.1830  -14.8660   38.9990 C   0  0  0  0  0
   26.8590  -15.0220   41.5330 C   0  0  0  0  0
   25.4430  -14.5530   43.9530 C   0  0  0  0  0
   24.7850  -14.5850   42.7360 C   0  0  0  0  0
   25.4700  -14.8040   41.5340 C   0  0  0  0  0
   25.9120  -14.3330   32.0590 C   0  0  0  0  0
   26.4890  -14.9600   33.1720 C   0  0  0  0  0
   27.4570  -14.3210   33.9320 C   0  0  0  0  0
   27.8400  -13.0140   33.5570 C   0  0  0  0  0
   27.2720  -12.3800   32.4500 C   0  0  0  0  0
   26.2970  -13.0460   31.6920 C   0  0  0  0  0
   28.2110  -14.8030   35.1750 C   0  0  0  0  0
   29.4170  -13.7810   35.2310 C   0  0  0  0  0
   28.8880  -12.5100   34.4980 C   0  0  0  0  0
   30.5980  -14.3520   34.5740 N   0  3  0  0  0
   27.5180  -14.7010   36.4720 N   0  0  0  0  0
   28.0340  -15.0650   37.7020 C   0  0  0  0  0
   27.5970  -15.2220   40.3030 N   0  0  0  0  0
   26.0670  -14.3700   38.8060 O   0  0  0  0  0
   29.1620  -15.5640   37.8220 O   0  0  0  0  0
   27.5160  -14.9700   42.7930 C   0  0  0  0  0
   26.8140  -14.7470   43.9720 C   0  0  0  0  0
   24.5550  -14.2660   45.3710 Cl  0  0  0  0  0
   23.4710  -14.4040   42.7100 F   0  0  0  0  0
   24.9218  -14.8054   40.5919 H   0  0  0  0  0
   25.1552  -14.8575   31.4756 H   0  0  0  0  0
   26.1716  -15.9665   33.4446 H   0  0  0  0  0
   27.5846  -11.3724   32.1760 H   0  0  0  0  0
   25.8461  -12.5616   30.8259 H   0  0  0  0  0
   28.4177  -15.8678   35.0678 H   0  0  0  0  0
   29.7333  -13.5460   36.2473 H   0  0  0  0  0
   28.4843  -11.7785   35.1981 H   0  0  0  0  0
   29.6856  -11.9860   33.9713 H   0  0  0  0  0
   31.3667  -13.6829   34.6177 H   0  0  0  0  0
   30.8675  -15.2129   35.0501 H   0  0  0  0  0
   30.3780  -14.5558   33.5991 H   0  0  0  0  0
   26.5691  -14.3269   36.4611 H   0  0  0  0  0
   28.5114  -15.6663   40.3863 H   0  0  0  0  0
   28.5963  -15.1084   42.8355 H   0  0  0  0  0
   27.3485  -14.7246   44.9217 H   0  0  0  0  0
 17  1  1  0  0  0
  1 18  1  0  0  0
  1 19  2  0  0  0
  2  5  4  0  0  0
 18  2  1  0  0  0
  2 21  4  0  0  0
  4  3  4  0  0  0
  3 22  4  0  0  0
  3 23  1  0  0  0
  5  4  4  0  0  0
  4 24  1  0  0  0
  7  6  4  0  0  0
  6 11  4  0  0  0
  8  7  4  0  0  0
  8  9  4  0  0  0
 12  8  1  0  0  0
  9 10  4  0  0  0
 14  9  1  0  0  0
 10 11  4  0  0  0
 12 13  1  0  0  0
 16 12  1  0  0  0
 13 14  1  0  0  0
 13 15  1  0  0  0
 16 17  1  0  0  0
 17 20  2  0  0  0
 21 22  4  0  0  0
  5 25  1  0  0  0
  6 26  1  0  0  0
  7 27  1  0  0  0
 10 28  1  0  0  0
 11 29  1  0  0  0
 12 30  1  0  0  0
 13 31  1  0  0  0
 14 32  1  0  0  0
 14 33  1  0  0  0
 15 34  1  0  0  0
 15 35  1  0  0  0
 15 36  1  0  0  0
 16 37  1  0  0  0
 18 38  1  0  0  0
 21 39  1  0  0  0
 22 40  1  0  0  0
M  END
$$$$
