6b4d_ligand
  -I-interpret- 

 35 37  0  0  0  0  0  0  0  0999 V2000
   -5.5760    1.6660   15.7470 O   0  0  0  0  0
   -4.3810    2.0390   15.8290 C   0  0  0  0  0
   -3.5470    1.3420   16.4700 O   0  0  0  0  0
   -3.9650    3.3340   15.1570 C   0  0  0  0  0
   -2.6760    3.7040   14.7630 C   0  0  0  0  0
   -4.7690    4.3420   14.8470 N   0  0  0  0  0
   -6.2020    4.4190   15.0820 C   0  0  0  0  0
   -4.0830    5.3230   14.2800 N   0  0  0  0  0
   -2.8250    4.9800   14.1930 C   0  0  0  0  0
   -1.6950    5.8070   13.6130 C   0  0  0  0  0
   -0.6730    5.3780   12.7670 C   0  0  0  0  0
   -1.4740    7.1680   13.8450 C   0  0  0  0  0
   -2.1310    8.1480   14.5910 C   0  0  0  0  0
   -1.6280    9.4480   14.6030 C   0  0  0  0  0
   -0.4810    9.7720   13.8790 C   0  0  0  0  0
    0.1730    8.8000   13.1440 C   0  0  0  0  0
   -0.3340    7.4930   13.1260 C   0  0  0  0  0
    0.1170    6.4050   12.4970 N   0  0  0  0  0
    1.3150    6.4020   11.6610 C   0  0  0  0  0
    1.3430    5.2400   10.6760 C   0  0  0  0  0
   -2.6854    1.7641   16.4357 H   0  0  0  0  0
   -1.7567    3.1289   14.8736 H   0  0  0  0  0
   -6.6996    3.6048   14.5551 H   0  0  0  0  0
   -6.3986    4.3356   16.1509 H   0  0  0  0  0
   -6.5782    5.3741   14.7155 H   0  0  0  0  0
   -0.5456    4.3633   12.3899 H   0  0  0  0  0
   -3.0280    7.8993   15.1582 H   0  0  0  0  0
   -2.1358   10.2182   15.1835 H   0  0  0  0  0
   -0.0993   10.7929   13.8924 H   0  0  0  0  0
    1.0745    9.0479   12.5837 H   0  0  0  0  0
    2.1801    6.3051   12.3169 H   0  0  0  0  0
    1.3237    7.3280   11.0860 H   0  0  0  0  0
    1.3166    4.2989   11.2254 H   0  0  0  0  0
    0.4764    5.3024   10.0178 H   0  0  0  0  0
    2.2559    5.2903   10.0826 H   0  0  0  0  0
  1  2  2  0  0  0
  2  3  1  0  0  0
  2  4  1  0  0  0
  4  5  4  0  0  0
  4  6  4  0  0  0
  5  9  4  0  0  0
  6  7  1  0  0  0
  6  8  4  0  0  0
  8  9  4  0  0  0
  9 10  1  0  0  0
 10 11  4  0  0  0
 10 12  4  0  0  0
 11 18  4  0  0  0
 12 13  4  0  0  0
 12 17  4  0  0  0
 13 14  4  0  0  0
 14 15  4  0  0  0
 15 16  4  0  0  0
 16 17  4  0  0  0
 17 18  4  0  0  0
 18 19  1  0  0  0
 19 20  1  0  0  0
  3 21  1  0  0  0
  5 22  1  0  0  0
  7 23  1  0  0  0
  7 24  1  0  0  0
  7 25  1  0  0  0
 11 26  1  0  0  0
 13 27  1  0  0  0
 14 28  1  0  0  0
 15 29  1  0  0  0
 16 30  1  0  0  0
 19 31  1  0  0  0
 19 32  1  0  0  0
 20 33  1  0  0  0
 20 34  1  0  0  0
 20 35  1  0  0  0
M  END
$$$$
