4mjq_ligand
  -I-interpret- 

 32 33  0  0  0  0  0  0  0  0999 V2000
  -21.7930    0.7740  -23.6200 C   0  0  0  0  0
  -22.1010   -0.1210  -22.6120 C   0  0  0  0  0
  -23.4000   -0.5370  -22.4280 C   0  0  0  0  0
  -26.3900   -0.6700  -21.6450 C   0  0  0  0  0
  -25.7870   -0.0870  -20.5320 C   0  0  0  0  0
  -27.4420   -0.9960  -19.0080 C   0  0  0  0  0
  -30.6150   -1.5820  -19.5800 C   0  0  0  0  0
  -30.5480   -0.3710  -19.5470 O   0  0  0  0  0
  -31.8110   -2.1610  -19.5190 O   0  0  0  0  0
  -29.3720   -2.4220  -19.6810 C   0  0  0  0  0
  -28.1390   -1.6090  -20.0420 C   0  0  0  0  0
  -26.2900   -0.2540  -19.2470 C   0  0  0  0  0
  -27.6250   -1.4710  -21.4370 C   0  0  0  0  0
  -28.2460   -2.0510  -22.5010 N   0  0  0  0  0
  -25.8200   -0.5050  -23.0270 C   0  0  0  0  0
  -26.4830   -0.8090  -24.0060 O   0  0  0  0  0
  -24.4110   -0.0420  -23.2430 C   0  0  0  0  0
  -20.0100    1.2930  -23.8370 Br  0  0  0  0  0
  -22.7870    1.2660  -24.4590 C   0  0  0  0  0
  -24.1000    0.8520  -24.2670 C   0  0  0  0  0
  -21.3124   -0.4983  -21.9610 H   0  0  0  0  0
  -23.6359   -1.2551  -21.6426 H   0  0  0  0  0
  -24.8923    0.5193  -20.6737 H   0  0  0  0  0
  -27.8064   -1.0990  -17.9859 H   0  0  0  0  0
  -31.7059   -3.1145  -19.5554 H   0  0  0  0  0
  -29.5295   -3.1576  -20.4698 H   0  0  0  0  0
  -29.1974   -2.8782  -18.7066 H   0  0  0  0  0
  -25.7698    0.2071  -18.4074 H   0  0  0  0  0
  -27.8638   -1.9357  -23.4396 H   0  0  0  0  0
  -29.0934   -2.6008  -22.3594 H   0  0  0  0  0
  -22.5398    1.9668  -25.2564 H   0  0  0  0  0
  -24.8889    1.2273  -24.9188 H   0  0  0  0  0
  2  1  4  0  0  0
  1 18  1  0  0  0
  1 19  4  0  0  0
  3  2  4  0  0  0
 17  3  4  0  0  0
  4  5  4  0  0  0
  4 13  4  0  0  0
 15  4  1  0  0  0
  5 12  4  0  0  0
 11  6  4  0  0  0
 12  6  4  0  0  0
  7  8  2  0  0  0
  7  9  1  0  0  0
 10  7  1  0  0  0
 11 10  1  0  0  0
 13 11  4  0  0  0
 13 14  1  0  0  0
 15 16  2  0  0  0
 15 17  1  0  0  0
 17 20  4  0  0  0
 19 20  4  0  0  0
  2 21  1  0  0  0
  3 22  1  0  0  0
  5 23  1  0  0  0
  6 24  1  0  0  0
  9 25  1  0  0  0
 10 26  1  0  0  0
 10 27  1  0  0  0
 12 28  1  0  0  0
 14 29  1  0  0  0
 14 30  1  0  0  0
 19 31  1  0  0  0
 20 32  1  0  0  0
M  END
$$$$
