2xib_ligand
  -I-interpret- 

 24 24  0  0  0  0  0  0  0  0999 V2000
   32.5880    2.5360   42.5940 C   0  0  0  0  0
   33.0010    3.5250   43.6840 C   0  0  0  0  0
   32.2320    4.7910   43.5030 C   0  0  0  0  0
   30.7470    4.4120   43.6440 C   0  0  0  0  0
   30.3460    3.3440   42.6060 C   0  0  0  0  0
   28.8860    2.9260   42.7720 C   0  0  0  0  0
   30.5280    3.8760   44.9780 O   0  0  0  0  0
   32.6040    5.7430   44.5170 O   0  0  0  0  0
   34.4190    3.7810   43.6850 O   0  0  0  0  0
   31.1730    2.1590   42.7780 N   0  3  0  0  0
   33.2117    1.6444   42.6586 H   0  0  0  0  0
   32.7148    3.0008   41.6163 H   0  0  0  0  0
   32.7700    3.0841   44.6537 H   0  0  0  0  0
   32.4339    5.2486   42.5345 H   0  0  0  0  0
   30.1411    5.3026   43.4771 H   0  0  0  0  0
   30.4861    3.7789   41.6164 H   0  0  0  0  0
   28.6357    2.1781   42.0196 H   0  0  0  0  0
   28.7408    2.5051   43.7669 H   0  0  0  0  0
   28.2435    3.7976   42.6475 H   0  0  0  0  0
   30.7753    4.5349   45.6309 H   0  0  0  0  0
   33.5314    5.9697   44.4167 H   0  0  0  0  0
   34.8922    2.9541   43.8025 H   0  0  0  0  0
   31.0363    1.7748   43.7129 H   0  0  0  0  0
   30.9114    1.4521   42.0908 H   0  0  0  0  0
  1  2  1  0  0  0
  1 10  1  0  0  0
  2  3  1  0  0  0
  2  9  1  0  0  0
  3  4  1  0  0  0
  3  8  1  0  0  0
  4  5  1  0  0  0
  4  7  1  0  0  0
  5  6  1  0  0  0
  5 10  1  0  0  0
  1 11  1  0  0  0
  1 12  1  0  0  0
  2 13  1  0  0  0
  3 14  1  0  0  0
  4 15  1  0  0  0
  5 16  1  0  0  0
  6 17  1  0  0  0
  6 18  1  0  0  0
  6 19  1  0  0  0
  7 20  1  0  0  0
  8 21  1  0  0  0
  9 22  1  0  0  0
 10 23  1  0  0  0
 10 24  1  0  0  0
M  END
$$$$
