6u7o_ligand

Created by X-TOOL on Mon Aug  2 16:17:20 2021
 84 88  0  0  0  0  0  0  0  0999 V2000
   19.4020   26.6110   14.9940  C 0  0  0  2  0  3
   21.6670   27.4880   14.9930  C 0  0  0  2  0  4
   19.8230   25.4370   15.5680  C 0  0  0  1  0  3
   21.1510   25.3400   15.8350  C 0  0  0  2  0  3
   22.0850   26.2780   15.4830  C 0  0  0  2  0  3
   13.4630   18.0410   19.3250  C 0  0  0  2  0  4
   10.7080   17.9450   18.7890  C 0  0  0  2  0  4
   11.2250   19.3950   17.1040  C 0  0  0  3  0  4
   12.9210   16.7320   18.7980  C 0  0  0  3  0  4
   15.3080   21.8140   14.0650  C 0  0  0  2  0  3
   14.2890   22.4090   14.8030  C 0  0  0  1  0  3
   14.5970   23.6310   15.6610  C 0  0  0  3  0  4
   18.6640   24.0490   19.8500  C 0  0  0  2  0  4
   18.5030   22.5670   19.6820  C 0  0  0  4  0  4
   19.7130   24.4390   20.8240  C 0  0  0  4  0  4
   16.8480   25.1950   17.4540  C 0  0  0  3  0  4
   15.6880   24.3390   17.9740  C 0  0  0  2  0  4
   14.7320   20.9080   17.7350  C 0  0  0  1  0  3
   15.6910   20.2980   17.3370  O 0  0  0  1  0  1
   13.6430   20.2260   18.2010  O 0  0  0  1  0  2
   13.5770   18.8370   18.0120  C 0  0  0  2  0  4
   11.8010   17.2590   17.9710  C 0  0  0  2  0  4
   12.4470   18.6720   20.3100  C 0  0  0  3  0  4
   11.1350   18.1380   20.1520  O 0  0  0  1  0  2
   10.3990   19.2860   18.2280  O 0  0  0  1  0  2
   12.3650   18.4020   17.2180  C 0  0  0  2  0  4
   14.4790   22.2130   17.6970  N 0  0  0  2  0  3
   15.3430   23.1690   16.9670  C 0  0  0  2  0  4
   13.0130   21.8460   14.7820  C 0  0  0  2  0  3
   12.7540   20.6890   14.0990  C 0  0  0  2  0  3
   13.7790   20.0960   13.4140  C 0  0  0  2  0  3
   15.0410   20.6250   13.3490  C 0  0  0  2  0  3
   14.5300   25.1110   18.2230  O 0  0  0  2  0  2
   18.1070   24.4170   17.4340  N 0  0  0  1  0  3
   19.0800   24.7270   18.5380  C 0  0  0  3  0  4
   18.7900   24.1690   15.9750  S 0  0  0  1  0  4
   17.7090   24.1580   15.0390  O 0  0  0  1  0  1
   19.5650   22.9950   16.1730  O 0  0  0  1  0  1
   20.2920   27.6700   14.7520  C 0  0  0  2  0  3
   22.6990   28.6270   14.7880  B 0  0  0  1  0  3
   22.1770   29.8880   14.3190  O 0  0  0  3  0  3
   24.0820   28.4770   15.1260  O 0  0  0  3  0  3
   18.3588   26.7230   14.7214  H 0  0  0  1  0  1
   22.3764   28.2837   14.7963  H 0  0  0  1  0  1
   21.4959   24.4587   16.3636  H 0  0  0  1  0  1
   23.1426   26.0659   15.5907  H 0  0  0  1  0  1
   14.4393   17.9222   19.8176  H 0  0  0  1  0  1
    9.8032   17.3198   18.7711  H 0  0  0  1  0  1
   11.6318   20.4153   17.0451  H 0  0  0  1  0  1
   10.6407   19.1802   16.1971  H 0  0  0  1  0  1
   12.5638   16.0780   19.6071  H 0  0  0  1  0  1
   13.6633   16.1927   18.1912  H 0  0  0  1  0  1
   16.2966   22.2580   14.0396  H 0  0  0  1  0  1
   13.6585   24.1365   15.9323  H 0  0  0  1  0  1
   15.2375   24.3250   15.0970  H 0  0  0  1  0  1
   17.6971   24.4543   20.1828  H 0  0  0  1  0  1
   18.2053   22.1194   20.6417  H 0  0  0  1  0  1
   19.4573   22.1294   19.3537  H 0  0  0  1  0  1
   17.7283   22.3655   18.9275  H 0  0  0  1  0  1
   19.7655   25.5360   20.8867  H 0  0  0  1  0  1
   20.6850   24.0437   20.4940  H 0  0  0  1  0  1
   19.4663   24.0266   21.8134  H 0  0  0  1  0  1
   16.9742   26.0686   18.1105  H 0  0  0  1  0  1
   16.6171   25.5337   16.4332  H 0  0  0  1  0  1
   16.0062   23.8884   18.9257  H 0  0  0  1  0  1
   14.4904   18.5320   17.4803  H 0  0  0  1  0  1
   11.3888   16.4714   17.3231  H 0  0  0  1  0  1
   12.4105   19.7571   20.1333  H 0  0  0  1  0  1
   12.7855   18.4792   21.3387  H 0  0  0  1  0  1
   12.6846   18.1031   16.2088  H 0  0  0  1  0  1
   13.6754   22.5618   18.1793  H 0  0  0  1  0  1
   16.2793   22.6731   16.6714  H 0  0  0  1  0  1
   12.2087   22.3360   15.3187  H 0  0  0  1  0  1
   11.7615   20.2532   14.1006  H 0  0  0  1  0  1
   13.5832   19.1630   12.8980  H 0  0  0  1  0  1
   15.8156   20.1436   12.7630  H 0  0  0  1  0  1
   14.2154   25.4804   17.4062  H 0  0  0  1  0  1
   20.0781   24.3665   18.2484  H 0  0  0  1  0  1
   19.1136   25.8157   18.6915  H 0  0  0  1  0  1
   19.9232   28.6200   14.3826  H 0  0  0  1  0  1
   21.2471   29.7997   14.1454  H 0  0  0  1  0  1
   21.2472   29.7997   14.1454  H 0  0  0  1  0  1
   24.2419   27.5855   15.4129  H 0  0  0  1  0  1
   24.2418   27.5856   15.4128  H 0  0  0  1  0  1
  3  1  4  0  0  1
  1 39  4  0  0  1
  5  2  4  0  0  1
 39  2  4  0  0  1
  2 40  1  0  0  2
  3  4  4  0  0  1
 36  3  1  0  0  2
  4  5  4  0  0  1
  6  9  1  0  0  1
 21  6  1  0  0  1
  6 23  1  0  0  1
 22  7  1  0  0  1
  7 24  1  0  0  1
  7 25  1  0  0  1
  8 25  1  0  0  1
 26  8  1  0  0  1
 22  9  1  0  0  1
 11 10  4  0  0  1
 10 32  4  0  0  1
 12 11  1  0  0  2
 11 29  4  0  0  1
 28 12  1  0  0  2
 13 14  1  0  0  2
 13 15  1  0  0  2
 35 13  1  0  0  2
 16 17  1  0  0  2
 34 16  1  0  0  2
 17 28  1  0  0  2
 17 33  1  0  0  2
 18 19  2  0  0  2
 18 20  1  0  0  2
 27 18  1  0  0  2
 20 21  1  0  0  2
 21 26  1  0  0  1
 26 22  1  0  0  1
 23 24  1  0  0  1
 28 27  1  0  0  2
 29 30  4  0  0  1
 30 31  4  0  0  1
 32 31  4  0  0  1
 34 35  1  0  0  2
 34 36  1  0  0  2
 36 37  2  0  0  2
 36 38  2  0  0  2
 40 41  1  0  0  2
 40 42  1  0  0  2
  1 43  1  0  0  2
  2 44  1  0  0  2
  4 45  1  0  0  2
  5 46  1  0  0  2
  6 47  1  0  0  2
  7 48  1  0  0  2
  8 49  1  0  0  2
  8 50  1  0  0  2
  9 51  1  0  0  2
  9 52  1  0  0  2
 10 53  1  0  0  2
 12 54  1  0  0  2
 12 55  1  0  0  2
 13 56  1  0  0  2
 14 57  1  0  0  2
 14 58  1  0  0  2
 14 59  1  0  0  2
 15 60  1  0  0  2
 15 61  1  0  0  2
 15 62  1  0  0  2
 16 63  1  0  0  2
 16 64  1  0  0  2
 17 65  1  0  0  2
 21 66  1  0  0  2
 22 67  1  0  0  2
 23 68  1  0  0  2
 23 69  1  0  0  2
 26 70  1  0  0  2
 27 71  1  0  0  2
 28 72  1  0  0  2
 29 73  1  0  0  2
 30 74  1  0  0  2
 31 75  1  0  0  2
 32 76  1  0  0  2
 33 77  1  0  0  2
 35 78  1  0  0  2
 35 79  1  0  0  2
 39 80  1  0  0  2
 41 81  1  0  0  2
 41 82  1  0  0  2
 42 83  1  0  0  2
 42 84  1  0  0  2
M  END
> <MOLECULAR_FORMULA>
C29H42N2O9SB

> <MOLECULAR_WEIGHT>
605.2

> <NUM_HB_ATOMS>
10 

> <NUM_ROTOR>
12 

> <XLOGP2>
2.33 

$$$$
