#	Name:			6u7o_ligand
#	Creating user name:	wangrx
#	Creation time:		Thu Aug  5 18:15:46 2021

#	Modifying user name:	wangrx
#	Modification time:	Thu Aug  5 18:16:10 2021

@<TRIPOS>MOLECULE
6u7o_ligand
   83    87     1     0     0
SMALL
GAST_HUCK


@<TRIPOS>ATOM
      1 C6         19.4020   26.6110   14.9940 C.ar      1 Q1D        -0.1449 
      2 C2         21.6670   27.4880   14.9930 C.ar      1 Q1D        -0.1677 
      3 C5         19.8230   25.4370   15.5680 C.ar      1 Q1D         0.0004 
      4 C4         21.1510   25.3400   15.8350 C.ar      1 Q1D        -0.1449 
      5 C3         22.0850   26.2780   15.4830 C.ar      1 Q1D        -0.1686 
      6 C9         13.4630   18.0410   19.3250 C.3       1 Q1D         0.0139 
      7 C7         10.7080   17.9450   18.7890 C.3       1 Q1D         0.1623 
      8 C11        11.2250   19.3950   17.1040 C.3       1 Q1D         0.0566 
      9 C10        12.9210   16.7320   18.7980 C.3       1 Q1D        -0.0376 
     10 C34        15.3080   21.8140   14.0650 C.ar      1 Q1D        -0.0603 
     11 C33        14.2890   22.4090   14.8030 C.ar      1 Q1D        -0.0408 
     12 C32        14.5970   23.6310   15.6610 C.3       1 Q1D         0.0064 
     13 C13        18.6640   24.0490   19.8500 C.3       1 Q1D        -0.0296 
     14 C14        18.5030   22.5670   19.6820 C.3       1 Q1D        -0.0612 
     15 C15        19.7130   24.4390   20.8240 C.3       1 Q1D        -0.0612 
     16 C16        16.8480   25.1950   17.4540 C.3       1 Q1D         0.0573 
     17 C17        15.6880   24.3390   17.9740 C.3       1 Q1D         0.0967 
     18 C21        14.7320   20.9080   17.7350 C.2       1 Q1D         0.3202 
     19 O22        15.6910   20.2980   17.3370 O.2       1 Q1D        -0.3775 
     20 O23        13.6430   20.2260   18.2010 O.3       1 Q1D        -0.2599 
     21 C49        13.5770   18.8370   18.0120 C.3       1 Q1D         0.0983 
     22 C69        11.8010   17.2590   17.9710 C.3       1 Q1D         0.0182 
     23 C8         12.4470   18.6720   20.3100 C.3       1 Q1D         0.0562 
     24 O1         11.1350   18.1380   20.1520 O.3       1 Q1D        -0.3506 
     25 O2         10.3990   19.2860   18.2280 O.3       1 Q1D        -0.3506 
     26 C59        12.3650   18.4020   17.2180 C.3       1 Q1D         0.0208 
     27 N20        14.4790   22.2130   17.6970 N.am      1 Q1D        -0.2550 
     28 C19        15.3430   23.1690   16.9670 C.3       1 Q1D         0.0807 
     29 C38        13.0130   21.8460   14.7820 C.ar      1 Q1D        -0.0603 
     30 C37        12.7540   20.6890   14.0990 C.ar      1 Q1D        -0.0686 
     31 C36        13.7790   20.0960   13.4140 C.ar      1 Q1D        -0.0687 
     32 C35        15.0410   20.6250   13.3490 C.ar      1 Q1D        -0.0686 
     33 O18        14.5300   25.1110   18.2230 O.3       1 Q1D        -0.3877 
     34 N11        18.1070   24.4170   17.4340 N.am      1 Q1D        -0.2375 
     35 C12        19.0800   24.7270   18.5380 C.3       1 Q1D         0.0315 
     36 S8         18.7900   24.1690   15.9750 S.o2      1 Q1D         0.0363 
     37 O9         17.7090   24.1580   15.0390 O.2       1 Q1D        -0.1576 
     38 O10        19.5650   22.9950   16.1730 O.2       1 Q1D        -0.1576 
     39 C39        20.2920   27.6700   14.7520 C.ar      1 Q1D        -0.1686 
     40 B1         22.6990   28.6270   14.7880 B         1 Q1D         3.0000 
     41 O4         22.1770   29.8880   14.3190 O.3       1 Q1D        -0.4105 
     42 O3         24.0820   28.4770   15.1260 O.3       1 Q1D        -0.4105 
     43 H1         18.3588   26.7230   14.7214 H         1 Q1D         0.0060 
     44 H3         21.4959   24.4587   16.3636 H         1 Q1D         0.0060 
     45 H4         23.1426   26.0659   15.5907 H         1 Q1D         0.0043 
     46 H5         14.4393   17.9222   19.8176 H         1 Q1D         0.0352 
     47 H6          9.8032   17.3198   18.7711 H         1 Q1D         0.0912 
     48 H7         11.6318   20.4153   17.0451 H         1 Q1D         0.0564 
     49 H8         10.6407   19.1802   16.1971 H         1 Q1D         0.0564 
     50 H9         12.5638   16.0780   19.6071 H         1 Q1D         0.0274 
     51 H10        13.6633   16.1927   18.1912 H         1 Q1D         0.0274 
     52 H11        16.2966   22.2580   14.0396 H         1 Q1D         0.0557 
     53 H12        13.6585   24.1365   15.9323 H         1 Q1D         0.0449 
     54 H13        15.2375   24.3250   15.0970 H         1 Q1D         0.0449 
     55 H14        17.6971   24.4543   20.1828 H         1 Q1D         0.0311 
     56 H15        18.2053   22.1194   20.6417 H         1 Q1D         0.0233 
     57 H16        19.4573   22.1294   19.3537 H         1 Q1D         0.0233 
     58 H17        17.7283   22.3655   18.9275 H         1 Q1D         0.0233 
     59 H18        19.7655   25.5360   20.8867 H         1 Q1D         0.0233 
     60 H19        20.6850   24.0437   20.4940 H         1 Q1D         0.0233 
     61 H20        19.4663   24.0266   21.8134 H         1 Q1D         0.0233 
     62 H21        16.9742   26.0686   18.1105 H         1 Q1D         0.0504 
     63 H22        16.6171   25.5337   16.4332 H         1 Q1D         0.0504 
     64 H23        16.0062   23.8884   18.9257 H         1 Q1D         0.0634 
     65 H24        14.4904   18.5320   17.4803 H         1 Q1D         0.0655 
     66 H25        11.3888   16.4714   17.3231 H         1 Q1D         0.0354 
     67 H26        12.4105   19.7571   20.1333 H         1 Q1D         0.0564 
     68 H27        12.7855   18.4792   21.3387 H         1 Q1D         0.0564 
     69 H28        12.6846   18.1031   16.2088 H         1 Q1D         0.0356 
     70 H29        13.6754   22.5618   18.1793 H         1 Q1D         0.1873 
     71 H30        16.2793   22.6731   16.6714 H         1 Q1D         0.0604 
     72 H31        12.2087   22.3360   15.3187 H         1 Q1D         0.0557 
     73 H32        11.7615   20.2532   14.1006 H         1 Q1D         0.0599 
     74 H33        13.5832   19.1630   12.8980 H         1 Q1D         0.0559 
     75 H34        15.8156   20.1436   12.7630 H         1 Q1D         0.0599 
     76 H35        14.2154   25.4804   17.4062 H         1 Q1D         0.2100 
     77 H36        20.0781   24.3665   18.2484 H         1 Q1D         0.0480 
     78 H37        19.1136   25.8157   18.6915 H         1 Q1D         0.0480 
     79 H38        19.9232   28.6200   14.3826 H         1 Q1D         0.0043 
     80 H39        21.2471   29.7997   14.1454 H         1 Q1D         0.2052 
     81 H40        21.2472   29.7997   14.1454 H         1 Q1D         0.2052 
     82 H41        24.2419   27.5855   15.4129 H         1 Q1D         0.2052 
     83 H42        24.2418   27.5856   15.4128 H         1 Q1D         0.2052 
@<TRIPOS>BOND
     1    3    1 ar   
     2    1   39 ar   
     3    5    2 ar   
     4   39    2 ar   
     5    2   40 1    
     6    3    4 ar   
     7   36    3 1    
     8    4    5 ar   
     9    6    9 1    
    10   21    6 1    
    11    6   23 1    
    12   22    7 1    
    13    7   24 1    
    14    7   25 1    
    15    8   25 1    
    16   26    8 1    
    17   22    9 1    
    18   11   10 ar   
    19   10   32 ar   
    20   12   11 1    
    21   11   29 ar   
    22   28   12 1    
    23   13   14 1    
    24   13   15 1    
    25   35   13 1    
    26   16   17 1    
    27   34   16 1    
    28   17   28 1    
    29   17   33 1    
    30   18   19 2    
    31   18   20 1    
    32   27   18 am   
    33   20   21 1    
    34   21   26 1    
    35   26   22 1    
    36   23   24 1    
    37   28   27 1    
    38   29   30 ar   
    39   30   31 ar   
    40   32   31 ar   
    41   34   35 1    
    42   34   36 am   
    43   36   37 2    
    44   36   38 2    
    45   40   41 1    
    46   40   42 1    
    47    1   43 1    
    48    4   44 1    
    49    5   45 1    
    50    6   46 1    
    51    7   47 1    
    52    8   48 1    
    53    8   49 1    
    54    9   50 1    
    55    9   51 1    
    56   10   52 1    
    57   12   53 1    
    58   12   54 1    
    59   13   55 1    
    60   14   56 1    
    61   14   57 1    
    62   14   58 1    
    63   15   59 1    
    64   15   60 1    
    65   15   61 1    
    66   16   62 1    
    67   16   63 1    
    68   17   64 1    
    69   21   65 1    
    70   22   66 1    
    71   23   67 1    
    72   23   68 1    
    73   26   69 1    
    74   27   70 1    
    75   28   71 1    
    76   29   72 1    
    77   30   73 1    
    78   31   74 1    
    79   32   75 1    
    80   33   76 1    
    81   35   77 1    
    82   35   78 1    
    83   39   79 1    
    84   41   80 1    
    85   41   81 1    
    86   42   82 1    
    87   42   83 1    
@<TRIPOS>SUBSTRUCTURE
     1 Q1D         1 PERM              0 ****  ****    0 ROOT 
