5gjd_ligand
  -I-interpret- 

 65 70  0  0  0  0  0  0  0  0999 V2000
    0.3950  -48.9030  -17.7770 C   0  0  0  0  0
    0.4590  -47.6220  -18.3130 C   0  0  0  0  0
   -0.5430  -46.6970  -18.0680 C   0  0  0  0  0
   -1.6250  -47.0230  -17.3090 C   0  0  0  0  0
   -0.7290  -49.2850  -16.9760 C   0  0  0  0  0
   -1.7500  -48.3150  -16.7410 C   0  0  0  0  0
   -2.8650  -48.6660  -15.9530 C   0  0  0  0  0
   -2.9730  -49.9250  -15.4020 C   0  0  0  0  0
   -1.9840  -50.8710  -15.6380 C   0  0  0  0  0
   -0.8930  -50.5730  -16.3940 C   0  0  0  0  0
    1.0510  -50.8010  -19.1250 C   0  0  0  0  0
    2.2240  -51.5880  -19.6410 C   0  0  0  0  0
    3.8280  -50.3990  -18.3610 C   0  0  0  0  0
    1.3970  -49.8810  -18.0330 N   0  0  0  0  0
    3.2570  -51.7140  -18.6260 N   0  3  0  0  0
    2.7840  -49.4450  -17.8070 C   0  0  0  0  0
    4.2970  -52.6450  -19.0690 C   0  0  0  0  0
   -4.1170  -50.2670  -14.6440 N   0  0  0  0  0
   -5.4040  -50.0170  -15.0400 C   0  0  0  0  0
   -6.3290  -50.8960  -14.5470 N   0  0  0  0  0
   -5.7000  -49.0970  -15.7940 O   0  0  0  0  0
   -7.7320  -50.7640  -14.7030 C   0  0  0  0  0
   -8.5890  -50.9700  -13.6300 C   0  0  0  0  0
   -9.9540  -50.8190  -13.7870 C   0  0  0  0  0
  -10.4710  -50.4660  -15.0230 C   0  0  0  0  0
   -9.6260  -50.2470  -16.0940 C   0  0  0  0  0
   -8.2610  -50.3970  -15.9350 C   0  0  0  0  0
  -11.8440  -50.2980  -15.1970 O   0  0  0  0  0
  -12.3830  -49.0190  -15.0940 C   0  0  0  0  0
  -11.7210  -47.9660  -14.4710 C   0  0  0  0  0
  -12.3560  -46.7370  -14.4380 C   0  0  0  0  0
  -13.5710  -46.4970  -14.9600 N   0  0  0  0  0
  -13.6560  -48.8130  -15.6540 C   0  0  0  0  0
  -14.1930  -47.5320  -15.5540 C   0  0  0  0  0
  -15.4180  -47.5400  -16.1550 N   0  0  0  0  0
  -15.6630  -48.8070  -16.6330 C   0  0  0  0  0
  -14.6140  -49.6190  -16.3500 C   0  0  0  0  0
    1.3092  -47.3414  -18.9346 H   0  0  0  0  0
   -0.4638  -45.6946  -18.4887 H   0  0  0  0  0
   -2.4046  -46.2811  -17.1361 H   0  0  0  0  0
   -3.6518  -47.9325  -15.7771 H   0  0  0  0  0
   -2.0836  -51.8687  -15.2104 H   0  0  0  0  0
   -0.1306  -51.3348  -16.5569 H   0  0  0  0  0
    0.3244  -51.5138  -18.7349 H   0  0  0  0  0
    0.6707  -50.2003  -19.9512 H   0  0  0  0  0
    2.6425  -51.0663  -20.5017 H   0  0  0  0  0
    1.8811  -52.5856  -19.9154 H   0  0  0  0  0
    4.2085  -49.9910  -19.2974 H   0  0  0  0  0
    4.6236  -50.5085  -17.6240 H   0  0  0  0  0
    2.8472  -52.0837  -17.7682 H   0  0  0  0  0
    2.9115  -48.4918  -18.3202 H   0  0  0  0  0
    2.9347  -49.3905  -16.7288 H   0  0  0  0  0
    3.8536  -53.6244  -19.2486 H   0  0  0  0  0
    4.7467  -52.2739  -19.9900 H   0  0  0  0  0
    5.0621  -52.7272  -18.2970 H   0  0  0  0  0
   -3.9746  -50.7289  -13.7458 H   0  0  0  0  0
   -5.9845  -51.7048  -14.0298 H   0  0  0  0  0
   -8.1831  -51.2523  -12.6586 H   0  0  0  0  0
  -10.6221  -50.9773  -12.9404 H   0  0  0  0  0
  -10.0347  -49.9567  -17.0619 H   0  0  0  0  0
   -7.5953  -50.2264  -16.7811 H   0  0  0  0  0
  -10.7364  -48.1042  -14.0244 H   0  0  0  0  0
  -11.8363  -45.9085  -13.9567 H   0  0  0  0  0
  -16.5663  -49.1128  -17.1609 H   0  0  0  0  0
  -14.5189  -50.6752  -16.6021 H   0  0  0  0  0
  1  2  4  0  0  0
  1  5  4  0  0  0
 14  1  1  0  0  0
  2  3  4  0  0  0
  3  4  4  0  0  0
  6  4  4  0  0  0
  5  6  4  0  0  0
  5 10  4  0  0  0
  6  7  4  0  0  0
  7  8  4  0  0  0
  9  8  4  0  0  0
  8 18  1  0  0  0
 10  9  4  0  0  0
 11 12  1  0  0  0
 11 14  1  0  0  0
 12 15  1  0  0  0
 15 13  1  0  0  0
 13 16  1  0  0  0
 14 16  1  0  0  0
 15 17  1  0  0  0
 18 19  1  0  0  0
 19 20  1  0  0  0
 19 21  2  0  0  0
 20 22  1  0  0  0
 22 23  4  0  0  0
 22 27  4  0  0  0
 23 24  4  0  0  0
 24 25  4  0  0  0
 25 26  4  0  0  0
 25 28  1  0  0  0
 26 27  4  0  0  0
 28 29  1  0  0  0
 29 30  4  0  0  0
 29 33  4  0  0  0
 30 31  4  0  0  0
 31 32  4  0  0  0
 32 34  4  0  0  0
 33 34  4  0  0  0
 33 37  4  0  0  0
 34 35  4  0  0  0
 35 36  4  0  0  0
 36 37  4  0  0  0
  2 38  1  0  0  0
  3 39  1  0  0  0
  4 40  1  0  0  0
  7 41  1  0  0  0
  9 42  1  0  0  0
 10 43  1  0  0  0
 11 44  1  0  0  0
 11 45  1  0  0  0
 12 46  1  0  0  0
 12 47  1  0  0  0
 13 48  1  0  0  0
 13 49  1  0  0  0
 15 50  1  0  0  0
 16 51  1  0  0  0
 16 52  1  0  0  0
 17 53  1  0  0  0
 17 54  1  0  0  0
 17 55  1  0  0  0
 18 56  1  0  0  0
 20 57  1  0  0  0
 23 58  1  0  0  0
 24 59  1  0  0  0
 26 60  1  0  0  0
 27 61  1  0  0  0
 30 62  1  0  0  0
 31 63  1  0  0  0
 36 64  1  0  0  0
 37 65  1  0  0  0
M  END
$$$$
