4oo9_ligand
  -I-interpret- 

 46 48  0  0  0  0  0  0  0  0999 V2000
  -24.9420   -6.7880   40.8390 C   0  0  0  0  0
  -20.7960   -4.3510   45.5040 N   0  0  0  0  0
  -24.9830   -2.9800   43.7630 O   0  0  0  0  0
  -25.1450   -8.0810   41.3520 C   0  0  0  0  0
  -18.7660   -5.3900   45.0750 O   0  0  0  0  0
  -25.1500   -6.5380   39.4670 C   0  0  0  0  0
  -19.5140   -5.1790   47.1890 O   0  0  0  0  0
  -24.5020   -5.6880   41.6960 C   0  0  0  0  0
  -25.5560   -9.1190   40.5140 C   0  0  0  0  0
  -25.7700   -8.8810   39.1450 C   0  0  0  0  0
  -25.5690   -7.5870   38.6120 C   0  0  0  0  0
  -25.7930   -7.3150   37.1470 C   0  0  0  0  0
  -24.1940   -4.7640   42.4400 C   0  0  0  0  0
  -23.8270   -3.6010   43.2760 C   0  0  0  0  0
  -23.0770   -2.5060   42.4660 C   0  0  0  0  0
  -21.6920   -2.9420   41.9420 C   0  0  0  0  0
  -20.7690   -3.5540   43.0010 C   0  0  0  0  0
  -21.4020   -4.3440   44.1730 C   0  0  0  0  0
  -22.9230   -4.1610   44.4130 C   0  0  0  0  0
  -23.0060   -3.4230   45.7590 C   0  0  0  0  0
  -21.6700   -3.6800   46.4640 C   0  0  0  0  0
  -19.5610   -4.9000   45.8770 C   0  0  0  0  0
  -18.3970   -5.8790   47.7150 C   0  0  0  0  0
  -24.7363   -2.2265   44.3043 H   0  0  0  0  0
  -24.9803   -8.2745   42.4120 H   0  0  0  0  0
  -24.9885   -5.5380   39.0644 H   0  0  0  0  0
  -25.7116  -10.1175   40.9225 H   0  0  0  0  0
  -26.0910   -9.6944   38.4943 H   0  0  0  0  0
  -26.5659   -6.5548   37.0339 H   0  0  0  0  0
  -24.8648   -6.9608   36.6985 H   0  0  0  0  0
  -26.1097   -8.2333   36.6525 H   0  0  0  0  0
  -22.9154   -1.6634   43.1383 H   0  0  0  0  0
  -23.6908   -2.2731   41.5959 H   0  0  0  0  0
  -21.1969   -2.0447   41.5706 H   0  0  0  0  0
  -21.8657   -3.7118   41.1901 H   0  0  0  0  0
  -20.2717   -2.7041   43.4684 H   0  0  0  0  0
  -20.1642   -4.2832   42.4620 H   0  0  0  0  0
  -21.1608   -5.2969   43.7020 H   0  0  0  0  0
  -23.3944   -5.1437   44.4260 H   0  0  0  0  0
  -23.8435   -3.7836   46.3562 H   0  0  0  0  0
  -23.1777   -2.3563   45.6147 H   0  0  0  0  0
  -21.2255   -2.7422   46.7971 H   0  0  0  0  0
  -21.8161   -4.3002   47.3484 H   0  0  0  0  0
  -18.3183   -6.8519   47.2299 H   0  0  0  0  0
  -17.4895   -5.3045   47.5293 H   0  0  0  0  0
  -18.5284   -6.0163   48.7883 H   0  0  0  0  0
  1  4  4  0  0  0
  1  6  4  0  0  0
  8  1  1  0  0  0
 18  2  1  0  0  0
  2 21  1  0  0  0
  2 22  1  0  0  0
 14  3  1  0  0  0
  4  9  4  0  0  0
 22  5  2  0  0  0
  6 11  4  0  0  0
 22  7  1  0  0  0
  7 23  1  0  0  0
 13  8  3  0  0  0
  9 10  4  0  0  0
 11 10  4  0  0  0
 11 12  1  0  0  0
 14 13  1  0  0  0
 15 14  1  0  0  0
 14 19  1  0  0  0
 16 15  1  0  0  0
 17 16  1  0  0  0
 17 18  1  0  0  0
 18 19  1  0  0  0
 19 20  1  0  0  0
 20 21  1  0  0  0
  3 24  1  0  0  0
  4 25  1  0  0  0
  6 26  1  0  0  0
  9 27  1  0  0  0
 10 28  1  0  0  0
 12 29  1  0  0  0
 12 30  1  0  0  0
 12 31  1  0  0  0
 15 32  1  0  0  0
 15 33  1  0  0  0
 16 34  1  0  0  0
 16 35  1  0  0  0
 17 36  1  0  0  0
 17 37  1  0  0  0
 18 38  1  0  0  0
 19 39  1  0  0  0
 20 40  1  0  0  0
 20 41  1  0  0  0
 21 42  1  0  0  0
 21 43  1  0  0  0
 23 44  1  0  0  0
 23 45  1  0  0  0
 23 46  1  0  0  0
M  END
$$$$
