### 
### Created by X-TOOL on Mon Sep 10 21:12:59 2018
### 

@<TRIPOS>MOLECULE
2k2r_ligand
  150   149     1     0     0
SMALL
GAST_HUCK


@<TRIPOS>ATOM
      1 N          17.8740   -2.6230   -3.7930 N.4       1 ASP         0.2391
      2 CA         17.5650   -1.2280   -4.2170 C.3       1 ASP         0.0764
      3 C          17.6790   -0.2920   -3.0120 C.2       1 ASP         0.2284
      4 O          16.9440    0.6670   -2.8860 O.2       1 ASP        -0.3906
      5 CB         16.1420   -1.1690   -4.7750 C.3       1 ASP         0.0607
      6 CG         15.1530   -1.6160   -3.6970 C.2       1 ASP         0.0425
      7 OD1        15.1440   -2.7940   -3.3800 O.co2     1 ASP        -0.5686
      8 OD2        14.4210   -0.7720   -3.2070 O.co2     1 ASP        -0.5686
      9 N          18.5940   -0.5650   -2.1230 N.am      1 LEU        -0.2609
     10 CA         18.7550    0.3060   -0.9240 C.3       1 LEU         0.1313
     11 C          19.2680    1.6810   -1.3570 C.2       1 LEU         0.2040
     12 O          18.6010    2.6860   -1.2080 O.2       1 LEU        -0.3944
     13 CB         19.7620   -0.3460    0.0430 C.3       1 LEU        -0.0101
     14 CG         19.5100    0.1200    1.4900 C.3       1 LEU        -0.0425
     15 CD1        19.4620    1.6500    1.5470 C.3       1 LEU        -0.0625
     16 CD2        18.1860   -0.4630    2.0260 C.3       1 LEU        -0.0625
     17 N          20.4570    1.7230   -1.8800 N.am      1 ASP        -0.2622
     18 CA         21.0490    3.0190   -2.3190 C.3       1 ASP         0.1423
     19 C          20.0130    3.8490   -3.0830 C.2       1 ASP         0.2056
     20 O          19.9730    5.0540   -2.9670 O.2       1 ASP        -0.3943
     21 CB         22.2470    2.7440   -3.2290 C.3       1 ASP         0.0406
     22 CG         22.8070    4.0690   -3.7520 C.2       1 ASP         0.0393
     23 OD1        23.5450    4.7070   -3.0210 O.co2     1 ASP        -0.5688
     24 OD2        22.4880    4.4210   -4.8760 O.co2     1 ASP        -0.5688
     25 N          19.1860    3.2230   -3.8730 N.am      1 ALA        -0.2639
     26 CA         18.1710    3.9950   -4.6510 C.3       1 ALA         0.1282
     27 C          17.0520    4.4930   -3.7280 C.2       1 ALA         0.2036
     28 O          16.6670    5.6460   -3.7700 O.2       1 ALA        -0.3944
     29 CB         17.5750    3.0930   -5.7330 C.3       1 ALA        -0.0244
     30 N          16.5200    3.6330   -2.9050 N.am      1 LEU        -0.2637
     31 CA         15.4210    4.0470   -1.9910 C.3       1 LEU         0.1312
     32 C          15.7950    5.3510   -1.2710 C.2       1 LEU         0.2039
     33 O          14.9690    6.2240   -1.0840 O.2       1 LEU        -0.3944
     34 CB         15.1960    2.9260   -0.9600 C.3       1 LEU        -0.0101
     35 CG         14.2340    1.8570   -1.5240 C.3       1 LEU        -0.0425
     36 CD1        14.4880    0.5150   -0.8300 C.3       1 LEU        -0.0625
     37 CD2        12.7790    2.2760   -1.2740 C.3       1 LEU        -0.0625
     38 N          17.0240    5.4880   -0.8530 N.am      1 LEU        -0.2637
     39 CA         17.4300    6.7310   -0.1300 C.3       1 LEU         0.1312
     40 C          17.8120    7.8170   -1.1400 C.2       1 LEU         0.2039
     41 O          17.5600    8.9870   -0.9300 O.2       1 LEU        -0.3944
     42 CB         18.6230    6.4110    0.7790 C.3       1 LEU        -0.0101
     43 CG         18.9430    7.6130    1.6930 C.3       1 LEU        -0.0425
     44 CD1        18.0060    7.6290    2.9090 C.3       1 LEU        -0.0625
     45 CD2        20.3900    7.5090    2.1870 C.3       1 LEU        -0.0625
     46 N          18.4110    7.4420   -2.2340 N.am      1 ALA        -0.2640
     47 CA         18.8000    8.4550   -3.2540 C.3       1 ALA         0.1282
     48 C          17.5500    9.1990   -3.7220 C.2       1 ALA         0.2037
     49 O          17.6310   10.2560   -4.3160 O.2       1 ALA        -0.3944
     50 CB         19.4550    7.7580   -4.4480 C.3       1 ALA        -0.0244
     51 N          16.3910    8.6510   -3.4520 N.am      1 ASP        -0.2622
     52 CA         15.1140    9.3110   -3.8700 C.3       1 ASP         0.1423
     53 C          14.4050    9.8790   -2.6370 C.2       1 ASP         0.2056
     54 O          13.6700   10.8430   -2.7210 O.2       1 ASP        -0.3943
     55 CB         14.2100    8.2740   -4.5400 C.3       1 ASP         0.0406
     56 CG         13.0460    8.9800   -5.2370 C.2       1 ASP         0.0393
     57 OD1        12.5340    9.9340   -4.6730 O.co2     1 ASP        -0.5688
     58 OD2        12.6850    8.5550   -6.3220 O.co2     1 ASP        -0.5688
     59 N          14.6120    9.2840   -1.4920 N.am      1 LEU        -0.2636
     60 CA         13.9410    9.7860   -0.2560 C.3       1 LEU         0.1312
     61 C          14.6880   11.0110    0.2880 C.2       1 LEU         0.2034
     62 O          14.2470   11.6540    1.2190 O.2       1 LEU        -0.3944
     63 CB         13.9350    8.6700    0.8010 C.3       1 LEU        -0.0101
     64 CG         12.8640    8.9550    1.8770 C.3       1 LEU        -0.0425
     65 CD1        11.4950    8.4380    1.4150 C.3       1 LEU        -0.0625
     66 CD2        13.2440    8.2460    3.1820 C.3       1 LEU        -0.0625
     67 N          15.8170   11.3400   -0.2810 N.am      1 GLU        -0.2694
     68 CA         16.5890   12.5160    0.2050 C.3       1 GLU         0.0959
     69 C          15.6470   13.7090    0.4200 C.2       1 GLU         0.0602
     70 O          15.9410   14.5230    1.2800 O.co2     1 GLU        -0.5666
     71 CB         17.6860   12.8750   -0.8090 C.3       1 GLU        -0.0064
     72 CG         17.2880   12.3300   -2.1610 C.3       1 GLU         0.0038
     73 CD         18.1080   12.9960   -3.2680 C.2       1 GLU         0.0350
     74 OE1        19.0530   13.6940   -2.9410 O.co2     1 GLU        -0.5690
     75 OE2        17.7770   12.7940   -4.4250 O.co2     1 GLU        -0.5690
     76 OXT        14.6510   13.7860   -0.2800 O.co2     1 GLU        -0.5666
     77 H1         17.7990   -3.2398   -4.5867 H         1 ASP         0.2016
     78 H2         17.2207   -2.9104   -3.0812 H         1 ASP         0.2016
     79 H3         18.8113   -2.6623   -3.4244 H         1 ASP         0.2016
     80 H4         18.2773   -0.9142   -4.9942 H         1 ASP         0.1117
     81 H5         16.0616   -1.8362   -5.6458 H         1 ASP         0.0512
     82 H6         15.9103   -0.1380   -5.0804 H         1 ASP         0.0512
     83 H7         19.1883   -1.3598   -2.2461 H         1 LEU         0.1885
     84 H8         17.7841    0.4205   -0.4197 H         1 LEU         0.0800
     85 H9         20.7826   -0.0635   -0.2544 H         1 LEU         0.0315
     86 H10        19.6547   -1.4396   -0.0077 H         1 LEU         0.0315
     87 H11        20.3357   -0.2347    2.1243 H         1 LEU         0.0298
     88 H12        19.2818    1.9728    2.5830 H         1 LEU         0.0232
     89 H13        18.6491    2.0156    0.9024 H         1 LEU         0.0232
     90 H14        20.4206    2.0603    1.1966 H         1 LEU         0.0232
     91 H15        18.2251   -1.5615    1.9831 H         1 LEU         0.0232
     92 H16        17.3499   -0.1016    1.4093 H         1 LEU         0.0232
     93 H17        18.0390   -0.1417    3.0677 H         1 LEU         0.0232
     94 H18        20.9800    0.8777   -1.9891 H         1 ASP         0.1884
     95 H19        21.3828    3.5821   -1.4350 H         1 ASP         0.0819
     96 H20        21.9274    2.1210   -4.0774 H         1 ASP         0.0478
     97 H21        23.0262    2.2162   -2.6595 H         1 ASP         0.0478
     98 H22        19.2311    2.2276   -3.9580 H         1 ALA         0.1883
     99 H23        18.6594    4.8595   -5.1244 H         1 ALA         0.0797
    100 H24        16.8266    3.6569   -6.3091 H         1 ALA         0.0277
    101 H25        17.0952    2.2227   -5.2615 H         1 ALA         0.0277
    102 H26        18.3745    2.7508   -6.4065 H         1 ALA         0.0277
    103 H27        16.8523    2.6900   -2.8879 H         1 LEU         0.1883
    104 H28        14.4999    4.2045   -2.5712 H         1 LEU         0.0800
    105 H29        14.7622    3.3569   -0.0456 H         1 LEU         0.0315
    106 H30        16.1608    2.4548   -0.7213 H         1 LEU         0.0315
    107 H31        14.4039    1.7496   -2.6055 H         1 LEU         0.0298
    108 H32        13.8010   -0.2428   -1.2346 H         1 LEU         0.0232
    109 H33        14.3184    0.6235    0.2514 H         1 LEU         0.0232
    110 H34        15.5269    0.2007   -1.0085 H         1 LEU         0.0232
    111 H35        12.5848    3.2394   -1.7682 H         1 LEU         0.0232
    112 H36        12.6074    2.3777   -0.1923 H         1 LEU         0.0232
    113 H37        12.1019    1.5114   -1.6824 H         1 LEU         0.0232
    114 H38        17.6925    4.7625   -1.0163 H         1 LEU         0.1883
    115 H39        16.5899    7.0880    0.4838 H         1 LEU         0.0800
    116 H40        19.5017    6.1850    0.1571 H         1 LEU         0.0315
    117 H41        18.3798    5.5374    1.4016 H         1 LEU         0.0315
    118 H42        18.8152    8.5449    1.1227 H         1 LEU         0.0298
    119 H43        18.2488    8.4911    3.5476 H         1 LEU         0.0232
    120 H44        18.1346    6.6997    3.4832 H         1 LEU         0.0232
    121 H45        16.9633    7.7078    2.5675 H         1 LEU         0.0232
    122 H46        21.0720    7.4966    1.3240 H         1 LEU         0.0232
    123 H47        20.5141    6.5819    2.7658 H         1 LEU         0.0232
    124 H48        20.6225    8.3739    2.8257 H         1 LEU         0.0232
    125 H49        18.6096    6.4743   -2.3890 H         1 ALA         0.1883
    126 H50        19.5101    9.1690   -2.8114 H         1 ALA         0.0797
    127 H51        19.7410    8.5089   -5.1992 H         1 ALA         0.0277
    128 H52        18.7436    7.0468   -4.8929 H         1 ALA         0.0277
    129 H53        20.3514    7.2173   -4.1104 H         1 ALA         0.0277
    130 H54        16.3590    7.7807   -2.9604 H         1 ASP         0.1884
    131 H55        15.3325   10.1244   -4.5776 H         1 ASP         0.0819
    132 H56        13.8165    7.5849   -3.7782 H         1 ASP         0.0478
    133 H57        14.7911    7.7070   -5.2822 H         1 ASP         0.0478
    134 H58        15.2203    8.4918   -1.4435 H         1 LEU         0.1883
    135 H59        12.9051   10.0698   -0.4935 H         1 LEU         0.0800
    136 H60        14.9243    8.6178    1.2790 H         1 LEU         0.0315
    137 H61        13.7123    7.7096    0.3132 H         1 LEU         0.0315
    138 H62        12.8052   10.0395    2.0513 H         1 LEU         0.0298
    139 H63        10.7433    8.6476    2.1902 H         1 LEU         0.0232
    140 H64        11.5517    7.3530    1.2431 H         1 LEU         0.0232
    141 H65        11.2087    8.9428    0.4806 H         1 LEU         0.0232
    142 H66        14.2247    8.6084    3.5240 H         1 LEU         0.0232
    143 H67        13.2942    7.1609    3.0086 H         1 LEU         0.0232
    144 H68        12.4859    8.4600    3.9498 H         1 LEU         0.0232
    145 H69        16.1643   10.7990   -1.0470 H         1 GLU         0.1875
    146 H70        17.0623   12.2604    1.1645 H         1 GLU         0.0727
    147 H71        18.6411   12.4283   -0.4957 H         1 GLU         0.0323
    148 H72        17.7940   13.9681   -0.8671 H         1 GLU         0.0323
    149 H73        16.2198   12.5292   -2.3318 H         1 GLU         0.0432
    150 H74        17.4665   11.2448   -2.1810 H         1 GLU         0.0432
@<TRIPOS>BOND
     1    1    2 1  
     2    2    3 1  
     3    2    5 1  
     4    3    4 2  
     5    3    9 am 
     6    5    6 1  
     7    6    7 ar 
     8    6    8 ar 
     9    9   10 1  
    10   10   11 1  
    11   10   13 1  
    12   11   12 2  
    13   11   17 am 
    14   13   14 1  
    15   14   15 1  
    16   14   16 1  
    17   17   18 1  
    18   18   19 1  
    19   18   21 1  
    20   19   20 2  
    21   19   25 am 
    22   21   22 1  
    23   22   23 ar 
    24   22   24 ar 
    25   25   26 1  
    26   26   27 1  
    27   26   29 1  
    28   27   28 2  
    29   27   30 am 
    30   30   31 1  
    31   31   32 1  
    32   31   34 1  
    33   32   33 2  
    34   32   38 am 
    35   34   35 1  
    36   35   36 1  
    37   35   37 1  
    38   38   39 1  
    39   39   40 1  
    40   39   42 1  
    41   40   41 2  
    42   40   46 am 
    43   42   43 1  
    44   43   44 1  
    45   43   45 1  
    46   46   47 1  
    47   47   48 1  
    48   47   50 1  
    49   48   49 2  
    50   48   51 am 
    51   51   52 1  
    52   52   53 1  
    53   52   55 1  
    54   53   54 2  
    55   53   59 am 
    56   55   56 1  
    57   56   57 ar 
    58   56   58 ar 
    59   59   60 1  
    60   60   61 1  
    61   60   63 1  
    62   61   62 2  
    63   61   67 am 
    64   63   64 1  
    65   64   65 1  
    66   64   66 1  
    67   67   68 1  
    68   68   69 1  
    69   68   71 1  
    70   69   70 ar 
    71   69   76 ar 
    72   71   72 1  
    73   72   73 1  
    74   73   74 ar 
    75   73   75 ar 
    76    1   77 1  
    77    1   78 1  
    78    1   79 1  
    79    2   80 1  
    80    5   81 1  
    81    5   82 1  
    82    9   83 1  
    83   10   84 1  
    84   13   85 1  
    85   13   86 1  
    86   14   87 1  
    87   15   88 1  
    88   15   89 1  
    89   15   90 1  
    90   16   91 1  
    91   16   92 1  
    92   16   93 1  
    93   17   94 1  
    94   18   95 1  
    95   21   96 1  
    96   21   97 1  
    97   25   98 1  
    98   26   99 1  
    99   29  100 1  
   100   29  101 1  
   101   29  102 1  
   102   30  103 1  
   103   31  104 1  
   104   34  105 1  
   105   34  106 1  
   106   35  107 1  
   107   36  108 1  
   108   36  109 1  
   109   36  110 1  
   110   37  111 1  
   111   37  112 1  
   112   37  113 1  
   113   38  114 1  
   114   39  115 1  
   115   42  116 1  
   116   42  117 1  
   117   43  118 1  
   118   44  119 1  
   119   44  120 1  
   120   44  121 1  
   121   45  122 1  
   122   45  123 1  
   123   45  124 1  
   124   46  125 1  
   125   47  126 1  
   126   50  127 1  
   127   50  128 1  
   128   50  129 1  
   129   51  130 1  
   130   52  131 1  
   131   55  132 1  
   132   55  133 1  
   133   59  134 1  
   134   60  135 1  
   135   63  136 1  
   136   63  137 1  
   137   64  138 1  
   138   65  139 1  
   139   65  140 1  
   140   65  141 1  
   141   66  142 1  
   142   66  143 1  
   143   66  144 1  
   144   67  145 1  
   145   68  146 1  
   146   71  147 1  
   147   71  148 1  
   148   72  149 1  
   149   72  150 1  
@<TRIPOS>SUBSTRUCTURE
     1 ASP         1

