2k2r_ligand
  -I-interpret- 

155154  0  0  0  0  0  0  0  0999 V2000
   17.8740   -2.6230   -3.7930 N   0  3  0  0  0
   17.5650   -1.2280   -4.2170 C   0  0  0  0  0
   17.6790   -0.2920   -3.0120 C   0  0  0  0  0
   16.9440    0.6670   -2.8860 O   0  0  0  0  0
   16.1420   -1.1690   -4.7750 C   0  0  0  0  0
   15.1530   -1.6160   -3.6970 C   0  0  0  0  0
   15.1440   -2.7940   -3.3800 O   0  0  0  0  0
   14.4210   -0.7720   -3.2070 O   0  0  0  0  0
   18.5940   -0.5650   -2.1230 N   0  0  0  0  0
   18.7550    0.3060   -0.9240 C   0  0  0  0  0
   19.2680    1.6810   -1.3570 C   0  0  0  0  0
   18.6010    2.6860   -1.2080 O   0  0  0  0  0
   19.7620   -0.3460    0.0430 C   0  0  0  0  0
   19.5100    0.1200    1.4900 C   0  0  0  0  0
   19.4620    1.6500    1.5470 C   0  0  0  0  0
   18.1860   -0.4630    2.0260 C   0  0  0  0  0
   20.4570    1.7230   -1.8800 N   0  0  0  0  0
   21.0490    3.0190   -2.3190 C   0  0  0  0  0
   20.0130    3.8490   -3.0830 C   0  0  0  0  0
   19.9730    5.0540   -2.9670 O   0  0  0  0  0
   22.2470    2.7440   -3.2290 C   0  0  0  0  0
   22.8070    4.0690   -3.7520 C   0  0  0  0  0
   23.5450    4.7070   -3.0210 O   0  0  0  0  0
   22.4880    4.4210   -4.8760 O   0  0  0  0  0
   19.1860    3.2230   -3.8730 N   0  0  0  0  0
   18.1710    3.9950   -4.6510 C   0  0  0  0  0
   17.0520    4.4930   -3.7280 C   0  0  0  0  0
   16.6670    5.6460   -3.7700 O   0  0  0  0  0
   17.5750    3.0930   -5.7330 C   0  0  0  0  0
   16.5200    3.6330   -2.9050 N   0  0  0  0  0
   15.4210    4.0470   -1.9910 C   0  0  0  0  0
   15.7950    5.3510   -1.2710 C   0  0  0  0  0
   14.9690    6.2240   -1.0840 O   0  0  0  0  0
   15.1960    2.9260   -0.9600 C   0  0  0  0  0
   14.2340    1.8570   -1.5240 C   0  0  0  0  0
   14.4880    0.5150   -0.8300 C   0  0  0  0  0
   12.7790    2.2760   -1.2740 C   0  0  0  0  0
   17.0240    5.4880   -0.8530 N   0  0  0  0  0
   17.4300    6.7310   -0.1300 C   0  0  0  0  0
   17.8120    7.8170   -1.1400 C   0  0  0  0  0
   17.5600    8.9870   -0.9300 O   0  0  0  0  0
   18.6230    6.4110    0.7790 C   0  0  0  0  0
   18.9430    7.6130    1.6930 C   0  0  0  0  0
   18.0060    7.6290    2.9090 C   0  0  0  0  0
   20.3900    7.5090    2.1870 C   0  0  0  0  0
   18.4110    7.4420   -2.2340 N   0  0  0  0  0
   18.8000    8.4550   -3.2540 C   0  0  0  0  0
   17.5500    9.1990   -3.7220 C   0  0  0  0  0
   17.6310   10.2560   -4.3160 O   0  0  0  0  0
   19.4550    7.7580   -4.4480 C   0  0  0  0  0
   16.3910    8.6510   -3.4520 N   0  0  0  0  0
   15.1140    9.3110   -3.8700 C   0  0  0  0  0
   14.4050    9.8790   -2.6370 C   0  0  0  0  0
   13.6700   10.8430   -2.7210 O   0  0  0  0  0
   14.2100    8.2740   -4.5400 C   0  0  0  0  0
   13.0460    8.9800   -5.2370 C   0  0  0  0  0
   12.5340    9.9340   -4.6730 O   0  0  0  0  0
   12.6850    8.5550   -6.3220 O   0  0  0  0  0
   14.6120    9.2840   -1.4920 N   0  0  0  0  0
   13.9410    9.7860   -0.2560 C   0  0  0  0  0
   14.6880   11.0110    0.2880 C   0  0  0  0  0
   14.2470   11.6540    1.2190 O   0  0  0  0  0
   13.9350    8.6700    0.8010 C   0  0  0  0  0
   12.8640    8.9550    1.8770 C   0  0  0  0  0
   11.4950    8.4380    1.4150 C   0  0  0  0  0
   13.2440    8.2460    3.1820 C   0  0  0  0  0
   15.8170   11.3400   -0.2810 N   0  0  0  0  0
   16.5890   12.5160    0.2050 C   0  0  0  0  0
   15.6470   13.7090    0.4200 C   0  0  0  0  0
   15.9410   14.5230    1.2800 O   0  0  0  0  0
   17.6860   12.8750   -0.8090 C   0  0  0  0  0
   17.2880   12.3300   -2.1610 C   0  0  0  0  0
   18.1080   12.9960   -3.2680 C   0  0  0  0  0
   19.0530   13.6940   -2.9410 O   0  0  0  0  0
   17.7770   12.7940   -4.4250 O   0  0  0  0  0
   14.6510   13.7860   -0.2800 O   0  0  0  0  0
   18.8230   -2.6617   -3.4210 H   0  0  0  0  0
   17.2129   -2.9123   -3.0721 H   0  0  0  0  0
   17.7969   -3.2463   -4.5967 H   0  0  0  0  0
   18.2710   -0.9170   -4.9870 H   0  0  0  0  0
   16.0623   -1.8301   -5.6380 H   0  0  0  0  0
   15.9124   -0.1474   -5.0778 H   0  0  0  0  0
   14.6043    0.0807   -3.6081 H   0  0  0  0  0
   19.2002   -1.3757   -2.2486 H   0  0  0  0  0
   17.7945    0.4247   -0.4226 H   0  0  0  0  0
   20.7705   -0.0543   -0.2500 H   0  0  0  0  0
   19.6441   -1.4286   -0.0035 H   0  0  0  0  0
   20.3280   -0.2389    2.1147 H   0  0  0  0  0
   20.4123    2.0552    1.1995 H   0  0  0  0  0
   18.6562    2.0110    0.9079 H   0  0  0  0  0
   19.2835    1.9686    2.5740 H   0  0  0  0  0
   17.3615   -0.1264    1.3975 H   0  0  0  0  0
   18.2366   -1.5517    2.0089 H   0  0  0  0  0
   18.0278   -0.1213    3.0489 H   0  0  0  0  0
   20.9905    0.8608   -1.9912 H   0  0  0  0  0
   21.3684    3.5773   -1.4390 H   0  0  0  0  0
   21.9299    2.1270   -4.0698 H   0  0  0  0  0
   23.0191    2.2214   -2.6644 H   0  0  0  0  0
   21.9030    3.7648   -5.2617 H   0  0  0  0  0
   19.2320    2.2077   -3.9597 H   0  0  0  0  0
   18.6560    4.8571   -5.1089 H   0  0  0  0  0
   18.3682    2.7546   -6.3996 H   0  0  0  0  0
   17.0999    2.2310   -5.2646 H   0  0  0  0  0
   16.8336    3.6528   -6.3031 H   0  0  0  0  0
   16.8590    2.6711   -2.8875 H   0  0  0  0  0
   14.5091    4.2186   -2.5630 H   0  0  0  0  0
   14.7584    3.3561   -0.0591 H   0  0  0  0  0
   16.1531    2.4565   -0.7330 H   0  0  0  0  0
   14.4083    1.7597   -2.5956 H   0  0  0  0  0
   15.5177    0.2047   -1.0076 H   0  0  0  0  0
   14.3197    0.6239    0.2414 H   0  0  0  0  0
   13.8067   -0.2350   -1.2318 H   0  0  0  0  0
   12.6114    2.3804   -0.2020 H   0  0  0  0  0
   12.5866    3.2286   -1.7676 H   0  0  0  0  0
   12.1092    1.5156   -1.6754 H   0  0  0  0  0
   17.7059    4.7479   -1.0196 H   0  0  0  0  0
   16.5997    7.0952    0.4751 H   0  0  0  0  0
   19.4932    6.1957    0.1590 H   0  0  0  0  0
   18.3747    5.5501    1.3997 H   0  0  0  0  0
   18.8042    8.5300    1.1203 H   0  0  0  0  0
   16.9732    7.7070    2.5693 H   0  0  0  0  0
   18.1343    6.7076    3.4771 H   0  0  0  0  0
   18.2475    8.4836    3.5410 H   0  0  0  0  0
   20.5156    6.5825    2.7472 H   0  0  0  0  0
   21.0657    7.5124    1.3317 H   0  0  0  0  0
   20.6142    8.3584    2.8322 H   0  0  0  0  0
   18.6136    6.4549   -2.3921 H   0  0  0  0  0
   19.5074    9.1600   -2.8174 H   0  0  0  0  0
   20.3430    7.2226   -4.1122 H   0  0  0  0  0
   18.7491    7.0535   -4.8879 H   0  0  0  0  0
   19.7379    8.5030   -5.1916 H   0  0  0  0  0
   16.3583    7.7633   -2.9506 H   0  0  0  0  0
   15.3309   10.1191   -4.5686 H   0  0  0  0  0
   13.8194    7.5925   -3.7843 H   0  0  0  0  0
   14.7862    7.7136   -5.2762 H   0  0  0  0  0
   12.9795   10.0866   -3.8364 H   0  0  0  0  0
   15.2325    8.4759   -1.4425 H   0  0  0  0  0
   12.9170   10.0758   -0.4916 H   0  0  0  0  0
   14.9145    8.6262    1.2772 H   0  0  0  0  0
   13.7070    7.7213    0.3150 H   0  0  0  0  0
   12.8102   10.0318    2.0372 H   0  0  0  0  0
   11.2125    8.9389    0.4891 H   0  0  0  0  0
   11.5525    7.3629    1.2450 H   0  0  0  0  0
   10.7510    8.6463    2.1839 H   0  0  0  0  0
   13.3046    7.1720    3.0062 H   0  0  0  0  0
   14.2105    8.6142    3.5259 H   0  0  0  0  0
   12.4861    8.4494    3.9385 H   0  0  0  0  0
   16.1712   10.7881   -1.0623 H   0  0  0  0  0
   17.0592   12.2680    1.1566 H   0  0  0  0  0
   16.7625   14.2594    1.7011 H   0  0  0  0  0
   18.6360   12.4403   -0.4981 H   0  0  0  0  0
   17.8013   13.9575   -0.8640 H   0  0  0  0  0
   16.2311   12.5364   -2.3295 H   0  0  0  0  0
   17.4737   11.2561   -2.1792 H   0  0  0  0  0
   17.0098   12.2172   -4.4411 H   0  0  0  0  0
  1  2  1  0  0  0
  2  3  1  0  0  0
  2  5  1  0  0  0
  3  4  2  0  0  0
  3  9  1  0  0  0
  5  6  1  0  0  0
  6  7  2  0  0  0
  6  8  1  0  0  0
  9 10  1  0  0  0
 10 11  1  0  0  0
 10 13  1  0  0  0
 11 12  2  0  0  0
 11 17  1  0  0  0
 13 14  1  0  0  0
 14 15  1  0  0  0
 14 16  1  0  0  0
 17 18  1  0  0  0
 18 19  1  0  0  0
 18 21  1  0  0  0
 19 20  2  0  0  0
 19 25  1  0  0  0
 21 22  1  0  0  0
 22 23  2  0  0  0
 22 24  1  0  0  0
 25 26  1  0  0  0
 26 27  1  0  0  0
 26 29  1  0  0  0
 27 28  2  0  0  0
 27 30  1  0  0  0
 30 31  1  0  0  0
 31 32  1  0  0  0
 31 34  1  0  0  0
 32 33  2  0  0  0
 32 38  1  0  0  0
 34 35  1  0  0  0
 35 36  1  0  0  0
 35 37  1  0  0  0
 38 39  1  0  0  0
 39 40  1  0  0  0
 39 42  1  0  0  0
 40 41  2  0  0  0
 40 46  1  0  0  0
 42 43  1  0  0  0
 43 44  1  0  0  0
 43 45  1  0  0  0
 46 47  1  0  0  0
 47 48  1  0  0  0
 47 50  1  0  0  0
 48 49  2  0  0  0
 48 51  1  0  0  0
 51 52  1  0  0  0
 52 53  1  0  0  0
 52 55  1  0  0  0
 53 54  2  0  0  0
 53 59  1  0  0  0
 55 56  1  0  0  0
 56 57  1  0  0  0
 56 58  2  0  0  0
 59 60  1  0  0  0
 60 61  1  0  0  0
 60 63  1  0  0  0
 61 62  2  0  0  0
 61 67  1  0  0  0
 63 64  1  0  0  0
 64 65  1  0  0  0
 64 66  1  0  0  0
 67 68  1  0  0  0
 68 69  1  0  0  0
 68 71  1  0  0  0
 69 70  1  0  0  0
 69 76  2  0  0  0
 71 72  1  0  0  0
 72 73  1  0  0  0
 73 74  2  0  0  0
 73 75  1  0  0  0
  1 77  1  0  0  0
  1 78  1  0  0  0
  1 79  1  0  0  0
  2 80  1  0  0  0
  5 81  1  0  0  0
  5 82  1  0  0  0
  8 83  1  0  0  0
  9 84  1  0  0  0
 10 85  1  0  0  0
 13 86  1  0  0  0
 13 87  1  0  0  0
 14 88  1  0  0  0
 15 89  1  0  0  0
 15 90  1  0  0  0
 15 91  1  0  0  0
 16 92  1  0  0  0
 16 93  1  0  0  0
 16 94  1  0  0  0
 17 95  1  0  0  0
 18 96  1  0  0  0
 21 97  1  0  0  0
 21 98  1  0  0  0
 24 99  1  0  0  0
 25100  1  0  0  0
 26101  1  0  0  0
 29102  1  0  0  0
 29103  1  0  0  0
 29104  1  0  0  0
 30105  1  0  0  0
 31106  1  0  0  0
 34107  1  0  0  0
 34108  1  0  0  0
 35109  1  0  0  0
 36110  1  0  0  0
 36111  1  0  0  0
 36112  1  0  0  0
 37113  1  0  0  0
 37114  1  0  0  0
 37115  1  0  0  0
 38116  1  0  0  0
 39117  1  0  0  0
 42118  1  0  0  0
 42119  1  0  0  0
 43120  1  0  0  0
 44121  1  0  0  0
 44122  1  0  0  0
 44123  1  0  0  0
 45124  1  0  0  0
 45125  1  0  0  0
 45126  1  0  0  0
 46127  1  0  0  0
 47128  1  0  0  0
 50129  1  0  0  0
 50130  1  0  0  0
 50131  1  0  0  0
 51132  1  0  0  0
 52133  1  0  0  0
 55134  1  0  0  0
 55135  1  0  0  0
 57136  1  0  0  0
 59137  1  0  0  0
 60138  1  0  0  0
 63139  1  0  0  0
 63140  1  0  0  0
 64141  1  0  0  0
 65142  1  0  0  0
 65143  1  0  0  0
 65144  1  0  0  0
 66145  1  0  0  0
 66146  1  0  0  0
 66147  1  0  0  0
 67148  1  0  0  0
 68149  1  0  0  0
 70150  1  0  0  0
 71151  1  0  0  0
 71152  1  0  0  0
 72153  1  0  0  0
 72154  1  0  0  0
 75155  1  0  0  0
M  END
$$$$
