6afr_ligand
  -I-interpret- 

 28 30  0  0  0  0  0  0  0  0999 V2000
  -20.6500   -7.4040   77.7830 C   0  0  0  0  0
  -24.2940   -6.7400   74.7410 C   0  0  0  0  0
  -25.2270   -7.2620   76.6200 C   0  0  0  0  0
  -23.9540   -6.8450   79.5530 C   0  0  0  0  0
  -23.5900   -5.8070   80.4130 C   0  0  0  0  0
  -22.2890   -5.3180   80.3810 C   0  0  0  0  0
  -21.3110   -5.8590   79.4990 C   0  0  0  0  0
  -21.6600   -6.8840   78.6600 C   0  0  0  0  0
  -23.0030   -7.4000   78.6930 C   0  0  0  0  0
  -19.1110   -5.7890   78.7400 C   0  0  0  0  0
  -19.3670   -6.8410   77.8310 C   0  0  0  0  0
  -23.4440   -8.5240   77.7520 C   0  0  0  0  0
  -23.3920   -7.4820   75.5070 C   0  0  0  0  0
  -24.0840   -6.2230   73.4850 F   0  0  0  0  0
  -20.0570   -5.3110   79.5280 N   0  0  0  0  0
  -24.0140   -7.7870   76.6360 N   0  0  0  0  0
  -25.3970   -6.6340   75.4680 N   0  0  0  0  0
  -21.9150   -4.2750   81.2200 O   0  0  0  0  0
  -20.8755   -8.2187   77.0948 H   0  0  0  0  0
  -25.9630   -7.3343   77.4208 H   0  0  0  0  0
  -24.9770   -7.2212   79.5526 H   0  0  0  0  0
  -24.3195   -5.3838   81.1035 H   0  0  0  0  0
  -18.1093   -5.3623   78.7918 H   0  0  0  0  0
  -18.5774   -7.2095   77.1762 H   0  0  0  0  0
  -24.1476   -9.2177   78.2123 H   0  0  0  0  0
  -22.6271   -9.1832   77.4584 H   0  0  0  0  0
  -22.3743   -7.7566   75.2297 H   0  0  0  0  0
  -20.9909   -4.0618   81.0712 H   0  0  0  0  0
  8  1  4  0  0  0
  1 11  4  0  0  0
  2 13  4  0  0  0
  2 14  1  0  0  0
 17  2  4  0  0  0
 16  3  4  0  0  0
  3 17  4  0  0  0
  4  5  4  0  0  0
  9  4  4  0  0  0
  5  6  4  0  0  0
  7  6  4  0  0  0
  6 18  1  0  0  0
  8  7  4  0  0  0
  7 15  4  0  0  0
  9  8  4  0  0  0
 12  9  1  0  0  0
 11 10  4  0  0  0
 15 10  4  0  0  0
 12 16  1  0  0  0
 13 16  4  0  0  0
  1 19  1  0  0  0
  3 20  1  0  0  0
  4 21  1  0  0  0
  5 22  1  0  0  0
 10 23  1  0  0  0
 11 24  1  0  0  0
 12 25  1  0  0  0
 12 26  1  0  0  0
 13 27  1  0  0  0
 18 28  1  0  0  0
M  END
$$$$
