1oe0_ligand
  -I-interpret- 

 46 47  0  0  0  0  0  0  0  0999 V2000
   35.4330   18.7970   12.6060 P   0  0  0  0  0
   35.1570   17.7200   13.5870 O   0  0  0  0  0
   34.4440   19.8820   12.4700 O   0  0  0  0  0
   36.8360   19.4510   12.9450 O   0  0  0  0  0
   37.5780   20.6840   12.2520 P   0  0  0  0  0
   38.9530   20.6350   12.7530 O   0  0  0  0  0
   37.4070   20.5740   10.7740 O   0  0  0  0  0
   36.8410   21.9350   12.8820 O   0  0  0  0  0
   37.2590   23.4690   13.3800 P   0  0  0  0  0
   37.7950   24.1860   12.2140 O   0  0  0  0  0
   36.0730   24.0870   14.0300 O   0  0  0  0  0
   38.3970   23.2400   14.4560 O   0  0  0  0  0
   35.6030   18.2100   11.1390 O   0  0  0  0  0
   36.8320   17.4690   10.8220 C   0  0  0  0  0
   36.6230   16.5850    9.5580 C   0  0  0  0  0
   36.0330   15.3700    9.9890 O   0  0  0  0  0
   35.6490   17.1700    8.5370 C   0  0  0  0  0
   36.1330   16.9090    7.2170 O   0  0  0  0  0
   34.3000   16.4920    8.8610 C   0  0  0  0  0
   34.7830   15.1510    9.3970 C   0  0  0  0  0
   33.9190   14.5340   10.5080 N   0  0  0  0  0
   33.1000   13.4460   10.0080 C   0  0  0  0  0
   33.1160   13.0790    8.8110 O   0  0  0  0  0
   32.3070   12.7900   10.9270 N   0  0  0  0  0
   32.2580   13.1510   12.2180 C   0  0  0  0  0
   31.4400   12.4240   12.9980 O   0  0  0  0  0
   33.0670   14.2540   12.7400 C   0  0  0  0  0
   33.0130   14.6630   14.1930 C   0  0  0  0  0
   33.8480   14.8910   11.8340 C   0  0  0  0  0
   35.8760   17.0840   13.5730 H   0  0  0  0  0
   36.4729   20.6174   10.5570 H   0  0  0  0  0
   35.8008   23.5474   14.7758 H   0  0  0  0  0
   38.0328   22.7714   15.2106 H   0  0  0  0  0
   37.0868   16.8273   11.6654 H   0  0  0  0  0
   37.6351   18.1802   10.6286 H   0  0  0  0  0
   37.5989   16.4853    9.0829 H   0  0  0  0  0
   35.5385   18.2533    8.5854 H   0  0  0  0  0
   35.5214   17.2764    6.5747 H   0  0  0  0  0
   33.6252   16.4136    8.0086 H   0  0  0  0  0
   33.6768   17.0517    9.5585 H   0  0  0  0  0
   34.7688   14.4698    8.5462 H   0  0  0  0  0
   31.7383   12.0033   10.6139 H   0  0  0  0  0
   34.0074   14.5762   14.6308 H   0  0  0  0  0
   32.6714   15.6955   14.2660 H   0  0  0  0  0
   32.3214   14.0115   14.7271 H   0  0  0  0  0
   34.4524   15.7316   12.1748 H   0  0  0  0  0
  1  2  1  0  0  0
  1  3  2  0  0  0
  1  4  1  0  0  0
  1 13  1  0  0  0
  4  5  1  0  0  0
  5  6  2  0  0  0
  5  7  1  0  0  0
  5  8  1  0  0  0
  8  9  1  0  0  0
  9 10  2  0  0  0
  9 11  1  0  0  0
  9 12  1  0  0  0
 13 14  1  0  0  0
 14 15  1  0  0  0
 15 16  1  0  0  0
 15 17  1  0  0  0
 16 20  1  0  0  0
 17 18  1  0  0  0
 17 19  1  0  0  0
 19 20  1  0  0  0
 20 21  1  0  0  0
 21 22  1  0  0  0
 21 29  1  0  0  0
 22 23  2  0  0  0
 22 24  1  0  0  0
 24 25  1  0  0  0
 25 26  2  0  0  0
 25 27  1  0  0  0
 27 28  1  0  0  0
 27 29  2  0  0  0
  2 30  1  0  0  0
  7 31  1  0  0  0
 11 32  1  0  0  0
 12 33  1  0  0  0
 14 34  1  0  0  0
 14 35  1  0  0  0
 15 36  1  0  0  0
 17 37  1  0  0  0
 18 38  1  0  0  0
 19 39  1  0  0  0
 19 40  1  0  0  0
 20 41  1  0  0  0
 24 42  1  0  0  0
 28 43  1  0  0  0
 28 44  1  0  0  0
 28 45  1  0  0  0
 29 46  1  0  0  0
M  END
$$$$
