### 
### Created by X-TOOL on Mon Sep 10 21:12:50 2018
### 

@<TRIPOS>MOLECULE
1oe0_ligand
   42    43     1     0     0
SMALL
GAST_HUCK


@<TRIPOS>ATOM
      1 PA         35.4330   18.7970   12.6060 P.3       1 TTP         0.3266
      2 O1A        35.1570   17.7200   13.5870 O.co2     1 TTP        -0.5692
      3 O2A        34.4440   19.8820   12.4700 O.co2     1 TTP        -0.5692
      4 O3A        36.8360   19.4510   12.9450 O.3       1 TTP        -0.1171
      5 PB         37.5780   20.6840   12.2520 P.3       1 TTP         0.3553
      6 O1B        38.9530   20.6350   12.7530 O.co2     1 TTP        -0.5652
      7 O2B        37.4070   20.5740   10.7740 O.co2     1 TTP        -0.5652
      8 O3B        36.8410   21.9350   12.8820 O.3       1 TTP        -0.1546
      9 PG         37.2590   23.4690   13.3800 P.3       1 TTP         0.1879
     10 O1G        37.7950   24.1860   12.2140 O.co2     1 TTP        -0.6091
     11 O2G        36.0730   24.0870   14.0300 O.co2     1 TTP        -0.6091
     12 O3G        38.3970   23.2400   14.4560 O.co2     1 TTP        -0.6091
     13 O5         35.6030   18.2100   11.1390 O.3       1 TTP        -0.2441
     14 C5         36.8320   17.4690   10.8220 C.3       1 TTP         0.1130
     15 C4         36.6230   16.5850    9.5580 C.3       1 TTP         0.1163
     16 O4         36.0330   15.3700    9.9890 O.3       1 TTP        -0.3395
     17 C3         35.6490   17.1700    8.5370 C.3       1 TTP         0.0889
     18 O3         36.1330   16.9090    7.2170 O.3       1 TTP        -0.3890
     19 C2         34.3000   16.4920    8.8610 C.3       1 TTP         0.0308
     20 C1         34.7830   15.1510    9.3970 C.3       1 TTP         0.1757
     21 N1         33.9190   14.5340   10.5080 N.am      1 TTP        -0.1736
     22 C2         33.1000   13.4460   10.0080 C.2       1 TTP         0.3265
     23 O2         33.1160   13.0790    8.8110 O.2       1 TTP        -0.3843
     24 N3         32.3070   12.7900   10.9270 N.am      1 TTP        -0.1859
     25 C4         32.2580   13.1510   12.2180 C.2       1 TTP         0.1930
     26 O4         31.4400   12.4240   12.9980 O.2       1 TTP        -0.4079
     27 C5         33.0670   14.2540   12.7400 C.2       1 TTP         0.0225
     28 C5M        33.0130   14.6630   14.1930 C.3       1 TTP        -0.0437
     29 C6         33.8480   14.8910   11.8340 C.2       1 TTP         0.0524
     30 H1         37.0972   16.8258   11.6740 H         1 TTP         0.0648
     31 H2         37.6473   18.1831   10.6338 H         1 TTP         0.0648
     32 H3         37.5957   16.4032    9.0776 H         1 TTP         0.0650
     33 H4         35.5565   18.2581    8.6692 H         1 TTP         0.0622
     34 H5         36.9870   17.3110    7.1088 H         1 TTP         0.2099
     35 H6         33.6806   16.3696    7.9602 H         1 TTP         0.0344
     36 H7         33.7359   17.0531    9.6205 H         1 TTP         0.0344
     37 H8         34.8615   14.4406    8.5609 H         1 TTP         0.0959
     38 H9         31.7495   12.0187   10.6200 H         1 TTP         0.2259
     39 H10        33.6973   15.5075   14.3618 H         1 TTP         0.0296
     40 H11        33.3152   13.8144   14.8243 H         1 TTP         0.0296
     41 H12        31.9872   14.9650   14.4511 H         1 TTP         0.0296
     42 H13        34.4519   15.7308   12.1745 H         1 TTP         0.1011
@<TRIPOS>BOND
     1    1    2 ar 
     2    1    3 ar 
     3    1    4 1  
     4    1   13 1  
     5    4    5 1  
     6    5    6 ar 
     7    5    7 ar 
     8    5    8 1  
     9    8    9 1  
    10    9   10 ar 
    11    9   11 ar 
    12    9   12 ar 
    13   13   14 1  
    14   14   15 1  
    15   15   16 1  
    16   15   17 1  
    17   16   20 1  
    18   17   18 1  
    19   17   19 1  
    20   19   20 1  
    21   20   21 1  
    22   21   22 am 
    23   21   29 1  
    24   22   23 2  
    25   22   24 am 
    26   24   25 am 
    27   25   26 2  
    28   25   27 1  
    29   27   28 1  
    30   27   29 2  
    31   14   30 1  
    32   14   31 1  
    33   15   32 1  
    34   17   33 1  
    35   18   34 1  
    36   19   35 1  
    37   19   36 1  
    38   20   37 1  
    39   24   38 1  
    40   28   39 1  
    41   28   40 1  
    42   28   41 1  
    43   29   42 1  
@<TRIPOS>SUBSTRUCTURE
     1 TTP         1

