4dhl_ligand
  -I-interpret- 

 24 25  0  0  0  0  0  0  0  0999 V2000
  -70.1390   33.3710  -45.7470 C   0  0  0  0  0
  -70.3560   33.4110  -47.1200 C   0  0  0  0  0
  -71.4880   34.0300  -47.6350 C   0  0  0  0  0
  -71.7080   34.0720  -49.1120 C   0  0  0  0  0
  -72.4140   34.6060  -46.7700 C   0  0  0  0  0
  -72.2020   34.5610  -45.3950 C   0  0  0  0  0
  -71.0630   33.9440  -44.8780 C   0  0  0  0  0
  -70.8420   33.8910  -43.3970 C   0  0  0  0  0
  -70.2050   32.9090  -42.7110 N   0  0  0  0  0
  -71.3740   35.0350  -42.2650 S   0  0  0  0  0
  -70.7660   34.2740  -40.8750 C   0  0  0  0  0
  -70.1530   33.1020  -41.3500 C   0  0  0  0  0
  -69.4860   32.1530  -40.4240 C   0  0  0  0  0
  -69.9130   32.0250  -39.2660 O   0  0  0  0  0
  -68.4800   31.5020  -40.7720 O   0  0  0  0  0
  -69.2444   32.8904  -45.3509 H   0  0  0  0  0
  -69.6335   32.9539  -47.7962 H   0  0  0  0  0
  -70.8796   34.5979  -49.5866 H   0  0  0  0  0
  -71.7635   33.0545  -49.4989 H   0  0  0  0  0
  -72.6409   34.5942  -49.3244 H   0  0  0  0  0
  -73.3044   35.0919  -47.1690 H   0  0  0  0  0
  -72.9297   35.0101  -44.7191 H   0  0  0  0  0
  -70.8356   34.6180  -39.8430 H   0  0  0  0  0
  -68.2705   31.7036  -41.6869 H   0  0  0  0  0
  1  2  4  0  0  0
  1  7  4  0  0  0
  2  3  4  0  0  0
  3  4  1  0  0  0
  3  5  4  0  0  0
  5  6  4  0  0  0
  6  7  4  0  0  0
  7  8  1  0  0  0
  8  9  4  0  0  0
  8 10  4  0  0  0
  9 12  4  0  0  0
 10 11  4  0  0  0
 11 12  4  0  0  0
 12 13  1  0  0  0
 13 14  2  0  0  0
 13 15  1  0  0  0
  1 16  1  0  0  0
  2 17  1  0  0  0
  4 18  1  0  0  0
  4 19  1  0  0  0
  4 20  1  0  0  0
  5 21  1  0  0  0
  6 22  1  0  0  0
 11 23  1  0  0  0
 15 24  1  0  0  0
M  END
$$$$
