4o7a_ligand
  -I-interpret- 

 33 35  0  0  0  0  0  0  0  0999 V2000
  122.3290   -7.6310   -3.6990 C   0  0  0  0  0
  121.7720   -7.8810   -2.4530 C   0  0  0  0  0
  120.8260   -7.0080   -1.9460 C   0  0  0  0  0
  120.4110   -5.9160   -2.6760 C   0  0  0  0  0
  120.9600   -5.6680   -3.9160 C   0  0  0  0  0
  121.9230   -6.5220   -4.4320 C   0  0  0  0  0
  120.4390   -4.2810   -4.8180 Cl  0  0  0  0  0
  120.1510   -7.2250   -0.6280 C   0  0  0  0  0
  120.3710   -6.6400    0.6850 C   0  0  0  0  0
  119.3510   -7.2000    1.6030 C   0  0  0  0  0
  119.2600   -6.9190    2.7770 O   0  0  0  0  0
  118.5150   -8.1230    0.8530 N   0  0  0  0  0
  118.9740   -8.1440   -0.5200 C   0  0  0  0  0
  118.5090   -8.8350   -1.4030 O   0  0  0  0  0
  121.2680   -5.7020    1.2410 N   0  0  0  0  0
  122.5780   -5.3960    0.8310 C   0  0  0  0  0
  123.3420   -6.1880    0.0000 C   0  0  0  0  0
  124.6310   -5.7720   -0.2950 C   0  0  0  0  0
  125.1240   -4.5960    0.2120 C   0  0  0  0  0
  124.3560   -3.8140    1.0580 C   0  0  0  0  0
  123.0860   -4.2220    1.3550 C   0  0  0  0  0
  126.4310   -4.1930   -0.0810 O   0  0  0  0  0
  125.6370   -6.7030   -1.3540 Cl  0  0  0  0  0
  123.0850   -8.3043   -4.1030 H   0  0  0  0  0
  122.0767   -8.7564   -1.8794 H   0  0  0  0  0
  119.6491   -5.2485   -2.2735 H   0  0  0  0  0
  122.3607   -6.3240   -5.4104 H   0  0  0  0  0
  117.7369   -8.6641    1.2301 H   0  0  0  0  0
  120.9208   -5.1783    2.0444 H   0  0  0  0  0
  122.9437   -7.1147   -0.4131 H   0  0  0  0  0
  124.7563   -2.8915    1.4786 H   0  0  0  0  0
  122.4657   -3.6140    2.0135 H   0  0  0  0  0
  126.6106   -3.3547    0.3509 H   0  0  0  0  0
  1  2  4  0  0  0
  1  6  4  0  0  0
  2  3  4  0  0  0
  3  4  4  0  0  0
  3  8  1  0  0  0
  4  5  4  0  0  0
  5  6  4  0  0  0
  5  7  1  0  0  0
  8  9  2  0  0  0
  8 13  1  0  0  0
  9 10  1  0  0  0
  9 15  1  0  0  0
 10 11  2  0  0  0
 10 12  1  0  0  0
 12 13  1  0  0  0
 13 14  2  0  0  0
 15 16  1  0  0  0
 16 17  4  0  0  0
 16 21  4  0  0  0
 17 18  4  0  0  0
 18 19  4  0  0  0
 18 23  1  0  0  0
 19 20  4  0  0  0
 19 22  1  0  0  0
 20 21  4  0  0  0
  1 24  1  0  0  0
  2 25  1  0  0  0
  4 26  1  0  0  0
  6 27  1  0  0  0
 12 28  1  0  0  0
 15 29  1  0  0  0
 17 30  1  0  0  0
 20 31  1  0  0  0
 21 32  1  0  0  0
 22 33  1  0  0  0
M  END
$$$$
