5tqf_ligand
  -I-interpret- 

 72 77  0  0  0  0  0  0  0  0999 V2000
    3.6050   38.5160   21.7800 C   0  0  0  0  0
    8.2260   39.3270   19.7090 C   0  0  0  0  0
    5.7770   39.9730   20.8570 C   0  0  0  0  0
    9.6230   39.2280   20.1520 C   0  0  0  0  0
    9.3210   39.4930   18.7430 C   0  0  0  0  0
    6.1330   39.9230   25.6370 C   0  0  0  0  0
    2.5710   35.2790   24.1400 C   0  0  0  0  0
    4.7530   39.6200   19.9860 C   0  0  0  0  0
    3.6750   38.8890   20.4450 C   0  0  0  0  0
    8.2800   35.5640   27.9260 C   0  0  0  0  0
    1.4490   36.2940   23.8510 C   0  0  0  0  0
    8.7650   34.7650   28.9860 C   0  0  0  0  0
    7.0420   37.0540   25.7220 C   0  0  0  0  0
    5.6070   36.6390   26.0170 C   0  0  0  0  0
    4.7940   36.1240   25.0060 C   0  0  0  0  0
    3.4650   35.7770   25.2530 C   0  0  0  0  0
    2.9640   35.9370   26.5400 C   0  0  0  0  0
    3.7610   36.4500   27.5510 C   0  0  0  0  0
    5.0730   36.8040   27.2890 C   0  0  0  0  0
    6.7950   40.0060   23.2230 C   0  0  0  0  0
    6.7320   39.2500   24.4870 N   0  0  0  0  0
    5.7300   39.6200   22.2200 C   0  0  0  0  0
    4.6200   38.8930   22.6530 C   0  0  0  0  0
    2.5600   37.6830   22.2410 N   0  0  0  0  0
    7.1860   40.7350   20.1020 S   0  0  0  0  0
    7.8770   41.5580   21.0580 O   0  0  0  0  0
    6.7660   41.3330   18.8630 O   0  0  0  0  0
    2.0490   37.6250   23.4900 C   0  0  0  0  0
    2.1670   38.5250   24.3200 O   0  0  0  0  0
    7.9390   35.9250   25.5550 N   0  0  0  0  0
    8.4330   35.1640   26.6140 C   0  0  0  0  0
    9.0760   33.9600   26.3270 C   0  0  0  0  0
    9.5290   33.1480   27.3240 C   0  0  0  0  0
    9.3970   33.5220   28.6910 C   0  0  0  0  0
    9.8940   32.7510   29.8120 C   0  0  0  0  0
    9.7860   33.2200   31.1100 N   0  0  0  0  0
    9.1790   34.4000   31.3240 C   0  0  0  0  0
    8.6530   35.1750   30.3400 C   0  0  0  0  0
   10.4370   31.5280   29.6490 N   0  0  0  0  0
    7.1530   37.9660   24.4930 C   0  0  0  0  0
    7.6530   37.4680   23.4960 O   0  0  0  0  0
    7.3556   38.6796   19.8156 H   0  0  0  0  0
   10.2472   38.5559   20.7409 H   0  0  0  0  0
   10.2601   39.6295   20.9400 H   0  0  0  0  0
    9.6212   40.1895   17.9601 H   0  0  0  0  0
    9.6083   39.1168   17.7612 H   0  0  0  0  0
    6.7003   40.8256   25.8642 H   0  0  0  0  0
    5.1020   40.1893   25.4041 H   0  0  0  0  0
    6.1513   39.2545   26.4977 H   0  0  0  0  0
    3.1693   35.1475   23.2384 H   0  0  0  0  0
    2.1222   34.3333   24.4437 H   0  0  0  0  0
    4.8009   39.9205   18.9393 H   0  0  0  0  0
    2.8781   38.6046   19.7579 H   0  0  0  0  0
    7.7795   36.5067   28.1471 H   0  0  0  0  0
    0.8271   36.4073   24.7390 H   0  0  0  0  0
    0.8420   35.9343   23.0201 H   0  0  0  0  0
    7.3506   37.6121   26.6060 H   0  0  0  0  0
    5.2047   35.9904   24.0052 H   0  0  0  0  0
    1.9333   35.6559   26.7561 H   0  0  0  0  0
    3.3538   36.5749   28.5543 H   0  0  0  0  0
    5.6919   37.2153   28.0864 H   0  0  0  0  0
    7.7613   39.7918   22.7665 H   0  0  0  0  0
    6.6425   41.0572   23.4675 H   0  0  0  0  0
    4.5466   38.6131   23.7039 H   0  0  0  0  0
    2.1450   37.0549   21.5528 H   0  0  0  0  0
    8.2244   35.6738   24.6085 H   0  0  0  0  0
    9.2187   33.6633   25.2879 H   0  0  0  0  0
    9.9994   32.1980   27.0705 H   0  0  0  0  0
    9.1041   34.7574   32.3510 H   0  0  0  0  0
    8.1471   36.1077   30.5894 H   0  0  0  0  0
   10.5066   31.1211   28.7163 H   0  0  0  0  0
   10.7782   31.0095   30.4584 H   0  0  0  0  0
  1  9  4  0  0  0
 23  1  4  0  0  0
  1 24  1  0  0  0
  2  4  1  0  0  0
  2  5  1  0  0  0
 25  2  1  0  0  0
  3  8  4  0  0  0
 22  3  4  0  0  0
  3 25  1  0  0  0
  5  4  1  0  0  0
 21  6  1  0  0  0
  7 11  1  0  0  0
 16  7  1  0  0  0
  8  9  4  0  0  0
 10 12  4  0  0  0
 31 10  4  0  0  0
 11 28  1  0  0  0
 12 34  4  0  0  0
 12 38  4  0  0  0
 13 14  1  0  0  0
 30 13  1  0  0  0
 13 40  1  0  0  0
 14 15  4  0  0  0
 14 19  4  0  0  0
 15 16  4  0  0  0
 16 17  4  0  0  0
 18 17  4  0  0  0
 19 18  4  0  0  0
 21 20  1  0  0  0
 20 22  1  0  0  0
 40 21  1  0  0  0
 22 23  4  0  0  0
 28 24  1  0  0  0
 25 26  2  0  0  0
 25 27  2  0  0  0
 28 29  2  0  0  0
 30 31  1  0  0  0
 31 32  4  0  0  0
 32 33  4  0  0  0
 33 34  4  0  0  0
 34 35  4  0  0  0
 35 36  4  0  0  0
 35 39  1  0  0  0
 36 37  4  0  0  0
 37 38  4  0  0  0
 40 41  2  0  0  0
  2 42  1  0  0  0
  4 43  1  0  0  0
  4 44  1  0  0  0
  5 45  1  0  0  0
  5 46  1  0  0  0
  6 47  1  0  0  0
  6 48  1  0  0  0
  6 49  1  0  0  0
  7 50  1  0  0  0
  7 51  1  0  0  0
  8 52  1  0  0  0
  9 53  1  0  0  0
 10 54  1  0  0  0
 11 55  1  0  0  0
 11 56  1  0  0  0
 13 57  1  0  0  0
 15 58  1  0  0  0
 17 59  1  0  0  0
 18 60  1  0  0  0
 19 61  1  0  0  0
 20 62  1  0  0  0
 20 63  1  0  0  0
 23 64  1  0  0  0
 24 65  1  0  0  0
 30 66  1  0  0  0
 32 67  1  0  0  0
 33 68  1  0  0  0
 37 69  1  0  0  0
 38 70  1  0  0  0
 39 71  1  0  0  0
 39 72  1  0  0  0
M  END
$$$$
