4r3w_ligand
  -I-interpret- 

 42 44  0  0  0  0  0  0  0  0999 V2000
  -16.0800   -5.3520    5.4070 P   0  0  0  0  0
  -17.3360   -5.3180    6.2170 O   0  0  0  0  0
  -16.1300   -4.7810    4.0310 O   0  0  0  0  0
  -15.3940   -6.6730    5.4600 O   0  0  0  0  0
   -9.2750   -5.4380    3.3880 P   0  0  0  0  0
   -8.1920   -6.3220    3.9390 O   0  0  0  0  0
  -10.4070   -6.1680    2.7210 O   0  0  0  0  0
   -8.8360   -4.2770    2.5570 O   0  0  0  0  0
   -9.9870   -4.8090    4.6660 O   0  0  0  0  0
  -10.9190   -3.7420    4.5390 C   0  0  0  0  0
  -11.5840   -3.5230    5.8920 C   0  0  0  0  0
  -12.2230   -2.2560    5.9010 O   0  0  0  0  0
  -12.6820   -4.5400    6.1400 C   0  0  0  0  0
  -12.7720   -4.8530    7.5280 O   0  0  0  0  0
  -13.9220   -3.8140    5.6950 C   0  0  0  0  0
  -15.1270   -4.3580    6.2370 O   0  0  0  0  0
  -13.5930   -2.4240    6.2000 C   0  0  0  0  0
  -14.4560   -1.3990    5.5740 N   0  0  0  0  0
  -14.5900   -1.1200    4.2660 C   0  0  0  0  0
  -15.4800   -0.1200    4.0870 N   0  0  0  0  0
  -15.9400    0.2410    5.2970 C   0  0  0  0  0
  -16.9070    1.2210    5.8140 C   0  0  0  0  0
  -17.5840    2.0470    4.9740 N   0  0  0  0  0
  -17.0710    1.2760    7.1370 N   0  0  0  0  0
  -16.3980    0.4750    7.9820 C   0  0  0  0  0
  -15.5200   -0.4510    7.5840 N   0  0  0  0  0
  -15.2530   -0.6000    6.2740 C   0  0  0  0  0
  -17.7362   -4.4481    6.1484 H   0  0  0  0  0
  -16.5804   -3.9335    4.0536 H   0  0  0  0  0
   -8.5884   -7.0294    4.4528 H   0  0  0  0  0
  -10.6750   -6.9094    3.2688 H   0  0  0  0  0
  -11.6704   -3.9896    3.7892 H   0  0  0  0  0
  -10.4060   -2.8335    4.2235 H   0  0  0  0  0
  -10.8054   -3.6061    6.6503 H   0  0  0  0  0
  -12.5165   -5.4837    5.6202 H   0  0  0  0  0
  -13.4708   -5.4968    7.6650 H   0  0  0  0  0
  -14.1319   -3.8713    4.6269 H   0  0  0  0  0
  -13.7797   -2.3077    7.2676 H   0  0  0  0  0
  -14.0560   -1.6287    3.4634 H   0  0  0  0  0
  -17.4250    1.9931    3.9679 H   0  0  0  0  0
  -18.2512    2.7210    5.3495 H   0  0  0  0  0
  -16.5786    0.5871    9.0511 H   0  0  0  0  0
  1  2  1  0  0  0
  1  3  1  0  0  0
  1  4  2  0  0  0
 16  1  1  0  0  0
  5  6  1  0  0  0
  5  7  1  0  0  0
  5  8  2  0  0  0
  9  5  1  0  0  0
 10  9  1  0  0  0
 11 10  1  0  0  0
 11 12  1  0  0  0
 13 11  1  0  0  0
 12 17  1  0  0  0
 13 14  1  0  0  0
 15 13  1  0  0  0
 15 16  1  0  0  0
 15 17  1  0  0  0
 17 18  1  0  0  0
 18 19  4  0  0  0
 18 27  4  0  0  0
 19 20  4  0  0  0
 20 21  4  0  0  0
 21 22  4  0  0  0
 21 27  4  0  0  0
 22 23  1  0  0  0
 22 24  4  0  0  0
 24 25  4  0  0  0
 25 26  4  0  0  0
 26 27  4  0  0  0
  2 28  1  0  0  0
  3 29  1  0  0  0
  6 30  1  0  0  0
  7 31  1  0  0  0
 10 32  1  0  0  0
 10 33  1  0  0  0
 11 34  1  0  0  0
 13 35  1  0  0  0
 14 36  1  0  0  0
 15 37  1  0  0  0
 17 38  1  0  0  0
 19 39  1  0  0  0
 23 40  1  0  0  0
 23 41  1  0  0  0
 25 42  1  0  0  0
M  END
$$$$
