5i24_ligand
  -I-interpret- 

 28 28  0  0  0  0  0  0  0  0999 V2000
   15.7910  155.2160  140.0060 C   0  0  0  0  0
   14.8750  156.4620  139.9330 C   0  0  0  0  0
   14.9070  157.1490  138.5510 C   0  0  0  0  0
   15.9170  156.5800  137.5750 C   0  0  0  0  0
   16.0790  155.0390  137.5820 C   0  0  0  0  0
   15.5300  154.3420  138.8090 C   0  0  0  0  0
   15.1460  157.4540  141.0550 C   0  0  0  0  0
   16.5090  157.8990  141.0450 O   0  0  0  0  0
   15.4940  154.5290  141.2220 O   0  0  0  0  0
   16.1740  153.0430  138.9050 O   0  0  0  0  0
   15.5620  154.4910  136.3700 O   0  0  0  0  0
   13.5610  157.0690  137.8930 N   0  3  0  0  0
   16.8448  155.4944  139.9962 H   0  0  0  0  0
   13.8613  156.0875  140.0752 H   0  0  0  0  0
   15.2021  158.1750  138.7710 H   0  0  0  0  0
   16.8848  156.9898  137.8639 H   0  0  0  0  0
   15.5617  156.8449  136.5792 H   0  0  0  0  0
   17.1501  154.8450  137.6381 H   0  0  0  0  0
   14.4535  154.1803  138.7528 H   0  0  0  0  0
   14.9509  156.9603  142.0070 H   0  0  0  0  0
   14.4990  158.3198  140.9141 H   0  0  0  0  0
   16.6464  158.5216  141.7627 H   0  0  0  0  0
   15.6692  155.1088  141.9668 H   0  0  0  0  0
   15.8424  152.5790  139.6773 H   0  0  0  0  0
   15.9362  154.9621  135.6219 H   0  0  0  0  0
   12.8528  157.4449  138.5235 H   0  0  0  0  0
   13.5729  157.6128  137.0301 H   0  0  0  0  0
   13.3455  156.0951  137.6796 H   0  0  0  0  0
  1  2  1  0  0  0
  1  6  1  0  0  0
  1  9  1  0  0  0
  2  3  1  0  0  0
  2  7  1  0  0  0
  3  4  1  0  0  0
  3 12  1  0  0  0
  4  5  1  0  0  0
  5  6  1  0  0  0
  5 11  1  0  0  0
  6 10  1  0  0  0
  7  8  1  0  0  0
  1 13  1  0  0  0
  2 14  1  0  0  0
  3 15  1  0  0  0
  4 16  1  0  0  0
  4 17  1  0  0  0
  5 18  1  0  0  0
  6 19  1  0  0  0
  7 20  1  0  0  0
  7 21  1  0  0  0
  8 22  1  0  0  0
  9 23  1  0  0  0
 10 24  1  0  0  0
 11 25  1  0  0  0
 12 26  1  0  0  0
 12 27  1  0  0  0
 12 28  1  0  0  0
M  END
$$$$
