### 
### Created by X-TOOL on Mon Sep 10 21:13:05 2018
### 

@<TRIPOS>MOLECULE
3skk_ligand
   31    30     1     0     0
SMALL
GAST_HUCK


@<TRIPOS>ATOM
      1 B1         24.3160  -16.2090   -5.4080 B         1 4U7         3.0000
      2 C1         25.3160  -10.2220   -5.3570 C.3       1 4U7         0.0934
      3 F1         26.4950   -8.4390   -6.3400 F         1 4U7        -0.2035
      4 N1         25.6390   -9.6780   -4.0730 N.4       1 4U7         0.2270
      5 O1         23.6070   -9.6880   -6.9480 O.co2     1 4U7        -0.5421
      6 C2         23.9910   -9.6760   -5.7470 C.2       1 4U7         0.1016
      7 F2         27.4950  -10.3830   -6.1430 F         1 4U7        -0.2035
      8 O2         25.0700  -16.2500   -4.2550 O.3       1 4U7        -0.8710
      9 C3         25.2880  -11.7140   -5.2940 C.3       1 4U7         0.0014
     10 O3         23.1270  -16.8710   -5.1610 O.3       1 4U7        -0.8710
     11 C4         25.1780  -12.5310   -6.5410 C.3       1 4U7        -0.0752
     12 O4         24.9490  -16.9380   -6.3970 O.3       1 4U7        -0.8710
     13 C5         25.2670  -14.0190   -6.3840 C.3       1 4U7        -0.1826
     14 O5         23.2720   -9.1770   -4.8480 O.co2     1 4U7        -0.5421
     15 C6         24.1050  -14.7900   -5.8170 C.3       1 4U7        -0.3457
     16 C9         26.3400   -9.7630   -6.3330 C.3       1 4U7         0.2886
     17 H          25.6546   -8.6597   -4.1306 H         1 4U7         0.2001
     18 H          24.9359   -9.9706   -3.3945 H         1 4U7         0.2001
     19 H          26.5559  -10.0174   -3.7822 H         1 4U7         0.2001
     20 H          24.5898  -15.8185   -3.5445 H         1 4U7        -0.1290
     21 H          24.3729  -11.9399   -4.7466 H         1 4U7         0.0317
     22 H          26.2629  -11.9812   -4.8862 H         1 4U7         0.0317
     23 H          22.6622  -16.4346   -4.4433 H         1 4U7        -0.1290
     24 H          26.0264  -12.2443   -7.1624 H         1 4U7         0.0242
     25 H          24.1847  -12.3313   -6.9430 H         1 4U7         0.0242
     26 H          25.0462  -17.8487   -6.1092 H         1 4U7        -0.1290
     27 H          26.0699  -14.1682   -5.6620 H         1 4U7        -0.0084
     28 H          25.3702  -14.3936   -7.4024 H         1 4U7        -0.0084
     29 H          23.8896  -14.4319   -4.8103 H         1 4U7        -0.2101
     30 H          23.2302  -14.6445   -6.4507 H         1 4U7        -0.2101
     31 H          25.9672  -10.0323   -7.3212 H         1 4U7         0.1073
@<TRIPOS>BOND
     1    1    8 1  
     2    1   10 1  
     3    1   12 1  
     4    2    4 1  
     5    2    6 1  
     6    9    2 1  
     7    2   16 1  
     8   16    3 1  
     9    6    5 ar 
    10    6   14 ar 
    11   16    7 1  
    12   11    9 1  
    13   13   11 1  
    14   15   13 1  
    15    4   17 1  
    16    4   18 1  
    17    4   19 1  
    18    8   20 1  
    19    9   21 1  
    20    9   22 1  
    21   10   23 1  
    22   11   24 1  
    23   11   25 1  
    24   12   26 1  
    25   13   27 1  
    26   13   28 1  
    27   15   29 1  
    28   15   30 1  
    29   15    1 du 
    30   16   31 1  
@<TRIPOS>SUBSTRUCTURE
     1 4U7         1

