3skk_ligand
  -I-interpret- 

 32 31  0  0  0  0  0  0  0  0999 V2000
   24.3160  -16.2090   -5.4080 B   0  0  0  0  0
   25.3160  -10.2220   -5.3570 C   0  0  0  0  0
   26.4950   -8.4390   -6.3400 F   0  0  0  0  0
   25.6390   -9.6780   -4.0730 N   0  3  0  0  0
   23.6070   -9.6880   -6.9480 O   0  0  0  0  0
   23.9910   -9.6760   -5.7470 C   0  0  0  0  0
   27.4950  -10.3830   -6.1430 F   0  0  0  0  0
   25.0700  -16.2500   -4.2550 O   0  0  0  0  0
   25.2880  -11.7140   -5.2940 C   0  0  0  0  0
   23.1270  -16.8710   -5.1610 O   0  0  0  0  0
   25.1780  -12.5310   -6.5410 C   0  0  0  0  0
   24.9490  -16.9380   -6.3970 O   0  0  0  0  0
   25.2670  -14.0190   -6.3840 C   0  0  0  0  0
   23.2720   -9.1770   -4.8480 O   0  0  0  0  0
   24.1050  -14.7900   -5.8170 C   0  0  0  0  0
   26.3400   -9.7630   -6.3330 C   0  0  0  0  0
   25.6546   -8.6597   -4.1306 H   0  0  0  0  0
   24.9359   -9.9706   -3.3945 H   0  0  0  0  0
   26.5559  -10.0174   -3.7822 H   0  0  0  0  0
   24.2781  -10.1051   -7.4932 H   0  0  0  0  0
   25.9027  -15.7955   -4.4022 H   0  0  0  0  0
   24.3729  -11.9399   -4.7466 H   0  0  0  0  0
   26.2629  -11.9812   -4.8862 H   0  0  0  0  0
   22.6397  -16.4067   -4.4765 H   0  0  0  0  0
   26.0264  -12.2443   -7.1624 H   0  0  0  0  0
   24.1847  -12.3313   -6.9430 H   0  0  0  0  0
   25.7874  -16.5228   -6.6121 H   0  0  0  0  0
   26.0699  -14.1682   -5.6620 H   0  0  0  0  0
   25.3702  -14.3936   -7.4024 H   0  0  0  0  0
   23.3741  -14.8342   -6.6244 H   0  0  0  0  0
   23.8404  -14.2672   -4.8979 H   0  0  0  0  0
   25.9672  -10.0323   -7.3212 H   0  0  0  0  0
  1  8  1  0  0  0
  1 10  1  0  0  0
  1 12  1  0  0  0
  2  4  1  0  0  0
  2  6  1  0  0  0
  9  2  1  0  0  0
  2 16  1  0  0  0
 16  3  1  0  0  0
  6  5  1  0  0  0
  6 14  2  0  0  0
 16  7  1  0  0  0
 11  9  1  0  0  0
 13 11  1  0  0  0
 15 13  1  0  0  0
 15  1  1  0  0  0
  4 17  1  0  0  0
  4 18  1  0  0  0
  4 19  1  0  0  0
  5 20  1  0  0  0
  8 21  1  0  0  0
  9 22  1  0  0  0
  9 23  1  0  0  0
 10 24  1  0  0  0
 11 25  1  0  0  0
 11 26  1  0  0  0
 12 27  1  0  0  0
 13 28  1  0  0  0
 13 29  1  0  0  0
 15 30  1  0  0  0
 15 31  1  0  0  0
 16 32  1  0  0  0
M  END
$$$$
