6poh_ligand
  -I-interpret- 

 34 35  0  0  0  0  0  0  0  0999 V2000
   18.8830  -12.4920    4.3630 C   0  0  0  0  0
   21.1020  -10.5430    3.5210 C   0  0  0  0  0
   22.9950   -2.5010    0.7210 C   0  0  0  0  0
   21.4710   -2.2830    0.8550 C   0  0  0  0  0
   20.7010   -3.5820    1.2170 C   0  0  0  0  0
   20.4150   -4.5090   -0.0160 C   0  0  0  0  0
   20.8910   -6.8550    0.6300 C   0  0  0  0  0
   19.6120   -7.4150    0.4020 C   0  0  0  0  0
   19.1910   -8.5930    1.0810 C   0  0  0  0  0
   19.9910   -9.2780    2.0010 C   0  0  0  0  0
   19.8710  -10.4940    2.8650 C   0  0  0  0  0
   18.7890  -11.4980    3.0860 C   0  0  0  0  0
   21.2680   -8.7020    2.2140 C   0  0  0  0  0
   21.7280   -7.5200    1.5560 C   0  0  0  0  0
   21.2980   -5.6800   -0.0530 O   0  0  0  0  0
   19.8290  -13.3290    4.3670 O   0  0  0  0  0
   18.0390  -12.4220    5.3070 O   0  0  0  0  0
   21.9250   -9.4790    3.1330 O   0  0  0  0  0
   21.3857  -11.3100    4.2417 H   0  0  0  0  0
   23.3926   -2.8693    1.6667 H   0  0  0  0  0
   23.1886   -3.2310   -0.0650 H   0  0  0  0  0
   23.4750   -1.5559    0.4671 H   0  0  0  0  0
   21.0996   -1.9348   -0.1088 H   0  0  0  0  0
   21.3079   -1.5656    1.6592 H   0  0  0  0  0
   19.7379   -3.2853    1.6324 H   0  0  0  0  0
   21.3223   -4.1465    1.9123 H   0  0  0  0  0
   20.5879   -3.9278   -0.9218 H   0  0  0  0  0
   19.3873   -4.8642    0.0606 H   0  0  0  0  0
   18.9366   -6.9356   -0.3066 H   0  0  0  0  0
   18.1939   -8.9811    0.8732 H   0  0  0  0  0
   17.8897  -10.9065    3.2578 H   0  0  0  0  0
   18.8349  -12.1543    2.2169 H   0  0  0  0  0
   22.7239   -7.1309    1.7677 H   0  0  0  0  0
   17.4048  -11.7269    5.1168 H   0  0  0  0  0
 12  1  1  0  0  0
  1 16  2  0  0  0
  1 17  1  0  0  0
 11  2  4  0  0  0
  2 18  4  0  0  0
  4  3  1  0  0  0
  5  4  1  0  0  0
  6  5  1  0  0  0
 15  6  1  0  0  0
  8  7  4  0  0  0
  7 14  4  0  0  0
  7 15  1  0  0  0
  9  8  4  0  0  0
 10  9  4  0  0  0
 11 10  4  0  0  0
 10 13  4  0  0  0
 11 12  1  0  0  0
 13 14  4  0  0  0
 13 18  4  0  0  0
  2 19  1  0  0  0
  3 20  1  0  0  0
  3 21  1  0  0  0
  3 22  1  0  0  0
  4 23  1  0  0  0
  4 24  1  0  0  0
  5 25  1  0  0  0
  5 26  1  0  0  0
  6 27  1  0  0  0
  6 28  1  0  0  0
  8 29  1  0  0  0
  9 30  1  0  0  0
 12 31  1  0  0  0
 12 32  1  0  0  0
 14 33  1  0  0  0
 17 34  1  0  0  0
M  END
$$$$
