4wsk_ligand
  -I-interpret- 

 28 28  0  0  0  0  0  0  0  0999 V2000
   26.8130    4.7710   55.5200 C   0  0  0  0  0
   28.2240    5.1100   56.0120 C   0  0  0  0  0
   29.3020    4.5050   55.0460 C   0  0  0  0  0
   28.9150    4.8170   53.6360 O   0  0  0  0  0
   30.6860    5.1120   55.3600 C   0  0  0  0  0
   31.7400    4.3290   54.7730 O   0  0  0  0  0
   30.7340    6.5930   54.8830 C   0  0  0  0  0
   31.8650    7.2940   55.4820 O   0  0  0  0  0
   29.3070    7.3390   55.0010 C   0  0  0  0  0
   28.4250    6.6290   56.1810 C   0  0  0  0  0
   28.9460    6.8990   57.5820 N   0  0  0  0  0
   28.7260    8.0570   58.2890 C   0  0  0  0  0
   28.0910    9.0440   57.8720 O   0  0  0  0  0
   26.0810    5.1344   56.2413 H   0  0  0  0  0
   26.6418    5.2479   54.5549 H   0  0  0  0  0
   26.7160    3.6904   55.4151 H   0  0  0  0  0
   28.3470    4.6594   56.9968 H   0  0  0  0  0
   29.3560    3.4248   55.1816 H   0  0  0  0  0
   28.0538    4.4359   53.4499 H   0  0  0  0  0
   30.8422    5.0959   56.4386 H   0  0  0  0  0
   31.6791    3.4245   55.0889 H   0  0  0  0  0
   30.9237    6.6052   53.8097 H   0  0  0  0  0
   32.6628    6.7740   55.3609 H   0  0  0  0  0
   28.7757    7.2645   54.0521 H   0  0  0  0  0
   29.4627    8.3903   55.2430 H   0  0  0  0  0
   27.4545    7.1110   56.0633 H   0  0  0  0  0
   29.4989    6.1685   58.0304 H   0  0  0  0  0
   29.1405    8.1163   59.2954 H   0  0  0  0  0
  1  2  1  0  0  0
  2  3  1  0  0  0
  2 10  1  0  0  0
  3  4  1  0  0  0
  3  5  1  0  0  0
  5  6  1  0  0  0
  5  7  1  0  0  0
  7  8  1  0  0  0
  7  9  1  0  0  0
  9 10  1  0  0  0
 10 11  1  0  0  0
 11 12  1  0  0  0
 12 13  2  0  0  0
  1 14  1  0  0  0
  1 15  1  0  0  0
  1 16  1  0  0  0
  2 17  1  0  0  0
  3 18  1  0  0  0
  4 19  1  0  0  0
  5 20  1  0  0  0
  6 21  1  0  0  0
  7 22  1  0  0  0
  8 23  1  0  0  0
  9 24  1  0  0  0
  9 25  1  0  0  0
 10 26  1  0  0  0
 11 27  1  0  0  0
 12 28  1  0  0  0
M  END
$$$$
