5mlo_ligand
  -I-interpret- 

181183  0  0  0  0  0  0  0  0999 V2000
   81.4130   26.7980   30.4320 N   0  3  0  0  0
   82.4780   25.9420   29.8360 C   0  0  0  0  0
   82.2670   24.4690   30.1840 C   0  0  0  0  0
   82.0420   24.1140   31.3470 O   0  0  0  0  0
   83.8680   26.3900   30.3060 C   0  0  0  0  0
   84.5120   27.4800   29.4570 C   0  0  0  0  0
   84.9670   26.9700   28.0930 C   0  0  0  0  0
   86.2590   26.1660   28.1700 C   0  0  0  0  0
   87.4600   27.0310   28.3390 N   0  3  0  0  0
   82.3580   23.6220   29.1620 N   0  0  0  0  0
   82.2660   22.1780   29.3260 C   0  0  0  0  0
   83.6100   21.6500   29.8220 C   0  0  0  0  0
   84.6350   21.8590   29.1800 O   0  0  0  0  0
   81.8740   21.5180   27.9890 C   0  0  0  0  0
   81.9400   19.9950   27.9710 C   0  0  0  0  0
   80.9050   19.3430   28.8740 C   0  0  0  0  0
   79.7030   19.4740   28.6460 O   0  0  0  0  0
   81.3700   18.6210   29.8920 N   0  0  0  0  0
   83.6010   20.9800   30.9710 N   0  0  0  0  0
   84.8170   20.4060   31.5280 C   0  0  0  0  0
   85.2100   19.1470   30.7760 C   0  0  0  0  0
   84.3880   18.5310   30.0930 O   0  0  0  0  0
   84.6460   20.0910   33.0170 C   0  0  0  0  0
   84.8900   21.2650   33.9120 C   0  0  0  0  0
   86.0490   21.4120   34.6450 N   0  0  0  0  0
   84.1410   22.3630   34.1660 C   0  0  0  0  0
   85.9960   22.5430   35.3230 C   0  0  0  0  0
   84.8500   23.1400   35.0490 N   0  0  0  0  0
   86.4750   18.7690   30.9300 N   0  0  0  0  0
   87.0210   17.5670   30.3260 C   0  0  0  0  0
   86.9060   16.4290   31.3220 C   0  0  0  0  0
   87.1890   16.6160   32.5000 O   0  0  0  0  0
   88.4940   17.7860   29.9750 C   0  0  0  0  0
   89.0320   16.7450   29.0200 C   0  0  0  0  0
   89.2540   15.5890   29.4340 O   0  0  0  0  0
   89.2730   17.1020   27.8530 O   0  0  0  0  0
   86.5360   15.2460   30.8330 N   0  0  0  0  0
   86.3340   14.0630   31.6830 C   0  0  0  0  0
   87.6430   13.5290   32.2900 C   0  0  0  0  0
   87.6280   12.8550   33.3210 O   0  0  0  0  0
   85.5920   12.9370   30.9000 C   0  0  0  0  0
   85.0690   11.8380   31.8370 C   0  0  0  0  0
   86.4920   12.3260   29.8320 C   0  0  0  0  0
   84.0440   12.3140   32.8460 C   0  0  0  0  0
   88.7740   13.8440   31.6660 N   0  0  0  0  0
   90.0780   13.4440   32.2030 C   0  0  0  0  0
   90.5450   14.3200   33.3690 C   0  0  0  0  0
   91.4670   13.9480   34.0930 O   0  0  0  0  0
   91.1360   13.4560   31.0990 C   0  0  0  0  0
   90.9150   12.3930   30.0390 C   0  0  0  0  0
   91.7840   12.6240   28.8190 C   0  0  0  0  0
   91.4070   13.8390   28.1020 N   0  0  0  0  0
   91.8190   14.1410   26.8740 C   0  0  0  0  0
   92.6200   13.3140   26.2070 N   0  0  0  0  0
   91.4310   15.2730   26.3110 N   0  0  0  0  0
   89.9050   15.4700   33.5560 N   0  0  0  0  0
   90.1320   16.2900   34.7420 C   0  0  0  0  0
   89.7040   15.5880   36.0400 C   0  0  0  0  0
   90.0540   16.0460   37.1240 O   0  0  0  0  0
   89.3850   17.6220   34.6280 C   0  0  0  0  0
   89.6340   18.2570   33.3870 O   0  0  0  0  0
   88.9270   14.5070   35.9330 N   0  0  0  0  0
   88.3030   13.8840   37.1040 C   0  0  0  0  0
   88.7980   12.4780   37.4060 C   0  0  0  0  0
   88.5840   11.9780   38.5090 O   0  0  0  0  0
   86.7820   13.8660   36.9290 C   0  0  0  0  0
   86.1960   15.2180   36.6650 C   0  0  0  0  0
   85.8990   16.0700   37.7080 C   0  0  0  0  0
   85.9980   15.6590   35.3670 C   0  0  0  0  0
   85.3690   17.3240   37.4690 C   0  0  0  0  0
   85.4870   16.9180   35.1150 C   0  0  0  0  0
   85.1540   17.7480   36.1690 C   0  0  0  0  0
   89.4210   11.8230   36.4300 N   0  0  0  0  0
   89.8890   10.4500   36.6080 C   0  0  0  0  0
   91.3410   10.3250   36.1790 C   0  0  0  0  0
   91.7720   10.9850   35.2360 O   0  0  0  0  0
   89.0280    9.4720   35.7970 C   0  0  0  0  0
   87.5780    9.4320   36.2150 C   0  0  0  0  0
   87.2230    9.3200   37.5550 C   0  0  0  0  0
   86.5670    9.4670   35.2600 C   0  0  0  0  0
   85.8910    9.2730   37.9380 C   0  0  0  0  0
   85.2340    9.4150   35.6360 C   0  0  0  0  0
   84.8960    9.3210   36.9770 C   0  0  0  0  0
   92.0680    9.4310   36.8450 N   0  0  0  0  0
   93.5150    9.3030   36.6730 C   0  0  0  0  0
   93.9240    7.8280   36.6560 C   0  0  0  0  0
   94.5540    7.3560   35.7070 O   0  0  0  0  0
   94.2710   10.0540   37.7960 C   0  0  0  0  0
   93.7250    9.6770   39.1700 C   0  0  0  0  0
   95.7730    9.8010   37.7090 C   0  0  0  0  0
   93.6330    7.0790   37.5910 O   0  0  0  0  0
   80.5005   26.4806   30.1048 H   0  0  0  0  0
   81.4534   26.7302   31.4489 H   0  0  0  0  0
   81.5589   27.7669   30.1486 H   0  0  0  0  0
   82.4160   26.0552   28.7537 H   0  0  0  0  0
   84.5181   25.5172   30.2453 H   0  0  0  0  0
   83.7449   26.8016   31.3077 H   0  0  0  0  0
   85.3909   27.8439   29.9891 H   0  0  0  0  0
   83.7685   28.2598   29.2923 H   0  0  0  0  0
   85.1473   27.8347   27.4544 H   0  0  0  0  0
   84.1875   26.3161   27.7020 H   0  0  0  0  0
   86.3693   25.6164   27.2352 H   0  0  0  0  0
   86.1942   25.5076   29.0362 H   0  0  0  0  0
   88.2947   26.4466   28.3848 H   0  0  0  0  0
   87.5328   27.6683   27.5460 H   0  0  0  0  0
   87.3719   27.5683   29.2015 H   0  0  0  0  0
   82.4980   23.9997   28.2249 H   0  0  0  0  0
   81.4958   21.9347   30.0580 H   0  0  0  0  0
   82.5887   21.8704   27.2453 H   0  0  0  0  0
   80.8349   21.7879   27.8003 H   0  0  0  0  0
   82.9260   19.7017   28.3314 H   0  0  0  0  0
   81.7432   19.6668   26.9504 H   0  0  0  0  0
   80.7205   18.1487   30.5209 H   0  0  0  0  0
   82.3756   18.5403   30.0427 H   0  0  0  0  0
   82.7209   20.8657   31.4738 H   0  0  0  0  0
   85.6109   21.1449   31.4193 H   0  0  0  0  0
   85.3792   19.3267   33.2748 H   0  0  0  0  0
   83.6134   19.7759   33.1670 H   0  0  0  0  0
   83.1597   22.5883   33.7484 H   0  0  0  0  0
   86.7669   22.9204   35.9949 H   0  0  0  0  0
   87.0906   19.3503   31.4988 H   0  0  0  0  0
   86.4699   17.3289   29.4162 H   0  0  0  0  0
   89.0697   17.7201   30.8982 H   0  0  0  0  0
   88.5798   18.7585   29.4903 H   0  0  0  0  0
   88.9978   15.5262   30.3570 H   0  0  0  0  0
   86.3867   15.1573   29.8279 H   0  0  0  0  0
   85.7107   14.3851   32.5171 H   0  0  0  0  0
   84.7347   13.4026   30.4138 H   0  0  0  0  0
   85.9237   11.4637   32.4005 H   0  0  0  0  0
   84.5806   11.0899   31.2125 H   0  0  0  0  0
   86.7944   13.1004   29.1270 H   0  0  0  0  0
   87.3759   11.8981   30.3049 H   0  0  0  0  0
   85.9469   11.5442   29.3031 H   0  0  0  0  0
   84.4868   13.0861   33.4752 H   0  0  0  0  0
   83.1811   12.7227   32.3202 H   0  0  0  0  0
   83.7293   11.4745   33.4659 H   0  0  0  0  0
   88.7335   14.3748   30.7959 H   0  0  0  0  0
   89.9508   12.4332   32.5905 H   0  0  0  0  0
   92.1004   13.2575   31.5666 H   0  0  0  0  0
   91.0845   14.4267   30.6059 H   0  0  0  0  0
   89.8711   12.4318   29.7279 H   0  0  0  0  0
   91.1752   11.4245   30.4661 H   0  0  0  0  0
   91.6576   11.7769   28.1448 H   0  0  0  0  0
   92.8168   12.7303   29.1510 H   0  0  0  0  0
   90.7879   14.4985   28.5733 H   0  0  0  0  0
   92.9318   13.5544   25.2661 H   0  0  0  0  0
   92.9222   12.4396   26.6366 H   0  0  0  0  0
   90.8179   15.9110   26.8184 H   0  0  0  0  0
   89.2381   15.7876   32.8526 H   0  0  0  0  0
   91.2070   16.4636   34.7912 H   0  0  0  0  0
   89.7308   18.2793   35.4258 H   0  0  0  0  0
   88.3159   17.4240   34.7043 H   0  0  0  0  0
   89.1514   19.0861   33.3505 H   0  0  0  0  0
   88.7632   14.1036   35.0106 H   0  0  0  0  0
   88.5927   14.4954   37.9586 H   0  0  0  0  0
   86.3493   13.4970   37.8589 H   0  0  0  0  0
   86.5586   13.2378   36.0667 H   0  0  0  0  0
   86.0845   15.7506   38.7335 H   0  0  0  0  0
   86.2487   15.0039   34.5327 H   0  0  0  0  0
   85.1204   17.9789   38.3041 H   0  0  0  0  0
   85.3469   17.2556   34.0881 H   0  0  0  0  0
   84.7243   18.7313   35.9774 H   0  0  0  0  0
   89.5757   12.2900   35.5365 H   0  0  0  0  0
   89.8045   10.2005   37.6657 H   0  0  0  0  0
   89.4368    8.4743   35.9571 H   0  0  0  0  0
   89.0547    9.8040   34.7591 H   0  0  0  0  0
   88.0027    9.2684   38.3149 H   0  0  0  0  0
   86.8263    9.5361   34.2035 H   0  0  0  0  0
   85.6282    9.1984   38.9932 H   0  0  0  0  0
   84.4518    9.4480   34.8776 H   0  0  0  0  0
   83.8480    9.2849   37.2744 H   0  0  0  0  0
   91.5968    8.8095   37.5024 H   0  0  0  0  0
   93.7836    9.7523   35.7169 H   0  0  0  0  0
   94.7118    8.0433   35.0556 H   0  0  0  0  0
   94.1064   11.1223   37.6555 H   0  0  0  0  0
   92.6682    9.9386   39.2239 H   0  0  0  0  0
   93.8435    8.6046   39.3249 H   0  0  0  0  0
   94.2746   10.2194   39.9393 H   0  0  0  0  0
   95.9668    8.7332   37.8104 H   0  0  0  0  0
   96.1435   10.1488   36.7447 H   0  0  0  0  0
   96.2781   10.3409   38.5099 H   0  0  0  0  0
  1  2  1  0  0  0
  2  3  1  0  0  0
  2  5  1  0  0  0
  3  4  2  0  0  0
  3 10  1  0  0  0
  5  6  1  0  0  0
  6  7  1  0  0  0
  7  8  1  0  0  0
  8  9  1  0  0  0
 10 11  1  0  0  0
 11 12  1  0  0  0
 11 14  1  0  0  0
 12 13  2  0  0  0
 12 19  1  0  0  0
 14 15  1  0  0  0
 15 16  1  0  0  0
 16 17  2  0  0  0
 16 18  1  0  0  0
 19 20  1  0  0  0
 20 21  1  0  0  0
 20 23  1  0  0  0
 21 22  2  0  0  0
 21 29  1  0  0  0
 23 24  1  0  0  0
 24 25  4  0  0  0
 24 26  4  0  0  0
 25 27  4  0  0  0
 26 28  4  0  0  0
 27 28  4  0  0  0
 29 30  1  0  0  0
 30 31  1  0  0  0
 30 33  1  0  0  0
 31 32  2  0  0  0
 31 37  1  0  0  0
 33 34  1  0  0  0
 34 35  1  0  0  0
 34 36  2  0  0  0
 37 38  1  0  0  0
 38 39  1  0  0  0
 38 41  1  0  0  0
 39 40  2  0  0  0
 39 45  1  0  0  0
 41 42  1  0  0  0
 41 43  1  0  0  0
 42 44  1  0  0  0
 45 46  1  0  0  0
 46 47  1  0  0  0
 46 49  1  0  0  0
 47 48  2  0  0  0
 47 56  1  0  0  0
 49 50  1  0  0  0
 50 51  1  0  0  0
 51 52  1  0  0  0
 52 53  1  0  0  0
 53 54  1  0  0  0
 53 55  2  0  0  0
 56 57  1  0  0  0
 57 58  1  0  0  0
 57 60  1  0  0  0
 58 59  2  0  0  0
 58 62  1  0  0  0
 60 61  1  0  0  0
 62 63  1  0  0  0
 63 64  1  0  0  0
 63 66  1  0  0  0
 64 65  2  0  0  0
 64 73  1  0  0  0
 66 67  1  0  0  0
 67 68  4  0  0  0
 67 69  4  0  0  0
 68 70  4  0  0  0
 69 71  4  0  0  0
 70 72  4  0  0  0
 71 72  4  0  0  0
 73 74  1  0  0  0
 74 75  1  0  0  0
 74 77  1  0  0  0
 75 76  2  0  0  0
 75 84  1  0  0  0
 77 78  1  0  0  0
 78 79  4  0  0  0
 78 80  4  0  0  0
 79 81  4  0  0  0
 80 82  4  0  0  0
 81 83  4  0  0  0
 82 83  4  0  0  0
 84 85  1  0  0  0
 85 86  1  0  0  0
 85 88  1  0  0  0
 86 87  1  0  0  0
 86 91  2  0  0  0
 88 89  1  0  0  0
 88 90  1  0  0  0
  1 92  1  0  0  0
  1 93  1  0  0  0
  1 94  1  0  0  0
  2 95  1  0  0  0
  5 96  1  0  0  0
  5 97  1  0  0  0
  6 98  1  0  0  0
  6 99  1  0  0  0
  7100  1  0  0  0
  7101  1  0  0  0
  8102  1  0  0  0
  8103  1  0  0  0
  9104  1  0  0  0
  9105  1  0  0  0
  9106  1  0  0  0
 10107  1  0  0  0
 11108  1  0  0  0
 14109  1  0  0  0
 14110  1  0  0  0
 15111  1  0  0  0
 15112  1  0  0  0
 18113  1  0  0  0
 18114  1  0  0  0
 19115  1  0  0  0
 20116  1  0  0  0
 23117  1  0  0  0
 23118  1  0  0  0
 26119  1  0  0  0
 27120  1  0  0  0
 29121  1  0  0  0
 30122  1  0  0  0
 33123  1  0  0  0
 33124  1  0  0  0
 35125  1  0  0  0
 37126  1  0  0  0
 38127  1  0  0  0
 41128  1  0  0  0
 42129  1  0  0  0
 42130  1  0  0  0
 43131  1  0  0  0
 43132  1  0  0  0
 43133  1  0  0  0
 44134  1  0  0  0
 44135  1  0  0  0
 44136  1  0  0  0
 45137  1  0  0  0
 46138  1  0  0  0
 49139  1  0  0  0
 49140  1  0  0  0
 50141  1  0  0  0
 50142  1  0  0  0
 51143  1  0  0  0
 51144  1  0  0  0
 52145  1  0  0  0
 54146  1  0  0  0
 54147  1  0  0  0
 55148  1  0  0  0
 56149  1  0  0  0
 57150  1  0  0  0
 60151  1  0  0  0
 60152  1  0  0  0
 61153  1  0  0  0
 62154  1  0  0  0
 63155  1  0  0  0
 66156  1  0  0  0
 66157  1  0  0  0
 68158  1  0  0  0
 69159  1  0  0  0
 70160  1  0  0  0
 71161  1  0  0  0
 72162  1  0  0  0
 73163  1  0  0  0
 74164  1  0  0  0
 77165  1  0  0  0
 77166  1  0  0  0
 79167  1  0  0  0
 80168  1  0  0  0
 81169  1  0  0  0
 82170  1  0  0  0
 83171  1  0  0  0
 84172  1  0  0  0
 85173  1  0  0  0
 87174  1  0  0  0
 88175  1  0  0  0
 89176  1  0  0  0
 89177  1  0  0  0
 89178  1  0  0  0
 90179  1  0  0  0
 90180  1  0  0  0
 90181  1  0  0  0
M  END
$$$$
