### 
### Created by X-TOOL on Mon Sep 10 21:13:33 2018
### 

@<TRIPOS>MOLECULE
5mlo_ligand
  181   183     1     0     0
SMALL
GAST_HUCK


@<TRIPOS>ATOM
      1 N          81.4130   26.7980   30.4320 N.4       1 LYS         0.2379
      2 CA         82.4780   25.9420   29.8360 C.3       1 LYS         0.0650
      3 C          82.2670   24.4690   30.1840 C.2       1 LYS         0.2267
      4 O          82.0420   24.1140   31.3470 O.2       1 LYS        -0.3907
      5 CB         83.8680   26.3900   30.3060 C.3       1 LYS         0.0080
      6 CG         84.5120   27.4800   29.4570 C.3       1 LYS        -0.0410
      7 CD         84.9670   26.9700   28.0930 C.3       1 LYS        -0.0123
      8 CE         86.2590   26.1660   28.1700 C.3       1 LYS        -0.0354
      9 NZ         87.4600   27.0310   28.3390 N.4       1 LYS         0.2185
     10 N          82.3580   23.6220   29.1620 N.am      1 GLN        -0.2609
     11 CA         82.2660   22.1780   29.3260 C.3       1 GLN         0.1331
     12 C          83.6100   21.6500   29.8220 C.2       1 GLN         0.2041
     13 O          84.6350   21.8590   29.1800 O.2       1 GLN        -0.3944
     14 CB         81.8740   21.5180   27.9890 C.3       1 GLN         0.0045
     15 CG         81.9400   19.9950   27.9710 C.3       1 GLN         0.0412
     16 CD         80.9050   19.3430   28.8740 C.2       1 GLN         0.1737
     17 OE1        79.7030   19.4740   28.6460 O.2       1 GLN        -0.3973
     18 NE2        81.3700   18.6210   29.8920 N.am      1 GLN        -0.3009
     19 N          83.6010   20.9800   30.9710 N.am      1 HIS        -0.2625
     20 CA         84.8170   20.4060   31.5280 C.3       1 HIS         0.1369
     21 C          85.2100   19.1470   30.7760 C.2       1 HIS         0.2054
     22 O          84.3880   18.5310   30.0930 O.2       1 HIS        -0.3942
     23 CB         84.6460   20.0910   33.0170 C.3       1 HIS         0.0145
     24 CG         84.8900   21.2650   33.9120 C.2       1 HIS        -0.0027
     25 ND1        86.0490   21.4120   34.6450 N.2       1 HIS        -0.3252
     26 CD2        84.1410   22.3630   34.1660 C.2       1 HIS         0.0291
     27 CE1        85.9960   22.5430   35.3230 C.2       1 HIS         0.0907
     28 NE2        84.8500   23.1400   35.0490 N.pl3     1 HIS        -0.2752
     29 N          86.4750   18.7690   30.9300 N.am      1 ASP        -0.2621
     30 CA         87.0210   17.5670   30.3260 C.3       1 ASP         0.1423
     31 C          86.9060   16.4290   31.3220 C.2       1 ASP         0.2056
     32 O          87.1890   16.6160   32.5000 O.2       1 ASP        -0.3943
     33 CB         88.4940   17.7860   29.9750 C.3       1 ASP         0.0406
     34 CG         89.0320   16.7450   29.0200 C.2       1 ASP         0.0393
     35 OD1        89.2540   15.5890   29.4340 O.co2     1 ASP        -0.5688
     36 OD2        89.2730   17.1020   27.8530 O.co2     1 ASP        -0.5688
     37 N          86.5360   15.2460   30.8330 N.am      1 ILE        -0.2634
     38 CA         86.3340   14.0630   31.6830 C.3       1 ILE         0.1335
     39 C          87.6430   13.5290   32.2900 C.2       1 ILE         0.2042
     40 O          87.6280   12.8550   33.3210 O.2       1 ILE        -0.3944
     41 CB         85.5920   12.9370   30.9000 C.3       1 ILE        -0.0037
     42 CG1        85.0690   11.8380   31.8370 C.3       1 ILE        -0.0491
     43 CG2        86.4920   12.3260   29.8320 C.3       1 ILE        -0.0582
     44 CD1        84.0440   12.3140   32.8460 C.3       1 ILE        -0.0648
     45 N          88.7740   13.8440   31.6660 N.am      1 ARG        -0.2637
     46 CA         90.0780   13.4440   32.2030 C.3       1 ARG         0.1311
     47 C          90.5450   14.3200   33.3690 C.2       1 ARG         0.2040
     48 O          91.4670   13.9480   34.0930 O.2       1 ARG        -0.3944
     49 CB         91.1360   13.4560   31.0990 C.3       1 ARG        -0.0092
     50 CG         90.9150   12.3930   30.0390 C.3       1 ARG        -0.0156
     51 CD         91.7840   12.6240   28.8190 C.3       1 ARG         0.0627
     52 NE         91.4070   13.8390   28.1020 N.pl3     1 ARG        -0.2723
     53 CZ         91.8190   14.1410   26.8740 C.cat     1 ARG         0.2882
     54 NH1        92.6200   13.3140   26.2070 N.pl3     1 ARG        -0.2849
     55 NH2        91.4310   15.2730   26.3110 N.pl3     1 ARG        -0.2849
     56 N          89.9050   15.4700   33.5560 N.am      1 SER        -0.2616
     57 CA         90.1320   16.2900   34.7420 C.3       1 SER         0.1539
     58 C          89.7040   15.5880   36.0400 C.2       1 SER         0.2063
     59 O          90.0540   16.0460   37.1240 O.2       1 SER        -0.3943
     60 CB         89.3850   17.6220   34.6280 C.3       1 SER         0.0843
     61 OG         89.6340   18.2570   33.3870 O.3       1 SER        -0.3903
     62 N          88.9270   14.5070   35.9330 N.am      1 PHE        -0.2619
     63 CA         88.3030   13.8840   37.1040 C.3       1 PHE         0.1404
     64 C          88.7980   12.4780   37.4060 C.2       1 PHE         0.2061
     65 O          88.5840   11.9780   38.5090 O.2       1 PHE        -0.3942
     66 CB         86.7820   13.8660   36.9290 C.3       1 PHE         0.0214
     67 CG         86.1960   15.2180   36.6650 C.ar      1 PHE        -0.0386
     68 CD1        85.8990   16.0700   37.7080 C.ar      1 PHE        -0.0601
     69 CD2        85.9980   15.6590   35.3670 C.ar      1 PHE        -0.0601
     70 CE1        85.3690   17.3240   37.4690 C.ar      1 PHE        -0.0686
     71 CE2        85.4870   16.9180   35.1150 C.ar      1 PHE        -0.0686
     72 CZ         85.1540   17.7480   36.1690 C.ar      1 PHE        -0.0687
     73 N          89.4210   11.8230   36.4300 N.am      1 PHE        -0.2618
     74 CA         89.8890   10.4500   36.6080 C.3       1 PHE         0.1404
     75 C          91.3410   10.3250   36.1790 C.2       1 PHE         0.2054
     76 O          91.7720   10.9850   35.2360 O.2       1 PHE        -0.3942
     77 CB         89.0280    9.4720   35.7970 C.3       1 PHE         0.0214
     78 CG         87.5780    9.4320   36.2150 C.ar      1 PHE        -0.0386
     79 CD1        87.2230    9.3200   37.5550 C.ar      1 PHE        -0.0601
     80 CD2        86.5670    9.4670   35.2600 C.ar      1 PHE        -0.0601
     81 CE1        85.8910    9.2730   37.9380 C.ar      1 PHE        -0.0686
     82 CE2        85.2340    9.4150   35.6360 C.ar      1 PHE        -0.0686
     83 CZ         84.8960    9.3210   36.9770 C.ar      1 PHE        -0.0687
     84 N          92.0680    9.4310   36.8450 N.am      1 VAL        -0.2691
     85 CA         93.5150    9.3030   36.6730 C.3       1 VAL         0.0967
     86 C          93.9240    7.8280   36.6560 C.2       1 VAL         0.0603
     87 O          94.5540    7.3560   35.7070 O.co2     1 VAL        -0.5666
     88 CB         94.2710   10.0540   37.7960 C.3       1 VAL        -0.0118
     89 CG1        93.7250    9.6770   39.1700 C.3       1 VAL        -0.0590
     90 CG2        95.7730    9.8010   37.7090 C.3       1 VAL        -0.0590
     91 OXT        93.6330    7.0790   37.5910 O.co2     1 VAL        -0.5666
     92 H1         81.5790   27.7612   30.1856 H         1 LYS         0.2015
     93 H2         81.4260   26.7008   31.4352 H         1 LYS         0.2015
     94 H3         80.5139   26.5109   30.0782 H         1 LYS         0.2015
     95 H4         82.4300   26.0493   28.7423 H         1 LYS         0.1098
     96 H5         84.5313   25.5126   30.2961 H         1 LYS         0.0346
     97 H6         83.7754   26.7682   31.3348 H         1 LYS         0.0346
     98 H7         85.3864   27.8749   29.9949 H         1 LYS         0.0270
     99 H8         83.7799   28.2868   29.3050 H         1 LYS         0.0270
    100 H9         85.1278   27.8327   27.4298 H         1 LYS         0.0317
    101 H10        84.1771   26.3285   27.6751 H         1 LYS         0.0317
    102 H11        86.3696   25.5863   27.2417 H         1 LYS         0.0813
    103 H12        86.1962   25.4785   29.0264 H         1 LYS         0.0813
    104 H13        88.2856   26.4545   28.3844 H         1 LYS         0.1994
    105 H14        87.3741   27.5625   29.1912 H         1 LYS         0.1994
    106 H15        87.5331   27.6613   27.5558 H         1 LYS         0.1994
    107 H16        82.4952   23.9923   28.2433 H         1 GLN         0.1885
    108 H17        81.4930   21.9480   30.0740 H         1 GLN         0.0801
    109 H18        82.5529   21.8969   27.2109 H         1 GLN         0.0337
    110 H19        80.8420   21.8163   27.7523 H         1 GLN         0.0337
    111 H20        82.9411   19.6839   28.3042 H         1 GLN         0.0504
    112 H21        81.7728   19.6494   26.9402 H         1 GLN         0.0504
    113 H22        80.7331   18.1701   30.5173 H         1 GLN         0.1814
    114 H23        82.3561   18.5298   30.0310 H         1 GLN         0.1814
    115 H24        82.7382   20.8680   31.4639 H         1 HIS         0.1885
    116 H25        85.6262   21.1432   31.4200 H         1 HIS         0.0817
    117 H26        85.3554   19.2950   33.2873 H         1 HIS         0.0420
    118 H27        83.6176   19.7370   33.1812 H         1 HIS         0.0420
    119 H28        83.1606   22.5881   33.7488 H         1 HIS         0.0729
    120 H29        86.7662   22.9200   35.9943 H         1 HIS         0.1199
    121 H30        84.5384   24.0426   35.4352 H         1 HIS         0.2361
    122 H31        87.0785   19.3389   31.4877 H         1 ASP         0.1884
    123 H32        86.4577   17.3218   29.4136 H         1 ASP         0.0819
    124 H33        89.0848   17.7505   30.9022 H         1 ASP         0.0478
    125 H34        88.6005   18.7772   29.5101 H         1 ASP         0.0478
    126 H35        86.3897   15.1590   29.8476 H         1 ILE         0.1883
    127 H36        85.6881   14.3695   32.5190 H         1 ILE         0.0803
    128 H37        84.7267   13.3934   30.3970 H         1 ILE         0.0345
    129 H38        85.9243   11.4184   32.3868 H         1 ILE         0.0267
    130 H39        84.6072   11.0518   31.2217 H         1 ILE         0.0267
    131 H40        86.8616   13.1197   29.1661 H         1 ILE         0.0235
    132 H41        85.9192   11.5926   29.2455 H         1 ILE         0.0235
    133 H42        87.3446   11.8250   30.3137 H         1 ILE         0.0235
    134 H43        83.7255   11.4676   33.4723 H         1 ILE         0.0230
    135 H44        83.1725   12.7267   32.3166 H         1 ILE         0.0230
    136 H45        84.4897   13.0932   33.4817 H         1 ILE         0.0230
    137 H46        88.7343   14.3644   30.8130 H         1 ARG         0.1883
    138 H47        89.9809   12.4139   32.5763 H         1 ARG         0.0800
    139 H48        92.1213   13.2898   31.5589 H         1 ARG         0.0313
    140 H49        91.1202   14.4422   30.6120 H         1 ARG         0.0313
    141 H50        89.8589   12.4106   29.7321 H         1 ARG         0.0301
    142 H51        91.1562   11.4086   30.4665 H         1 ARG         0.0301
    143 H52        91.6798   11.7644   28.1406 H         1 ARG         0.0689
    144 H53        92.8321   12.7122   29.1409 H         1 ARG         0.0689
    145 H54        90.7818   14.5050   28.5779 H         1 ARG         0.2642
    146 H55        92.9340   13.5562   25.2564 H         1 ARG         0.2615
    147 H56        92.9261   12.4316   26.6413 H         1 ARG         0.2615
    148 H57        90.8110   15.9167   26.8229 H         1 ARG         0.2615
    149 H58        91.7488   15.5109   25.3606 H         1 ARG         0.2615
    150 H59        89.2512   15.7813   32.8664 H         1 SER         0.1884
    151 H60        91.2103   16.4981   34.8052 H         1 SER         0.0823
    152 H61        89.7142   18.2862   35.4407 H         1 SER         0.0606
    153 H62        88.3052   17.4345   34.7222 H         1 SER         0.0606
    154 H63        89.1564   19.0775   33.3509 H         1 SER         0.2097
    155 H64        88.7664   14.1115   35.0287 H         1 PHE         0.1885
    156 H65        88.5429   14.5106   37.9756 H         1 PHE         0.0823
    157 H66        86.3304   13.4641   37.8479 H         1 PHE         0.0474
    158 H67        86.5366   13.2086   36.0819 H         1 PHE         0.0474
    159 H68        86.0835   15.7523   38.7279 H         1 PHE         0.0557
    160 H69        86.2473   15.0075   34.5373 H         1 PHE         0.0557
    161 H70        85.1218   17.9753   38.2995 H         1 PHE         0.0599
    162 H71        85.3477   17.2537   34.0937 H         1 PHE         0.0599
    163 H72        84.7267   18.7259   35.9785 H         1 PHE         0.0559
    164 H73        89.5726   12.2809   35.5540 H         1 PHE         0.1885
    165 H74        89.8107   10.1891   37.6737 H         1 PHE         0.0823
    166 H75        89.4489    8.4625   35.9143 H         1 PHE         0.0474
    167 H76        89.0739    9.7677   34.7385 H         1 PHE         0.0474
    168 H77        87.9984    9.2687   38.3107 H         1 PHE         0.0557
    169 H78        86.8248    9.5358   34.2094 H         1 PHE         0.0557
    170 H79        85.6297    9.1989   38.9874 H         1 PHE         0.0599
    171 H80        84.4561    9.4478   34.8817 H         1 PHE         0.0599
    172 H81        83.8537    9.2851   37.2727 H         1 PHE         0.0559
    173 H82        91.6060    8.8217   37.4895 H         1 VAL         0.1876
    174 H83        93.7905    9.7526   35.7076 H         1 VAL         0.0729
    175 H84        94.1033   11.1316   37.6522 H         1 VAL         0.0336
    176 H85        94.2789   10.2238   39.9473 H         1 VAL         0.0234
    177 H86        93.8440    8.5949   39.3276 H         1 VAL         0.0234
    178 H87        92.6585    9.9406   39.2257 H         1 VAL         0.0234
    179 H88        96.1348   10.0821   36.7090 H         1 VAL         0.0234
    180 H89        95.9761    8.7345   37.8860 H         1 VAL         0.0234
    181 H90        96.2911   10.4040   38.4692 H         1 VAL         0.0234
@<TRIPOS>BOND
     1    1    2 1  
     2    2    3 1  
     3    2    5 1  
     4    3    4 2  
     5    3   10 am 
     6    5    6 1  
     7    6    7 1  
     8    7    8 1  
     9    8    9 1  
    10   10   11 1  
    11   11   12 1  
    12   11   14 1  
    13   12   13 2  
    14   12   19 am 
    15   14   15 1  
    16   15   16 1  
    17   16   17 2  
    18   16   18 am 
    19   19   20 1  
    20   20   21 1  
    21   20   23 1  
    22   21   22 2  
    23   21   29 am 
    24   23   24 1  
    25   24   25 1  
    26   24   26 2  
    27   25   27 2  
    28   26   28 1  
    29   27   28 1  
    30   29   30 1  
    31   30   31 1  
    32   30   33 1  
    33   31   32 2  
    34   31   37 am 
    35   33   34 1  
    36   34   35 ar 
    37   34   36 ar 
    38   37   38 1  
    39   38   39 1  
    40   38   41 1  
    41   39   40 2  
    42   39   45 am 
    43   41   42 1  
    44   41   43 1  
    45   42   44 1  
    46   45   46 1  
    47   46   47 1  
    48   46   49 1  
    49   47   48 2  
    50   47   56 am 
    51   49   50 1  
    52   50   51 1  
    53   51   52 1  
    54   52   53 ar 
    55   53   54 ar 
    56   53   55 ar 
    57   56   57 1  
    58   57   58 1  
    59   57   60 1  
    60   58   59 2  
    61   58   62 am 
    62   60   61 1  
    63   62   63 1  
    64   63   64 1  
    65   63   66 1  
    66   64   65 2  
    67   64   73 am 
    68   66   67 1  
    69   67   68 ar 
    70   67   69 ar 
    71   68   70 ar 
    72   69   71 ar 
    73   70   72 ar 
    74   71   72 ar 
    75   73   74 1  
    76   74   75 1  
    77   74   77 1  
    78   75   76 2  
    79   75   84 am 
    80   77   78 1  
    81   78   79 ar 
    82   78   80 ar 
    83   79   81 ar 
    84   80   82 ar 
    85   81   83 ar 
    86   82   83 ar 
    87   84   85 1  
    88   85   86 1  
    89   85   88 1  
    90   86   87 ar 
    91   86   91 ar 
    92   88   89 1  
    93   88   90 1  
    94    1   92 1  
    95    1   93 1  
    96    1   94 1  
    97    2   95 1  
    98    5   96 1  
    99    5   97 1  
   100    6   98 1  
   101    6   99 1  
   102    7  100 1  
   103    7  101 1  
   104    8  102 1  
   105    8  103 1  
   106    9  104 1  
   107    9  105 1  
   108    9  106 1  
   109   10  107 1  
   110   11  108 1  
   111   14  109 1  
   112   14  110 1  
   113   15  111 1  
   114   15  112 1  
   115   18  113 1  
   116   18  114 1  
   117   19  115 1  
   118   20  116 1  
   119   23  117 1  
   120   23  118 1  
   121   26  119 1  
   122   27  120 1  
   123   28  121 1  
   124   29  122 1  
   125   30  123 1  
   126   33  124 1  
   127   33  125 1  
   128   37  126 1  
   129   38  127 1  
   130   41  128 1  
   131   42  129 1  
   132   42  130 1  
   133   43  131 1  
   134   43  132 1  
   135   43  133 1  
   136   44  134 1  
   137   44  135 1  
   138   44  136 1  
   139   45  137 1  
   140   46  138 1  
   141   49  139 1  
   142   49  140 1  
   143   50  141 1  
   144   50  142 1  
   145   51  143 1  
   146   51  144 1  
   147   52  145 1  
   148   54  146 1  
   149   54  147 1  
   150   55  148 1  
   151   55  149 1  
   152   56  150 1  
   153   57  151 1  
   154   60  152 1  
   155   60  153 1  
   156   61  154 1  
   157   62  155 1  
   158   63  156 1  
   159   66  157 1  
   160   66  158 1  
   161   68  159 1  
   162   69  160 1  
   163   70  161 1  
   164   71  162 1  
   165   72  163 1  
   166   73  164 1  
   167   74  165 1  
   168   77  166 1  
   169   77  167 1  
   170   79  168 1  
   171   80  169 1  
   172   81  170 1  
   173   82  171 1  
   174   83  172 1  
   175   84  173 1  
   176   85  174 1  
   177   88  175 1  
   178   89  176 1  
   179   89  177 1  
   180   89  178 1  
   181   90  179 1  
   182   90  180 1  
   183   90  181 1  
@<TRIPOS>SUBSTRUCTURE
     1 LYS         1

