### 
### Created by X-TOOL on Mon Sep 10 21:13:03 2018
### 

@<TRIPOS>MOLECULE
3lq4_ligand
   42    43     1     0     0
SMALL
GAST_HUCK


@<TRIPOS>ATOM
      1 N1'        25.0280  -59.3640    1.4060 N.ar      1 TDP        -0.2938
      2 C2'        24.5830  -58.4660    0.4550 C.ar      1 TDP         0.0758
      3 C2A        24.7260  -57.0140    0.7630 C.3       1 TDP        -0.0029
      4 N3'        24.0360  -58.8510   -0.6990 N.ar      1 TDP        -0.2610
      5 C4'        23.9020  -60.2190   -0.9670 C.ar      1 TDP         0.1223
      6 N4'        23.3630  -60.5320   -2.1300 N.pl3     1 TDP        -0.3187
      7 C5'        24.3640  -61.2170    0.0260 C.ar      1 TDP         0.0328
      8 C6'        24.9150  -60.7250    1.1860 C.ar      1 TDP         0.0074
      9 C35        24.2990  -62.7220   -0.1760 C.3       1 TDP         0.0562
     10 N3         22.8920  -63.2930   -0.2140 N.2       1 TDP        -0.2745
     11 C2         22.2770  -63.6300   -1.3340 C.2       1 TDP         0.1352
     12 S1         20.7620  -64.2790   -1.0760 S.3       1 TDP         0.1156
     13 C5         20.9190  -64.1040    0.6320 C.2       1 TDP         0.1730
     14 C4         22.1330  -63.5540    0.9510 C.2       1 TDP         0.1309
     15 C4A        22.6700  -63.2510    2.3190 C.3       1 TDP         0.0228
     16 C5A        19.8160  -64.5110    1.5640 C.3       1 TDP         0.0829
     17 C5B        18.4460  -64.2440    0.9890 C.3       1 TDP         0.1135
     18 O5G        17.4760  -64.3920    2.0650 O.3       1 TDP        -0.2401
     19 P1         16.0680  -63.5950    2.0730 P.3       1 TDP         0.3279
     20 O11        15.2800  -64.1770    0.7870 O.3       1 TDP        -0.1548
     21 O12        15.3350  -63.9930    3.2930 O.co2     1 TDP        -0.5556
     22 O13        16.3290  -62.1460    1.8410 O.co2     1 TDP        -0.5556
     23 P2         14.8910  -65.6370    0.2170 P.3       1 TDP         0.2069
     24 O21        13.4600  -65.5020   -0.3900 O.co2     1 TDP        -0.5891
     25 O22        15.8470  -65.9450   -0.8760 O.co2     1 TDP        -0.5891
     26 O23        14.8430  -66.5790    1.3660 O.co2     1 TDP        -0.5891
     27 H1         25.1947  -56.8932    1.7508 H         1 TDP         0.0449
     28 H2         23.7331  -56.5407    0.7679 H         1 TDP         0.0449
     29 H3         25.3558  -56.5371   -0.0024 H         1 TDP         0.0449
     30 H4         23.2359  -61.5207   -2.3893 H         1 TDP         0.1789
     31 H5         23.0694  -59.7876   -2.7785 H         1 TDP         0.1789
     32 H6         25.2675  -61.4169    1.9424 H         1 TDP         0.0791
     33 H7         24.8427  -63.2032    0.6503 H         1 TDP         0.0563
     34 H8         24.7929  -62.9623   -1.1290 H         1 TDP         0.0563
     35 H9         22.7138  -63.4978   -2.3228 H         1 TDP         0.1655
     36 H10        21.9223  -63.5292    3.0763 H         1 TDP         0.0599
     37 H11        22.8886  -62.1758    2.3973 H         1 TDP         0.0599
     38 H12        23.5927  -63.8259    2.4863 H         1 TDP         0.0599
     39 H13        19.9208  -63.9468    2.5025 H         1 TDP         0.0773
     40 H14        19.9081  -65.5874    1.7710 H         1 TDP         0.0773
     41 H15        18.2292  -64.9657    0.1877 H         1 TDP         0.0687
     42 H16        18.4026  -63.2222    0.5839 H         1 TDP         0.0687
@<TRIPOS>BOND
     1    1    2 ar 
     2    1    8 ar 
     3    2    3 1  
     4    2    4 ar 
     5    4    5 ar 
     6    5    6 1  
     7    5    7 ar 
     8    7    8 ar 
     9    7    9 1  
    10    9   10 1  
    11   10   11 2  
    12   10   14 1  
    13   11   12 1  
    14   12   13 1  
    15   13   14 2  
    16   13   16 1  
    17   14   15 1  
    18   16   17 1  
    19   17   18 1  
    20   18   19 1  
    21   19   20 1  
    22   19   21 ar 
    23   19   22 ar 
    24   20   23 1  
    25   23   24 ar 
    26   23   25 ar 
    27   23   26 ar 
    28    3   27 1  
    29    3   28 1  
    30    3   29 1  
    31    6   30 1  
    32    6   31 1  
    33    8   32 1  
    34    9   33 1  
    35    9   34 1  
    36   11   35 1  
    37   15   36 1  
    38   15   37 1  
    39   15   38 1  
    40   16   39 1  
    41   16   40 1  
    42   17   41 1  
    43   17   42 1  
@<TRIPOS>SUBSTRUCTURE
     1 TDP         1

