3lq4_ligand
  -I-interpret- 

 45 46  0  0  0  0  0  0  0  0999 V2000
   25.0280  -59.3640    1.4060 N   0  0  0  0  0
   24.5830  -58.4660    0.4550 C   0  0  0  0  0
   24.7260  -57.0140    0.7630 C   0  0  0  0  0
   24.0360  -58.8510   -0.6990 N   0  0  0  0  0
   23.9020  -60.2190   -0.9670 C   0  0  0  0  0
   23.3630  -60.5320   -2.1300 N   0  0  0  0  0
   24.3640  -61.2170    0.0260 C   0  0  0  0  0
   24.9150  -60.7250    1.1860 C   0  0  0  0  0
   24.2990  -62.7220   -0.1760 C   0  0  0  0  0
   22.8920  -63.2930   -0.2140 N   0  3  0  0  0
   22.2770  -63.6300   -1.3340 C   0  0  0  0  0
   20.7620  -64.2790   -1.0760 S   0  0  0  0  0
   20.9190  -64.1040    0.6320 C   0  0  0  0  0
   22.1330  -63.5540    0.9510 C   0  0  0  0  0
   22.6700  -63.2510    2.3190 C   0  0  0  0  0
   19.8160  -64.5110    1.5640 C   0  0  0  0  0
   18.4460  -64.2440    0.9890 C   0  0  0  0  0
   17.4760  -64.3920    2.0650 O   0  0  0  0  0
   16.0680  -63.5950    2.0730 P   0  0  0  0  0
   15.2800  -64.1770    0.7870 O   0  0  0  0  0
   15.3350  -63.9930    3.2930 O   0  0  0  0  0
   16.3290  -62.1460    1.8410 O   0  0  0  0  0
   14.8910  -65.6370    0.2170 P   0  0  0  0  0
   13.4600  -65.5020   -0.3900 O   0  0  0  0  0
   15.8470  -65.9450   -0.8760 O   0  0  0  0  0
   14.8430  -66.5790    1.3660 O   0  0  0  0  0
   24.1661  -56.7790    1.6682 H   0  0  0  0  0
   25.7793  -56.7780    0.9143 H   0  0  0  0  0
   24.3368  -56.4273   -0.0691 H   0  0  0  0  0
   23.0722  -59.7949   -2.7722 H   0  0  0  0  0
   23.2371  -61.5111   -2.3868 H   0  0  0  0  0
   25.2694  -61.4207    1.9465 H   0  0  0  0  0
   24.8059  -63.1798    0.6734 H   0  0  0  0  0
   24.7551  -62.9338   -1.1430 H   0  0  0  0  0
   22.7142  -63.4977   -2.3237 H   0  0  0  0  0
   23.5843  -63.8212    2.4835 H   0  0  0  0  0
   22.8862  -62.1854    2.3952 H   0  0  0  0  0
   21.9282  -63.5271    3.0685 H   0  0  0  0  0
   19.9163  -63.9275    2.4792 H   0  0  0  0  0
   19.9035  -65.5830    1.7411 H   0  0  0  0  0
   18.2294  -64.9468    0.1845 H   0  0  0  0  0
   18.3995  -63.2376    0.5729 H   0  0  0  0  0
   16.8098  -62.0365    1.0173 H   0  0  0  0  0
   12.8342  -65.3026    0.3101 H   0  0  0  0  0
   14.1916  -66.2737    2.0017 H   0  0  0  0  0
  1  2  4  0  0  0
  1  8  4  0  0  0
  2  3  1  0  0  0
  2  4  4  0  0  0
  4  5  4  0  0  0
  5  6  1  0  0  0
  5  7  4  0  0  0
  7  8  4  0  0  0
  7  9  1  0  0  0
  9 10  1  0  0  0
 10 11  4  0  0  0
 10 14  4  0  0  0
 11 12  4  0  0  0
 12 13  4  0  0  0
 13 14  4  0  0  0
 13 16  1  0  0  0
 14 15  1  0  0  0
 16 17  1  0  0  0
 17 18  1  0  0  0
 18 19  1  0  0  0
 19 20  1  0  0  0
 19 21  2  0  0  0
 19 22  1  0  0  0
 20 23  1  0  0  0
 23 24  1  0  0  0
 23 25  2  0  0  0
 23 26  1  0  0  0
  3 27  1  0  0  0
  3 28  1  0  0  0
  3 29  1  0  0  0
  6 30  1  0  0  0
  6 31  1  0  0  0
  8 32  1  0  0  0
  9 33  1  0  0  0
  9 34  1  0  0  0
 11 35  1  0  0  0
 15 36  1  0  0  0
 15 37  1  0  0  0
 15 38  1  0  0  0
 16 39  1  0  0  0
 16 40  1  0  0  0
 17 41  1  0  0  0
 17 42  1  0  0  0
 22 43  1  0  0  0
 24 44  1  0  0  0
 26 45  1  0  0  0
M  END
$$$$
