2zdt_ligand
  -I-interpret- 

 52 55  0  0  0  0  0  0  0  0999 V2000
   44.9900    7.7840   32.3550 C   0  0  0  0  0
   43.7810    7.7660   33.1860 C   0  0  0  0  0
   43.3960    9.0110   33.8360 C   0  0  0  0  0
   46.9530    8.9150   31.2900 C   0  0  0  0  0
   46.4940    6.5070   30.8710 N   0  0  0  0  0
   45.3870    6.5400   31.6110 C   0  0  0  0  0
   47.7340   10.1060   30.9950 C   0  0  0  0  0
   48.5160    7.5860   29.7570 C   0  0  0  0  0
   50.9310    8.0740   29.1850 C   0  0  0  0  0
   46.8430    5.2350   30.2080 C   0  0  0  0  0
   44.2220   10.2100   33.6400 C   0  0  0  0  0
   45.4310   10.2140   32.8130 C   0  0  0  0  0
   45.7950    8.9730   32.1710 C   0  0  0  0  0
   47.2990    7.6610   30.6710 C   0  0  0  0  0
   43.7890   11.6300   34.3890 Cl  0  0  0  0  0
   44.6710    5.5460   31.6800 O   0  0  0  0  0
   48.3610    7.2010   28.5990 O   0  0  0  0  0
   49.8970    7.9610   30.2860 C   0  0  0  0  0
   47.9650    4.5110   30.8820 C   0  0  0  0  0
   47.7190    3.9370   32.1980 C   0  0  0  0  0
   48.8160    3.2610   32.8770 C   0  0  0  0  0
   50.1170    3.1750   32.2150 C   0  0  0  0  0
   50.3710    3.7490   30.8860 C   0  0  0  0  0
   49.2630    4.4360   30.2040 C   0  0  0  0  0
   48.5990   10.6600   32.0400 C   0  0  0  0  0
   49.3750   11.8700   31.7400 C   0  0  0  0  0
   49.2700   12.5050   30.4110 C   0  0  0  0  0
   48.3910   11.9240   29.3760 C   0  0  0  0  0
   47.6100   10.7100   29.6630 C   0  0  0  0  0
   51.2370    2.4550   32.9530 C   0  0  0  0  0
   52.4030    2.6410   32.6110 O   0  0  0  0  0
   50.9340    1.6910   33.9090 O   0  0  0  0  0
   43.1939    6.8563   33.3119 H   0  0  0  0  0
   42.5043    9.0528   34.4614 H   0  0  0  0  0
   51.0175    7.1173   28.6699 H   0  0  0  0  0
   50.6230    8.8430   28.4765 H   0  0  0  0  0
   51.8941    8.3428   29.6190 H   0  0  0  0  0
   47.1617    5.4675   29.1919 H   0  0  0  0  0
   45.9644    4.5909   30.2434 H   0  0  0  0  0
   46.0305   11.1157   32.6876 H   0  0  0  0  0
   50.2192    7.1755   30.9696 H   0  0  0  0  0
   49.8174    8.9331   30.7727 H   0  0  0  0  0
   46.7364    4.0117   32.6639 H   0  0  0  0  0
   48.6692    2.8251   33.8652 H   0  0  0  0  0
   51.3525    3.6680   30.4188 H   0  0  0  0  0
   49.4037    4.8788   29.2180 H   0  0  0  0  0
   48.6650   10.1844   33.0185 H   0  0  0  0  0
   50.0289   12.2997   32.4988 H   0  0  0  0  0
   49.8434   13.4060   30.1930 H   0  0  0  0  0
   48.3205   12.3960   28.3960 H   0  0  0  0  0
   46.9578   10.2717   28.9076 H   0  0  0  0  0
   49.9803    1.6796   34.0182 H   0  0  0  0  0
  1  2  4  0  0  0
  1  6  1  0  0  0
 13  1  4  0  0  0
  2  3  4  0  0  0
  3 11  4  0  0  0
  4  7  1  0  0  0
  4 13  1  0  0  0
  4 14  2  0  0  0
  6  5  1  0  0  0
  5 10  1  0  0  0
  5 14  1  0  0  0
  6 16  2  0  0  0
  7 25  4  0  0  0
  7 29  4  0  0  0
 14  8  1  0  0  0
  8 17  2  0  0  0
  8 18  1  0  0  0
 18  9  1  0  0  0
 10 19  1  0  0  0
 11 12  4  0  0  0
 11 15  1  0  0  0
 12 13  4  0  0  0
 19 20  4  0  0  0
 19 24  4  0  0  0
 20 21  4  0  0  0
 21 22  4  0  0  0
 22 23  4  0  0  0
 22 30  1  0  0  0
 23 24  4  0  0  0
 25 26  4  0  0  0
 26 27  4  0  0  0
 27 28  4  0  0  0
 28 29  4  0  0  0
 30 31  2  0  0  0
 30 32  1  0  0  0
  2 33  1  0  0  0
  3 34  1  0  0  0
  9 35  1  0  0  0
  9 36  1  0  0  0
  9 37  1  0  0  0
 10 38  1  0  0  0
 10 39  1  0  0  0
 12 40  1  0  0  0
 18 41  1  0  0  0
 18 42  1  0  0  0
 20 43  1  0  0  0
 21 44  1  0  0  0
 23 45  1  0  0  0
 24 46  1  0  0  0
 25 47  1  0  0  0
 26 48  1  0  0  0
 27 49  1  0  0  0
 28 50  1  0  0  0
 29 51  1  0  0  0
 32 52  1  0  0  0
M  END
$$$$
