4y3j_ligand
  -I-interpret- 

 24 24  0  0  0  0  0  0  0  0999 V2000
   -3.1270    2.6700    7.0940 N   0  3  0  0  0
   -3.4090    4.1060    7.3670 C   0  0  0  0  0
   -3.7820    4.8120    6.0590 C   0  0  0  0  0
   -3.4960    4.2220    4.9920 O   0  0  0  0  0
   -2.2100    4.7850    8.0380 C   0  0  0  0  0
   -1.7700    4.0610    9.2700 C   0  0  0  0  0
   -0.4300    3.9240    9.5930 N   0  0  0  0  0
   -2.5410    3.4370   10.2050 C   0  0  0  0  0
   -0.3660    3.2190   10.7000 C   0  0  0  0  0
   -1.6830    2.8970   11.1110 N   0  0  0  0  0
   -2.0730    2.1140   12.2900 C   0  0  0  0  0
   -4.3280    5.9320    6.1500 O   0  0  0  0  0
   -3.9396    2.2439    6.6484 H   0  0  0  0  0
   -2.3199    2.5950    6.4748 H   0  0  0  0  0
   -2.9290    2.1907    7.9723 H   0  0  0  0  0
   -4.2491    4.1762    8.0580 H   0  0  0  0  0
   -3.0844    3.3786    5.1944 H   0  0  0  0  0
   -2.5072    5.7938    8.3245 H   0  0  0  0  0
   -1.3808    4.7869    7.3305 H   0  0  0  0  0
   -3.6295    3.3819   10.2228 H   0  0  0  0  0
    0.5491    2.9297   11.2167 H   0  0  0  0  0
   -2.7040    2.7235   12.9369 H   0  0  0  0  0
   -2.6244    1.2295   11.9710 H   0  0  0  0  0
   -1.1791    1.8097   12.8344 H   0  0  0  0  0
  1  2  1  0  0  0
  2  3  1  0  0  0
  2  5  1  0  0  0
  3  4  1  0  0  0
  3 12  2  0  0  0
  5  6  1  0  0  0
  6  7  4  0  0  0
  6  8  4  0  0  0
  7  9  4  0  0  0
  8 10  4  0  0  0
  9 10  4  0  0  0
 10 11  1  0  0  0
  1 13  1  0  0  0
  1 14  1  0  0  0
  1 15  1  0  0  0
  2 16  1  0  0  0
  4 17  1  0  0  0
  5 18  1  0  0  0
  5 19  1  0  0  0
  8 20  1  0  0  0
  9 21  1  0  0  0
 11 22  1  0  0  0
 11 23  1  0  0  0
 11 24  1  0  0  0
M  END
$$$$
