### 
### Created by X-TOOL on Mon Aug  2 16:12:24 2021
### 

@<TRIPOS>MOLECULE
5zdd_ligand
   57    60     1     0     0
SMALL
GAST_HUCK


@<TRIPOS>ATOM
      1 N1         19.7820   -3.1190   -9.8630 N.ar      1 AR6        -0.2698
      2 C2         19.3720   -1.8330   -9.9760 C.ar      1 AR6         0.0533
      3 N3         20.0410   -0.9690  -10.7840 N.ar      1 AR6        -0.2714
      4 C4         21.1160   -1.3890  -11.4710 C.ar      1 AR6         0.1613
      5 C5         21.5160   -2.6560  -11.3510 C.ar      1 AR6         0.1045
      6 C6         20.8380   -3.5280  -10.5360 C.ar      1 AR6         0.1298
      7 N6         21.0020   -4.9270  -10.1900 N.pl3     1 AR6        -0.3152
      8 N7         22.5890   -2.8240  -12.1190 N.2       1 AR6        -0.2958
      9 C8         22.8570   -1.6610  -12.7150 C.2       1 AR6         0.1123
     10 N9         21.9490   -0.7700  -12.3190 N.pl3     1 AR6        -0.1919
     11 PA         21.9560   -1.6440  -17.4750 P.3       1 AR6         0.2972
     12 PB         20.5100   -0.9270  -19.9090 P.3       1 AR6         0.2972
     13 C1'        21.9120    0.5810  -12.7410 C.3       1 AR6         0.2010
     14 O1A        23.1180   -1.0400  -18.2030 O.co2     1 AR6        -0.6127
     15 O1B        21.3250    0.3320  -19.9910 O.co2     1 AR6        -0.6127
     16 C1D        22.2170   -5.4560  -20.4250 C.3       1 AR6         0.1854
     17 O1D        23.1870   -6.1670  -20.8090 O.3       1 AR6        -0.3649
     18 C2'        23.1330    1.0670  -13.0040 C.3       1 AR6         0.1385
     19 O2'        23.2870    2.4290  -12.4500 O.3       1 AR6        -0.3836
     20 O2A        22.2160   -3.0530  -17.0490 O.co2     1 AR6        -0.6127
     21 O2B        19.0390   -0.7480  -20.1260 O.co2     1 AR6        -0.6127
     22 C2D        20.9150   -6.0830  -20.9140 C.3       1 AR6         0.1339
     23 O2D        21.1160   -7.5340  -21.0630 O.3       1 AR6        -0.3841
     24 C3'        23.2600    1.1760  -14.5340 C.3       1 AR6         0.1149
     25 O3'        23.9730    2.2580  -14.8290 O.3       1 AR6        -0.3864
     26 O3A        20.6310   -1.6610  -18.4420 O.3       1 AR6        -0.1319
     27 C3D        20.7440   -5.5490  -22.1150 C.3       1 AR6         0.1144
     28 O3D        21.5860   -6.1980  -23.0660 O.3       1 AR6        -0.3864
     29 C4'        21.7580    1.3320  -15.0140 C.3       1 AR6         0.1189
     30 O4'        21.0240    0.7140  -14.1240 O.3       1 AR6        -0.3364
     31 C4D        21.2740   -4.0230  -21.9620 C.3       1 AR6         0.1184
     32 O4D        22.3100   -4.0780  -21.1840 O.3       1 AR6        -0.3403
     33 C5'        21.5730    0.6490  -16.3680 C.3       1 AR6         0.1128
     34 O5'        21.5960   -0.7360  -16.1690 O.3       1 AR6        -0.2476
     35 C5D        20.2610   -3.1160  -21.3130 C.3       1 AR6         0.1128
     36 O5D        21.0150   -1.9420  -21.0920 O.3       1 AR6        -0.2476
     37 H1         18.5066   -1.4915   -9.4196 H         1 AR6         0.0996
     38 H2         21.7744   -5.4717  -10.5994 H         1 AR6         0.1820
     39 H3         20.3461   -5.3758   -9.5349 H         1 AR6         0.1820
     40 H4         23.6770   -1.4723  -13.4064 H         1 AR6         0.1349
     41 H5         21.4486    1.1836  -11.9460 H         1 AR6         0.0996
     42 H6         22.2239   -5.3285  -19.3325 H         1 AR6         0.0935
     43 H7         23.1286   -6.3000  -21.7479 H         1 AR6         0.2126
     44 H8         23.9047    0.4000  -12.5922 H         1 AR6         0.0676
     45 H9         23.1638    2.4024  -11.5084 H         1 AR6         0.2101
     46 H10        20.0722   -5.8671  -20.2409 H         1 AR6         0.0671
     47 H11        21.8083   -7.6936  -21.6937 H         1 AR6         0.2101
     48 H12        23.7283    0.2813  -14.9701 H         1 AR6         0.0648
     49 H13        23.5345    3.0280  -14.4863 H         1 AR6         0.2100
     50 H14        19.6906   -5.5914  -22.4288 H         1 AR6         0.0648
     51 H15        21.3681   -7.1220  -23.1017 H         1 AR6         0.2100
     52 H16        21.4799    2.3940  -15.0834 H         1 AR6         0.0651
     53 H17        21.5466   -3.6221  -22.9494 H         1 AR6         0.0651
     54 H18        22.3885    0.9407  -17.0462 H         1 AR6         0.0648
     55 H19        20.6084    0.9458  -16.8055 H         1 AR6         0.0648
     56 H20        19.8944   -3.5393  -20.3662 H         1 AR6         0.0648
     57 H21        19.4098   -2.9238  -21.9827 H         1 AR6         0.0648
@<TRIPOS>BOND
     1    2    1 ar 
     2    6    1 ar 
     3    3    2 ar 
     4    4    3 ar 
     5    4    5 ar 
     6   10    4 1  
     7    5    6 ar 
     8    8    5 1  
     9    6    7 1  
    10    9    8 2  
    11   10    9 1  
    12   13   10 1  
    13   11   14 ar 
    14   11   20 ar 
    15   26   11 1  
    16   11   34 1  
    17   12   15 ar 
    18   12   21 ar 
    19   12   26 1  
    20   36   12 1  
    21   13   18 1  
    22   30   13 1  
    23   16   17 1  
    24   16   22 1  
    25   32   16 1  
    26   18   19 1  
    27   24   18 1  
    28   22   23 1  
    29   27   22 1  
    30   24   25 1  
    31   29   24 1  
    32   27   28 1  
    33   31   27 1  
    34   29   30 1  
    35   33   29 1  
    36   31   32 1  
    37   35   31 1  
    38   34   33 1  
    39   35   36 1  
    40    2   37 1  
    41    7   38 1  
    42    7   39 1  
    43    9   40 1  
    44   13   41 1  
    45   16   42 1  
    46   17   43 1  
    47   18   44 1  
    48   19   45 1  
    49   22   46 1  
    50   23   47 1  
    51   24   48 1  
    52   25   49 1  
    53   27   50 1  
    54   28   51 1  
    55   29   52 1  
    56   31   53 1  
    57   33   54 1  
    58   33   55 1  
    59   35   56 1  
    60   35   57 1  
@<TRIPOS>SUBSTRUCTURE
     1 AR6         1

