5zdd_ligand
  -I-interpret- 

 59 62  0  0  0  0  0  0  0  0999 V2000
   19.7820   -3.1190   -9.8630 N   0  0  0  0  0
   19.3720   -1.8330   -9.9760 C   0  0  0  0  0
   20.0410   -0.9690  -10.7840 N   0  0  0  0  0
   21.1160   -1.3890  -11.4710 C   0  0  0  0  0
   21.5160   -2.6560  -11.3510 C   0  0  0  0  0
   20.8380   -3.5280  -10.5360 C   0  0  0  0  0
   21.0020   -4.9270  -10.1900 N   0  0  0  0  0
   22.5890   -2.8240  -12.1190 N   0  0  0  0  0
   22.8570   -1.6610  -12.7150 C   0  0  0  0  0
   21.9490   -0.7700  -12.3190 N   0  0  0  0  0
   21.9560   -1.6440  -17.4750 P   0  0  0  0  0
   20.5100   -0.9270  -19.9090 P   0  0  0  0  0
   21.9120    0.5810  -12.7410 C   0  0  0  0  0
   23.1180   -1.0400  -18.2030 O   0  0  0  0  0
   21.3250    0.3320  -19.9910 O   0  0  0  0  0
   22.2170   -5.4560  -20.4250 C   0  0  0  0  0
   23.1870   -6.1670  -20.8090 O   0  0  0  0  0
   23.1330    1.0670  -13.0040 C   0  0  0  0  0
   23.2870    2.4290  -12.4500 O   0  0  0  0  0
   22.2160   -3.0530  -17.0490 O   0  0  0  0  0
   19.0390   -0.7480  -20.1260 O   0  0  0  0  0
   20.9150   -6.0830  -20.9140 C   0  0  0  0  0
   21.1160   -7.5340  -21.0630 O   0  0  0  0  0
   23.2600    1.1760  -14.5340 C   0  0  0  0  0
   23.9730    2.2580  -14.8290 O   0  0  0  0  0
   20.6310   -1.6610  -18.4420 O   0  0  0  0  0
   20.7440   -5.5490  -22.1150 C   0  0  0  0  0
   21.5860   -6.1980  -23.0660 O   0  0  0  0  0
   21.7580    1.3320  -15.0140 C   0  0  0  0  0
   21.0240    0.7140  -14.1240 O   0  0  0  0  0
   21.2740   -4.0230  -21.9620 C   0  0  0  0  0
   22.3100   -4.0780  -21.1840 O   0  0  0  0  0
   21.5730    0.6490  -16.3680 C   0  0  0  0  0
   21.5960   -0.7360  -16.1690 O   0  0  0  0  0
   20.2610   -3.1160  -21.3130 C   0  0  0  0  0
   21.0150   -1.9420  -21.0920 O   0  0  0  0  0
   18.5018   -1.4897   -9.4165 H   0  0  0  0  0
   20.3524   -5.3714   -9.5412 H   0  0  0  0  0
   21.7669   -5.4664  -10.5955 H   0  0  0  0  0
   23.6777   -1.4721  -13.4070 H   0  0  0  0  0
   21.4692    1.1485  -11.9225 H   0  0  0  0  0
   22.9031   -0.1388  -18.4546 H   0  0  0  0  0
   22.2499    0.1235  -19.8403 H   0  0  0  0  0
   22.2426   -5.3581  -19.3397 H   0  0  0  0  0
   24.0091   -5.7765  -20.5037 H   0  0  0  0  0
   23.8858    0.4128  -12.5643 H   0  0  0  0  0
   24.1669    2.7568  -12.6496 H   0  0  0  0  0
   20.0731   -5.9152  -20.2424 H   0  0  0  0  0
   20.3017   -7.9388  -21.3707 H   0  0  0  0  0
   23.7571    0.3287  -15.0062 H   0  0  0  0  0
   24.0574    2.3341  -15.7822 H   0  0  0  0  0
   19.7085   -5.6307  -22.4454 H   0  0  0  0  0
   21.4535   -5.8032  -23.9310 H   0  0  0  0  0
   21.4836    2.3822  -15.1138 H   0  0  0  0  0
   21.4856   -3.6202  -22.9525 H   0  0  0  0  0
   22.3737    0.9423  -17.0469 H   0  0  0  0  0
   20.6224    0.9472  -16.8101 H   0  0  0  0  0
   19.8323   -3.5312  -20.4009 H   0  0  0  0  0
   19.3751   -2.9505  -21.9261 H   0  0  0  0  0
  2  1  4  0  0  0
  6  1  4  0  0  0
  3  2  4  0  0  0
  4  3  4  0  0  0
  4  5  4  0  0  0
 10  4  4  0  0  0
  5  6  4  0  0  0
  8  5  4  0  0  0
  6  7  1  0  0  0
  9  8  4  0  0  0
 10  9  4  0  0  0
 13 10  1  0  0  0
 11 14  1  0  0  0
 11 20  2  0  0  0
 26 11  1  0  0  0
 11 34  1  0  0  0
 12 15  1  0  0  0
 12 21  2  0  0  0
 12 26  1  0  0  0
 36 12  1  0  0  0
 13 18  1  0  0  0
 30 13  1  0  0  0
 16 17  1  0  0  0
 16 22  1  0  0  0
 32 16  1  0  0  0
 18 19  1  0  0  0
 24 18  1  0  0  0
 22 23  1  0  0  0
 27 22  1  0  0  0
 24 25  1  0  0  0
 29 24  1  0  0  0
 27 28  1  0  0  0
 31 27  1  0  0  0
 29 30  1  0  0  0
 33 29  1  0  0  0
 31 32  1  0  0  0
 35 31  1  0  0  0
 34 33  1  0  0  0
 35 36  1  0  0  0
  2 37  1  0  0  0
  7 38  1  0  0  0
  7 39  1  0  0  0
  9 40  1  0  0  0
 13 41  1  0  0  0
 14 42  1  0  0  0
 15 43  1  0  0  0
 16 44  1  0  0  0
 17 45  1  0  0  0
 18 46  1  0  0  0
 19 47  1  0  0  0
 22 48  1  0  0  0
 23 49  1  0  0  0
 24 50  1  0  0  0
 25 51  1  0  0  0
 27 52  1  0  0  0
 28 53  1  0  0  0
 29 54  1  0  0  0
 31 55  1  0  0  0
 33 56  1  0  0  0
 33 57  1  0  0  0
 35 58  1  0  0  0
 35 59  1  0  0  0
M  END
$$$$
