2adm_ligand
  -I-interpret- 

 51 53  0  0  0  0  0  0  0  0999 V2000
    2.4320   34.5750   46.0750 N   0  3  0  0  0
    3.0060   34.0860   44.8240 C   0  0  0  0  0
    4.5160   33.8170   44.9280 C   0  0  0  0  0
    5.1060   34.1460   45.9810 O   0  0  0  0  0
    5.0940   33.2780   43.9560 O   0  0  0  0  0
    2.7130   35.0660   43.6760 C   0  0  0  0  0
    2.8090   36.5410   44.0570 C   0  0  0  0  0
    2.7800   37.6130   42.6110 S   0  0  0  0  0
    4.0130   38.8140   43.0470 C   0  0  0  0  0
    1.2030   38.4680   42.5930 C   0  0  0  0  0
    0.0180   37.5540   42.3090 C   0  0  0  0  0
   -1.1880   38.0960   42.8710 O   0  0  0  0  0
   -0.1880   37.3780   40.8210 C   0  0  0  0  0
    0.0950   36.0230   40.4390 O   0  0  0  0  0
   -1.6380   37.7280   40.5550 C   0  0  0  0  0
   -2.3850   36.5500   40.2230 O   0  0  0  0  0
   -2.1650   38.3270   41.8450 C   0  0  0  0  0
   -2.4090   39.7780   41.6950 N   0  0  0  0  0
   -1.8940   40.6480   40.7930 C   0  0  0  0  0
   -2.2970   41.8690   40.8610 N   0  0  0  0  0
   -3.1890   41.8280   41.9360 C   0  0  0  0  0
   -4.0820   42.7790   42.4610 C   0  0  0  0  0
   -4.1190   44.0470   42.0380 N   0  0  0  0  0
   -4.9290   42.3680   43.4310 N   0  0  0  0  0
   -4.8880   41.1020   43.8360 C   0  0  0  0  0
   -4.1020   40.1160   43.4240 N   0  0  0  0  0
   -3.2630   40.5520   42.4530 C   0  0  0  0  0
    1.4327   34.7359   45.9492 H   0  0  0  0  0
    2.5761   33.8806   46.8081 H   0  0  0  0  0
    2.8878   35.4487   46.3382 H   0  0  0  0  0
    2.5278   33.1299   44.6111 H   0  0  0  0  0
    4.4562   33.1116   43.2580 H   0  0  0  0  0
    1.6856   34.8861   43.3595 H   0  0  0  0  0
    3.4641   34.8873   42.9066 H   0  0  0  0  0
    3.7529   36.6978   44.5791 H   0  0  0  0  0
    1.9512   36.7884   44.6824 H   0  0  0  0  0
    3.7177   39.3184   43.9671 H   0  0  0  0  0
    4.9694   38.3130   43.1966 H   0  0  0  0  0
    4.1061   39.5452   42.2440 H   0  0  0  0  0
    1.2423   39.2100   41.7956 H   0  0  0  0  0
    1.0535   38.8995   43.5827 H   0  0  0  0  0
    0.2396   36.5888   42.7644 H   0  0  0  0  0
    0.4791   38.0157   40.2410 H   0  0  0  0  0
   -0.0391   35.9236   39.4936 H   0  0  0  0  0
   -1.7313   38.4205   39.7184 H   0  0  0  0  0
   -2.0458   36.1770   39.4061 H   0  0  0  0  0
   -3.1144   37.8593   42.1059 H   0  0  0  0  0
   -1.1705   40.3284   40.0430 H   0  0  0  0  0
   -3.4820   44.3589   41.3050 H   0  0  0  0  0
   -4.7843   44.7023   42.4484 H   0  0  0  0  0
   -5.6009   40.8371   44.6168 H   0  0  0  0  0
  2  1  1  0  0  0
  6  2  1  0  0  0
  2  3  1  0  0  0
  3  5  1  0  0  0
  3  4  2  0  0  0
  7  6  1  0  0  0
  8  7  1  0  0  0
 10  8  1  0  0  0
  8  9  1  0  0  0
 11 10  1  0  0  0
 13 11  1  0  0  0
 12 11  1  0  0  0
 17 12  1  0  0  0
 18 17  1  0  0  0
 17 15  1  0  0  0
 15 16  1  0  0  0
 15 13  1  0  0  0
 13 14  1  0  0  0
 27 18  4  0  0  0
 18 19  4  0  0  0
 20 19  4  0  0  0
 21 20  4  0  0  0
 21 27  4  0  0  0
 22 21  4  0  0  0
 24 22  4  0  0  0
 22 23  1  0  0  0
 24 25  4  0  0  0
 25 26  4  0  0  0
 26 27  4  0  0  0
  1 28  1  0  0  0
  1 29  1  0  0  0
  1 30  1  0  0  0
  2 31  1  0  0  0
  5 32  1  0  0  0
  6 33  1  0  0  0
  6 34  1  0  0  0
  7 35  1  0  0  0
  7 36  1  0  0  0
  9 37  1  0  0  0
  9 38  1  0  0  0
  9 39  1  0  0  0
 10 40  1  0  0  0
 10 41  1  0  0  0
 11 42  1  0  0  0
 13 43  1  0  0  0
 14 44  1  0  0  0
 15 45  1  0  0  0
 16 46  1  0  0  0
 17 47  1  0  0  0
 19 48  1  0  0  0
 23 49  1  0  0  0
 23 50  1  0  0  0
 25 51  1  0  0  0
M  END
$$$$
