4z0q_ligand
  -I-interpret- 

 38 40  0  0  0  0  0  0  0  0999 V2000
   19.1520    9.7130   14.5320 C   0  0  0  0  0
   21.4080   10.0200   12.7930 C   0  0  0  0  0
   20.5860    8.8590   12.7510 C   0  0  0  0  0
   17.4990    7.4720   14.0050 C   0  0  0  0  0
   16.9040    6.2550   14.6850 C   0  0  0  0  0
   19.9710   10.8280   14.5360 C   0  0  0  0  0
   19.4880    8.7460   13.6070 C   0  0  0  0  0
   19.5610    6.4170   13.5840 C   0  0  0  0  0
   20.7050    6.4450   12.5860 C   0  0  0  0  0
   20.9030    7.7210   11.8120 C   0  0  0  0  0
   13.6140    2.7020   16.6840 O   0  0  0  0  0
   15.0610    2.6650   16.7920 S   0  0  0  0  0
   15.6330    2.7730   18.1090 O   0  0  0  0  0
   15.5900    1.3320   16.1570 N   0  0  0  0  0
   15.7080    4.0370   15.9230 C   0  0  0  0  0
   17.0820    4.1200   15.7290 C   0  0  0  0  0
   17.6630    5.2060   15.1320 C   0  0  0  0  0
   14.8860    5.1090   15.4870 C   0  0  0  0  0
   15.5370    6.2060   14.8150 C   0  0  0  0  0
   16.7600    8.3850   13.7460 O   0  0  0  0  0
   18.7130    7.5380   13.5460 N   0  0  0  0  0
   21.0460   10.9590   13.7140 C   0  0  0  0  0
   18.3045    9.6064   15.2091 H   0  0  0  0  0
   22.2672   10.1499   12.1350 H   0  0  0  0  0
   19.7442   11.6379   15.2294 H   0  0  0  0  0
   20.0097    6.3949   14.5771 H   0  0  0  0  0
   18.9484    5.5500   13.3368 H   0  0  0  0  0
   20.4735    5.6796   11.8452 H   0  0  0  0  0
   21.6144    6.3066   13.1707 H   0  0  0  0  0
   21.9272    7.7959   11.4466 H   0  0  0  0  0
   20.2512    7.7480   10.9388 H   0  0  0  0  0
   14.9333    0.6619   15.7569 H   0  0  0  0  0
   16.5907    1.1352   16.1442 H   0  0  0  0  0
   17.7145    3.2970   16.0617 H   0  0  0  0  0
   18.7458    5.2366   15.0105 H   0  0  0  0  0
   13.8088    5.1031   15.6531 H   0  0  0  0  0
   14.9323    7.0131   14.4016 H   0  0  0  0  0
   21.6507   11.8622   13.7952 H   0  0  0  0  0
  1  6  4  0  0  0
  7  1  4  0  0  0
  3  2  4  0  0  0
  2 22  4  0  0  0
  7  3  4  0  0  0
  3 10  1  0  0  0
  5  4  1  0  0  0
  4 20  2  0  0  0
  4 21  1  0  0  0
 17  5  4  0  0  0
  5 19  4  0  0  0
  6 22  4  0  0  0
 21  7  1  0  0  0
  8  9  1  0  0  0
 21  8  1  0  0  0
  9 10  1  0  0  0
 12 11  2  0  0  0
 12 13  2  0  0  0
 12 14  1  0  0  0
 15 12  1  0  0  0
 16 15  4  0  0  0
 15 18  4  0  0  0
 16 17  4  0  0  0
 18 19  4  0  0  0
  1 23  1  0  0  0
  2 24  1  0  0  0
  6 25  1  0  0  0
  8 26  1  0  0  0
  8 27  1  0  0  0
  9 28  1  0  0  0
  9 29  1  0  0  0
 10 30  1  0  0  0
 10 31  1  0  0  0
 14 32  1  0  0  0
 14 33  1  0  0  0
 16 34  1  0  0  0
 17 35  1  0  0  0
 18 36  1  0  0  0
 19 37  1  0  0  0
 22 38  1  0  0  0
M  END
$$$$
