3bmn_ligand
  -I-interpret- 

 22 23  0  0  0  0  0  0  0  0999 V2000
   11.9420  -13.8900   13.5380 C   0  0  0  0  0
   12.0640  -13.1830   14.8920 C   0  0  0  0  0
   11.4950  -12.4260   13.6930 C   0  0  0  0  0
   10.0550  -12.1400   13.8110 N   0  0  0  0  0
    9.6710  -10.9340   14.2630 C   0  0  0  0  0
   10.5990   -9.9690   14.3640 N   0  0  0  0  0
    8.4050  -10.6490   14.6240 N   0  0  0  0  0
    8.1120   -9.4080   15.0620 C   0  0  0  0  0
    6.8650   -9.1300   15.4200 N   0  0  0  0  0
    9.0280   -8.4370   15.1610 N   0  0  0  0  0
   10.2810   -8.7450   14.8060 C   0  0  0  0  0
   11.2640   -7.8680   14.8760 N   0  0  0  0  0
   11.5579  -14.8264   13.1333 H   0  0  0  0  0
   12.5560  -14.4937   12.8697 H   0  0  0  0  0
   12.8147  -13.0335   15.6681 H   0  0  0  0  0
   11.8061  -13.3696   15.9345 H   0  0  0  0  0
   11.7236  -11.5161   13.1380 H   0  0  0  0  0
    9.3625  -12.8437   13.5546 H   0  0  0  0  0
    6.1450   -9.8502   15.3616 H   0  0  0  0  0
    6.6263   -8.1961   15.7536 H   0  0  0  0  0
   12.2084   -8.1374   14.6006 H   0  0  0  0  0
   11.0796   -6.9205   15.2056 H   0  0  0  0  0
  1  2  1  0  0  0
  1  3  1  0  0  0
  2  3  1  0  0  0
  3  4  1  0  0  0
  4  5  1  0  0  0
  5  6  4  0  0  0
  5  7  4  0  0  0
  6 11  4  0  0  0
  7  8  4  0  0  0
  8  9  1  0  0  0
  8 10  4  0  0  0
 10 11  4  0  0  0
 11 12  1  0  0  0
  1 13  1  0  0  0
  1 14  1  0  0  0
  2 15  1  0  0  0
  2 16  1  0  0  0
  3 17  1  0  0  0
  4 18  1  0  0  0
  9 19  1  0  0  0
  9 20  1  0  0  0
 12 21  1  0  0  0
 12 22  1  0  0  0
M  END
$$$$
