5ks7_ligand
  -I-interpret- 

 68 74  0  0  0  0  0  0  0  0999 V2000
  -22.4570    4.6260  -21.2250 P   0  0  0  0  0
  -22.9320    6.0260  -21.6290 O   0  0  0  0  0
  -22.0520    3.5940  -22.2630 O   0  0  0  0  0
  -21.2400    4.6960  -20.1420 O   0  0  0  0  0
  -20.5370    3.5040  -19.7820 C   0  0  0  0  0
  -20.2250    3.3570  -18.2930 C   0  0  0  0  0
  -18.8230    3.3280  -18.1840 O   0  0  0  0  0
  -20.6220    4.4340  -17.2620 C   0  0  0  0  0
  -21.5170    3.8280  -16.3470 O   0  0  0  0  0
  -19.3540    4.8380  -16.4990 C   0  0  0  0  0
  -19.5600    4.9560  -15.0850 O   0  0  0  0  0
  -18.5140    3.6250  -16.8150 C   0  0  0  0  0
  -17.0330    3.6550  -16.7000 N   0  0  0  0  0
  -16.1430    4.4450  -17.3490 C   0  0  0  0  0
  -14.8750    4.1170  -17.0190 N   0  0  0  0  0
  -14.9470    3.0850  -16.1620 C   0  0  0  0  0
  -13.9810    2.2460  -15.4180 C   0  0  0  0  0
  -12.6470    2.4500  -15.5370 N   0  0  0  0  0
  -14.4780    1.2780  -14.6200 N   0  0  0  0  0
  -15.8080    1.0500  -14.4900 C   0  0  0  0  0
  -16.7560    1.7700  -15.1340 N   0  0  0  0  0
  -16.3730    2.7760  -15.9650 C   0  0  0  0  0
  -22.5060    4.7110  -15.4580 P   0  0  0  0  0
  -21.7300    5.9640  -15.0130 O   0  0  0  0  0
  -23.1280    3.8080  -14.4090 O   0  0  0  0  0
  -23.6600    4.9710  -16.5780 O   0  0  0  0  0
  -24.5820    3.9000  -16.8710 C   0  0  0  0  0
  -24.6540    3.4860  -18.3460 C   0  0  0  0  0
  -25.9950    3.0860  -18.6840 O   0  0  0  0  0
  -24.3670    4.5510  -19.3930 C   0  0  0  0  0
  -23.5990    3.8800  -20.3780 O   0  0  0  0  0
  -25.7130    4.9650  -19.9870 C   0  0  0  0  0
  -25.6400    5.3850  -21.3430 O   0  0  0  0  0
  -26.4620    3.6680  -19.9400 C   0  0  0  0  0
  -27.9440    3.7470  -19.9860 N   0  0  0  0  0
  -28.7180    4.5890  -19.2760 C   0  0  0  0  0
  -30.0440    4.3360  -19.4830 N   0  0  0  0  0
  -30.1250    3.3110  -20.3420 C   0  0  0  0  0
  -31.2410    2.5700  -20.9830 C   0  0  0  0  0
  -32.5510    2.8990  -20.7350 N   0  0  0  0  0
  -30.8830    1.5600  -21.8120 N   0  0  0  0  0
  -29.5830    1.2530  -22.0640 C   0  0  0  0  0
  -28.5410    1.9020  -21.5160 N   0  0  0  0  0
  -28.7420    2.9160  -20.6590 C   0  0  0  0  0
  -23.1419    6.5315  -20.8403 H   0  0  0  0  0
  -19.5789    3.5370  -20.3007 H   0  0  0  0  0
  -21.1817    2.6672  -20.0507 H   0  0  0  0  0
  -20.8277    2.4860  -18.0358 H   0  0  0  0  0
  -21.0766    5.3017  -17.7401 H   0  0  0  0  0
  -18.9457    5.8103  -16.7748 H   0  0  0  0  0
  -18.7360    5.2097  -14.6628 H   0  0  0  0  0
  -18.7756    2.9067  -16.0380 H   0  0  0  0  0
  -16.4144    5.2391  -18.0445 H   0  0  0  0  0
  -12.2965    3.1897  -16.1455 H   0  0  0  0  0
  -11.9931    1.8639  -15.0181 H   0  0  0  0  0
  -16.1312    0.2437  -13.8316 H   0  0  0  0  0
  -21.4005    6.4266  -15.7870 H   0  0  0  0  0
  -25.5746    4.2578  -16.5974 H   0  0  0  0  0
  -24.2346    3.0276  -16.3176 H   0  0  0  0  0
  -23.8819    2.7178  -18.3887 H   0  0  0  0  0
  -23.8524    5.4313  -19.0079 H   0  0  0  0  0
  -26.1468    5.8092  -19.4510 H   0  0  0  0  0
  -26.5167    5.6288  -21.6489 H   0  0  0  0  0
  -26.2610    3.0825  -20.8372 H   0  0  0  0  0
  -28.3358    5.3716  -18.6206 H   0  0  0  0  0
  -32.7728    3.6656  -20.0998 H   0  0  0  0  0
  -33.3022    2.3768  -21.1860 H   0  0  0  0  0
  -29.3732    0.4327  -22.7505 H   0  0  0  0  0
  1  2  1  0  0  0
  1  3  2  0  0  0
  1  4  1  0  0  0
  1 31  1  0  0  0
  4  5  1  0  0  0
  5  6  1  0  0  0
  6  7  1  0  0  0
  6  8  1  0  0  0
  7 12  1  0  0  0
  8  9  1  0  0  0
  8 10  1  0  0  0
  9 23  1  0  0  0
 10 11  1  0  0  0
 10 12  1  0  0  0
 12 13  1  0  0  0
 13 14  4  0  0  0
 13 22  4  0  0  0
 14 15  4  0  0  0
 15 16  4  0  0  0
 16 17  4  0  0  0
 16 22  4  0  0  0
 17 18  1  0  0  0
 17 19  4  0  0  0
 19 20  4  0  0  0
 20 21  4  0  0  0
 21 22  4  0  0  0
 23 24  1  0  0  0
 23 25  2  0  0  0
 23 26  1  0  0  0
 26 27  1  0  0  0
 27 28  1  0  0  0
 28 29  1  0  0  0
 28 30  1  0  0  0
 29 34  1  0  0  0
 30 31  1  0  0  0
 30 32  1  0  0  0
 32 33  1  0  0  0
 32 34  1  0  0  0
 34 35  1  0  0  0
 35 36  4  0  0  0
 35 44  4  0  0  0
 36 37  4  0  0  0
 37 38  4  0  0  0
 38 39  4  0  0  0
 38 44  4  0  0  0
 39 40  1  0  0  0
 39 41  4  0  0  0
 41 42  4  0  0  0
 42 43  4  0  0  0
 43 44  4  0  0  0
  2 45  1  0  0  0
  5 46  1  0  0  0
  5 47  1  0  0  0
  6 48  1  0  0  0
  8 49  1  0  0  0
 10 50  1  0  0  0
 11 51  1  0  0  0
 12 52  1  0  0  0
 14 53  1  0  0  0
 18 54  1  0  0  0
 18 55  1  0  0  0
 20 56  1  0  0  0
 24 57  1  0  0  0
 27 58  1  0  0  0
 27 59  1  0  0  0
 28 60  1  0  0  0
 30 61  1  0  0  0
 32 62  1  0  0  0
 33 63  1  0  0  0
 34 64  1  0  0  0
 36 65  1  0  0  0
 40 66  1  0  0  0
 40 67  1  0  0  0
 42 68  1  0  0  0
M  END
$$$$
