### 
### Created by X-TOOL on Mon Sep 10 21:13:30 2018
### 

@<TRIPOS>MOLECULE
5ks7_ligand
   66    72     1     0     0
SMALL
GAST_HUCK


@<TRIPOS>ATOM
      1 P         -22.4570    4.6260  -21.2250 P.3       1 2BA         0.2557
      2 O1P       -22.9320    6.0260  -21.6290 O.co2     1 2BA        -0.6177
      3 O2P       -22.0520    3.5940  -22.2630 O.co2     1 2BA        -0.6177
      4 O5'       -21.2400    4.6960  -20.1420 O.3       1 2BA        -0.2514
      5 C5'       -20.5370    3.5040  -19.7820 C.3       1 2BA         0.1128
      6 C4'       -20.2250    3.3570  -18.2930 C.3       1 2BA         0.1242
      7 O4'       -18.8230    3.3280  -18.1840 O.3       1 2BA        -0.3360
      8 C3'       -20.6220    4.4340  -17.2620 C.3       1 2BA         0.1540
      9 O3'       -21.5170    3.8280  -16.3470 O.3       1 2BA        -0.2453
     10 C2'       -19.3540    4.8380  -16.4990 C.3       1 2BA         0.1439
     11 O2'       -19.5600    4.9560  -15.0850 O.3       1 2BA        -0.3832
     12 C1'       -18.5140    3.6250  -16.8150 C.3       1 2BA         0.2014
     13 N9        -17.0330    3.6550  -16.7000 N.pl3     1 2BA        -0.1919
     14 C8        -16.1430    4.4450  -17.3490 C.2       1 2BA         0.1123
     15 N7        -14.8750    4.1170  -17.0190 N.2       1 2BA        -0.2958
     16 C5        -14.9470    3.0850  -16.1620 C.ar      1 2BA         0.1045
     17 C6        -13.9810    2.2460  -15.4180 C.ar      1 2BA         0.1298
     18 N6        -12.6470    2.4500  -15.5370 N.pl3     1 2BA        -0.3152
     19 N1        -14.4780    1.2780  -14.6200 N.ar      1 2BA        -0.2698
     20 C2        -15.8080    1.0500  -14.4900 C.ar      1 2BA         0.0533
     21 N3        -16.7560    1.7700  -15.1340 N.ar      1 2BA        -0.2714
     22 C4        -16.3730    2.7760  -15.9650 C.ar      1 2BA         0.1613
     23 P1        -22.5060    4.7110  -15.4580 P.3       1 2BA         0.2557
     24 O1P1      -21.7300    5.9640  -15.0130 O.co2     1 2BA        -0.6177
     25 O2P1      -23.1280    3.8080  -14.4090 O.co2     1 2BA        -0.6177
     26 O5'1      -23.6600    4.9710  -16.5780 O.3       1 2BA        -0.2514
     27 C5'1      -24.5820    3.9000  -16.8710 C.3       1 2BA         0.1128
     28 C4'1      -24.6540    3.4860  -18.3460 C.3       1 2BA         0.1242
     29 O4'1      -25.9950    3.0860  -18.6840 O.3       1 2BA        -0.3360
     30 C3'1      -24.3670    4.5510  -19.3930 C.3       1 2BA         0.1540
     31 O3'1      -23.5990    3.8800  -20.3780 O.3       1 2BA        -0.2453
     32 C2'1      -25.7130    4.9650  -19.9870 C.3       1 2BA         0.1439
     33 O2'1      -25.6400    5.3850  -21.3430 O.3       1 2BA        -0.3832
     34 C1'1      -26.4620    3.6680  -19.9400 C.3       1 2BA         0.2014
     35 N91       -27.9440    3.7470  -19.9860 N.pl3     1 2BA        -0.1919
     36 C81       -28.7180    4.5890  -19.2760 C.2       1 2BA         0.1123
     37 N71       -30.0440    4.3360  -19.4830 N.2       1 2BA        -0.2958
     38 C51       -30.1250    3.3110  -20.3420 C.ar      1 2BA         0.1045
     39 C61       -31.2410    2.5700  -20.9830 C.ar      1 2BA         0.1298
     40 N61       -32.5510    2.8990  -20.7350 N.pl3     1 2BA        -0.3152
     41 N11       -30.8830    1.5600  -21.8120 N.ar      1 2BA        -0.2698
     42 C21       -29.5830    1.2530  -22.0640 C.ar      1 2BA         0.0533
     43 N31       -28.5410    1.9020  -21.5160 N.ar      1 2BA        -0.2714
     44 C41       -28.7420    2.9160  -20.6590 C.ar      1 2BA         0.1613
     45 H1        -19.5845    3.4914  -20.3321 H         1 2BA         0.0647
     46 H2        -21.1487    2.6426  -20.0881 H         1 2BA         0.0647
     47 H3        -20.6649    2.4036  -17.9652 H         1 2BA         0.0655
     48 H4        -21.0833    5.3045  -17.7513 H         1 2BA         0.0712
     49 H5        -18.9162    5.7689  -16.8885 H         1 2BA         0.0680
     50 H6        -20.2204    5.6178  -14.9165 H         1 2BA         0.2101
     51 H7        -18.8634    2.8107  -16.1632 H         1 2BA         0.0996
     52 H8        -16.4142    5.2384  -18.0439 H         1 2BA         0.1349
     53 H9        -11.9867    1.8581  -15.0130 H         1 2BA         0.1820
     54 H10       -12.2930    3.1970  -16.1515 H         1 2BA         0.1820
     55 H11       -16.1294    0.2481  -13.8352 H         1 2BA         0.0996
     56 H12       -25.5866    4.2206  -16.5581 H         1 2BA         0.0647
     57 H13       -24.2788    3.0199  -16.2849 H         1 2BA         0.0647
     58 H14       -23.9547    2.6488  -18.4874 H         1 2BA         0.0655
     59 H15       -23.8309    5.4158  -18.9751 H         1 2BA         0.0712
     60 H16       -26.1914    5.7474  -19.3795 H         1 2BA         0.0680
     61 H17       -25.0600    6.1344  -21.4104 H         1 2BA         0.2101
     62 H18       -26.1441    3.0419  -20.7867 H         1 2BA         0.0996
     63 H19       -28.3361    5.3709  -18.6212 H         1 2BA         0.1349
     64 H20       -33.3095    2.3717  -21.1905 H         1 2BA         0.1820
     65 H21       -32.7750    3.6731  -20.0935 H         1 2BA         0.1820
     66 H22       -29.3743    0.4372  -22.7467 H         1 2BA         0.0996
@<TRIPOS>BOND
     1    1    2 ar 
     2    1    3 ar 
     3    1    4 1  
     4    1   31 1  
     5    4    5 1  
     6    5    6 1  
     7    6    7 1  
     8    6    8 1  
     9    7   12 1  
    10    8    9 1  
    11    8   10 1  
    12    9   23 1  
    13   10   11 1  
    14   10   12 1  
    15   12   13 1  
    16   13   14 1  
    17   13   22 1  
    18   14   15 2  
    19   15   16 1  
    20   16   17 ar 
    21   16   22 ar 
    22   17   18 1  
    23   17   19 ar 
    24   19   20 ar 
    25   20   21 ar 
    26   21   22 ar 
    27   23   24 ar 
    28   23   25 ar 
    29   23   26 1  
    30   26   27 1  
    31   27   28 1  
    32   28   29 1  
    33   28   30 1  
    34   29   34 1  
    35   30   31 1  
    36   30   32 1  
    37   32   33 1  
    38   32   34 1  
    39   34   35 1  
    40   35   36 1  
    41   35   44 1  
    42   36   37 2  
    43   37   38 1  
    44   38   39 ar 
    45   38   44 ar 
    46   39   40 1  
    47   39   41 ar 
    48   41   42 ar 
    49   42   43 ar 
    50   43   44 ar 
    51    5   45 1  
    52    5   46 1  
    53    6   47 1  
    54    8   48 1  
    55   10   49 1  
    56   11   50 1  
    57   12   51 1  
    58   14   52 1  
    59   18   53 1  
    60   18   54 1  
    61   20   55 1  
    62   27   56 1  
    63   27   57 1  
    64   28   58 1  
    65   30   59 1  
    66   32   60 1  
    67   33   61 1  
    68   34   62 1  
    69   36   63 1  
    70   40   64 1  
    71   40   65 1  
    72   42   66 1  
@<TRIPOS>SUBSTRUCTURE
     1 2BA         1

