5wa5_ligand
  -I-interpret- 

 82 87  0  0  0  0  0  0  0  0999 V2000
  -15.1360   11.2040   -6.7690 C   0  0  0  0  0
  -14.5140   11.5760   -8.0650 C   0  0  0  0  0
  -14.5380   10.6220   -9.0690 C   0  0  0  0  0
  -15.1280    9.4440   -8.8570 N   0  0  0  0  0
  -15.7140    9.9880   -6.6430 N   0  0  0  0  0
  -13.9150    4.5440    0.9920 C   0  0  0  0  0
  -13.2780    5.2560    2.1800 C   0  0  0  0  0
  -13.7700    4.6710    3.4340 N   0  3  0  0  0
  -13.1630    5.3710    4.5730 C   0  0  0  0  0
  -15.2320    4.8030    3.4940 C   0  0  0  0  0
  -15.8670    4.0890    2.3060 C   0  0  0  0  0
  -15.3770    4.6780    1.0530 N   0  3  0  0  0
  -15.9760    3.9970   -0.1050 C   0  0  0  0  0
  -15.4770    4.6620   -1.3850 C   0  0  0  0  0
  -16.1880    4.1270   -2.6240 C   0  0  0  0  0
  -17.4980    4.0680   -0.0230 C   0  0  0  0  0
  -18.1550    3.5480   -1.2970 C   0  0  0  0  0
  -17.6040    4.3450   -2.3820 N   0  0  0  0  0
  -18.3510    5.2060   -3.0740 C   0  0  0  0  0
  -19.5050    5.4250   -2.7500 O   0  0  0  0  0
  -17.8000    5.9280   -4.2760 C   0  0  0  0  0
  -17.5170    5.2120   -5.4330 C   0  0  0  0  0
  -17.0170    5.8720   -6.5480 C   0  0  0  0  0
  -16.7210    5.1970   -7.6990 O   0  0  0  0  0
  -16.0280    3.9520   -7.6340 C   0  0  0  0  0
  -17.5990    7.3100   -4.2320 C   0  0  0  0  0
  -17.0990    8.0130   -5.3330 C   0  0  0  0  0
  -16.8040    7.3340   -6.5080 C   0  0  0  0  0
  -16.2690    7.8970   -7.6170 N   0  0  0  0  0
  -15.7140    9.1250   -7.6810 C   0  0  0  0  0
  -15.1650   12.0760   -5.6840 N   0  0  0  0  0
  -14.6640   11.6370   -4.3910 C   0  0  0  0  0
  -15.7240   13.3430   -5.8300 C   0  0  0  0  0
  -16.7430   13.7270   -4.9710 C   0  0  0  0  0
  -17.3300   14.9800   -5.0930 C   0  0  0  0  0
  -16.9140   15.8670   -6.0790 C   0  0  0  0  0
  -15.9000   15.5240   -6.9650 C   0  0  0  0  0
  -15.2870   14.2810   -6.8920 C   0  0  0  0  0
  -14.1880   13.9890   -7.8720 C   0  0  0  0  0
  -13.5490   14.9540   -8.2590 O   0  0  0  0  0
  -13.8470   12.7840   -8.3310 N   0  0  0  0  0
  -12.6720   12.6240   -9.1740 C   0  0  0  0  0
  -14.0747   10.8336  -10.0327 H   0  0  0  0  0
  -13.6495    3.4872    1.0220 H   0  0  0  0  0
  -13.5514    4.9923    0.0674 H   0  0  0  0  0
  -13.5402    6.3135    2.1488 H   0  0  0  0  0
  -12.1952    5.1417    2.1299 H   0  0  0  0  0
  -13.5175    3.6835    3.4722 H   0  0  0  0  0
  -12.0789    5.2688    4.5248 H   0  0  0  0  0
  -13.4317    6.4266    4.5342 H   0  0  0  0  0
  -13.5293    4.9355    5.5026 H   0  0  0  0  0
  -15.4990    5.8593    3.4631 H   0  0  0  0  0
  -15.5956    4.3551    4.4188 H   0  0  0  0  0
  -16.9504    4.1981    2.3565 H   0  0  0  0  0
  -15.6013    3.0323    2.3361 H   0  0  0  0  0
  -15.6391    5.6634    1.0279 H   0  0  0  0  0
  -15.6835    2.9470   -0.1077 H   0  0  0  0  0
  -14.4125    4.4501   -1.4856 H   0  0  0  0  0
  -15.6771    5.7311   -1.3131 H   0  0  0  0  0
  -15.9680    3.0719   -2.7870 H   0  0  0  0  0
  -15.8538    4.6362   -3.5279 H   0  0  0  0  0
  -17.7869    5.1103    0.1121 H   0  0  0  0  0
  -17.8267    3.4481    0.8111 H   0  0  0  0  0
  -19.2400    3.6402   -1.2492 H   0  0  0  0  0
  -17.9525    2.4869   -1.4425 H   0  0  0  0  0
  -17.6869    4.1358   -5.4653 H   0  0  0  0  0
  -15.0593    4.1013   -7.1571 H   0  0  0  0  0
  -16.6149    3.2409   -7.0526 H   0  0  0  0  0
  -15.8821    3.5657   -8.6428 H   0  0  0  0  0
  -17.8376    7.8533   -3.3177 H   0  0  0  0  0
  -16.9415    9.0897   -5.2690 H   0  0  0  0  0
  -16.2871    7.3468   -8.4757 H   0  0  0  0  0
  -13.8723   12.3101   -4.0619 H   0  0  0  0  0
  -15.4770   11.6479   -3.6650 H   0  0  0  0  0
  -14.2686   10.6252   -4.4805 H   0  0  0  0  0
  -17.0852   13.0415   -4.1957 H   0  0  0  0  0
  -18.1260   15.2710   -4.4076 H   0  0  0  0  0
  -17.3895   16.8446   -6.1583 H   0  0  0  0  0
  -15.5829   16.2382   -7.7249 H   0  0  0  0  0
  -12.7899   13.2231  -10.0769 H   0  0  0  0  0
  -11.7878   12.9553   -8.6294 H   0  0  0  0  0
  -12.5611   11.5741   -9.4450 H   0  0  0  0  0
  1  2  4  0  0  0
  5  1  4  0  0  0
  1 31  1  0  0  0
  3  2  4  0  0  0
  2 41  1  0  0  0
  4  3  4  0  0  0
 30  4  4  0  0  0
 30  5  4  0  0  0
  6  7  1  0  0  0
 12  6  1  0  0  0
  7  8  1  0  0  0
  8  9  1  0  0  0
 10  8  1  0  0  0
 11 10  1  0  0  0
 12 11  1  0  0  0
 13 12  1  0  0  0
 14 13  1  0  0  0
 16 13  1  0  0  0
 15 14  1  0  0  0
 18 15  1  0  0  0
 17 16  1  0  0  0
 18 17  1  0  0  0
 19 18  1  0  0  0
 19 20  2  0  0  0
 21 19  1  0  0  0
 22 21  4  0  0  0
 26 21  4  0  0  0
 23 22  4  0  0  0
 23 24  1  0  0  0
 28 23  4  0  0  0
 24 25  1  0  0  0
 27 26  4  0  0  0
 28 27  4  0  0  0
 29 28  1  0  0  0
 29 30  1  0  0  0
 31 32  1  0  0  0
 31 33  1  0  0  0
 33 34  4  0  0  0
 33 38  4  0  0  0
 34 35  4  0  0  0
 35 36  4  0  0  0
 36 37  4  0  0  0
 37 38  4  0  0  0
 38 39  1  0  0  0
 39 40  2  0  0  0
 39 41  1  0  0  0
 41 42  1  0  0  0
  3 43  1  0  0  0
  6 44  1  0  0  0
  6 45  1  0  0  0
  7 46  1  0  0  0
  7 47  1  0  0  0
  8 48  1  0  0  0
  9 49  1  0  0  0
  9 50  1  0  0  0
  9 51  1  0  0  0
 10 52  1  0  0  0
 10 53  1  0  0  0
 11 54  1  0  0  0
 11 55  1  0  0  0
 12 56  1  0  0  0
 13 57  1  0  0  0
 14 58  1  0  0  0
 14 59  1  0  0  0
 15 60  1  0  0  0
 15 61  1  0  0  0
 16 62  1  0  0  0
 16 63  1  0  0  0
 17 64  1  0  0  0
 17 65  1  0  0  0
 22 66  1  0  0  0
 25 67  1  0  0  0
 25 68  1  0  0  0
 25 69  1  0  0  0
 26 70  1  0  0  0
 27 71  1  0  0  0
 29 72  1  0  0  0
 32 73  1  0  0  0
 32 74  1  0  0  0
 32 75  1  0  0  0
 34 76  1  0  0  0
 35 77  1  0  0  0
 36 78  1  0  0  0
 37 79  1  0  0  0
 42 80  1  0  0  0
 42 81  1  0  0  0
 42 82  1  0  0  0
M  END
$$$$
