### 
### Created by X-TOOL on Mon Sep 10 21:13:15 2018
### 

@<TRIPOS>MOLECULE
4dwb_ligand
   32    31     1     0     0
SMALL
GAST_HUCK


@<TRIPOS>ATOM
      1 O11        13.1500   13.2480  177.6410 O.co2     1 0M7        -0.5610
      2 P3         12.8000   14.0940  176.4560 P.3       1 0M7         0.0831
      3 O13        13.9690   14.3150  175.4870 O.co2     1 0M7        -0.5610
      4 O12        11.5200   13.6490  175.8060 O.co2     1 0M7        -0.5610
      5 C2         12.3270   15.7180  177.0850 C.3       1 0M7         0.1400
      6 P1         13.6660   16.5560  177.9900 P.3       1 0M7         0.0831
      7 O15        14.0210   15.5500  179.0580 O.co2     1 0M7        -0.5610
      8 O14        14.7090   16.7620  176.9020 O.co2     1 0M7        -0.5610
      9 O16        13.1300   17.8490  178.4860 O.co2     1 0M7        -0.5610
     10 C4         11.9670   16.5080  175.8390 C.3       1 0M7         0.0001
     11 N5         10.7570   17.2520  176.1600 N.4       1 0M7         0.2292
     12 C6         10.2870   18.2640  175.2400 C.3       1 0M7        -0.0336
     13 C7         11.3190   19.3850  175.1320 C.3       1 0M7        -0.0126
     14 C8         11.2510   20.0400  173.7650 C.3       1 0M7        -0.0485
     15 C9         10.4080   21.2840  173.8490 C.3       1 0M7        -0.0557
     16 C10         8.9970   20.9520  173.3720 C.3       1 0M7        -0.0653
     17 H1         11.4552   15.6239  177.7491 H         1 0M7         0.0732
     18 H2         11.7819   15.8259  174.9961 H         1 0M7         0.0845
     19 H3         12.7814   17.2001  175.5786 H         1 0M7         0.0845
     20 H4         10.9179   17.7092  177.0438 H         1 0M7         0.2014
     21 H5         10.0145   16.5778  176.2607 H         1 0M7         0.2014
     22 H6          9.3359   18.6774  175.6067 H         1 0M7         0.0814
     23 H7         10.1328   17.8130  174.2486 H         1 0M7         0.0814
     24 H8         12.3250   18.9667  175.2833 H         1 0M7         0.0317
     25 H9         11.1156   20.1400  175.9056 H         1 0M7         0.0317
     26 H10        10.8022   19.3404  173.0446 H         1 0M7         0.0267
     27 H11        12.2659   20.3059  173.4344 H         1 0M7         0.0267
     28 H12        10.8400   22.0678  173.2095 H         1 0M7         0.0263
     29 H13        10.3731   21.6379  174.8899 H         1 0M7         0.0263
     30 H14         8.3693   21.8536  173.4282 H         1 0M7         0.0230
     31 H15         8.5688   20.1667  174.0122 H         1 0M7         0.0230
     32 H16         9.0357   20.5965  172.3317 H         1 0M7         0.0230
@<TRIPOS>BOND
     1    1    2 ar 
     2    2    3 ar 
     3    2    4 ar 
     4    2    5 1  
     5    5    6 1  
     6    5   10 1  
     7    6    7 ar 
     8    6    8 ar 
     9    6    9 ar 
    10   10   11 1  
    11   11   12 1  
    12   12   13 1  
    13   13   14 1  
    14   14   15 1  
    15   15   16 1  
    16    5   17 1  
    17   10   18 1  
    18   10   19 1  
    19   11   20 1  
    20   11   21 1  
    21   12   22 1  
    22   12   23 1  
    23   13   24 1  
    24   13   25 1  
    25   14   26 1  
    26   14   27 1  
    27   15   28 1  
    28   15   29 1  
    29   16   30 1  
    30   16   31 1  
    31   16   32 1  
@<TRIPOS>SUBSTRUCTURE
     1 0M7         1

