4dwb_ligand
  -I-interpret- 

 36 35  0  0  0  0  0  0  0  0999 V2000
   13.1500   13.2480  177.6410 O   0  0  0  0  0
   12.8000   14.0940  176.4560 P   0  0  0  0  0
   13.9690   14.3150  175.4870 O   0  0  0  0  0
   11.5200   13.6490  175.8060 O   0  0  0  0  0
   12.3270   15.7180  177.0850 C   0  0  0  0  0
   13.6660   16.5560  177.9900 P   0  0  0  0  0
   14.0210   15.5500  179.0580 O   0  0  0  0  0
   14.7090   16.7620  176.9020 O   0  0  0  0  0
   13.1300   17.8490  178.4860 O   0  0  0  0  0
   11.9670   16.5080  175.8390 C   0  0  0  0  0
   10.7570   17.2520  176.1600 N   0  3  0  0  0
   10.2870   18.2640  175.2400 C   0  0  0  0  0
   11.3190   19.3850  175.1320 C   0  0  0  0  0
   11.2510   20.0400  173.7650 C   0  0  0  0  0
   10.4080   21.2840  173.8490 C   0  0  0  0  0
    8.9970   20.9520  173.3720 C   0  0  0  0  0
   13.6769   14.8625  174.7545 H   0  0  0  0  0
   11.3312   14.2143  175.0534 H   0  0  0  0  0
   11.5127   15.6317  177.8044 H   0  0  0  0  0
   14.3567   14.7512  178.6447 H   0  0  0  0  0
   15.0331   15.9085  176.6053 H   0  0  0  0  0
   11.8051   15.8455  174.9887 H   0  0  0  0  0
   12.7762   17.1807  175.5547 H   0  0  0  0  0
   10.9818   17.7603  177.0153 H   0  0  0  0  0
   10.0162   16.5511  176.1784 H   0  0  0  0  0
    9.3460   18.6746  175.6061 H   0  0  0  0  0
   10.1373   17.8162  174.2576 H   0  0  0  0  0
   12.3146   18.9647  175.2742 H   0  0  0  0  0
   11.1086   20.1347  175.8948 H   0  0  0  0  0
   10.8071   19.3467  173.0506 H   0  0  0  0  0
   12.2566   20.3029  173.4366 H   0  0  0  0  0
   10.8369   22.0650  173.2212 H   0  0  0  0  0
   10.3764   21.6411  174.8784 H   0  0  0  0  0
    9.0368   20.5999  172.3412 H   0  0  0  0  0
    8.5739   20.1737  174.0071 H   0  0  0  0  0
    8.3761   21.8461  173.4282 H   0  0  0  0  0
  1  2  2  0  0  0
  2  3  1  0  0  0
  2  4  1  0  0  0
  2  5  1  0  0  0
  5  6  1  0  0  0
  5 10  1  0  0  0
  6  7  1  0  0  0
  6  8  1  0  0  0
  6  9  2  0  0  0
 10 11  1  0  0  0
 11 12  1  0  0  0
 12 13  1  0  0  0
 13 14  1  0  0  0
 14 15  1  0  0  0
 15 16  1  0  0  0
  3 17  1  0  0  0
  4 18  1  0  0  0
  5 19  1  0  0  0
  7 20  1  0  0  0
  8 21  1  0  0  0
 10 22  1  0  0  0
 10 23  1  0  0  0
 11 24  1  0  0  0
 11 25  1  0  0  0
 12 26  1  0  0  0
 12 27  1  0  0  0
 13 28  1  0  0  0
 13 29  1  0  0  0
 14 30  1  0  0  0
 14 31  1  0  0  0
 15 32  1  0  0  0
 15 33  1  0  0  0
 16 34  1  0  0  0
 16 35  1  0  0  0
 16 36  1  0  0  0
M  END
$$$$
