3g8i_ligand
  -I-interpret- 

 54 57  0  0  0  0  0  0  0  0999 V2000
   45.5950   33.3750   37.1100 C   0  0  0  0  0
   46.7530   32.4120   37.1250 C   0  0  0  0  0
   47.7480   32.5800   38.0350 O   0  0  0  0  0
   48.6300   31.5530   37.7480 C   0  0  0  0  0
   49.8280   31.1940   38.3710 C   0  0  0  0  0
   50.5750   30.0860   37.9470 C   0  0  0  0  0
   51.7760   29.7400   38.5810 C   0  0  0  0  0
   52.2240   30.5280   39.6630 C   0  0  0  0  0
   51.4860   31.6320   40.0920 C   0  0  0  0  0
   50.2900   31.9670   39.4470 C   0  0  0  0  0
   48.2380   30.7570   36.7070 N   0  0  0  0  0
   47.0720   31.2530   36.2680 C   0  0  0  0  0
   46.1820   30.7880   35.1620 C   0  0  0  0  0
   46.4810   31.5270   33.8790 C   0  0  0  0  0
   45.6220   32.6470   33.8060 O   0  0  0  0  0
   45.8420   33.6110   32.8740 C   0  0  0  0  0
   46.6850   33.4120   31.7720 C   0  0  0  0  0
   46.8820   34.4300   30.8210 C   0  0  0  0  0
   45.1200   34.8690   33.0480 C   0  0  0  0  0
   44.2050   35.1840   34.1210 C   0  0  0  0  0
   43.7710   36.4980   33.8890 C   0  0  0  0  0
   45.3020   35.9310   32.0820 C   0  0  0  0  0
   44.4160   37.2470   32.4990 S   0  0  0  0  0
   46.2250   35.6790   30.9340 C   0  0  0  0  0
   46.5010   36.7250   29.8760 C   0  0  0  0  0
   47.7790   37.4680   30.2810 C   0  0  0  0  0
   47.4970   38.3590   31.3810 O   0  0  0  0  0
   48.6880   39.0080   31.8670 C   0  0  0  0  0
   48.3050   38.1990   29.0840 C   0  0  0  0  0
   49.0280   37.5890   28.2940 O   0  0  0  0  0
   47.9770   39.3710   28.8980 O   0  0  0  0  0
   45.0873   33.3458   38.0741 H   0  0  0  0  0
   45.9649   34.3831   36.9231 H   0  0  0  0  0
   44.8977   33.0905   36.3220 H   0  0  0  0  0
   50.2163   29.4846   37.1117 H   0  0  0  0  0
   52.3532   28.8786   38.2449 H   0  0  0  0  0
   53.1552   30.2718   40.1683 H   0  0  0  0  0
   51.8409   32.2332   40.9291 H   0  0  0  0  0
   49.7157   32.8309   39.7815 H   0  0  0  0  0
   45.1464   30.9798   35.4426 H   0  0  0  0  0
   46.3525   29.7236   35.0002 H   0  0  0  0  0
   46.3185   30.8728   33.0224 H   0  0  0  0  0
   47.5217   31.8507   33.8661 H   0  0  0  0  0
   47.1946   32.4562   31.6502 H   0  0  0  0  0
   47.5536   34.2536   29.9808 H   0  0  0  0  0
   43.9113   34.5326   34.9441 H   0  0  0  0  0
   43.0698   37.0053   34.5516 H   0  0  0  0  0
   45.6647   37.4200   29.8012 H   0  0  0  0  0
   46.6273   36.2551   28.9006 H   0  0  0  0  0
   48.5431   36.7687   30.6205 H   0  0  0  0  0
   49.3964   38.2543   32.2109 H   0  0  0  0  0
   49.1371   39.5902   31.0624 H   0  0  0  0  0
   48.4284   39.6687   32.6941 H   0  0  0  0  0
   49.1671   36.6948   28.6143 H   0  0  0  0  0
  1  2  1  0  0  0
  2  3  4  0  0  0
  2 12  4  0  0  0
  3  4  4  0  0  0
  4  5  1  0  0  0
  4 11  4  0  0  0
  5  6  4  0  0  0
  5 10  4  0  0  0
  6  7  4  0  0  0
  7  8  4  0  0  0
  8  9  4  0  0  0
  9 10  4  0  0  0
 11 12  4  0  0  0
 12 13  1  0  0  0
 13 14  1  0  0  0
 14 15  1  0  0  0
 15 16  1  0  0  0
 16 17  4  0  0  0
 16 19  4  0  0  0
 17 18  4  0  0  0
 18 24  4  0  0  0
 19 20  4  0  0  0
 19 22  4  0  0  0
 20 21  4  0  0  0
 21 23  4  0  0  0
 22 23  4  0  0  0
 22 24  4  0  0  0
 24 25  1  0  0  0
 25 26  1  0  0  0
 26 27  1  0  0  0
 26 29  1  0  0  0
 27 28  1  0  0  0
 29 30  1  0  0  0
 29 31  2  0  0  0
  1 32  1  0  0  0
  1 33  1  0  0  0
  1 34  1  0  0  0
  6 35  1  0  0  0
  7 36  1  0  0  0
  8 37  1  0  0  0
  9 38  1  0  0  0
 10 39  1  0  0  0
 13 40  1  0  0  0
 13 41  1  0  0  0
 14 42  1  0  0  0
 14 43  1  0  0  0
 17 44  1  0  0  0
 18 45  1  0  0  0
 20 46  1  0  0  0
 21 47  1  0  0  0
 25 48  1  0  0  0
 25 49  1  0  0  0
 26 50  1  0  0  0
 28 51  1  0  0  0
 28 52  1  0  0  0
 28 53  1  0  0  0
 30 54  1  0  0  0
M  END
$$$$
