5ewj_ligand
  -I-interpret- 

 52 54  0  0  0  0  0  0  0  0999 V2000
   80.2790    1.0070  -32.3670 C   0  0  0  0  0
   85.8880    6.5160  -32.0490 N   0  3  0  0  0
   85.6360    9.4850  -32.8330 O   0  0  0  0  0
   90.0250   10.2150  -30.8360 C   0  0  0  0  0
   91.5580   11.7410  -31.8950 O   0  0  0  0  0
   89.4340   11.3410  -32.8730 C   0  0  0  0  0
   82.2790    2.6020  -31.2350 C   0  0  0  0  0
   81.0890    3.1620  -31.7040 C   0  0  0  0  0
   80.0950    2.3690  -32.2590 C   0  0  0  0  0
   83.2600    3.4320  -30.4400 C   0  0  0  0  0
   84.3830    4.0830  -31.2590 C   0  0  0  0  0
   83.8480    5.0830  -32.2930 C   0  0  0  0  0
   81.4770    0.4380  -31.9420 C   0  0  0  0  0
   82.4670    1.2310  -31.3800 C   0  0  0  0  0
   84.9720    5.8510  -33.0080 C   0  0  0  0  0
   86.4670    5.5340  -31.1210 C   0  0  0  0  0
   85.3890    4.7810  -30.3470 C   0  0  0  0  0
   86.9360    7.4540  -32.5010 C   0  0  0  0  0
   86.6480    8.8880  -32.0110 C   0  0  0  0  0
   87.9130    9.7260  -31.9090 C   0  0  0  0  0
   88.8210    9.5290  -30.8720 C   0  0  0  0  0
   90.3420   11.1150  -31.8490 C   0  0  0  0  0
   88.2360   10.6520  -32.8970 C   0  0  0  0  0
   87.1940    7.4020  -33.9990 C   0  0  0  0  0
   79.4911    0.3789  -32.7828 H   0  0  0  0  0
   85.2321    7.1658  -31.6156 H   0  0  0  0  0
   85.4599   10.3769  -32.5247 H   0  0  0  0  0
   90.7228   10.0497  -30.0151 H   0  0  0  0  0
   91.5899   12.3198  -32.6602 H   0  0  0  0  0
   89.6650   12.0612  -33.6579 H   0  0  0  0  0
   80.9386    4.2392  -31.6330 H   0  0  0  0  0
   79.1682    2.8230  -32.6098 H   0  0  0  0  0
   83.7408    2.7553  -29.7336 H   0  0  0  0  0
   82.6893    4.2451  -29.9913 H   0  0  0  0  0
   84.8796    3.2761  -31.7979 H   0  0  0  0  0
   83.2267    5.8087  -31.7681 H   0  0  0  0  0
   83.2926    4.5231  -33.0454 H   0  0  0  0  0
   81.6374   -0.6346  -32.0513 H   0  0  0  0  0
   83.4005    0.7759  -31.0491 H   0  0  0  0  0
   85.5517    5.1386  -33.5949 H   0  0  0  0  0
   84.5161    6.6193  -33.6325 H   0  0  0  0  0
   87.0933    6.0668  -30.4055 H   0  0  0  0  0
   87.0401    4.8109  -31.7013 H   0  0  0  0  0
   85.8820    4.0160  -29.7471 H   0  0  0  0  0
   84.8441    5.5064  -29.7428 H   0  0  0  0  0
   87.8652    7.1208  -32.0389 H   0  0  0  0  0
   86.2615    8.8414  -30.9929 H   0  0  0  0  0
   88.5813    8.8242  -30.0759 H   0  0  0  0  0
   87.5296   10.8375  -33.7062 H   0  0  0  0  0
   86.3178    7.7734  -34.5304 H   0  0  0  0  0
   88.0567    8.0232  -34.2396 H   0  0  0  0  0
   87.3918    6.3723  -34.2968 H   0  0  0  0  0
  9  1  4  0  0  0
 13  1  4  0  0  0
  2 15  1  0  0  0
  2 16  1  0  0  0
 18  2  1  0  0  0
 19  3  1  0  0  0
 21  4  4  0  0  0
  4 22  4  0  0  0
 22  5  1  0  0  0
 22  6  4  0  0  0
  6 23  4  0  0  0
  7  8  4  0  0  0
 10  7  1  0  0  0
  7 14  4  0  0  0
  8  9  4  0  0  0
 11 10  1  0  0  0
 12 11  1  0  0  0
 17 11  1  0  0  0
 15 12  1  0  0  0
 14 13  4  0  0  0
 16 17  1  0  0  0
 19 18  1  0  0  0
 18 24  1  0  0  0
 20 19  1  0  0  0
 20 21  4  0  0  0
 20 23  4  0  0  0
  1 25  1  0  0  0
  2 26  1  0  0  0
  3 27  1  0  0  0
  4 28  1  0  0  0
  5 29  1  0  0  0
  6 30  1  0  0  0
  8 31  1  0  0  0
  9 32  1  0  0  0
 10 33  1  0  0  0
 10 34  1  0  0  0
 11 35  1  0  0  0
 12 36  1  0  0  0
 12 37  1  0  0  0
 13 38  1  0  0  0
 14 39  1  0  0  0
 15 40  1  0  0  0
 15 41  1  0  0  0
 16 42  1  0  0  0
 16 43  1  0  0  0
 17 44  1  0  0  0
 17 45  1  0  0  0
 18 46  1  0  0  0
 19 47  1  0  0  0
 21 48  1  0  0  0
 23 49  1  0  0  0
 24 50  1  0  0  0
 24 51  1  0  0  0
 24 52  1  0  0  0
M  END
$$$$
