6rj3_ligand
  -I-interpret- 

 45 47  0  0  0  0  0  0  0  0999 V2000
   19.5100  -12.5570    4.9320 C   0  0  0  0  0
   22.0240  -11.4570    2.4980 C   0  0  0  0  0
   18.6700  -12.5540    6.1480 C   0  0  0  0  0
   20.6450  -14.1780    2.0000 C   0  0  0  0  0
   16.8890  -13.5010    7.4520 C   0  0  0  0  0
   17.0970  -12.5620    8.4470 C   0  0  0  0  0
   23.2300   -8.8490    1.3260 C   0  0  0  0  0
   22.9560   -7.8780   -0.8740 C   0  0  0  0  0
   22.0870   -6.9100   -0.3430 C   0  0  0  0  0
   21.7940   -6.9330    1.0300 C   0  0  0  0  0
   21.4990   -5.8530   -1.1940 C   0  0  0  0  0
   18.0960  -11.6010    8.2980 C   0  0  0  0  0
   17.6650  -13.5280    6.3080 C   0  0  0  0  0
   18.8650  -11.5920    7.1500 C   0  0  0  0  0
   23.5120   -8.8350   -0.0380 C   0  0  0  0  0
   22.3680   -7.8840    1.8540 C   0  0  0  0  0
   20.4860  -11.6110    4.5610 C   0  0  0  0  0
   20.9960  -12.0740    3.3510 C   0  0  0  0  0
   24.9510   -9.2840    3.1190 C   0  0  0  0  0
   23.8860   -9.9060    2.2090 C   0  0  0  0  0
   19.5180  -13.5180    4.0400 N   0  0  0  0  0
   20.3650  -13.2640    3.1100 N   0  0  0  0  0
   22.8890  -10.5730    3.0510 N   0  0  0  0  0
   21.0170   -4.7460   -0.5940 O   0  0  0  0  0
   21.4830   -5.9560   -2.4100 O   0  0  0  0  0
   22.0680  -11.7070    1.2900 O   0  0  0  0  0
   20.4743  -13.6627    1.0548 H   0  0  0  0  0
   21.6831  -14.5060    2.0541 H   0  0  0  0  0
   19.9853  -15.0430    2.0680 H   0  0  0  0  0
   16.0942  -14.2371    7.5731 H   0  0  0  0  0
   16.4807  -12.5737    9.3459 H   0  0  0  0  0
   23.1922   -7.8769   -1.9381 H   0  0  0  0  0
   21.1092   -6.1960    1.4495 H   0  0  0  0  0
   18.2691  -10.8626    9.0809 H   0  0  0  0  0
   17.5022  -14.2886    5.5444 H   0  0  0  0  0
   19.6321  -10.8284    7.0216 H   0  0  0  0  0
   24.1804   -9.5882   -0.4551 H   0  0  0  0  0
   22.1468   -7.8808    2.9213 H   0  0  0  0  0
   20.7783  -10.7119    5.1035 H   0  0  0  0  0
   24.4806   -8.5604    3.7847 H   0  0  0  0  0
   25.4255  -10.0679    3.7093 H   0  0  0  0  0
   25.7017   -8.7829    2.5078 H   0  0  0  0  0
   24.3545  -10.6318    1.5443 H   0  0  0  0  0
   22.8465  -10.3723    4.0502 H   0  0  0  0  0
   21.1077   -4.8339    0.3577 H   0  0  0  0  0
  1  3  1  0  0  0
 17  1  4  0  0  0
  1 21  4  0  0  0
  2 18  1  0  0  0
 23  2  1  0  0  0
  2 26  2  0  0  0
  3 13  4  0  0  0
  3 14  4  0  0  0
 22  4  1  0  0  0
  5  6  4  0  0  0
 13  5  4  0  0  0
 12  6  4  0  0  0
  7 15  4  0  0  0
  7 16  4  0  0  0
 20  7  1  0  0  0
  8  9  4  0  0  0
 15  8  4  0  0  0
 10  9  4  0  0  0
  9 11  1  0  0  0
 16 10  4  0  0  0
 11 24  1  0  0  0
 11 25  2  0  0  0
 14 12  4  0  0  0
 18 17  4  0  0  0
 18 22  4  0  0  0
 20 19  1  0  0  0
 20 23  1  0  0  0
 21 22  4  0  0  0
  4 27  1  0  0  0
  4 28  1  0  0  0
  4 29  1  0  0  0
  5 30  1  0  0  0
  6 31  1  0  0  0
  8 32  1  0  0  0
 10 33  1  0  0  0
 12 34  1  0  0  0
 13 35  1  0  0  0
 14 36  1  0  0  0
 15 37  1  0  0  0
 16 38  1  0  0  0
 17 39  1  0  0  0
 19 40  1  0  0  0
 19 41  1  0  0  0
 19 42  1  0  0  0
 20 43  1  0  0  0
 23 44  1  0  0  0
 24 45  1  0  0  0
M  END
$$$$
