3rwp_ligand
  -I-interpret- 

 58 62  0  0  0  0  0  0  0  0999 V2000
   41.6170   27.5890   28.9170 C   0  0  0  0  0
   40.0570   25.7320   29.1040 C   0  0  0  0  0
   41.1640   28.0650   30.1260 C   0  0  0  0  0
   39.6120   26.2120   30.3420 C   0  0  0  0  0
   37.4060   30.1140   26.9890 C   0  0  0  0  0
   39.3320   29.0070   26.4450 C   0  0  0  0  0
   35.4090   26.5590   28.5820 C   0  0  0  0  0
   31.0370   26.2560   29.0630 C   0  0  0  0  0
   33.3170   27.4030   28.3310 C   0  0  0  0  0
   34.7290   27.6740   28.0890 C   0  0  0  0  0
   41.0610   26.4230   28.4020 C   0  0  0  0  0
   40.1820   27.3710   30.8160 C   0  0  0  0  0
   36.7590   28.9050   27.0380 C   0  0  0  0  0
   33.2240   26.1560   28.9450 C   0  0  0  0  0
   38.6730   27.7930   26.4730 C   0  0  0  0  0
   32.1050   28.0630   28.1300 C   0  0  0  0  0
   35.3080   28.8290   27.3920 C   0  0  0  0  0
   41.7010   24.5070   26.9190 C   0  0  0  0  0
   40.8750   25.3420   24.8890 C   0  0  0  0  0
   41.5930   26.0210   27.0630 C   0  0  0  0  0
   40.7150   26.5050   25.8710 C   0  0  0  0  0
   36.2460   24.2710   30.1970 C   0  0  0  0  0
   34.5760   23.3780   28.5110 C   0  0  0  0  0
   34.7890   24.3270   29.6840 C   0  0  0  0  0
   38.7370   30.1990   26.6770 N   0  0  0  0  0
   32.1030   25.5240   29.3220 N   0  0  0  0  0
   30.9600   27.4510   28.4900 N   0  0  0  0  0
   37.3590   27.7190   26.7800 N   0  0  0  0  0
   34.5120   25.6500   29.0970 N   0  0  0  0  0
   31.9790   29.3190   27.5510 N   0  0  0  0  0
   39.2760   26.5560   26.1520 N   0  0  0  0  0
   34.5730   29.6890   26.8550 O   0  0  0  0  0
   41.5790   24.2310   25.5000 O   0  0  0  0  0
   39.8220   27.8780   32.0130 F   0  0  0  0  0
   42.3991   28.1174   28.3717 H   0  0  0  0  0
   39.6255   24.8232   28.6846 H   0  0  0  0  0
   41.5761   28.9852   30.5401 H   0  0  0  0  0
   38.8430   25.6871   30.9088 H   0  0  0  0  0
   36.8490   31.0262   27.2029 H   0  0  0  0  0
   40.3989   29.0038   26.2218 H   0  0  0  0  0
   36.4908   26.4273   28.5622 H   0  0  0  0  0
   30.0846   25.8179   29.3616 H   0  0  0  0  0
   40.9223   23.9996   27.4884 H   0  0  0  0  0
   42.6486   24.1394   27.3128 H   0  0  0  0  0
   41.4510   25.6886   24.0309 H   0  0  0  0  0
   39.8839   25.0022   24.5885 H   0  0  0  0  0
   42.5721   26.4982   27.0221 H   0  0  0  0  0
   41.0174   27.5069   25.5661 H   0  0  0  0  0
   36.4756   23.2573   30.5252 H   0  0  0  0  0
   36.9242   24.5563   29.3928 H   0  0  0  0  0
   36.3621   24.9601   31.0335 H   0  0  0  0  0
   35.2420   23.6566   27.6943 H   0  0  0  0  0
   34.7933   22.3576   28.8267 H   0  0  0  0  0
   33.5409   23.4433   28.1758 H   0  0  0  0  0
   34.1597   24.0827   30.5398 H   0  0  0  0  0
   32.8095   29.8226   27.2395 H   0  0  0  0  0
   31.0560   29.7379   27.4373 H   0  0  0  0  0
   38.7150   25.7049   26.1159 H   0  0  0  0  0
  1  3  4  0  0  0
 11  1  4  0  0  0
  2  4  4  0  0  0
 11  2  4  0  0  0
  3 12  4  0  0  0
  4 12  4  0  0  0
 13  5  4  0  0  0
  5 25  4  0  0  0
 15  6  4  0  0  0
 25  6  4  0  0  0
  7 10  4  0  0  0
 29  7  4  0  0  0
 26  8  4  0  0  0
  8 27  4  0  0  0
  9 10  4  0  0  0
 14  9  4  0  0  0
  9 16  4  0  0  0
 10 17  1  0  0  0
 20 11  1  0  0  0
 12 34  1  0  0  0
 17 13  1  0  0  0
 13 28  4  0  0  0
 14 26  4  0  0  0
 29 14  4  0  0  0
 28 15  4  0  0  0
 15 31  1  0  0  0
 16 27  4  0  0  0
 16 30  1  0  0  0
 17 32  2  0  0  0
 20 18  1  0  0  0
 18 33  1  0  0  0
 21 19  1  0  0  0
 19 33  1  0  0  0
 21 20  1  0  0  0
 31 21  1  0  0  0
 24 22  1  0  0  0
 24 23  1  0  0  0
 24 29  1  0  0  0
  1 35  1  0  0  0
  2 36  1  0  0  0
  3 37  1  0  0  0
  4 38  1  0  0  0
  5 39  1  0  0  0
  6 40  1  0  0  0
  7 41  1  0  0  0
  8 42  1  0  0  0
 18 43  1  0  0  0
 18 44  1  0  0  0
 19 45  1  0  0  0
 19 46  1  0  0  0
 20 47  1  0  0  0
 21 48  1  0  0  0
 22 49  1  0  0  0
 22 50  1  0  0  0
 22 51  1  0  0  0
 23 52  1  0  0  0
 23 53  1  0  0  0
 23 54  1  0  0  0
 24 55  1  0  0  0
 30 56  1  0  0  0
 30 57  1  0  0  0
 31 58  1  0  0  0
M  END
$$$$
