3iqu_ligand
  -I-interpret- 

 99 98  0  0  0  0  0  0  0  0999 V2000
   -9.3840   -5.9010   15.5660 N   0  3  0  0  0
   -9.5800   -7.0640   14.6800 C   0  0  0  0  0
  -10.7580   -7.8880   15.1960 C   0  0  0  0  0
  -10.8040   -8.2760   16.4060 O   0  0  0  0  0
   -8.3120   -7.9410   14.5980 C   0  0  0  0  0
   -8.4740   -9.0930   13.5610 C   0  0  0  0  0
   -7.2360   -9.9810   13.4660 C   0  0  0  0  0
   -6.1280   -9.5090   13.9230 O   0  0  0  0  0
   -7.3570  -11.2960   12.8920 N   0  0  0  0  0
  -11.7320   -8.1540   14.3200 N   0  0  0  0  0
  -12.8760   -9.0040   14.7140 C   0  0  0  0  0
  -12.5330  -10.4360   14.3710 C   0  0  0  0  0
  -11.6160  -10.7210   13.5750 O   0  0  0  0  0
  -14.2020   -8.5550   14.0460 C   0  0  0  0  0
  -14.9610   -7.3550   14.7030 C   0  0  0  0  0
  -16.2170   -6.8650   13.9510 C   0  0  0  0  0
  -17.1970   -7.9590   13.7610 N   0  0  0  0  0
  -18.0970   -8.3500   14.6370 C   0  0  0  0  0
  -18.1940   -7.7780   15.8080 N   0  0  0  0  0
  -18.8810   -9.3810   14.3310 N   0  0  0  0  0
  -13.2690  -11.3890   14.9610 N   0  0  0  0  0
  -13.1760  -12.7630   14.5580 C   0  0  0  0  0
  -13.6320  -12.8900   13.1030 C   0  0  0  0  0
  -14.5540  -12.2000   12.6940 O   0  0  0  0  0
  -14.0250  -13.6320   15.4230 C   0  0  0  0  0
  -13.5420  -13.6770   16.7870 O   0  0  0  0  0
  -12.9580  -13.7720   12.3490 N   0  0  0  0  0
  -13.2700  -13.9940   10.9530 C   0  0  0  0  0
  -14.2460  -15.1260   10.7860 C   0  0  0  0  0
  -14.0320  -16.2050   11.3070 O   0  0  0  0  0
  -11.9630  -14.3460   10.1900 C   0  0  0  0  0
  -11.0080  -13.3090   10.3330 O   0  0  0  0  0
  -12.2580  -14.5810    8.7610 C   0  0  0  0  0
  -15.2780  -14.8670   10.0040 N   0  0  0  0  0
  -16.2390  -15.8700    9.5880 C   0  0  0  0  0
  -17.6140  -15.5820   10.1080 C   0  0  0  0  0
  -18.0100  -14.2970    9.5690 O   0  0  0  0  0
  -16.2400  -15.9650    8.0640 C   0  0  0  0  0
  -15.6140  -15.1290    7.4120 O   0  0  0  0  0
  -19.4270  -13.6790    9.9900 P   0  0  0  0  0
  -19.3910  -13.3510   11.4650 O   0  0  0  0  0
  -20.4700  -14.7070    9.6760 O   0  0  0  0  0
  -19.5220  -12.4340    9.1420 O   0  0  0  0  0
  -16.9210  -16.9470    7.5160 N   0  0  0  0  0
  -16.9830  -17.0930    6.0950 C   0  0  0  0  0
  -18.4170  -17.4810    5.6310 C   0  0  0  0  0
  -19.1610  -18.0810    6.3030 O   0  0  0  0  0
  -16.0350  -18.1190    5.5780 C   0  0  0  0  0
  -15.8260  -17.9310    4.1640 O   0  0  0  0  0
  -16.6700  -19.5700    5.9830 C   0  0  0  0  0
  -18.7260  -17.2020    4.4600 O   0  0  0  0  0
  -10.2407   -5.3482   15.5939 H   0  0  0  0  0
   -9.1566   -6.2256   16.5059 H   0  0  0  0  0
   -8.6196   -5.3279   15.2087 H   0  0  0  0  0
   -9.7880   -6.7012   13.6734 H   0  0  0  0  0
   -8.1366   -8.3837   15.5785 H   0  0  0  0  0
   -7.4789   -7.3117   14.2849 H   0  0  0  0  0
   -8.6369   -8.6412   12.5825 H   0  0  0  0  0
   -9.3084   -9.7165   13.8820 H   0  0  0  0  0
   -6.5399  -11.9037   12.8326 H   0  0  0  0  0
   -8.2598  -11.6198   12.5448 H   0  0  0  0  0
  -11.6859   -7.7693   13.3765 H   0  0  0  0  0
  -13.0451   -8.9078   15.7865 H   0  0  0  0  0
  -14.8756   -9.4087   14.1208 H   0  0  0  0  0
  -13.9313   -8.2219   13.0441 H   0  0  0  0  0
  -14.2628   -6.5180   14.7160 H   0  0  0  0  0
  -15.3011   -7.7019   15.6787 H   0  0  0  0  0
  -15.9119   -6.5005   12.9701 H   0  0  0  0  0
  -16.6876   -6.0784   14.5408 H   0  0  0  0  0
  -17.1718   -8.4544   12.8697 H   0  0  0  0  0
  -17.5652   -7.0142   16.0561 H   0  0  0  0  0
  -19.5587   -9.7258   15.0109 H   0  0  0  0  0
  -18.8041   -9.8264   13.4166 H   0  0  0  0  0
  -13.9088  -11.1317   15.7125 H   0  0  0  0  0
  -12.1402  -13.0873   14.6581 H   0  0  0  0  0
  -13.9996  -14.6440   15.0189 H   0  0  0  0  0
  -15.0346  -13.2212   15.4323 H   0  0  0  0  0
  -14.1137  -14.2446   17.3091 H   0  0  0  0  0
  -12.1993  -14.3046   12.7744 H   0  0  0  0  0
  -13.7191  -13.0845   10.5540 H   0  0  0  0  0
  -11.5448  -15.2573   10.6174 H   0  0  0  0  0
  -10.2087  -13.5436    9.8559 H   0  0  0  0  0
  -12.9616  -15.4082    8.6678 H   0  0  0  0  0
  -12.6944  -13.6806    8.3286 H   0  0  0  0  0
  -11.3347  -14.8268    8.2364 H   0  0  0  0  0
  -15.4060  -13.9101    9.6749 H   0  0  0  0  0
  -15.9406  -16.8285   10.0126 H   0  0  0  0  0
  -17.6176  -15.5608   11.1978 H   0  0  0  0  0
  -18.3129  -16.3605    9.8021 H   0  0  0  0  0
  -18.7132  -12.6911   11.6285 H   0  0  0  0  0
  -18.8274  -11.8218    9.3955 H   0  0  0  0  0
  -17.4115  -17.6134    8.1123 H   0  0  0  0  0
  -16.7021  -16.1209    5.6897 H   0  0  0  0  0
  -15.0393  -18.0417    6.0148 H   0  0  0  0  0
  -15.2142  -18.5965    3.8408 H   0  0  0  0  0
  -16.7653  -19.6337    7.0670 H   0  0  0  0  0
  -17.6528  -19.6760    5.5237 H   0  0  0  0  0
  -16.0138  -20.3644    5.6274 H   0  0  0  0  0
  -18.0104  -16.7109    4.0497 H   0  0  0  0  0
  1  2  1  0  0  0
  2  3  1  0  0  0
  2  5  1  0  0  0
  3  4  2  0  0  0
  3 10  1  0  0  0
  5  6  1  0  0  0
  6  7  1  0  0  0
  7  8  2  0  0  0
  7  9  1  0  0  0
 10 11  1  0  0  0
 11 12  1  0  0  0
 11 14  1  0  0  0
 12 13  2  0  0  0
 12 21  1  0  0  0
 14 15  1  0  0  0
 15 16  1  0  0  0
 16 17  1  0  0  0
 17 18  1  0  0  0
 18 19  2  0  0  0
 18 20  1  0  0  0
 21 22  1  0  0  0
 22 23  1  0  0  0
 22 25  1  0  0  0
 23 24  2  0  0  0
 23 27  1  0  0  0
 25 26  1  0  0  0
 27 28  1  0  0  0
 28 29  1  0  0  0
 28 31  1  0  0  0
 29 30  2  0  0  0
 29 34  1  0  0  0
 31 32  1  0  0  0
 31 33  1  0  0  0
 34 35  1  0  0  0
 35 36  1  0  0  0
 35 38  1  0  0  0
 36 37  1  0  0  0
 37 40  1  0  0  0
 38 39  2  0  0  0
 38 44  1  0  0  0
 40 41  1  0  0  0
 40 42  2  0  0  0
 40 43  1  0  0  0
 44 45  1  0  0  0
 45 46  1  0  0  0
 45 48  1  0  0  0
 46 47  2  0  0  0
 46 51  1  0  0  0
 48 49  1  0  0  0
 48 50  1  0  0  0
  1 52  1  0  0  0
  1 53  1  0  0  0
  1 54  1  0  0  0
  2 55  1  0  0  0
  5 56  1  0  0  0
  5 57  1  0  0  0
  6 58  1  0  0  0
  6 59  1  0  0  0
  9 60  1  0  0  0
  9 61  1  0  0  0
 10 62  1  0  0  0
 11 63  1  0  0  0
 14 64  1  0  0  0
 14 65  1  0  0  0
 15 66  1  0  0  0
 15 67  1  0  0  0
 16 68  1  0  0  0
 16 69  1  0  0  0
 17 70  1  0  0  0
 19 71  1  0  0  0
 20 72  1  0  0  0
 20 73  1  0  0  0
 21 74  1  0  0  0
 22 75  1  0  0  0
 25 76  1  0  0  0
 25 77  1  0  0  0
 26 78  1  0  0  0
 27 79  1  0  0  0
 28 80  1  0  0  0
 31 81  1  0  0  0
 32 82  1  0  0  0
 33 83  1  0  0  0
 33 84  1  0  0  0
 33 85  1  0  0  0
 34 86  1  0  0  0
 35 87  1  0  0  0
 36 88  1  0  0  0
 36 89  1  0  0  0
 41 90  1  0  0  0
 43 91  1  0  0  0
 44 92  1  0  0  0
 45 93  1  0  0  0
 48 94  1  0  0  0
 49 95  1  0  0  0
 50 96  1  0  0  0
 50 97  1  0  0  0
 50 98  1  0  0  0
 51 99  1  0  0  0
M  END
$$$$
