3g0g_ligand
  -I-interpret- 

 44 46  0  0  0  0  0  0  0  0999 V2000
   40.8130    0.4950   16.4140 N   0  0  0  0  0
   40.4010    1.2910   15.6730 C   0  0  0  0  0
   39.9170    2.1800   14.8700 C   0  0  0  0  0
   38.5340    2.3950   14.8540 C   0  0  0  0  0
   37.9740    3.3670   14.0090 C   0  0  0  0  0
   38.7730    4.1230   13.1510 C   0  0  0  0  0
   40.1580    3.9300   13.1180 C   0  0  0  0  0
   40.7780    2.9860   13.9430 C   0  0  0  0  0
   42.2850    2.8530   13.8750 C   0  0  0  0  0
   42.7440    1.4640   13.7100 N   0  0  0  0  0
   43.6600    0.8340   14.6250 C   0  0  0  0  0
   44.0640   -0.4440   14.4070 N   0  0  0  0  0
   43.6390   -1.1970   13.3730 C   0  0  0  0  0
   42.7360   -0.6770   12.4460 C   0  0  0  0  0
   42.0940   -1.6440   10.9430 Br  0  0  0  0  0
   42.2650    0.7120   12.6090 C   0  0  0  0  0
   41.4640    1.1520   11.7540 O   0  0  0  0  0
   44.2560    1.5000   15.7160 N   0  0  0  0  0
   44.2280    0.9590   17.0860 C   0  0  0  0  0
   44.4610    2.0740   18.1230 C   0  0  0  0  0
   43.2740    2.8910   18.2360 N   0  3  0  0  0
   45.6340    2.9730   17.7330 C   0  0  0  0  0
   45.2490    3.6920   16.4490 C   0  0  0  0  0
   45.0000    2.7070   15.3120 C   0  0  0  0  0
   37.8870    1.8038   15.5020 H   0  0  0  0  0
   36.8969    3.5335   14.0238 H   0  0  0  0  0
   38.3149    4.8692   12.5019 H   0  0  0  0  0
   40.7652    4.5262   12.4369 H   0  0  0  0  0
   42.6897    3.2225   14.8172 H   0  0  0  0  0
   42.6251    3.4163   13.0060 H   0  0  0  0  0
   44.7267   -0.8576   15.0629 H   0  0  0  0  0
   44.0031   -2.2182   13.2607 H   0  0  0  0  0
   45.0201    0.2168   17.1857 H   0  0  0  0  0
   43.2504    0.5119   17.2661 H   0  0  0  0  0
   44.6904    1.5934   19.0741 H   0  0  0  0  0
   43.4337    3.6273   18.9236 H   0  0  0  0  0
   43.0635    3.3099   17.3301 H   0  0  0  0  0
   42.4901    2.3103   18.5338 H   0  0  0  0  0
   46.5362    2.3801   17.5830 H   0  0  0  0  0
   45.8441    3.6918   18.5250 H   0  0  0  0  0
   46.0687    4.3509   16.1625 H   0  0  0  0  0
   44.3315    4.2524   16.6282 H   0  0  0  0  0
   44.3979    3.2225   14.5638 H   0  0  0  0  0
   45.9742    2.3797   14.9487 H   0  0  0  0  0
  1  2  3  0  0  0
  2  3  1  0  0  0
  3  4  4  0  0  0
  3  8  4  0  0  0
  4  5  4  0  0  0
  5  6  4  0  0  0
  6  7  4  0  0  0
  7  8  4  0  0  0
  8  9  1  0  0  0
  9 10  1  0  0  0
 10 11  4  0  0  0
 10 16  1  0  0  0
 11 12  1  0  0  0
 11 18  1  0  0  0
 12 13  1  0  0  0
 13 14  2  0  0  0
 14 15  1  0  0  0
 14 16  1  0  0  0
 16 17  2  0  0  0
 18 19  1  0  0  0
 18 24  1  0  0  0
 19 20  1  0  0  0
 20 21  1  0  0  0
 20 22  1  0  0  0
 22 23  1  0  0  0
 23 24  1  0  0  0
  4 25  1  0  0  0
  5 26  1  0  0  0
  6 27  1  0  0  0
  7 28  1  0  0  0
  9 29  1  0  0  0
  9 30  1  0  0  0
 12 31  1  0  0  0
 13 32  1  0  0  0
 19 33  1  0  0  0
 19 34  1  0  0  0
 20 35  1  0  0  0
 21 36  1  0  0  0
 21 37  1  0  0  0
 21 38  1  0  0  0
 22 39  1  0  0  0
 22 40  1  0  0  0
 23 41  1  0  0  0
 23 42  1  0  0  0
 24 43  1  0  0  0
 24 44  1  0  0  0
M  END
$$$$
