5ehn_ligand
  -I-interpret- 

 93100  0  0  0  0  0  0  0  0999 V2000
   36.9630   21.7440    4.2710 N   0  0  0  0  0
   37.5080   22.7730    4.9570 C   0  0  0  0  0
   38.8600   23.0980    4.7970 C   0  0  0  0  0
   39.4630   24.0580    5.6220 C   0  0  0  0  0
   38.7140   24.7060    6.6140 C   0  0  0  0  0
   36.7220   23.4240    5.9050 C   0  0  0  0  0
   37.2570   24.3680    6.7980 C   0  0  0  0  0
   36.4870   24.9350    7.7810 N   0  0  0  0  0
   37.0240   25.9290    8.6510 C   0  0  0  0  0
   36.1730   26.4980    9.7300 C   0  0  0  0  0
   36.1210   25.8300   10.9630 C   0  0  0  0  0
   35.2990   26.3230   11.9800 C   0  0  0  0  0
   34.5580   27.4960   11.7640 C   0  0  0  0  0
   34.6060   28.1640   10.5350 C   0  0  0  0  0
   35.4270   27.6660    9.5140 C   0  0  0  0  0
   38.4610   26.3420    8.5480 C   0  0  0  0  0
   39.0320   27.2750    9.4160 C   0  0  0  0  0
   39.3270   25.7400    7.4910 C   0  0  0  0  0
   40.6590   26.1570    7.3590 C   0  0  0  0  0
   41.1950   27.0440    8.2950 C   0  0  0  0  0
   40.3830   27.6170    9.2890 C   0  0  0  0  0
   40.8990   28.5600   10.1180 N   0  0  0  0  0
   35.0370   24.6200    7.8670 C   0  0  0  0  0
   34.7400   23.3540    8.6650 C   0  0  0  0  0
   33.2590   23.0170    8.6630 C   0  0  0  0  0
   32.9830   22.3450    9.9930 C   0  0  0  0  0
   31.5140   22.0240   10.1650 C   0  0  0  0  0
   31.3300   21.0560   11.3150 C   0  0  0  0  0
   31.3630   21.3530   12.6180 N   0  0  0  0  0
   31.0870   20.2270   13.3780 N   0  0  0  0  0
   30.9180   19.1810   12.4640 N   0  0  0  0  0
   31.0440   19.6950   11.2160 C   0  0  0  0  0
   31.4890   22.6210   13.3260 C   0  0  0  0  0
   30.8630   22.5150   14.6770 C   0  0  0  0  0
   29.5220   23.0210   14.8020 N   0  0  0  0  0
   28.4070   22.3000   14.5520 C   0  0  0  0  0
   27.3680   23.0210   13.7720 C   0  0  0  0  0
   27.5690   24.3490   13.3630 C   0  0  0  0  0
   26.0870   22.3310   13.4780 C   0  0  0  0  0
   25.1390   23.0040   12.7120 C   0  0  0  0  0
   25.3970   24.3100   12.3080 C   0  0  0  0  0
   26.5380   25.0000   12.7200 C   0  0  0  0  0
   25.8730   21.0570   13.8770 N   0  0  0  0  0
   26.7430   20.3330   14.6250 C   0  0  0  0  0
   26.3220   18.9060   14.9740 C   0  0  0  0  0
   28.0510   20.9400   15.0750 C   0  0  0  0  0
   28.9720   20.1250   15.9630 C   0  0  0  0  0
   28.1660   19.0380   16.6890 C   0  0  0  0  0
   27.4110   18.1410   15.7070 C   0  0  0  0  0
   37.5379   21.1969    3.6302 H   0  0  0  0  0
   35.9768   21.5145    4.3940 H   0  0  0  0  0
   39.4483   22.6012    4.0255 H   0  0  0  0  0
   40.5175   24.3012    5.4916 H   0  0  0  0  0
   35.6578   23.1938    5.9558 H   0  0  0  0  0
   36.8458   26.6186    7.8259 H   0  0  0  0  0
   36.7177   24.9326   11.1264 H   0  0  0  0  0
   35.2335   25.8005   12.9344 H   0  0  0  0  0
   33.9356   27.8926   12.5661 H   0  0  0  0  0
   34.0107   29.0627   10.3735 H   0  0  0  0  0
   35.4855   28.1839    8.5567 H   0  0  0  0  0
   38.4244   27.7376   10.1937 H   0  0  0  0  0
   41.2704   25.7923    6.5336 H   0  0  0  0  0
   42.2550   27.2948    8.2543 H   0  0  0  0  0
   40.3043   29.0049   10.8171 H   0  0  0  0  0
   41.8814   28.8236   10.0418 H   0  0  0  0  0
   34.6737   24.4618    6.8516 H   0  0  0  0  0
   34.5491   25.4516    8.3754 H   0  0  0  0  0
   35.0513   23.5195    9.6964 H   0  0  0  0  0
   35.2794   22.5259    8.2051 H   0  0  0  0  0
   33.0036   22.3630    7.8292 H   0  0  0  0  0
   32.6501   23.9125    8.5387 H   0  0  0  0  0
   33.2809   23.0264   10.7900 H   0  0  0  0  0
   33.5446   21.4115   10.0288 H   0  0  0  0  0
   31.1351   21.5707    9.2490 H   0  0  0  0  0
   30.9674   22.9428   10.3771 H   0  0  0  0  0
   30.9389   19.1354   10.2865 H   0  0  0  0  0
   30.9841   23.4015   12.7568 H   0  0  0  0  0
   32.5452   22.8660   13.4381 H   0  0  0  0  0
   31.4780   23.1193   15.3439 H   0  0  0  0  0
   30.8069   21.4499   14.9019 H   0  0  0  0  0
   29.4051   23.9896   15.0995 H   0  0  0  0  0
   28.5173   24.8530   13.5494 H   0  0  0  0  0
   24.2065   22.5138   12.4324 H   0  0  0  0  0
   24.6863   24.8096   11.6496 H   0  0  0  0  0
   26.6151   26.0706   12.5303 H   0  0  0  0  0
   26.1104   18.3805   14.0428 H   0  0  0  0  0
   25.4520   18.9625   15.6283 H   0  0  0  0  0
   29.4370   20.7811   16.6988 H   0  0  0  0  0
   29.7409   19.6548   15.3500 H   0  0  0  0  0
   27.4380   19.5261   17.3370 H   0  0  0  0  0
   28.8600   18.4177   17.2562 H   0  0  0  0  0
   28.1205   17.7623   14.9713 H   0  0  0  0  0
   26.9447   17.3316   16.2687 H   0  0  0  0  0
  1  2  1  0  0  0
  2  3  4  0  0  0
  2  6  4  0  0  0
  3  4  4  0  0  0
  4  5  4  0  0  0
  5  7  4  0  0  0
  5 18  1  0  0  0
  6  7  4  0  0  0
  7  8  1  0  0  0
  8  9  1  0  0  0
  8 23  1  0  0  0
  9 10  1  0  0  0
  9 16  1  0  0  0
 10 11  4  0  0  0
 10 15  4  0  0  0
 11 12  4  0  0  0
 12 13  4  0  0  0
 13 14  4  0  0  0
 14 15  4  0  0  0
 16 17  4  0  0  0
 16 18  4  0  0  0
 17 21  4  0  0  0
 18 19  4  0  0  0
 19 20  4  0  0  0
 20 21  4  0  0  0
 21 22  1  0  0  0
 23 24  1  0  0  0
 24 25  1  0  0  0
 25 26  1  0  0  0
 26 27  1  0  0  0
 27 28  1  0  0  0
 28 29  4  0  0  0
 28 32  4  0  0  0
 29 30  4  0  0  0
 29 33  1  0  0  0
 30 31  4  0  0  0
 31 32  4  0  0  0
 33 34  1  0  0  0
 34 35  1  0  0  0
 35 36  1  0  0  0
 36 37  4  0  0  0
 36 46  4  0  0  0
 37 38  4  0  0  0
 37 39  4  0  0  0
 38 42  4  0  0  0
 39 40  4  0  0  0
 39 43  4  0  0  0
 40 41  4  0  0  0
 41 42  4  0  0  0
 43 44  4  0  0  0
 44 45  1  0  0  0
 44 46  4  0  0  0
 45 49  1  0  0  0
 46 47  1  0  0  0
 47 48  1  0  0  0
 48 49  1  0  0  0
  1 50  1  0  0  0
  1 51  1  0  0  0
  3 52  1  0  0  0
  4 53  1  0  0  0
  6 54  1  0  0  0
  9 55  1  0  0  0
 11 56  1  0  0  0
 12 57  1  0  0  0
 13 58  1  0  0  0
 14 59  1  0  0  0
 15 60  1  0  0  0
 17 61  1  0  0  0
 19 62  1  0  0  0
 20 63  1  0  0  0
 22 64  1  0  0  0
 22 65  1  0  0  0
 23 66  1  0  0  0
 23 67  1  0  0  0
 24 68  1  0  0  0
 24 69  1  0  0  0
 25 70  1  0  0  0
 25 71  1  0  0  0
 26 72  1  0  0  0
 26 73  1  0  0  0
 27 74  1  0  0  0
 27 75  1  0  0  0
 32 76  1  0  0  0
 33 77  1  0  0  0
 33 78  1  0  0  0
 34 79  1  0  0  0
 34 80  1  0  0  0
 35 81  1  0  0  0
 38 82  1  0  0  0
 40 83  1  0  0  0
 41 84  1  0  0  0
 42 85  1  0  0  0
 45 86  1  0  0  0
 45 87  1  0  0  0
 47 88  1  0  0  0
 47 89  1  0  0  0
 48 90  1  0  0  0
 48 91  1  0  0  0
 49 92  1  0  0  0
 49 93  1  0  0  0
M  END
$$$$
