### 
### Created by X-TOOL on Mon Sep 10 21:12:48 2018
### 

@<TRIPOS>MOLECULE
1dpu_ligand
  278   277     1     0     0
SMALL
GAST_HUCK


@<TRIPOS>ATOM
      1 N          -7.8430  -13.0140  -16.8670 N.4       1 ARG         0.2379
      2 CA         -7.6870  -11.9800  -15.8260 C.3       1 ARG         0.0651
      3 C          -6.6010  -10.9820  -16.2380 C.2       1 ARG         0.2267
      4 O          -6.9060   -9.8780  -16.6870 O.2       1 ARG        -0.3907
      5 CB         -7.4130  -12.5930  -14.4430 C.3       1 ARG         0.0110
      6 CG         -8.5400  -13.5360  -13.9980 C.3       1 ARG        -0.0125
      7 CD         -8.2970  -14.0420  -12.5710 C.3       1 ARG         0.0629
      8 NE         -8.3440  -12.9470  -11.5920 N.pl3     1 ARG        -0.2723
      9 CZ         -9.4560  -12.3970  -11.0840 C.cat     1 ARG         0.2882
     10 NH1       -10.6660  -12.8390  -11.4420 N.pl3     1 ARG        -0.2849
     11 NH2        -9.3350  -11.3910  -10.2140 N.pl3     1 ARG        -0.2849
     12 N          -5.3340  -11.3870  -16.1320 N.am      1 ILE        -0.2608
     13 CA         -4.2190  -10.6220  -16.6660 C.3       1 ILE         0.1336
     14 C          -4.2920  -10.6890  -18.1920 C.2       1 ILE         0.2042
     15 O          -4.3970  -11.7740  -18.7590 O.2       1 ILE        -0.3944
     16 CB         -2.8940  -11.1920  -16.1250 C.3       1 ILE        -0.0037
     17 CG1        -2.7570  -10.9140  -14.6160 C.3       1 ILE        -0.0491
     18 CG2        -1.6760  -10.6020  -16.8540 C.3       1 ILE        -0.0582
     19 CD1        -2.0540  -12.0710  -13.9030 C.3       1 ILE        -0.0648
     20 N          -4.2410   -9.5310  -18.8480 N.am      1 GLN        -0.2636
     21 CA         -4.1080   -9.4090  -20.2890 C.3       1 GLN         0.1330
     22 C          -3.3260   -8.1210  -20.5830 C.2       1 GLN         0.2040
     23 O          -2.1860   -7.9980  -20.1370 O.2       1 GLN        -0.3944
     24 CB         -5.4670   -9.5860  -21.0060 C.3       1 GLN         0.0045
     25 CG         -6.7150   -9.2060  -20.1900 C.3       1 GLN         0.0412
     26 CD         -6.6690   -7.7790  -19.6610 C.2       1 GLN         0.1737
     27 OE1        -6.4990   -6.8410  -20.4330 O.2       1 GLN        -0.3973
     28 NE2        -6.7910   -7.5990  -18.3510 N.am      1 GLN        -0.3009
     29 N          -3.9000   -7.1360  -21.2780 N.am      1 ARG        -0.2637
     30 CA         -3.1890   -5.9240  -21.6770 C.3       1 ARG         0.1311
     31 C          -3.1620   -4.9040  -20.5300 C.2       1 ARG         0.2040
     32 O          -3.4650   -3.7270  -20.7130 O.2       1 ARG        -0.3944
     33 CB         -3.7840   -5.3800  -22.9870 C.3       1 ARG        -0.0092
     34 CG         -5.2800   -5.0330  -22.9120 C.3       1 ARG        -0.0156
     35 CD         -5.7330   -4.3410  -24.2030 C.3       1 ARG         0.0627
     36 NE         -7.1520   -3.9630  -24.1370 N.pl3     1 ARG        -0.2723
     37 CZ         -8.1890   -4.7940  -24.3190 C.cat     1 ARG         0.2882
     38 NH1        -7.9850   -6.0910  -24.5730 N.pl3     1 ARG        -0.2849
     39 NH2        -9.4360   -4.3160  -24.2450 N.pl3     1 ARG        -0.2849
     40 N          -2.7710   -5.3570  -19.3360 N.am      1 ASN        -0.2616
     41 CA         -2.8830   -4.6030  -18.0910 C.3       1 ASN         0.1476
     42 C          -2.1910   -3.2420  -18.1860 C.2       1 ASN         0.2063
     43 O          -2.7740   -2.2170  -17.8310 O.2       1 ASN        -0.3942
     44 CB         -2.3370   -5.4260  -16.9150 C.3       1 ASN         0.0773
     45 CG         -3.1800   -6.6540  -16.5770 C.2       1 ASN         0.1780
     46 OD1        -3.9740   -7.1240  -17.3860 O.2       1 ASN        -0.3970
     47 ND2        -3.0160   -7.1930  -15.3760 N.am      1 ASN        -0.3007
     48 N          -0.9510   -3.2190  -18.6820 N.am      1 LYS        -0.2636
     49 CA         -0.2210   -1.9700  -18.8430 C.3       1 LYS         0.1310
     50 C          -0.9840   -1.0180  -19.7690 C.2       1 LYS         0.2039
     51 O          -1.1370    0.1610  -19.4560 O.2       1 LYS        -0.3944
     52 CB          1.1990   -2.2360  -19.3620 C.3       1 LYS        -0.0122
     53 CG          2.0150   -0.9390  -19.3260 C.3       1 LYS        -0.0440
     54 CD          3.4890   -1.1870  -19.6560 C.3       1 LYS        -0.0124
     55 CE          4.2150    0.1300  -19.9570 C.3       1 LYS        -0.0354
     56 NZ          4.1080    1.0890  -18.8440 N.4       1 LYS         0.2185
     57 N          -1.4630   -1.5240  -20.9090 N.am      1 ALA        -0.2640
     58 CA         -2.1960   -0.7140  -21.8710 C.3       1 ALA         0.1282
     59 C          -3.4650   -0.1600  -21.2300 C.2       1 ALA         0.2036
     60 O          -3.7660    1.0200  -21.3820 O.2       1 ALA        -0.3944
     61 CB         -2.5210   -1.5240  -23.1260 C.3       1 ALA        -0.0244
     62 N          -4.1960   -0.9990  -20.4900 N.am      1 ALA        -0.2640
     63 CA         -5.3640   -0.5630  -19.7390 C.3       1 ALA         0.1282
     64 C          -4.9900    0.5890  -18.8020 C.2       1 ALA         0.2036
     65 O          -5.6530    1.6230  -18.8010 O.2       1 ALA        -0.3944
     66 CB         -5.9800   -1.7410  -18.9780 C.3       1 ALA        -0.0244
     67 N          -3.9120    0.4350  -18.0280 N.am      1 ALA        -0.2640
     68 CA         -3.4440    1.4980  -17.1480 C.3       1 ALA         0.1282
     69 C          -3.1340    2.7790  -17.9290 C.2       1 ALA         0.2036
     70 O          -3.6190    3.8500  -17.5720 O.2       1 ALA        -0.3944
     71 CB         -2.2440    1.0240  -16.3300 C.3       1 ALA        -0.0244
     72 N          -2.3500    2.6810  -19.0070 N.am      1 LEU        -0.2637
     73 CA         -2.0540    3.8360  -19.8490 C.3       1 LEU         0.1312
     74 C          -3.3450    4.4910  -20.3480 C.2       1 LEU         0.2039
     75 O          -3.4730    5.7110  -20.3010 O.2       1 LEU        -0.3944
     76 CB         -1.1520    3.4460  -21.0310 C.3       1 LEU        -0.0101
     77 CG          0.2680    3.0130  -20.6290 C.3       1 LEU        -0.0425
     78 CD1         1.0040    2.4910  -21.8680 C.3       1 LEU        -0.0625
     79 CD2         1.0800    4.1600  -20.0130 C.3       1 LEU        -0.0625
     80 N          -4.3110    3.6950  -20.8120 N.am      1 LEU        -0.2637
     81 CA         -5.5910    4.1990  -21.2860 C.3       1 LEU         0.1312
     82 C          -6.3120    4.9540  -20.1670 C.2       1 LEU         0.2039
     83 O          -6.7170    6.0960  -20.3640 O.2       1 LEU        -0.3944
     84 CB         -6.4300    3.0430  -21.8520 C.3       1 LEU        -0.0101
     85 CG         -7.8160    3.4700  -22.3650 C.3       1 LEU        -0.0425
     86 CD1        -7.7240    4.5070  -23.4910 C.3       1 LEU        -0.0625
     87 CD2        -8.5590    2.2310  -22.8780 C.3       1 LEU        -0.0625
     88 N          -6.4590    4.3360  -18.9910 N.am      1 ARG        -0.2637
     89 CA         -7.0640    4.9730  -17.8240 C.3       1 ARG         0.1311
     90 C          -6.3770    6.3050  -17.5100 C.2       1 ARG         0.2039
     91 O          -7.0430    7.3120  -17.2760 O.2       1 ARG        -0.3944
     92 CB         -6.9640    4.0480  -16.6070 C.3       1 ARG        -0.0092
     93 CG         -7.9210    2.8530  -16.6650 C.3       1 ARG        -0.0156
     94 CD         -7.6260    1.9610  -15.4560 C.3       1 ARG         0.0627
     95 NE         -8.4610    0.7550  -15.4290 N.pl3     1 ARG        -0.2723
     96 CZ         -8.3330   -0.2040  -14.4980 C.cat     1 ARG         0.2882
     97 NH1        -7.4230   -0.0660  -13.5290 N.pl3     1 ARG        -0.2849
     98 NH2        -9.1120   -1.2880  -14.5420 N.pl3     1 ARG        -0.2849
     99 N          -5.0430    6.3040  -17.4770 N.am      1 LEU        -0.2637
    100 CA         -4.2570    7.4930  -17.1860 C.3       1 LEU         0.1312
    101 C          -4.5300    8.5790  -18.2320 C.2       1 LEU         0.2039
    102 O          -4.7880    9.7300  -17.8880 O.2       1 LEU        -0.3944
    103 CB         -2.7730    7.0990  -17.1290 C.3       1 LEU        -0.0101
    104 CG         -1.8090    8.2660  -16.8610 C.3       1 LEU        -0.0425
    105 CD1        -2.1370    8.9790  -15.5460 C.3       1 LEU        -0.0625
    106 CD2        -0.3790    7.7160  -16.7970 C.3       1 LEU        -0.0625
    107 N          -4.4600    8.2110  -19.5130 N.am      1 ALA        -0.2640
    108 CA         -4.6290    9.1280  -20.6300 C.3       1 ALA         0.1282
    109 C          -6.0460    9.7020  -20.6810 C.2       1 ALA         0.2036
    110 O          -6.2230   10.8890  -20.9430 O.2       1 ALA        -0.3944
    111 CB         -4.2910    8.4050  -21.9360 C.3       1 ALA        -0.0244
    112 N          -7.0620    8.8640  -20.4570 N.am      1 ALA        -0.2640
    113 CA         -8.4680    9.2310  -20.5810 C.3       1 ALA         0.1282
    114 C          -8.9460   10.0410  -19.3700 C.2       1 ALA         0.2031
    115 O          -9.9410    9.6930  -18.7370 O.2       1 ALA        -0.3944
    116 CB         -9.2990    7.9590  -20.7810 C.3       1 ALA        -0.0244
    117 N          -8.2480   11.1360  -19.0640 N.am      1 ARG        -0.2695
    118 CA         -8.5420   12.0550  -17.9750 C.3       1 ARG         0.0945
    119 C          -8.1970   13.4760  -18.4230 C.2       1 ARG         0.0601
    120 O          -7.2490   13.6090  -19.2280 O.co2     1 ARG        -0.5666
    121 CB         -7.7300   11.6710  -16.7310 C.3       1 ARG        -0.0148
    122 CG         -8.3290   10.4580  -16.0070 C.3       1 ARG        -0.0162
    123 CD         -7.4900   10.1030  -14.7760 C.3       1 ARG         0.0627
    124 NE         -8.2840    9.3810  -13.7740 N.pl3     1 ARG        -0.2723
    125 CZ         -8.5470    8.0680  -13.7760 C.cat     1 ARG         0.2882
    126 NH1        -8.1640    7.2680  -14.7760 N.pl3     1 ARG        -0.2849
    127 NH2        -9.1700    7.5190  -12.7310 N.pl3     1 ARG        -0.2849
    128 OXT        -8.8850   14.4060  -17.9480 O.co2     1 ARG        -0.5666
    129 H1         -8.5591  -13.6662  -16.5881 H         1 ARG         0.2015
    130 H2         -6.9705  -13.5042  -16.9871 H         1 ARG         0.2015
    131 H3         -8.1060  -12.5780  -17.7369 H         1 ARG         0.2015
    132 H4         -8.6369  -11.4297  -15.7568 H         1 ARG         0.1098
    133 H5         -7.3182  -11.7809  -13.7071 H         1 ARG         0.0347
    134 H6         -6.4716  -13.1604  -14.4863 H         1 ARG         0.0347
    135 H7         -8.5820  -14.3957  -14.6829 H         1 ARG         0.0302
    136 H8         -9.4969  -12.9944  -14.0302 H         1 ARG         0.0302
    137 H9         -7.3069  -14.5190  -12.5254 H         1 ARG         0.0689
    138 H10        -9.0718  -14.7805  -12.3176 H         1 ARG         0.0689
    139 H11        -7.4427  -12.5686  -11.2674 H         1 ARG         0.2642
    140 H12       -11.5112  -12.4062  -11.0430 H         1 ARG         0.2615
    141 H13       -10.7529  -13.6123  -12.1168 H         1 ARG         0.2615
    142 H14        -8.4001  -11.0549   -9.9421 H         1 ARG         0.2615
    143 H15       -10.1766  -10.9512   -9.8149 H         1 ARG         0.2615
    144 H16        -5.1438  -12.2514  -15.6666 H         1 ILE         0.1885
    145 H17        -4.3072   -9.5726  -16.3482 H         1 ILE         0.0803
    146 H18        -2.9005  -12.2805  -16.2834 H         1 ILE         0.0345
    147 H19        -3.7594  -10.7814  -14.1829 H         1 ILE         0.0267
    148 H20        -2.1708   -9.9944  -14.4721 H         1 ILE         0.0267
    149 H21        -1.7652  -10.7959  -17.9331 H         1 ILE         0.0235
    150 H22        -0.7573  -11.0711  -16.4720 H         1 ILE         0.0235
    151 H23        -1.6339   -9.5169  -16.6787 H         1 ILE         0.0235
    152 H24        -1.9710  -11.8441  -12.8299 H         1 ILE         0.0230
    153 H25        -1.0485  -12.2068  -14.3278 H         1 ILE         0.0230
    154 H26        -2.6371  -12.9938  -14.0386 H         1 ILE         0.0230
    155 H27        -4.2982   -8.6887  -18.3121 H         1 GLN         0.1883
    156 H28        -3.4780  -10.2416  -20.6351 H         1 GLN         0.0801
    157 H29        -5.5613  -10.6440  -21.2920 H         1 GLN         0.0337
    158 H30        -5.4538   -8.9612  -21.9112 H         1 GLN         0.0337
    159 H31        -6.7979   -9.8939  -19.3356 H         1 GLN         0.0504
    160 H32        -7.6005   -9.3126  -20.8338 H         1 GLN         0.0504
    161 H33        -6.7653   -6.6753  -17.9687 H         1 GLN         0.1814
    162 H34        -6.9085   -8.3871  -17.7468 H         1 GLN         0.1814
    163 H35        -4.8610   -7.2325  -21.5373 H         1 ARG         0.1883
    164 H36        -2.1447   -6.1999  -21.8851 H         1 ARG         0.0800
    165 H37        -3.6467   -6.1413  -23.7690 H         1 ARG         0.0313
    166 H38        -3.2333   -4.4684  -23.2620 H         1 ARG         0.0313
    167 H39        -5.4537   -4.3597  -22.0597 H         1 ARG         0.0301
    168 H40        -5.8601   -5.9573  -22.7734 H         1 ARG         0.0301
    169 H41        -5.5843   -5.0281  -25.0490 H         1 ARG         0.0689
    170 H42        -5.1277   -3.4353  -24.3554 H         1 ARG         0.0689
    171 H43        -7.3682   -2.9767  -23.9338 H         1 ARG         0.2642
    172 H44        -8.7879   -6.7212  -24.7113 H         1 ARG         0.2615
    173 H45        -7.0250   -6.4598  -24.6303 H         1 ARG         0.2615
    174 H46        -9.5939   -3.3171  -24.0494 H         1 ARG         0.2615
    175 H47       -10.2384   -4.9468  -24.3836 H         1 ARG         0.2615
    176 H48        -2.3750   -6.2742  -19.2919 H         1 ASN         0.1885
    177 H49        -3.9516   -4.4194  -17.9058 H         1 ASN         0.0826
    178 H50        -2.2972   -4.7778  -16.0271 H         1 ASN         0.0551
    179 H51        -1.3210   -5.7623  -17.1693 H         1 ASN         0.0551
    180 H52        -3.5474   -7.9981  -15.1125 H         1 ASN         0.1814
    181 H53        -2.3610   -6.7942  -14.7342 H         1 ASN         0.1814
    182 H54        -0.5147   -4.0784  -18.9485 H         1 LYS         0.1883
    183 H55        -0.1381   -1.4914  -17.8561 H         1 LYS         0.0800
    184 H56         1.1466   -2.6061  -20.3965 H         1 LYS         0.0312
    185 H57         1.6849   -2.9911  -18.7266 H         1 LYS         0.0312
    186 H58         1.9441   -0.5012  -18.3194 H         1 LYS         0.0269
    187 H59         1.5986   -0.2355  -20.0620 H         1 LYS         0.0269
    188 H60         3.5549   -1.8432  -20.5364 H         1 LYS         0.0317
    189 H61         3.9724   -1.6758  -18.7973 H         1 LYS         0.0317
    190 H62         3.7726    0.5811  -20.8575 H         1 LYS         0.0813
    191 H63         5.2784   -0.0848  -20.1390 H         1 LYS         0.0813
    192 H64         4.5972    1.9372  -19.0832 H         1 LYS         0.1994
    193 H65         4.5167    0.6880  -18.0144 H         1 LYS         0.1994
    194 H66         3.1369    1.2981  -18.6728 H         1 LYS         0.1994
    195 H67        -1.3128   -2.4924  -21.1082 H         1 ALA         0.1883
    196 H68        -1.5600    0.1337  -22.1658 H         1 ALA         0.0797
    197 H69        -3.0739   -0.8925  -23.8370 H         1 ALA         0.0277
    198 H70        -3.1368   -2.3933  -22.8521 H         1 ALA         0.0277
    199 H71        -1.5863   -1.8690  -23.5921 H         1 ALA         0.0277
    200 H72        -3.9306   -1.9623  -20.4508 H         1 ALA         0.1883
    201 H73        -6.1140   -0.1909  -20.4525 H         1 ALA         0.0797
    202 H74        -6.8603   -1.3947  -18.4166 H         1 ALA         0.0277
    203 H75        -5.2382   -2.1539  -18.2786 H         1 ALA         0.0277
    204 H76        -6.2840   -2.5203  -19.6923 H         1 ALA         0.0277
    205 H77        -3.4137   -0.4316  -18.0532 H         1 ALA         0.1883
    206 H78        -4.2561    1.7306  -16.4435 H         1 ALA         0.0797
    207 H79        -1.9042    1.8376  -15.6723 H         1 ALA         0.0277
    208 H80        -1.4278    0.7365  -17.0091 H         1 ALA         0.0277
    209 H81        -2.5359    0.1567  -15.7196 H         1 ALA         0.0277
    210 H82        -1.9557    1.7928  -19.2430 H         1 LEU         0.1883
    211 H83        -1.5124    4.5722  -19.2368 H         1 LEU         0.0800
    212 H84        -1.0703    4.3133  -21.7026 H         1 LEU         0.0315
    213 H85        -1.6278    2.6112  -21.5664 H         1 LEU         0.0315
    214 H86         0.1890    2.2040  -19.8879 H         1 LEU         0.0298
    215 H87         2.0208    2.1797  -21.5864 H         1 LEU         0.0232
    216 H88         1.0608    3.2882  -22.6238 H         1 LEU         0.0232
    217 H89         0.4588    1.6305  -22.2830 H         1 LEU         0.0232
    218 H90         0.5588    4.5411  -19.1224 H         1 LEU         0.0232
    219 H91         1.1876    4.9699  -20.7495 H         1 LEU         0.0232
    220 H92         2.0756    3.7912  -19.7254 H         1 LEU         0.0232
    221 H93        -4.1477    2.7087  -20.8348 H         1 LEU         0.1883
    222 H94        -5.4013    4.9103  -22.1034 H         1 LEU         0.0800
    223 H95        -6.5703    2.2957  -21.0572 H         1 LEU         0.0315
    224 H96        -5.8762    2.5901  -22.6875 H         1 LEU         0.0315
    225 H97        -8.3797    3.9100  -21.5292 H         1 LEU         0.0298
    226 H98        -8.7370    4.7791  -23.8225 H         1 LEU         0.0232
    227 H99        -7.1635    4.0815  -24.3365 H         1 LEU         0.0232
    228 H100       -7.2056    5.4042  -23.1218 H         1 LEU         0.0232
    229 H101       -8.6270    1.4847  -22.0728 H         1 LEU         0.0232
    230 H102       -8.0117    1.8020  -23.7303 H         1 LEU         0.0232
    231 H103       -9.5714    2.5173  -23.1989 H         1 LEU         0.0232
    232 H104       -6.1395    3.3922  -18.9060 H         1 ARG         0.1883
    233 H105       -8.1255    5.1648  -18.0395 H         1 ARG         0.0800
    234 H106       -7.1937    4.6340  -15.7049 H         1 ARG         0.0313
    235 H107       -5.9343    3.6662  -16.5440 H         1 ARG         0.0313
    236 H108       -7.7595    2.2885  -17.5952 H         1 ARG         0.0301
    237 H109       -8.9625    3.2048  -16.6256 H         1 ARG         0.0301
    238 H110       -7.8111    2.5385  -14.5383 H         1 ARG         0.0689
    239 H111       -6.5693    1.6574  -15.4914 H         1 ARG         0.0689
    240 H112       -9.1790    0.6385  -16.1583 H         1 ARG         0.2642
    241 H113       -7.3195   -0.7978  -12.8116 H         1 ARG         0.2615
    242 H114       -6.8251    0.7722  -13.4995 H         1 ARG         0.2615
    243 H115       -9.8117   -1.3893  -15.2910 H         1 ARG         0.2615
    244 H116       -9.0130   -2.0227  -13.8269 H         1 ARG         0.2615
    245 H117       -4.5617    5.4469  -17.6607 H         1 LEU         0.1883
    246 H118       -4.5525    7.8833  -16.2009 H         1 LEU         0.0800
    247 H119       -2.5016    6.6449  -18.0934 H         1 LEU         0.0315
    248 H120       -2.6457    6.3580  -16.3261 H         1 LEU         0.0315
    249 H121       -1.8859    8.9896  -17.6859 H         1 LEU         0.0298
    250 H122       -1.4277    9.8051  -15.3900 H         1 LEU         0.0232
    251 H123       -2.0579    8.2656  -14.7124 H         1 LEU         0.0232
    252 H124       -3.1609    9.3785  -15.5909 H         1 LEU         0.0232
    253 H125       -0.1408    7.2032  -17.7406 H         1 LEU         0.0232
    254 H126       -0.2968    7.0044  -15.9622 H         1 LEU         0.0232
    255 H127        0.3264    8.5457  -16.6424 H         1 LEU         0.0232
    256 H128       -4.2809    7.2486  -19.7171 H         1 ALA         0.1883
    257 H129       -3.9261    9.9643  -20.5010 H         1 ALA         0.0797
    258 H130       -4.4182    9.0969  -22.7816 H         1 ALA         0.0277
    259 H131       -4.9631    7.5435  -22.0628 H         1 ALA         0.0277
    260 H132       -3.2487    8.0550  -21.9023 H         1 ALA         0.0277
    261 H133       -6.8447    7.9259  -20.1873 H         1 ALA         0.1883
    262 H134       -8.5836    9.8624  -21.4742 H         1 ALA         0.0797
    263 H135      -10.3618    8.2265  -20.8756 H         1 ALA         0.0277
    264 H136       -9.1641    7.2931  -19.9159 H         1 ALA         0.0277
    265 H137       -8.9677    7.4445  -21.6950 H         1 ALA         0.0277
    266 H138       -7.4525   11.3435  -19.6334 H         1 ARG         0.1875
    267 H139       -9.6137   12.0018  -17.7330 H         1 ARG         0.0726
    268 H140       -7.7145   12.5259  -16.0389 H         1 ARG         0.0307
    269 H141       -6.7019   11.4293  -17.0384 H         1 ARG         0.0307
    270 H142       -8.3469    9.5987  -16.6934 H         1 ARG         0.0301
    271 H143       -9.3552   10.6955  -15.6899 H         1 ARG         0.0301
    272 H144       -7.1047   11.0301  -14.3265 H         1 ARG         0.0689
    273 H145       -6.6471    9.4691  -15.0885 H         1 ARG         0.0689
    274 H146       -8.6745    9.9352  -12.9985 H         1 ARG         0.2642
    275 H147       -8.3837    6.2622  -14.7439 H         1 ARG         0.2615
    276 H148       -7.6491    7.6573  -15.5786 H         1 ARG         0.2615
    277 H149       -9.4768    8.1103  -11.9455 H         1 ARG         0.2615
    278 H150       -9.3439    6.5040  -12.7101 H         1 ARG         0.2615
@<TRIPOS>BOND
     1    1    2 1  
     2    2    3 1  
     3    2    5 1  
     4    3    4 2  
     5    3   12 am 
     6    5    6 1  
     7    6    7 1  
     8    7    8 1  
     9    8    9 ar 
    10    9   10 ar 
    11    9   11 ar 
    12   12   13 1  
    13   13   14 1  
    14   13   16 1  
    15   14   15 2  
    16   14   20 am 
    17   16   17 1  
    18   16   18 1  
    19   17   19 1  
    20   20   21 1  
    21   21   22 1  
    22   21   24 1  
    23   22   23 2  
    24   22   29 am 
    25   24   25 1  
    26   25   26 1  
    27   26   27 2  
    28   26   28 am 
    29   29   30 1  
    30   30   31 1  
    31   30   33 1  
    32   31   32 2  
    33   31   40 am 
    34   33   34 1  
    35   34   35 1  
    36   35   36 1  
    37   36   37 ar 
    38   37   38 ar 
    39   37   39 ar 
    40   40   41 1  
    41   41   42 1  
    42   41   44 1  
    43   42   43 2  
    44   42   48 am 
    45   44   45 1  
    46   45   46 2  
    47   45   47 am 
    48   48   49 1  
    49   49   50 1  
    50   49   52 1  
    51   50   51 2  
    52   50   57 am 
    53   52   53 1  
    54   53   54 1  
    55   54   55 1  
    56   55   56 1  
    57   57   58 1  
    58   58   59 1  
    59   58   61 1  
    60   59   60 2  
    61   59   62 am 
    62   62   63 1  
    63   63   64 1  
    64   63   66 1  
    65   64   65 2  
    66   64   67 am 
    67   67   68 1  
    68   68   69 1  
    69   68   71 1  
    70   69   70 2  
    71   69   72 am 
    72   72   73 1  
    73   73   74 1  
    74   73   76 1  
    75   74   75 2  
    76   74   80 am 
    77   76   77 1  
    78   77   78 1  
    79   77   79 1  
    80   80   81 1  
    81   81   82 1  
    82   81   84 1  
    83   82   83 2  
    84   82   88 am 
    85   84   85 1  
    86   85   86 1  
    87   85   87 1  
    88   88   89 1  
    89   89   90 1  
    90   89   92 1  
    91   90   91 2  
    92   90   99 am 
    93   92   93 1  
    94   93   94 1  
    95   94   95 1  
    96   95   96 ar 
    97   96   97 ar 
    98   96   98 ar 
    99   99  100 1  
   100  100  101 1  
   101  100  103 1  
   102  101  102 2  
   103  101  107 am 
   104  103  104 1  
   105  104  105 1  
   106  104  106 1  
   107  107  108 1  
   108  108  109 1  
   109  108  111 1  
   110  109  110 2  
   111  109  112 am 
   112  112  113 1  
   113  113  114 1  
   114  113  116 1  
   115  114  115 2  
   116  114  117 am 
   117  117  118 1  
   118  118  119 1  
   119  118  121 1  
   120  119  120 ar 
   121  119  128 ar 
   122  121  122 1  
   123  122  123 1  
   124  123  124 1  
   125  124  125 ar 
   126  125  126 ar 
   127  125  127 ar 
   128    1  129 1  
   129    1  130 1  
   130    1  131 1  
   131    2  132 1  
   132    5  133 1  
   133    5  134 1  
   134    6  135 1  
   135    6  136 1  
   136    7  137 1  
   137    7  138 1  
   138    8  139 1  
   139   10  140 1  
   140   10  141 1  
   141   11  142 1  
   142   11  143 1  
   143   12  144 1  
   144   13  145 1  
   145   16  146 1  
   146   17  147 1  
   147   17  148 1  
   148   18  149 1  
   149   18  150 1  
   150   18  151 1  
   151   19  152 1  
   152   19  153 1  
   153   19  154 1  
   154   20  155 1  
   155   21  156 1  
   156   24  157 1  
   157   24  158 1  
   158   25  159 1  
   159   25  160 1  
   160   28  161 1  
   161   28  162 1  
   162   29  163 1  
   163   30  164 1  
   164   33  165 1  
   165   33  166 1  
   166   34  167 1  
   167   34  168 1  
   168   35  169 1  
   169   35  170 1  
   170   36  171 1  
   171   38  172 1  
   172   38  173 1  
   173   39  174 1  
   174   39  175 1  
   175   40  176 1  
   176   41  177 1  
   177   44  178 1  
   178   44  179 1  
   179   47  180 1  
   180   47  181 1  
   181   48  182 1  
   182   49  183 1  
   183   52  184 1  
   184   52  185 1  
   185   53  186 1  
   186   53  187 1  
   187   54  188 1  
   188   54  189 1  
   189   55  190 1  
   190   55  191 1  
   191   56  192 1  
   192   56  193 1  
   193   56  194 1  
   194   57  195 1  
   195   58  196 1  
   196   61  197 1  
   197   61  198 1  
   198   61  199 1  
   199   62  200 1  
   200   63  201 1  
   201   66  202 1  
   202   66  203 1  
   203   66  204 1  
   204   67  205 1  
   205   68  206 1  
   206   71  207 1  
   207   71  208 1  
   208   71  209 1  
   209   72  210 1  
   210   73  211 1  
   211   76  212 1  
   212   76  213 1  
   213   77  214 1  
   214   78  215 1  
   215   78  216 1  
   216   78  217 1  
   217   79  218 1  
   218   79  219 1  
   219   79  220 1  
   220   80  221 1  
   221   81  222 1  
   222   84  223 1  
   223   84  224 1  
   224   85  225 1  
   225   86  226 1  
   226   86  227 1  
   227   86  228 1  
   228   87  229 1  
   229   87  230 1  
   230   87  231 1  
   231   88  232 1  
   232   89  233 1  
   233   92  234 1  
   234   92  235 1  
   235   93  236 1  
   236   93  237 1  
   237   94  238 1  
   238   94  239 1  
   239   95  240 1  
   240   97  241 1  
   241   97  242 1  
   242   98  243 1  
   243   98  244 1  
   244   99  245 1  
   245  100  246 1  
   246  103  247 1  
   247  103  248 1  
   248  104  249 1  
   249  105  250 1  
   250  105  251 1  
   251  105  252 1  
   252  106  253 1  
   253  106  254 1  
   254  106  255 1  
   255  107  256 1  
   256  108  257 1  
   257  111  258 1  
   258  111  259 1  
   259  111  260 1  
   260  112  261 1  
   261  113  262 1  
   262  116  263 1  
   263  116  264 1  
   264  116  265 1  
   265  117  266 1  
   266  118  267 1  
   267  121  268 1  
   268  121  269 1  
   269  122  270 1  
   270  122  271 1  
   271  123  272 1  
   272  123  273 1  
   273  124  274 1  
   274  126  275 1  
   275  126  276 1  
   276  127  277 1  
   277  127  278 1  
@<TRIPOS>SUBSTRUCTURE
     1 ARG         1

