1dpu_ligand
  -I-interpret- 

275274  0  0  0  0  0  0  0  0999 V2000
   -7.8430  -13.0140  -16.8670 N   0  3  0  0  0
   -7.6870  -11.9800  -15.8260 C   0  0  0  0  0
   -6.6010  -10.9820  -16.2380 C   0  0  0  0  0
   -6.9060   -9.8780  -16.6870 O   0  0  0  0  0
   -7.4130  -12.5930  -14.4430 C   0  0  0  0  0
   -8.5400  -13.5360  -13.9980 C   0  0  0  0  0
   -8.2970  -14.0420  -12.5710 C   0  0  0  0  0
   -8.3440  -12.9470  -11.5920 N   0  0  0  0  0
   -9.4560  -12.3970  -11.0840 C   0  0  0  0  0
  -10.6660  -12.8390  -11.4420 N   0  0  0  0  0
   -9.3350  -11.3910  -10.2140 N   0  0  0  0  0
   -5.3340  -11.3870  -16.1320 N   0  0  0  0  0
   -4.2190  -10.6220  -16.6660 C   0  0  0  0  0
   -4.2920  -10.6890  -18.1920 C   0  0  0  0  0
   -4.3970  -11.7740  -18.7590 O   0  0  0  0  0
   -2.8940  -11.1920  -16.1250 C   0  0  0  0  0
   -2.7570  -10.9140  -14.6160 C   0  0  0  0  0
   -1.6760  -10.6020  -16.8540 C   0  0  0  0  0
   -2.0540  -12.0710  -13.9030 C   0  0  0  0  0
   -4.2410   -9.5310  -18.8480 N   0  0  0  0  0
   -4.1080   -9.4090  -20.2890 C   0  0  0  0  0
   -3.3260   -8.1210  -20.5830 C   0  0  0  0  0
   -2.1860   -7.9980  -20.1370 O   0  0  0  0  0
   -5.4670   -9.5860  -21.0060 C   0  0  0  0  0
   -6.7150   -9.2060  -20.1900 C   0  0  0  0  0
   -6.6690   -7.7790  -19.6610 C   0  0  0  0  0
   -6.4990   -6.8410  -20.4330 O   0  0  0  0  0
   -6.7910   -7.5990  -18.3510 N   0  0  0  0  0
   -3.9000   -7.1360  -21.2780 N   0  0  0  0  0
   -3.1890   -5.9240  -21.6770 C   0  0  0  0  0
   -3.1620   -4.9040  -20.5300 C   0  0  0  0  0
   -3.4650   -3.7270  -20.7130 O   0  0  0  0  0
   -3.7840   -5.3800  -22.9870 C   0  0  0  0  0
   -5.2800   -5.0330  -22.9120 C   0  0  0  0  0
   -5.7330   -4.3410  -24.2030 C   0  0  0  0  0
   -7.1520   -3.9630  -24.1370 N   0  0  0  0  0
   -8.1890   -4.7940  -24.3190 C   0  0  0  0  0
   -7.9850   -6.0910  -24.5730 N   0  0  0  0  0
   -9.4360   -4.3160  -24.2450 N   0  0  0  0  0
   -2.7710   -5.3570  -19.3360 N   0  0  0  0  0
   -2.8830   -4.6030  -18.0910 C   0  0  0  0  0
   -2.1910   -3.2420  -18.1860 C   0  0  0  0  0
   -2.7740   -2.2170  -17.8310 O   0  0  0  0  0
   -2.3370   -5.4260  -16.9150 C   0  0  0  0  0
   -3.1800   -6.6540  -16.5770 C   0  0  0  0  0
   -3.9740   -7.1240  -17.3860 O   0  0  0  0  0
   -3.0160   -7.1930  -15.3760 N   0  0  0  0  0
   -0.9510   -3.2190  -18.6820 N   0  0  0  0  0
   -0.2210   -1.9700  -18.8430 C   0  0  0  0  0
   -0.9840   -1.0180  -19.7690 C   0  0  0  0  0
   -1.1370    0.1610  -19.4560 O   0  0  0  0  0
    1.1990   -2.2360  -19.3620 C   0  0  0  0  0
    2.0150   -0.9390  -19.3260 C   0  0  0  0  0
    3.4890   -1.1870  -19.6560 C   0  0  0  0  0
    4.2150    0.1300  -19.9570 C   0  0  0  0  0
    4.1080    1.0890  -18.8440 N   0  3  0  0  0
   -1.4630   -1.5240  -20.9090 N   0  0  0  0  0
   -2.1960   -0.7140  -21.8710 C   0  0  0  0  0
   -3.4650   -0.1600  -21.2300 C   0  0  0  0  0
   -3.7660    1.0200  -21.3820 O   0  0  0  0  0
   -2.5210   -1.5240  -23.1260 C   0  0  0  0  0
   -4.1960   -0.9990  -20.4900 N   0  0  0  0  0
   -5.3640   -0.5630  -19.7390 C   0  0  0  0  0
   -4.9900    0.5890  -18.8020 C   0  0  0  0  0
   -5.6530    1.6230  -18.8010 O   0  0  0  0  0
   -5.9800   -1.7410  -18.9780 C   0  0  0  0  0
   -3.9120    0.4350  -18.0280 N   0  0  0  0  0
   -3.4440    1.4980  -17.1480 C   0  0  0  0  0
   -3.1340    2.7790  -17.9290 C   0  0  0  0  0
   -3.6190    3.8500  -17.5720 O   0  0  0  0  0
   -2.2440    1.0240  -16.3300 C   0  0  0  0  0
   -2.3500    2.6810  -19.0070 N   0  0  0  0  0
   -2.0540    3.8360  -19.8490 C   0  0  0  0  0
   -3.3450    4.4910  -20.3480 C   0  0  0  0  0
   -3.4730    5.7110  -20.3010 O   0  0  0  0  0
   -1.1520    3.4460  -21.0310 C   0  0  0  0  0
    0.2680    3.0130  -20.6290 C   0  0  0  0  0
    1.0040    2.4910  -21.8680 C   0  0  0  0  0
    1.0800    4.1600  -20.0130 C   0  0  0  0  0
   -4.3110    3.6950  -20.8120 N   0  0  0  0  0
   -5.5910    4.1990  -21.2860 C   0  0  0  0  0
   -6.3120    4.9540  -20.1670 C   0  0  0  0  0
   -6.7170    6.0960  -20.3640 O   0  0  0  0  0
   -6.4300    3.0430  -21.8520 C   0  0  0  0  0
   -7.8160    3.4700  -22.3650 C   0  0  0  0  0
   -7.7240    4.5070  -23.4910 C   0  0  0  0  0
   -8.5590    2.2310  -22.8780 C   0  0  0  0  0
   -6.4590    4.3360  -18.9910 N   0  0  0  0  0
   -7.0640    4.9730  -17.8240 C   0  0  0  0  0
   -6.3770    6.3050  -17.5100 C   0  0  0  0  0
   -7.0430    7.3120  -17.2760 O   0  0  0  0  0
   -6.9640    4.0480  -16.6070 C   0  0  0  0  0
   -7.9210    2.8530  -16.6650 C   0  0  0  0  0
   -7.6260    1.9610  -15.4560 C   0  0  0  0  0
   -8.4610    0.7550  -15.4290 N   0  0  0  0  0
   -8.3330   -0.2040  -14.4980 C   0  0  0  0  0
   -7.4230   -0.0660  -13.5290 N   0  0  0  0  0
   -9.1120   -1.2880  -14.5420 N   0  0  0  0  0
   -5.0430    6.3040  -17.4770 N   0  0  0  0  0
   -4.2570    7.4930  -17.1860 C   0  0  0  0  0
   -4.5300    8.5790  -18.2320 C   0  0  0  0  0
   -4.7880    9.7300  -17.8880 O   0  0  0  0  0
   -2.7730    7.0990  -17.1290 C   0  0  0  0  0
   -1.8090    8.2660  -16.8610 C   0  0  0  0  0
   -2.1370    8.9790  -15.5460 C   0  0  0  0  0
   -0.3790    7.7160  -16.7970 C   0  0  0  0  0
   -4.4600    8.2110  -19.5130 N   0  0  0  0  0
   -4.6290    9.1280  -20.6300 C   0  0  0  0  0
   -6.0460    9.7020  -20.6810 C   0  0  0  0  0
   -6.2230   10.8890  -20.9430 O   0  0  0  0  0
   -4.2910    8.4050  -21.9360 C   0  0  0  0  0
   -7.0620    8.8640  -20.4570 N   0  0  0  0  0
   -8.4680    9.2310  -20.5810 C   0  0  0  0  0
   -8.9460   10.0410  -19.3700 C   0  0  0  0  0
   -9.9410    9.6930  -18.7370 O   0  0  0  0  0
   -9.2990    7.9590  -20.7810 C   0  0  0  0  0
   -8.2480   11.1360  -19.0640 N   0  0  0  0  0
   -8.5420   12.0550  -17.9750 C   0  0  0  0  0
   -8.1970   13.4760  -18.4230 C   0  0  0  0  0
   -7.2490   13.6090  -19.2280 O   0  0  0  0  0
   -7.7300   11.6710  -16.7310 C   0  0  0  0  0
   -8.3290   10.4580  -16.0070 C   0  0  0  0  0
   -7.4900   10.1030  -14.7760 C   0  0  0  0  0
   -8.2840    9.3810  -13.7740 N   0  0  0  0  0
   -8.5470    8.0680  -13.7760 C   0  0  0  0  0
   -8.1640    7.2680  -14.7760 N   0  0  0  0  0
   -9.1700    7.5190  -12.7310 N   0  0  0  0  0
   -8.8850   14.4060  -17.9480 O   0  0  0  0  0
   -8.0227  -12.5658  -17.7655 H   0  0  0  0  0
   -6.9878  -13.5667  -16.9264 H   0  0  0  0  0
   -8.6260  -13.6217  -16.6262 H   0  0  0  0  0
   -8.6295  -11.4400  -15.7356 H   0  0  0  0  0
   -7.3417  -11.7816  -13.7187 H   0  0  0  0  0
   -6.4899  -13.1696  -14.5027 H   0  0  0  0  0
   -8.5693  -14.3911  -14.6733 H   0  0  0  0  0
   -9.4835  -12.9907  -14.0211 H   0  0  0  0  0
   -7.3071  -14.4966  -12.5312 H   0  0  0  0  0
   -9.0793  -14.7592  -12.3226 H   0  0  0  0  0
   -7.4515  -12.5723  -11.2705 H   0  0  0  0  0
  -11.5031  -12.4075  -11.0502 H   0  0  0  0  0
  -10.7520  -13.6077  -12.1069 H   0  0  0  0  0
   -8.4093  -11.0553   -9.9480 H   0  0  0  0  0
   -5.1400  -12.2687  -15.6573 H   0  0  0  0  0
   -4.2694   -9.5783  -16.3558 H   0  0  0  0  0
   -2.9184  -12.2672  -16.3024 H   0  0  0  0  0
   -3.7541  -10.7975  -14.1913 H   0  0  0  0  0
   -2.1638  -10.0096  -14.4809 H   0  0  0  0  0
   -1.7410  -10.8372  -17.9163 H   0  0  0  0  0
   -1.6629   -9.5203  -16.7201 H   0  0  0  0  0
   -0.7635  -11.0316  -16.4406 H   0  0  0  0  0
   -2.6327  -12.9847  -14.0382 H   0  0  0  0  0
   -1.0579  -12.2045  -14.3249 H   0  0  0  0  0
   -1.9724  -11.8450  -12.8398 H   0  0  0  0  0
   -4.2993   -8.6718  -18.3014 H   0  0  0  0  0
   -3.5226  -10.2226  -20.7173 H   0  0  0  0  0
   -5.5592  -10.6490  -21.2290 H   0  0  0  0  0
   -5.4485   -8.9170  -21.8663 H   0  0  0  0  0
   -6.7673   -9.8764  -19.3321 H   0  0  0  0  0
   -7.5797   -9.2880  -20.8486 H   0  0  0  0  0
   -6.7442   -6.6585  -17.9589 H   0  0  0  0  0
   -6.9315   -8.4012  -17.7369 H   0  0  0  0  0
   -4.8802   -7.2344  -21.5425 H   0  0  0  0  0
   -2.1436   -6.1540  -21.8830 H   0  0  0  0  0
   -3.6755   -6.1640  -23.7364 H   0  0  0  0  0
   -3.2535   -4.4565  -23.2190 H   0  0  0  0  0
   -5.4468   -4.3601  -22.0709 H   0  0  0  0  0
   -5.8517   -5.9519  -22.7821 H   0  0  0  0  0
   -5.5967   -5.0332  -25.0339 H   0  0  0  0  0
   -5.1392   -3.4371  -24.3389 H   0  0  0  0  0
   -7.3661   -2.9862  -23.9358 H   0  0  0  0  0
   -7.0343   -6.4562  -24.6298 H   0  0  0  0  0
  -10.2306   -4.9406  -24.3823 H   0  0  0  0  0
   -9.5924   -3.3268  -24.0513 H   0  0  0  0  0
   -2.3670   -6.2925  -19.2910 H   0  0  0  0  0
   -3.9406   -4.4084  -17.9127 H   0  0  0  0  0
   -2.3387   -4.7793  -16.0375 H   0  0  0  0  0
   -1.3461   -5.7804  -17.1990 H   0  0  0  0  0
   -3.5560   -8.0159  -15.1082 H   0  0  0  0  0
   -2.3499   -6.7846  -14.7203 H   0  0  0  0  0
   -0.5060   -4.0956  -18.9538 H   0  0  0  0  0
   -0.1336   -1.4900  -17.8683 H   0  0  0  0  0
    1.1459   -2.6005  -20.3879 H   0  0  0  0  0
    1.6801   -2.9827  -18.7303 H   0  0  0  0  0
    1.9539   -0.5230  -18.3204 H   0  0  0  0  0
    1.6068   -0.2561  -20.0710 H   0  0  0  0  0
    3.5470   -1.8270  -20.5364 H   0  0  0  0  0
    3.9647   -1.6596  -18.7966 H   0  0  0  0  0
    3.7546    0.5784  -20.8374 H   0  0  0  0  0
    5.2705   -0.0920  -20.1141 H   0  0  0  0  0
    4.6034    1.9469  -19.0871 H   0  0  0  0  0
    3.1250    1.2998  -18.6717 H   0  0  0  0  0
    4.5218    0.6821  -18.0052 H   0  0  0  0  0
   -1.3098   -2.5117  -21.1122 H   0  0  0  0  0
   -1.5688    0.1249  -22.1726 H   0  0  0  0  0
   -1.5940   -1.8653  -23.5868 H   0  0  0  0  0
   -3.1311   -2.3851  -22.8532 H   0  0  0  0  0
   -3.0688   -0.8972  -23.8297 H   0  0  0  0  0
   -3.9253   -1.9816  -20.4500 H   0  0  0  0  0
   -6.1186   -0.1927  -20.4329 H   0  0  0  0  0
   -6.2807   -2.5125  -19.6869 H   0  0  0  0  0
   -5.2440   -2.1492  -18.2854 H   0  0  0  0  0
   -6.8521   -1.3967  -18.4221 H   0  0  0  0  0
   -3.4037   -0.4490  -18.0537 H   0  0  0  0  0
   -4.2464    1.7430  -16.4521 H   0  0  0  0  0
   -2.5345    0.1647  -15.7257 H   0  0  0  0  0
   -1.4361    0.7393  -17.0040 H   0  0  0  0  0
   -1.9083    1.8310  -15.6787 H   0  0  0  0  0
   -1.9478    1.7751  -19.2477 H   0  0  0  0  0
   -1.5144    4.5615  -19.2402 H   0  0  0  0  0
   -1.0511    4.3291  -21.6619 H   0  0  0  0  0
   -1.6197    2.5932  -21.5231 H   0  0  0  0  0
    0.1706    2.2340  -19.8729 H   0  0  0  0  0
    0.4628    1.6384  -22.2782 H   0  0  0  0  0
    1.0595    3.2818  -22.6161 H   0  0  0  0  0
    2.0113    2.1829  -21.5877 H   0  0  0  0  0
    1.1679    4.9706  -20.7364 H   0  0  0  0  0
    0.5733    4.5227  -19.1187 H   0  0  0  0  0
    2.0736    3.7986  -19.7479 H   0  0  0  0  0
   -4.1444    2.6890  -20.8353 H   0  0  0  0  0
   -5.4294    4.9108  -22.0955 H   0  0  0  0  0
   -6.5898    2.3319  -21.0415 H   0  0  0  0  0
   -5.8834    2.6315  -22.7005 H   0  0  0  0  0
   -8.3528    3.9315  -21.5362 H   0  0  0  0  0
   -7.2102    5.3954  -23.1239 H   0  0  0  0  0
   -7.1684    4.0842  -24.3281 H   0  0  0  0  0
   -8.7283    4.7758  -23.8186 H   0  0  0  0  0
   -7.9892    1.7770  -23.6887 H   0  0  0  0  0
   -8.6713    1.5137  -22.0650 H   0  0  0  0  0
   -9.5430    2.5245  -23.2438 H   0  0  0  0  0
   -6.1331    3.3734  -18.9043 H   0  0  0  0  0
   -8.1127    5.1651  -18.0506 H   0  0  0  0  0
   -7.2274    4.6354  -15.7274 H   0  0  0  0  0
   -5.9486    3.6526  -16.5794 H   0  0  0  0  0
   -7.7770    2.2964  -17.5911 H   0  0  0  0  0
   -8.9559    3.1944  -16.6409 H   0  0  0  0  0
   -7.8376    2.5362  -14.5546 H   0  0  0  0  0
   -6.5840    1.6468  -15.5167 H   0  0  0  0  0
   -9.1720    0.6397  -16.1512 H   0  0  0  0  0
   -7.3208   -0.7905  -12.8184 H   0  0  0  0  0
   -6.8306    0.7639  -13.5001 H   0  0  0  0  0
   -9.8052   -1.3881  -15.2835 H   0  0  0  0  0
   -4.5521    5.4298  -17.6643 H   0  0  0  0  0
   -4.5398    7.9102  -16.2195 H   0  0  0  0  0
   -2.5148    6.6921  -18.1067 H   0  0  0  0  0
   -2.6620    6.3989  -16.3009 H   0  0  0  0  0
   -1.9104    8.9912  -17.6684 H   0  0  0  0  0
   -3.1518    9.3743  -15.5918 H   0  0  0  0  0
   -2.0584    8.2711  -14.7209 H   0  0  0  0  0
   -1.4335    9.7973  -15.3926 H   0  0  0  0  0
   -0.3083    6.9838  -15.9926 H   0  0  0  0  0
   -0.1313    7.2402  -17.7459 H   0  0  0  0  0
    0.3155    8.5344  -16.6072 H   0  0  0  0  0
   -4.2773    7.2293  -19.7212 H   0  0  0  0  0
   -3.9483    9.9681  -20.4926 H   0  0  0  0  0
   -3.2580    8.0587  -21.9013 H   0  0  0  0  0
   -4.9576    7.5516  -22.0604 H   0  0  0  0  0
   -4.4175    9.0916  -22.7731 H   0  0  0  0  0
   -6.8404    7.9071  -20.1819 H   0  0  0  0  0
   -8.5965    9.8768  -21.4496 H   0  0  0  0  0
   -8.9697    7.4501  -21.6869 H   0  0  0  0  0
   -9.1644    7.3000  -19.9232 H   0  0  0  0  0
  -10.3518    8.2253  -20.8746 H   0  0  0  0  0
   -7.4366   11.3476  -19.6448 H   0  0  0  0  0
   -9.6004   12.0027  -17.7199 H   0  0  0  0  0
   -6.8862   12.7456  -19.4388 H   0  0  0  0  0
   -7.7381   12.5169  -16.0437 H   0  0  0  0  0
   -6.7196   11.4140  -17.0489 H   0  0  0  0  0
   -8.3379    9.6069  -16.6880 H   0  0  0  0  0
   -9.3427   10.7000  -15.6879 H   0  0  0  0  0
   -7.1262   11.0275  -14.3276 H   0  0  0  0  0
   -6.6672    9.4618  -15.0921 H   0  0  0  0  0
   -8.6707    9.9298  -13.0061 H   0  0  0  0  0
   -8.3499    6.2663  -14.7275 H   0  0  0  0  0
   -7.6858    7.6593  -15.5876 H   0  0  0  0  0
   -9.4427    8.0990  -11.9375 H   0  0  0  0  0
  1  2  1  0  0  0
  2  3  1  0  0  0
  2  5  1  0  0  0
  3  4  2  0  0  0
  3 12  1  0  0  0
  5  6  1  0  0  0
  6  7  1  0  0  0
  7  8  1  0  0  0
  8  9  1  0  0  0
  9 10  1  0  0  0
  9 11  2  0  0  0
 12 13  1  0  0  0
 13 14  1  0  0  0
 13 16  1  0  0  0
 14 15  2  0  0  0
 14 20  1  0  0  0
 16 17  1  0  0  0
 16 18  1  0  0  0
 17 19  1  0  0  0
 20 21  1  0  0  0
 21 22  1  0  0  0
 21 24  1  0  0  0
 22 23  2  0  0  0
 22 29  1  0  0  0
 24 25  1  0  0  0
 25 26  1  0  0  0
 26 27  2  0  0  0
 26 28  1  0  0  0
 29 30  1  0  0  0
 30 31  1  0  0  0
 30 33  1  0  0  0
 31 32  2  0  0  0
 31 40  1  0  0  0
 33 34  1  0  0  0
 34 35  1  0  0  0
 35 36  1  0  0  0
 36 37  1  0  0  0
 37 38  2  0  0  0
 37 39  1  0  0  0
 40 41  1  0  0  0
 41 42  1  0  0  0
 41 44  1  0  0  0
 42 43  2  0  0  0
 42 48  1  0  0  0
 44 45  1  0  0  0
 45 46  2  0  0  0
 45 47  1  0  0  0
 48 49  1  0  0  0
 49 50  1  0  0  0
 49 52  1  0  0  0
 50 51  2  0  0  0
 50 57  1  0  0  0
 52 53  1  0  0  0
 53 54  1  0  0  0
 54 55  1  0  0  0
 55 56  1  0  0  0
 57 58  1  0  0  0
 58 59  1  0  0  0
 58 61  1  0  0  0
 59 60  2  0  0  0
 59 62  1  0  0  0
 62 63  1  0  0  0
 63 64  1  0  0  0
 63 66  1  0  0  0
 64 65  2  0  0  0
 64 67  1  0  0  0
 67 68  1  0  0  0
 68 69  1  0  0  0
 68 71  1  0  0  0
 69 70  2  0  0  0
 69 72  1  0  0  0
 72 73  1  0  0  0
 73 74  1  0  0  0
 73 76  1  0  0  0
 74 75  2  0  0  0
 74 80  1  0  0  0
 76 77  1  0  0  0
 77 78  1  0  0  0
 77 79  1  0  0  0
 80 81  1  0  0  0
 81 82  1  0  0  0
 81 84  1  0  0  0
 82 83  2  0  0  0
 82 88  1  0  0  0
 84 85  1  0  0  0
 85 86  1  0  0  0
 85 87  1  0  0  0
 88 89  1  0  0  0
 89 90  1  0  0  0
 89 92  1  0  0  0
 90 91  2  0  0  0
 90 99  1  0  0  0
 92 93  1  0  0  0
 93 94  1  0  0  0
 94 95  1  0  0  0
 95 96  1  0  0  0
 96 97  1  0  0  0
 96 98  2  0  0  0
 99100  1  0  0  0
100101  1  0  0  0
100103  1  0  0  0
101102  2  0  0  0
101107  1  0  0  0
103104  1  0  0  0
104105  1  0  0  0
104106  1  0  0  0
107108  1  0  0  0
108109  1  0  0  0
108111  1  0  0  0
109110  2  0  0  0
109112  1  0  0  0
112113  1  0  0  0
113114  1  0  0  0
113116  1  0  0  0
114115  2  0  0  0
114117  1  0  0  0
117118  1  0  0  0
118119  1  0  0  0
118121  1  0  0  0
119120  1  0  0  0
119128  2  0  0  0
121122  1  0  0  0
122123  1  0  0  0
123124  1  0  0  0
124125  1  0  0  0
125126  1  0  0  0
125127  2  0  0  0
  1129  1  0  0  0
  1130  1  0  0  0
  1131  1  0  0  0
  2132  1  0  0  0
  5133  1  0  0  0
  5134  1  0  0  0
  6135  1  0  0  0
  6136  1  0  0  0
  7137  1  0  0  0
  7138  1  0  0  0
  8139  1  0  0  0
 10140  1  0  0  0
 10141  1  0  0  0
 11142  1  0  0  0
 12143  1  0  0  0
 13144  1  0  0  0
 16145  1  0  0  0
 17146  1  0  0  0
 17147  1  0  0  0
 18148  1  0  0  0
 18149  1  0  0  0
 18150  1  0  0  0
 19151  1  0  0  0
 19152  1  0  0  0
 19153  1  0  0  0
 20154  1  0  0  0
 21155  1  0  0  0
 24156  1  0  0  0
 24157  1  0  0  0
 25158  1  0  0  0
 25159  1  0  0  0
 28160  1  0  0  0
 28161  1  0  0  0
 29162  1  0  0  0
 30163  1  0  0  0
 33164  1  0  0  0
 33165  1  0  0  0
 34166  1  0  0  0
 34167  1  0  0  0
 35168  1  0  0  0
 35169  1  0  0  0
 36170  1  0  0  0
 38171  1  0  0  0
 39172  1  0  0  0
 39173  1  0  0  0
 40174  1  0  0  0
 41175  1  0  0  0
 44176  1  0  0  0
 44177  1  0  0  0
 47178  1  0  0  0
 47179  1  0  0  0
 48180  1  0  0  0
 49181  1  0  0  0
 52182  1  0  0  0
 52183  1  0  0  0
 53184  1  0  0  0
 53185  1  0  0  0
 54186  1  0  0  0
 54187  1  0  0  0
 55188  1  0  0  0
 55189  1  0  0  0
 56190  1  0  0  0
 56191  1  0  0  0
 56192  1  0  0  0
 57193  1  0  0  0
 58194  1  0  0  0
 61195  1  0  0  0
 61196  1  0  0  0
 61197  1  0  0  0
 62198  1  0  0  0
 63199  1  0  0  0
 66200  1  0  0  0
 66201  1  0  0  0
 66202  1  0  0  0
 67203  1  0  0  0
 68204  1  0  0  0
 71205  1  0  0  0
 71206  1  0  0  0
 71207  1  0  0  0
 72208  1  0  0  0
 73209  1  0  0  0
 76210  1  0  0  0
 76211  1  0  0  0
 77212  1  0  0  0
 78213  1  0  0  0
 78214  1  0  0  0
 78215  1  0  0  0
 79216  1  0  0  0
 79217  1  0  0  0
 79218  1  0  0  0
 80219  1  0  0  0
 81220  1  0  0  0
 84221  1  0  0  0
 84222  1  0  0  0
 85223  1  0  0  0
 86224  1  0  0  0
 86225  1  0  0  0
 86226  1  0  0  0
 87227  1  0  0  0
 87228  1  0  0  0
 87229  1  0  0  0
 88230  1  0  0  0
 89231  1  0  0  0
 92232  1  0  0  0
 92233  1  0  0  0
 93234  1  0  0  0
 93235  1  0  0  0
 94236  1  0  0  0
 94237  1  0  0  0
 95238  1  0  0  0
 97239  1  0  0  0
 97240  1  0  0  0
 98241  1  0  0  0
 99242  1  0  0  0
100243  1  0  0  0
103244  1  0  0  0
103245  1  0  0  0
104246  1  0  0  0
105247  1  0  0  0
105248  1  0  0  0
105249  1  0  0  0
106250  1  0  0  0
106251  1  0  0  0
106252  1  0  0  0
107253  1  0  0  0
108254  1  0  0  0
111255  1  0  0  0
111256  1  0  0  0
111257  1  0  0  0
112258  1  0  0  0
113259  1  0  0  0
116260  1  0  0  0
116261  1  0  0  0
116262  1  0  0  0
117263  1  0  0  0
118264  1  0  0  0
120265  1  0  0  0
121266  1  0  0  0
121267  1  0  0  0
122268  1  0  0  0
122269  1  0  0  0
123270  1  0  0  0
123271  1  0  0  0
124272  1  0  0  0
126273  1  0  0  0
126274  1  0  0  0
127275  1  0  0  0
M  END
$$$$
