4zjw_ligand
  -I-interpret- 

 52 55  0  0  0  0  0  0  0  0999 V2000
  -22.9070   10.6370   50.6060 C   0  0  0  0  0
  -21.9240   11.7680   50.9430 C   0  0  0  0  0
  -22.6610   12.9400   51.5820 C   0  0  0  0  0
  -20.7490   11.3270   51.7720 C   0  0  0  0  0
  -24.4780    7.5290   49.4520 C   0  0  0  0  0
  -22.7890    9.3740   48.7500 C   0  0  0  0  0
  -23.8660    8.4240   48.3810 C   0  0  0  0  0
  -24.2570    8.3930   47.0450 C   0  0  0  0  0
  -22.2060   10.2350   47.8300 C   0  0  0  0  0
  -22.6210   10.1590   46.5190 C   0  0  0  0  0
  -23.6140    9.2450   46.1260 C   0  0  0  0  0
  -25.1810   10.6430   42.9840 C   0  0  0  0  0
  -25.0440    9.5760   42.0860 C   0  0  0  0  0
  -24.4290    8.3750   42.4690 C   0  0  0  0  0
  -24.3380    7.2460   41.4930 C   0  0  0  0  0
  -23.9430    8.2120   43.7810 C   0  0  0  0  0
  -22.2570   13.5130   52.7870 C   0  0  0  0  0
  -21.1550   13.0170   53.4730 C   0  0  0  0  0
  -20.4080   11.9520   52.9700 C   0  0  0  0  0
  -24.1870    6.1500   41.9720 O   0  0  0  0  0
  -24.4810    7.3920   40.1710 N   0  0  0  0  0
  -24.4340    6.3760   39.1230 C   0  0  0  0  0
  -24.7140   10.5400   44.2860 C   0  0  0  0  0
  -24.9200   11.9290   45.4250 Cl  0  0  0  0  0
  -24.0530    9.2610   44.7020 C   0  0  0  0  0
  -23.6750    7.4920   50.7730 C   0  0  0  0  0
  -22.2780    8.1380   50.7350 C   0  0  0  0  0
  -22.5470    9.4150   50.0980 N   0  0  0  0  0
  -24.1180   10.8910   50.7050 O   0  0  0  0  0
  -23.7550   13.5040   51.0190 F   0  0  0  0  0
  -19.6690    9.9880   51.2720 Cl  0  0  0  0  0
  -21.4930   12.0967   49.9973 H   0  0  0  0  0
  -24.4950    6.5141   49.0549 H   0  0  0  0  0
  -25.4647    7.9299   49.6840 H   0  0  0  0  0
  -25.0484    7.7198   46.7154 H   0  0  0  0  0
  -21.4424   10.9500   48.1363 H   0  0  0  0  0
  -22.1727   10.8175   45.7750 H   0  0  0  0  0
  -25.6604   11.5651   42.6553 H   0  0  0  0  0
  -25.4230    9.6815   41.0695 H   0  0  0  0  0
  -23.4818    7.2704   44.0790 H   0  0  0  0  0
  -22.8110   14.3584   53.1951 H   0  0  0  0  0
  -21.5768   12.6268   54.3992 H   0  0  0  0  0
  -20.4526   13.8505   53.4780 H   0  0  0  0  0
  -19.5387   11.6009   53.5260 H   0  0  0  0  0
  -24.6459    8.3461   39.8502 H   0  0  0  0  0
  -23.4603    5.8863   39.1369 H   0  0  0  0  0
  -25.2161    5.6375   39.2993 H   0  0  0  0  0
  -24.5907    6.8485   38.1533 H   0  0  0  0  0
  -23.5179    6.4387   51.0052 H   0  0  0  0  0
  -24.2551    8.0619   51.4988 H   0  0  0  0  0
  -21.5416    7.5379   50.2005 H   0  0  0  0  0
  -21.8235    8.2369   51.7208 H   0  0  0  0  0
  1  2  1  0  0  0
 28  1  1  0  0  0
  1 29  2  0  0  0
  2  3  1  0  0  0
  2  4  1  0  0  0
  3 17  2  0  0  0
  3 30  1  0  0  0
  4 19  2  0  0  0
  4 31  1  0  0  0
  7  5  1  0  0  0
  5 26  1  0  0  0
  7  6  4  0  0  0
  9  6  4  0  0  0
  6 28  1  0  0  0
  8  7  4  0  0  0
 11  8  4  0  0  0
 10  9  4  0  0  0
 11 10  4  0  0  0
 25 11  1  0  0  0
 13 12  4  0  0  0
 12 23  4  0  0  0
 14 13  4  0  0  0
 14 15  1  0  0  0
 16 14  4  0  0  0
 15 20  2  0  0  0
 15 21  1  0  0  0
 16 25  4  0  0  0
 17 18  1  0  0  0
 18 19  1  0  0  0
 21 22  1  0  0  0
 23 24  1  0  0  0
 23 25  4  0  0  0
 26 27  1  0  0  0
 27 28  1  0  0  0
  2 32  1  0  0  0
  5 33  1  0  0  0
  5 34  1  0  0  0
  8 35  1  0  0  0
  9 36  1  0  0  0
 10 37  1  0  0  0
 12 38  1  0  0  0
 13 39  1  0  0  0
 16 40  1  0  0  0
 17 41  1  0  0  0
 18 42  1  0  0  0
 18 43  1  0  0  0
 19 44  1  0  0  0
 21 45  1  0  0  0
 22 46  1  0  0  0
 22 47  1  0  0  0
 22 48  1  0  0  0
 26 49  1  0  0  0
 26 50  1  0  0  0
 27 51  1  0  0  0
 27 52  1  0  0  0
M  END
$$$$
