3p4w_ligand
  -I-interpret- 

 12 11  0  0  0  0  0  0  0  0999 V2000
   47.9420   -6.1330   45.6450 F   0  0  0  0  0
   47.7900   -7.4350   47.2700 F   0  0  0  0  0
   46.6950   -9.6200   46.6550 F   0  0  0  0  0
   47.5090  -10.8990   44.2870 F   0  0  0  0  0
   45.4140  -10.6000   44.7540 F   0  0  0  0  0
   46.3760   -9.4190   43.2650 F   0  0  0  0  0
   46.3560   -7.7050   45.4630 O   0  0  0  0  0
   47.0320   -6.8040   46.3540 C   0  0  0  0  0
   46.9960   -8.9940   45.5070 C   0  0  0  0  0
   46.5600  -10.0040   44.4340 C   0  0  0  0  0
   46.2529   -6.2070   46.8280 H   0  0  0  0  0
   48.0472   -8.7418   45.3671 H   0  0  0  0  0
  8  1  1  0  0  0
  8  2  1  0  0  0
  9  3  1  0  0  0
 10  4  1  0  0  0
 10  5  1  0  0  0
 10  6  1  0  0  0
  7  8  1  0  0  0
  9  7  1  0  0  0
  9 10  1  0  0  0
  8 11  1  0  0  0
  9 12  1  0  0  0
M  END
$$$$
