### 
### Created by X-TOOL on Mon Sep 10 21:13:08 2018
### 

@<TRIPOS>MOLECULE
2y8i_ligand
   39    41     1     0     0
SMALL
GAST_HUCK


@<TRIPOS>ATOM
      1 PB         21.6910   34.7160   57.4790 P.3       1 ADP         0.2069
      2 O1B        23.1010   34.8130   58.0240 O.co2     1 ADP        -0.5891
      3 O2B        21.7620   33.6840   56.3400 O.co2     1 ADP        -0.5891
      4 O3B        20.7220   34.3150   58.6300 O.co2     1 ADP        -0.5891
      5 PA         20.5920   37.3260   57.4320 P.3       1 ADP         0.3276
      6 O1A        19.0940   37.3060   57.1920 O.co2     1 ADP        -0.5556
      7 O2A        20.9050   37.4810   58.8270 O.co2     1 ADP        -0.5556
      8 O3A        21.2040   36.0870   56.7300 O.3       1 ADP        -0.1548
      9 O5'        21.1610   38.5740   56.6470 O.3       1 ADP        -0.2436
     10 C5'        22.3130   39.1670   57.0420 C.3       1 ADP         0.1132
     11 C4'        22.1370   40.6150   57.2970 C.3       1 ADP         0.1189
     12 O4'        21.6740   41.1730   56.1170 O.3       1 ADP        -0.3364
     13 C3'        21.0820   40.7510   58.2940 C.3       1 ADP         0.1149
     14 O3'        21.6550   41.1440   59.5320 O.3       1 ADP        -0.3864
     15 C2'        20.1990   41.7490   57.8110 C.3       1 ADP         0.1385
     16 O2'        20.4270   42.9890   58.4790 O.3       1 ADP        -0.3836
     17 C1'        20.5740   41.9670   56.4260 C.3       1 ADP         0.2010
     18 N9         19.5680   41.6870   55.4340 N.pl3     1 ADP        -0.1919
     19 C8         19.3680   40.5300   54.7830 C.2       1 ADP         0.1123
     20 N7         18.3690   40.6860   53.9060 N.2       1 ADP        -0.2958
     21 C5         17.9410   41.9590   53.9940 C.ar      1 ADP         0.1045
     22 C6         16.9580   42.6910   53.3340 C.ar      1 ADP         0.1298
     23 N6         16.1690   42.0510   52.3450 N.pl3     1 ADP        -0.3152
     24 N1         16.7690   43.9830   53.6430 N.ar      1 ADP        -0.2698
     25 C2         17.5130   44.5760   54.5800 C.ar      1 ADP         0.0533
     26 N3         18.4630   43.8920   55.2320 N.ar      1 ADP        -0.2714
     27 C4         18.7010   42.6000   54.9630 C.ar      1 ADP         0.1613
     28 H          23.0462   39.0495   56.2440 H         1 ADP         0.0648
     29 H          22.6364   38.6958   57.9701 H         1 ADP         0.0648
     30 H          23.0600   41.0885   57.6315 H         1 ADP         0.0651
     31 H          20.5495   39.8137   58.4551 H         1 ADP         0.0648
     32 H          22.1050   41.9849   59.4225 H         1 ADP         0.2100
     33 H          19.1649   41.4360   57.9554 H         1 ADP         0.0676
     34 H          20.2822   42.8750   59.4212 H         1 ADP         0.2101
     35 H          20.7686   43.0383   56.3751 H         1 ADP         0.0996
     36 H          19.9299   39.6098   54.9432 H         1 ADP         0.1349
     37 H          16.3255   41.0672   52.1256 H         1 ADP         0.1820
     38 H          15.4449   42.5743   51.8529 H         1 ADP         0.1820
     39 H          17.3459   45.6268   54.8168 H         1 ADP         0.0996
@<TRIPOS>BOND
     1    1    2 ar 
     2    1    3 ar 
     3    1    4 ar 
     4    8    1 1  
     5    5    6 ar 
     6    5    7 ar 
     7    5    8 1  
     8    5    9 1  
     9    9   10 1  
    10   10   11 1  
    11   11   12 1  
    12   11   13 1  
    13   12   17 1  
    14   13   14 1  
    15   13   15 1  
    16   15   16 1  
    17   15   17 1  
    18   17   18 1  
    19   18   19 1  
    20   18   27 1  
    21   19   20 2  
    22   20   21 1  
    23   21   22 ar 
    24   21   27 ar 
    25   22   23 1  
    26   22   24 ar 
    27   24   25 ar 
    28   25   26 ar 
    29   26   27 ar 
    30   10   28 1  
    31   10   29 1  
    32   11   30 1  
    33   13   31 1  
    34   14   32 1  
    35   15   33 1  
    36   16   34 1  
    37   17   35 1  
    38   19   36 1  
    39   23   37 1  
    40   23   38 1  
    41   25   39 1  
@<TRIPOS>SUBSTRUCTURE
     1 ADP         1

