2y8i_ligand
  -I-interpret- 

 42 44  0  0  0  0  0  0  0  0999 V2000
   21.6910   34.7160   57.4790 P   0  0  0  0  0
   23.1010   34.8130   58.0240 O   0  0  0  0  0
   21.7620   33.6840   56.3400 O   0  0  0  0  0
   20.7220   34.3150   58.6300 O   0  0  0  0  0
   20.5920   37.3260   57.4320 P   0  0  0  0  0
   19.0940   37.3060   57.1920 O   0  0  0  0  0
   20.9050   37.4810   58.8270 O   0  0  0  0  0
   21.2040   36.0870   56.7300 O   0  0  0  0  0
   21.1610   38.5740   56.6470 O   0  0  0  0  0
   22.3130   39.1670   57.0420 C   0  0  0  0  0
   22.1370   40.6150   57.2970 C   0  0  0  0  0
   21.6740   41.1730   56.1170 O   0  0  0  0  0
   21.0820   40.7510   58.2940 C   0  0  0  0  0
   21.6550   41.1440   59.5320 O   0  0  0  0  0
   20.1990   41.7490   57.8110 C   0  0  0  0  0
   20.4270   42.9890   58.4790 O   0  0  0  0  0
   20.5740   41.9670   56.4260 C   0  0  0  0  0
   19.5680   41.6870   55.4340 N   0  0  0  0  0
   19.3680   40.5300   54.7830 C   0  0  0  0  0
   18.3690   40.6860   53.9060 N   0  0  0  0  0
   17.9410   41.9590   53.9940 C   0  0  0  0  0
   16.9580   42.6910   53.3340 C   0  0  0  0  0
   16.1690   42.0510   52.3450 N   0  0  0  0  0
   16.7690   43.9830   53.6430 N   0  0  0  0  0
   17.5130   44.5760   54.5800 C   0  0  0  0  0
   18.4630   43.8920   55.2320 N   0  0  0  0  0
   18.7010   42.6000   54.9630 C   0  0  0  0  0
   20.8907   33.5778   55.9512 H   0  0  0  0  0
   19.8276   34.2529   58.2868 H   0  0  0  0  0
   18.9228   37.2015   56.2532 H   0  0  0  0  0
   23.0462   39.0495   56.2440 H   0  0  0  0  0
   22.6364   38.6958   57.9701 H   0  0  0  0  0
   23.0600   41.0885   57.6315 H   0  0  0  0  0
   20.5495   39.8137   58.4551 H   0  0  0  0  0
   20.9617   41.2341   60.1899 H   0  0  0  0  0
   19.1649   41.4360   57.9554 H   0  0  0  0  0
   19.8205   43.6508   58.1387 H   0  0  0  0  0
   20.7686   43.0383   56.3751 H   0  0  0  0  0
   19.9299   39.6098   54.9432 H   0  0  0  0  0
   16.3255   41.0672   52.1256 H   0  0  0  0  0
   15.4449   42.5743   51.8529 H   0  0  0  0  0
   17.3459   45.6268   54.8168 H   0  0  0  0  0
  1  2  2  0  0  0
  1  3  1  0  0  0
  1  4  1  0  0  0
  8  1  1  0  0  0
  5  6  1  0  0  0
  5  7  2  0  0  0
  5  8  1  0  0  0
  5  9  1  0  0  0
  9 10  1  0  0  0
 10 11  1  0  0  0
 11 12  1  0  0  0
 11 13  1  0  0  0
 12 17  1  0  0  0
 13 14  1  0  0  0
 13 15  1  0  0  0
 15 16  1  0  0  0
 15 17  1  0  0  0
 17 18  1  0  0  0
 18 19  4  0  0  0
 18 27  4  0  0  0
 19 20  4  0  0  0
 20 21  4  0  0  0
 21 22  4  0  0  0
 21 27  4  0  0  0
 22 23  1  0  0  0
 22 24  4  0  0  0
 24 25  4  0  0  0
 25 26  4  0  0  0
 26 27  4  0  0  0
  3 28  1  0  0  0
  4 29  1  0  0  0
  6 30  1  0  0  0
 10 31  1  0  0  0
 10 32  1  0  0  0
 11 33  1  0  0  0
 13 34  1  0  0  0
 14 35  1  0  0  0
 15 36  1  0  0  0
 16 37  1  0  0  0
 17 38  1  0  0  0
 19 39  1  0  0  0
 23 40  1  0  0  0
 23 41  1  0  0  0
 25 42  1  0  0  0
M  END
$$$$
