4jv7_ligand
  -I-interpret- 

 50 53  0  0  0  0  0  0  0  0999 V2000
    4.6850  -33.5470    1.0860 C   0  0  0  0  0
    5.5010  -33.4470    2.1790 C   0  0  0  0  0
    6.6190  -32.6400    2.0390 C   0  0  0  0  0
    7.9080  -32.5810    3.3970 Br  0  0  0  0  0
    6.8900  -31.9420    0.8610 C   0  0  0  0  0
    6.0400  -32.0560   -0.2580 C   0  0  0  0  0
    4.9120  -32.8900   -0.1430 C   0  0  0  0  0
    3.9890  -33.0780   -1.3550 C   0  0  0  0  0
    3.6770  -31.8270   -1.9150 N   0  0  0  0  0
    2.7460  -30.9590   -1.1850 C   0  0  0  0  0
    4.2780  -31.4680   -3.0730 C   0  0  0  0  0
    4.0830  -30.3540   -3.5440 O   0  0  0  0  0
    5.2740  -32.4550   -3.8400 C   0  0  0  0  0
    4.7170  -32.7330   -5.2730 C   0  0  0  0  0
    5.6980  -33.3860   -6.2350 C   0  0  0  0  0
    5.8930  -34.7890   -6.3840 C   0  0  0  0  0
    6.8310  -35.2740   -7.3280 C   0  0  0  0  0
    7.5680  -34.3800   -8.1160 C   0  0  0  0  0
    7.3750  -33.0060   -7.9670 C   0  0  0  0  0
    6.4580  -32.5180   -7.0440 C   0  0  0  0  0
    5.5070  -33.6210   -3.0610 O   0  0  0  0  0
    4.3680  -34.1260   -2.3830 C   0  0  0  0  0
    4.8310  -35.4150   -1.7410 C   0  0  0  0  0
    3.8940  -36.3320   -1.2310 C   0  0  0  0  0
    4.3630  -37.5290   -0.6360 C   0  0  0  0  0
    5.7300  -37.7600   -0.5630 C   0  0  0  0  0
    6.2830  -39.2410    0.3890 Br  0  0  0  0  0
    6.6850  -36.8780   -1.0700 C   0  0  0  0  0
    6.2150  -35.7080   -1.6540 C   0  0  0  0  0
    3.7992  -34.1767    1.1693 H   0  0  0  0  0
    5.2841  -33.9729    3.1088 H   0  0  0  0  0
    7.7697  -31.3008    0.8055 H   0  0  0  0  0
    6.2494  -31.5162   -1.1815 H   0  0  0  0  0
    3.0895  -33.5371   -0.9450 H   0  0  0  0  0
    1.7883  -31.4675   -1.0741 H   0  0  0  0  0
    3.1562  -30.7352   -0.2002 H   0  0  0  0  0
    2.6044  -30.0318   -1.7403 H   0  0  0  0  0
    6.2544  -31.9975   -3.9730 H   0  0  0  0  0
    4.4574  -31.7646   -5.7008 H   0  0  0  0  0
    3.8851  -33.4274   -5.1557 H   0  0  0  0  0
    5.3217  -35.4878   -5.7730 H   0  0  0  0  0
    6.9802  -36.3477   -7.4420 H   0  0  0  0  0
    8.2888  -34.7561   -8.8421 H   0  0  0  0  0
    7.9481  -32.3100   -8.5795 H   0  0  0  0  0
    6.3238  -31.4410   -6.9437 H   0  0  0  0  0
    3.5008  -34.3229   -3.0133 H   0  0  0  0  0
    2.8256  -36.1251   -1.2926 H   0  0  0  0  0
    3.6585  -38.2604   -0.2400 H   0  0  0  0  0
    7.7512  -37.0968   -1.0106 H   0  0  0  0  0
    6.9326  -34.9937   -2.0575 H   0  0  0  0  0
  1  2  4  0  0  0
  1  7  4  0  0  0
  2  3  4  0  0  0
  3  4  1  0  0  0
  3  5  4  0  0  0
  5  6  4  0  0  0
  6  7  4  0  0  0
  7  8  1  0  0  0
  8  9  1  0  0  0
  8 22  1  0  0  0
  9 10  1  0  0  0
  9 11  1  0  0  0
 11 12  2  0  0  0
 11 13  1  0  0  0
 13 14  1  0  0  0
 13 21  1  0  0  0
 14 15  1  0  0  0
 15 16  4  0  0  0
 15 20  4  0  0  0
 16 17  4  0  0  0
 17 18  4  0  0  0
 18 19  4  0  0  0
 19 20  4  0  0  0
 21 22  1  0  0  0
 22 23  1  0  0  0
 23 24  4  0  0  0
 23 29  4  0  0  0
 24 25  4  0  0  0
 25 26  4  0  0  0
 26 27  1  0  0  0
 26 28  4  0  0  0
 28 29  4  0  0  0
  1 30  1  0  0  0
  2 31  1  0  0  0
  5 32  1  0  0  0
  6 33  1  0  0  0
  8 34  1  0  0  0
 10 35  1  0  0  0
 10 36  1  0  0  0
 10 37  1  0  0  0
 13 38  1  0  0  0
 14 39  1  0  0  0
 14 40  1  0  0  0
 16 41  1  0  0  0
 17 42  1  0  0  0
 18 43  1  0  0  0
 19 44  1  0  0  0
 20 45  1  0  0  0
 22 46  1  0  0  0
 24 47  1  0  0  0
 25 48  1  0  0  0
 28 49  1  0  0  0
 29 50  1  0  0  0
M  END
$$$$
