6dtx_ligand
  -I-interpret- 

 45 48  0  0  0  0  0  0  0  0999 V2000
  272.6780  -24.6340   29.4030 N   0  0  0  0  0
  272.1210  -24.1520   28.5140 C   0  0  0  0  0
  268.5650  -24.7810   20.0330 C   0  0  0  0  0
  269.3700  -24.1530   19.0530 C   0  0  0  0  0
  270.5900  -23.5470   19.4250 C   0  0  0  0  0
  271.0100  -23.5600   20.7720 C   0  0  0  0  0
  270.2080  -24.1910   21.7560 C   0  0  0  0  0
  268.9760  -24.8030   21.4010 C   0  0  0  0  0
  270.1950  -23.2010   23.9310 C   0  0  0  0  0
  267.0040  -26.0200   22.1650 C   0  0  0  0  0
  266.7400  -27.1300   23.2100 C   0  0  0  0  0
  267.3340  -29.1550   21.8270 C   0  0  0  0  0
  268.9420  -30.7770   22.6880 C   0  0  0  0  0
  269.0720  -29.9550   23.8990 C   0  0  0  0  0
  268.3510  -28.8070   24.0110 C   0  0  0  0  0
  270.6160  -23.2530   25.2970 C   0  0  0  0  0
  269.3490  -21.1720   25.7000 C   0  0  0  0  0
  268.9310  -21.0920   24.4180 C   0  0  0  0  0
  269.3600  -22.1290   23.5060 C   0  0  0  0  0
  271.4130  -24.1050   26.1050 C   0  0  0  0  0
  270.6490  -22.4040   27.3910 C   0  0  0  0  0
  271.4110  -23.5370   27.4110 C   0  0  0  0  0
  268.9700  -24.1350   17.7610 F   0  0  0  0  0
  268.1460  -20.1040   23.9690 F   0  0  0  0  0
  267.4740  -28.3960   22.9710 N   0  0  0  0  0
  268.0770  -30.2910   21.7650 N   0  0  0  0  0
  270.1590  -22.2160   26.1100 N   0  0  0  0  0
  270.6110  -24.1980   23.0690 O   0  0  0  0  0
  268.2570  -25.3930   22.4270 O   0  0  0  0  0
  266.5950  -28.8620   20.8900 O   0  0  0  0  0
  269.5510  -31.8270   22.4970 O   0  0  0  0  0
  267.6255  -25.2509   19.7422 H   0  0  0  0  0
  271.2102  -23.0669   18.6680 H   0  0  0  0  0
  271.9495  -23.0857   21.0555 H   0  0  0  0  0
  266.2105  -25.2751   22.2244 H   0  0  0  0  0
  267.0253  -26.4624   21.1690 H   0  0  0  0  0
  265.6771  -27.3660   23.1594 H   0  0  0  0  0
  267.0774  -26.7454   24.1725 H   0  0  0  0  0
  269.7416  -30.2630   24.7020 H   0  0  0  0  0
  268.4469  -28.1956   24.9083 H   0  0  0  0  0
  269.0460  -20.4086   26.4166 H   0  0  0  0  0
  269.0357  -22.0889   22.4661 H   0  0  0  0  0
  271.9251  -25.0138   25.7888 H   0  0  0  0  0
  270.4577  -21.7536   28.2446 H   0  0  0  0  0
  267.9702  -30.8479   20.9172 H   0  0  0  0  0
  2  1  3  0  0  0
 22  2  1  0  0  0
  3  4  4  0  0  0
  8  3  4  0  0  0
  5  4  4  0  0  0
  4 23  1  0  0  0
  6  5  4  0  0  0
  7  6  4  0  0  0
  7  8  4  0  0  0
 28  7  1  0  0  0
  8 29  1  0  0  0
 16  9  4  0  0  0
  9 19  4  0  0  0
  9 28  1  0  0  0
 10 11  1  0  0  0
 29 10  1  0  0  0
 11 25  1  0  0  0
 25 12  1  0  0  0
 12 26  1  0  0  0
 12 30  2  0  0  0
 14 13  1  0  0  0
 26 13  1  0  0  0
 13 31  2  0  0  0
 15 14  2  0  0  0
 25 15  1  0  0  0
 20 16  4  0  0  0
 16 27  4  0  0  0
 17 18  4  0  0  0
 27 17  4  0  0  0
 19 18  4  0  0  0
 18 24  1  0  0  0
 20 22  4  0  0  0
 22 21  4  0  0  0
 21 27  4  0  0  0
  3 32  1  0  0  0
  5 33  1  0  0  0
  6 34  1  0  0  0
 10 35  1  0  0  0
 10 36  1  0  0  0
 11 37  1  0  0  0
 11 38  1  0  0  0
 14 39  1  0  0  0
 15 40  1  0  0  0
 17 41  1  0  0  0
 19 42  1  0  0  0
 20 43  1  0  0  0
 21 44  1  0  0  0
 26 45  1  0  0  0
M  END
$$$$
