3wf7_ligand
  -I-interpret- 

 44 47  0  0  0  0  0  0  0  0999 V2000
    7.3580  -13.5180   15.3770 N   0  0  0  0  0
    8.6170  -13.5240   15.8540 C   0  0  0  0  0
    9.7850  -13.4400   15.1660 N   0  0  0  0  0
    9.7160  -13.3610   13.8080 C   0  0  0  0  0
   10.9120  -13.2820   13.1090 N   0  0  0  0  0
   11.1260  -13.6990   11.7610 C   0  0  0  0  0
   11.5510  -12.5400   10.8970 C   0  0  0  0  0
   12.8390  -11.8770   11.3500 C   0  0  0  0  0
   13.1230  -10.5720   10.6400 C   0  0  0  0  0
   12.2590  -10.0670    9.9280 O   0  0  0  0  0
   14.3970   -9.9860   10.8190 N   0  0  0  0  0
   14.8720   -8.7580   10.2490 C   0  0  0  0  0
   14.0270   -7.8820    9.5700 C   0  0  0  0  0
   14.5290   -6.7040    9.0550 C   0  0  0  0  0
   13.5900   -5.7890    8.3350 C   0  0  0  0  0
   12.6980   -5.2260    9.1570 F   0  0  0  0  0
   14.1580   -4.7550    7.6960 F   0  0  0  0  0
   12.8440   -6.4070    7.4070 F   0  0  0  0  0
   15.8560   -6.3530    9.1760 C   0  0  0  0  0
   16.6980   -7.2220    9.8490 C   0  0  0  0  0
   16.2220   -8.3990   10.3810 C   0  0  0  0  0
   12.8540  -11.6630   12.9070 C   0  0  0  0  0
   12.0830  -12.6980   13.7590 C   0  0  0  0  0
    8.4460  -13.3580   13.1740 C   0  0  0  0  0
    8.0150  -13.2800   11.8300 N   0  0  0  0  0
    6.6730  -13.3240   11.9020 C   0  0  0  0  0
    6.2020  -13.4120   13.2200 N   0  0  0  0  0
    7.3260  -13.4400   14.0250 C   0  0  0  0  0
    8.7115  -13.6074   16.9367 H   0  0  0  0  0
   10.1932  -14.1037   11.3683 H   0  0  0  0  0
   11.9148  -14.4512   11.7491 H   0  0  0  0  0
   10.7629  -11.7889   10.9506 H   0  0  0  0  0
   11.7216  -12.9288    9.8931 H   0  0  0  0  0
   13.6378  -12.5665   11.0768 H   0  0  0  0  0
   15.0495  -10.4911   11.4186 H   0  0  0  0  0
   12.9721   -8.1267    9.4460 H   0  0  0  0  0
   16.2312   -5.4202    8.7550 H   0  0  0  0  0
   17.7529   -6.9705    9.9591 H   0  0  0  0  0
   16.9042   -9.0622   10.9129 H   0  0  0  0  0
   12.3640  -10.7053   13.0827 H   0  0  0  0  0
   13.8978  -11.7427   13.2105 H   0  0  0  0  0
   12.7732  -13.5174   13.9600 H   0  0  0  0  0
   11.7230  -12.1724   14.6435 H   0  0  0  0  0
    6.0208  -13.2944   11.0291 H   0  0  0  0  0
  1  2  4  0  0  0
  1 28  4  0  0  0
  2  3  4  0  0  0
  3  4  4  0  0  0
  4  5  1  0  0  0
  4 24  4  0  0  0
  5  6  1  0  0  0
  5 23  1  0  0  0
  6  7  1  0  0  0
  7  8  1  0  0  0
  8  9  1  0  0  0
  8 22  1  0  0  0
  9 10  2  0  0  0
  9 11  1  0  0  0
 11 12  1  0  0  0
 12 13  4  0  0  0
 12 21  4  0  0  0
 13 14  4  0  0  0
 14 15  1  0  0  0
 14 19  4  0  0  0
 15 16  1  0  0  0
 15 17  1  0  0  0
 15 18  1  0  0  0
 19 20  4  0  0  0
 20 21  4  0  0  0
 22 23  1  0  0  0
 24 25  4  0  0  0
 24 28  4  0  0  0
 25 26  4  0  0  0
 26 27  4  0  0  0
 27 28  4  0  0  0
  2 29  1  0  0  0
  6 30  1  0  0  0
  6 31  1  0  0  0
  7 32  1  0  0  0
  7 33  1  0  0  0
  8 34  1  0  0  0
 11 35  1  0  0  0
 13 36  1  0  0  0
 19 37  1  0  0  0
 20 38  1  0  0  0
 21 39  1  0  0  0
 22 40  1  0  0  0
 22 41  1  0  0  0
 23 42  1  0  0  0
 23 43  1  0  0  0
 26 44  1  0  0  0
M  END
$$$$
