6guk_ligand
  -I-interpret- 

 52 55  0  0  0  0  0  0  0  0999 V2000
   12.0560   10.3180  -13.0400 C   0  0  0  0  0
   13.5650    8.5230   -7.2500 C   0  0  0  0  0
   11.3290   10.4930  -11.8460 C   0  0  0  0  0
    9.3490   11.5090  -10.7210 C   0  0  0  0  0
    8.8740   10.4640   -9.9320 C   0  0  0  0  0
    9.0160   12.8190  -10.4040 C   0  0  0  0  0
    8.1580   13.0810   -9.3460 C   0  0  0  0  0
    7.6600   12.0590   -8.5890 C   0  0  0  0  0
    8.0040   10.7740   -8.9260 C   0  0  0  0  0
   12.8280    9.0310  -10.8190 C   0  0  0  0  0
   12.5740    8.7790   -8.3890 C   0  0  0  0  0
   13.7140    9.4660  -14.2290 N   0  0  0  0  0
   11.8830   10.8070  -14.3300 N   0  0  0  0  0
   12.8870   10.2710  -15.0000 C   0  0  0  0  0
   10.2280   11.2910  -11.7960 N   0  0  0  0  0
   16.2180    9.0060  -14.0640 C   0  0  0  0  0
   14.8790    8.6890  -14.6920 C   0  0  0  0  0
    7.3600    9.4480   -8.0170 Cl  0  0  0  0  0
   11.7140    9.8260  -10.7370 N   0  0  0  0  0
   13.1770    8.4040   -9.6620 N   0  0  0  0  0
   12.9280    8.9230   -5.9140 C   0  0  0  0  0
   11.5980    8.2260   -5.6840 C   0  0  0  0  0
   10.6360    8.4520   -6.8500 C   0  0  0  0  0
   11.2520    8.0320   -8.1830 C   0  0  0  0  0
   11.4220    6.5400   -8.2260 N   0  3  0  0  0
   13.5970    8.7910  -11.9000 N   0  0  0  0  0
   13.1450    9.4590  -13.0010 C   0  0  0  0  0
   14.4654    9.1152   -7.4135 H   0  0  0  0  0
   13.8229    7.4642   -7.2256 H   0  0  0  0  0
    9.1857    9.4350  -10.1112 H   0  0  0  0  0
    9.4291   13.6422  -10.9869 H   0  0  0  0  0
    7.8793   14.1096   -9.1172 H   0  0  0  0  0
    7.0066   12.2588   -7.7397 H   0  0  0  0  0
   12.3426    9.8441   -8.3947 H   0  0  0  0  0
   13.0514   10.4452  -16.0633 H   0  0  0  0  0
   10.0115   11.7991  -12.6535 H   0  0  0  0  0
   16.4696   10.0492  -14.2551 H   0  0  0  0  0
   16.1632    8.8352  -12.9889 H   0  0  0  0  0
   16.9827    8.3612  -14.4971 H   0  0  0  0  0
   14.9872    8.9222  -15.7512 H   0  0  0  0  0
   14.6668    7.6531  -14.4275 H   0  0  0  0  0
   13.8728    7.6586   -9.6864 H   0  0  0  0  0
   12.7501    9.9983   -5.9305 H   0  0  0  0  0
   13.6074    8.6322   -5.1127 H   0  0  0  0  0
   11.1463    8.6351   -4.7803 H   0  0  0  0  0
   11.7814    7.1556   -5.5911 H   0  0  0  0  0
   10.4025    9.5155   -6.9004 H   0  0  0  0  0
    9.7438    7.8494   -6.6798 H   0  0  0  0  0
   10.5885    8.2993   -9.0054 H   0  0  0  0  0
   10.5168    6.0916   -8.0843 H   0  0  0  0  0
   11.7991    6.2680   -9.1339 H   0  0  0  0  0
   12.0651    6.2509   -7.4889 H   0  0  0  0  0
  1  3  4  0  0  0
  1 13  4  0  0  0
 27  1  4  0  0  0
 11  2  1  0  0  0
  2 21  1  0  0  0
  3 15  1  0  0  0
  3 19  4  0  0  0
  4  5  4  0  0  0
  4  6  4  0  0  0
 15  4  1  0  0  0
  5  9  4  0  0  0
  6  7  4  0  0  0
  7  8  4  0  0  0
  9  8  4  0  0  0
  9 18  1  0  0  0
 19 10  4  0  0  0
 10 20  1  0  0  0
 10 26  4  0  0  0
 20 11  1  0  0  0
 11 24  1  0  0  0
 12 14  4  0  0  0
 12 17  1  0  0  0
 12 27  4  0  0  0
 13 14  4  0  0  0
 17 16  1  0  0  0
 21 22  1  0  0  0
 22 23  1  0  0  0
 23 24  1  0  0  0
 24 25  1  0  0  0
 26 27  4  0  0  0
  2 28  1  0  0  0
  2 29  1  0  0  0
  5 30  1  0  0  0
  6 31  1  0  0  0
  7 32  1  0  0  0
  8 33  1  0  0  0
 11 34  1  0  0  0
 14 35  1  0  0  0
 15 36  1  0  0  0
 16 37  1  0  0  0
 16 38  1  0  0  0
 16 39  1  0  0  0
 17 40  1  0  0  0
 17 41  1  0  0  0
 20 42  1  0  0  0
 21 43  1  0  0  0
 21 44  1  0  0  0
 22 45  1  0  0  0
 22 46  1  0  0  0
 23 47  1  0  0  0
 23 48  1  0  0  0
 24 49  1  0  0  0
 25 50  1  0  0  0
 25 51  1  0  0  0
 25 52  1  0  0  0
M  END
$$$$
