4j53_ligand
  -I-interpret- 

 75 79  0  0  0  0  0  0  0  0999 V2000
   51.0580   11.3520   31.0740 O   0  0  0  0  0
   50.5810   11.2080   32.1790 C   0  0  0  0  0
   51.3450   10.9450   33.2460 N   0  0  0  0  0
   52.8080   10.8340   33.2340 C   0  0  0  0  0
   53.3570   12.0100   34.0400 C   0  0  0  0  0
   54.8580   11.8870   34.2810 C   0  0  0  0  0
   55.1960   10.6100   34.9330 N   0  3  0  0  0
   56.6620   10.5090   35.1010 C   0  0  0  0  0
   54.7010    9.4710   34.1330 C   0  0  0  0  0
   53.1860    9.5450   33.9560 C   0  0  0  0  0
   49.0810   11.2980   32.3360 C   0  0  0  0  0
   48.2710   10.5160   31.5070 C   0  0  0  0  0
   46.8740   10.5570   31.6280 C   0  0  0  0  0
   46.0670    9.7880   30.8160 O   0  0  0  0  0
   46.3230    8.4080   30.5410 C   0  0  0  0  0
   48.4700   12.1330   33.2810 C   0  0  0  0  0
   49.1810   12.9220   34.1120 F   0  0  0  0  0
   47.0830   12.1710   33.3910 C   0  0  0  0  0
   46.2700   11.3880   32.5680 C   0  0  0  0  0
   44.9100   11.3330   32.6530 N   0  0  0  0  0
   44.1140   11.8970   33.6060 C   0  0  0  0  0
   42.7820   11.7280   33.4670 N   0  0  0  0  0
   41.9170   12.2540   34.3240 C   0  0  0  0  0
   42.3690   12.9840   35.4180 C   0  0  0  0  0
   41.4050   13.5860   36.2650 N   0  0  0  0  0
   40.2360   14.1190   35.5470 C   0  0  0  0  0
   41.4980   13.7860   37.5920 C   0  0  0  0  0
   40.5760   14.3630   38.1640 O   0  0  0  0  0
   44.5830   12.6080   34.6520 N   0  0  0  0  0
   43.7490   13.1800   35.5530 C   0  0  0  0  0
   44.2670   13.9240   36.6490 N   0  0  0  0  0
   44.0210   13.1510   37.8750 C   0  0  0  0  0
   42.6290   13.3160   38.4840 C   0  0  0  0  0
   42.7160   14.1890   39.4740 F   0  0  0  0  0
   42.3060   12.1350   38.9790 F   0  0  0  0  0
   45.7070   14.3130   36.5210 C   0  0  0  0  0
   46.0100   15.5460   37.3760 C   0  0  0  0  0
   47.3040   15.3080   38.1360 C   0  0  0  0  0
   47.6230   13.8280   38.0240 C   0  0  0  0  0
   46.7380   13.2490   36.9280 C   0  0  0  0  0
   50.8720   10.8109   34.1397 H   0  0  0  0  0
   53.2008   10.8338   32.2172 H   0  0  0  0  0
   52.8564   12.0227   35.0082 H   0  0  0  0  0
   53.1765   12.9243   33.4746 H   0  0  0  0  0
   55.1713   12.7019   34.9336 H   0  0  0  0  0
   55.3673   11.9291   33.3182 H   0  0  0  0  0
   54.7473   10.5810   35.8485 H   0  0  0  0  0
   56.9045    9.5776   35.6127 H   0  0  0  0  0
   57.1404   10.5223   34.1217 H   0  0  0  0  0
   57.0177   11.3530   35.6920 H   0  0  0  0  0
   54.9479    8.5450   34.6523 H   0  0  0  0  0
   55.1703    9.5038   33.1497 H   0  0  0  0  0
   52.8517    8.6919   33.3657 H   0  0  0  0  0
   52.7091    9.5297   34.9360 H   0  0  0  0  0
   48.7293    9.8684   30.7596 H   0  0  0  0  0
   47.2970    8.3089   30.0619 H   0  0  0  0  0
   46.3170    7.8456   31.4747 H   0  0  0  0  0
   45.5493    8.0215   29.8776 H   0  0  0  0  0
   46.6228   12.8236   34.1329 H   0  0  0  0  0
   44.4330   10.8095   31.9189 H   0  0  0  0  0
   40.8471   12.1135   34.1701 H   0  0  0  0  0
   40.5628   14.8778   34.8360 H   0  0  0  0  0
   39.7388   13.3091   35.0131 H   0  0  0  0  0
   39.5436   14.5634   36.2620 H   0  0  0  0  0
   44.7315   13.5117   38.6188 H   0  0  0  0  0
   44.1209   12.0995   37.6059 H   0  0  0  0  0
   45.8164   14.4860   35.4504 H   0  0  0  0  0
   45.1948   15.7178   38.0788 H   0  0  0  0  0
   46.1127   16.4229   36.7368 H   0  0  0  0  0
   47.1955   15.5998   39.1806 H   0  0  0  0  0
   48.1118   15.9081   37.7170 H   0  0  0  0  0
   47.4331   13.3249   38.9721 H   0  0  0  0  0
   48.6753   13.6829   37.7799 H   0  0  0  0  0
   47.3458   12.9712   36.0669 H   0  0  0  0  0
   46.2282   12.3576   37.2935 H   0  0  0  0  0
  1  2  2  0  0  0
  2  3  1  0  0  0
  2 11  1  0  0  0
  3  4  1  0  0  0
  4  5  1  0  0  0
  4 10  1  0  0  0
  5  6  1  0  0  0
  6  7  1  0  0  0
  7  8  1  0  0  0
  7  9  1  0  0  0
  9 10  1  0  0  0
 11 12  4  0  0  0
 11 16  4  0  0  0
 12 13  4  0  0  0
 13 14  1  0  0  0
 13 19  4  0  0  0
 14 15  1  0  0  0
 16 17  1  0  0  0
 16 18  4  0  0  0
 18 19  4  0  0  0
 19 20  1  0  0  0
 20 21  1  0  0  0
 21 22  4  0  0  0
 21 29  4  0  0  0
 22 23  4  0  0  0
 23 24  4  0  0  0
 24 25  1  0  0  0
 24 30  4  0  0  0
 25 26  1  0  0  0
 25 27  1  0  0  0
 27 28  2  0  0  0
 27 33  1  0  0  0
 29 30  4  0  0  0
 30 31  1  0  0  0
 31 32  1  0  0  0
 31 36  1  0  0  0
 32 33  1  0  0  0
 33 34  1  0  0  0
 33 35  1  0  0  0
 36 37  1  0  0  0
 36 40  1  0  0  0
 37 38  1  0  0  0
 38 39  1  0  0  0
 39 40  1  0  0  0
  3 41  1  0  0  0
  4 42  1  0  0  0
  5 43  1  0  0  0
  5 44  1  0  0  0
  6 45  1  0  0  0
  6 46  1  0  0  0
  7 47  1  0  0  0
  8 48  1  0  0  0
  8 49  1  0  0  0
  8 50  1  0  0  0
  9 51  1  0  0  0
  9 52  1  0  0  0
 10 53  1  0  0  0
 10 54  1  0  0  0
 12 55  1  0  0  0
 15 56  1  0  0  0
 15 57  1  0  0  0
 15 58  1  0  0  0
 18 59  1  0  0  0
 20 60  1  0  0  0
 23 61  1  0  0  0
 26 62  1  0  0  0
 26 63  1  0  0  0
 26 64  1  0  0  0
 32 65  1  0  0  0
 32 66  1  0  0  0
 36 67  1  0  0  0
 37 68  1  0  0  0
 37 69  1  0  0  0
 38 70  1  0  0  0
 38 71  1  0  0  0
 39 72  1  0  0  0
 39 73  1  0  0  0
 40 74  1  0  0  0
 40 75  1  0  0  0
M  END
$$$$
