4j0v_ligand
  -I-interpret- 

 42 44  0  0  0  0  0  0  0  0999 V2000
  -22.1640  -43.3940   -2.2920 C   0  0  0  0  0
  -21.4190  -41.7720   -3.8720 C   0  0  0  0  0
  -20.0680  -42.0580   -1.9920 C   0  0  0  0  0
  -21.5220  -41.0930   -5.1770 C   0  0  0  0  0
  -20.7430  -43.6820   -0.2960 C   0  0  0  0  0
  -20.9580  -43.0410   -1.5460 C   0  0  0  0  0
  -22.3600  -42.7290   -3.4970 C   0  0  0  0  0
  -20.3580  -41.4630   -3.1370 N   0  0  0  0  0
  -20.3880  -40.4790   -5.6560 N   0  0  0  0  0
  -22.5690  -41.1630   -5.7800 O   0  0  0  0  0
  -20.5590  -44.1810    0.6800 N   0  0  0  0  0
  -20.1530  -39.8460   -6.9060 C   0  0  0  0  0
  -21.1730  -39.6050   -7.8160 C   0  0  0  0  0
  -20.8460  -39.1000   -9.0780 C   0  0  0  0  0
  -19.5040  -38.8020   -9.3670 C   0  0  0  0  0
  -18.4710  -39.0560   -8.4290 C   0  0  0  0  0
  -18.8220  -39.5760   -7.2040 C   0  0  0  0  0
  -16.9960  -38.7690   -8.7620 C   0  0  0  0  0
  -16.7710  -37.2920   -9.1470 C   0  0  0  0  0
  -16.4400  -41.2100   -9.2980 C   0  0  0  0  0
  -15.6350  -41.1310   -8.0860 O   0  0  0  0  0
  -15.4860  -40.0440   -7.3430 C   0  0  0  0  0
  -16.0800  -38.9190   -7.6070 N   0  0  0  0  0
  -14.6560  -40.1300   -6.2230 N   0  0  0  0  0
  -16.5480  -39.7710   -9.8360 C   0  0  0  0  0
  -15.2600  -39.4120  -10.2490 F   0  0  0  0  0
  -19.1870  -38.3220  -10.6080 F   0  0  0  0  0
  -22.8708  -44.1376   -1.9240 H   0  0  0  0  0
  -19.1769  -41.7947   -1.4222 H   0  0  0  0  0
  -23.2214  -42.9489   -4.1277 H   0  0  0  0  0
  -19.5942  -40.4781   -5.0155 H   0  0  0  0  0
  -22.2111  -39.8060   -7.5513 H   0  0  0  0  0
  -21.6214  -38.9398   -9.8271 H   0  0  0  0  0
  -18.0502  -39.7778   -6.4613 H   0  0  0  0  0
  -17.3730  -37.0504  -10.0230 H   0  0  0  0  0
  -17.0649  -36.6521   -8.3149 H   0  0  0  0  0
  -15.7168  -37.1336   -9.3741 H   0  0  0  0  0
  -17.4253  -41.6266   -9.0890 H   0  0  0  0  0
  -15.9804  -41.8710  -10.0328 H   0  0  0  0  0
  -15.9108  -38.1157   -7.0016 H   0  0  0  0  0
  -14.1887  -41.0090   -6.0008 H   0  0  0  0  0
  -17.2889  -39.7441  -10.6350 H   0  0  0  0  0
  1  6  4  0  0  0
  7  1  4  0  0  0
  4  2  1  0  0  0
  2  7  4  0  0  0
  2  8  4  0  0  0
  3  6  4  0  0  0
  8  3  4  0  0  0
  9  4  1  0  0  0
  4 10  2  0  0  0
  6  5  1  0  0  0
  5 11  3  0  0  0
 12  9  1  0  0  0
 12 13  4  0  0  0
 17 12  4  0  0  0
 14 13  4  0  0  0
 15 14  4  0  0  0
 16 15  4  0  0  0
 15 27  1  0  0  0
 16 17  4  0  0  0
 18 16  1  0  0  0
 18 19  1  0  0  0
 18 23  1  0  0  0
 25 18  1  0  0  0
 20 21  1  0  0  0
 20 25  1  0  0  0
 21 22  1  0  0  0
 22 23  1  0  0  0
 22 24  2  0  0  0
 25 26  1  0  0  0
  1 28  1  0  0  0
  3 29  1  0  0  0
  7 30  1  0  0  0
  9 31  1  0  0  0
 13 32  1  0  0  0
 14 33  1  0  0  0
 17 34  1  0  0  0
 19 35  1  0  0  0
 19 36  1  0  0  0
 19 37  1  0  0  0
 20 38  1  0  0  0
 20 39  1  0  0  0
 23 40  1  0  0  0
 24 41  1  0  0  0
 25 42  1  0  0  0
M  END
$$$$
