5eml_ligand
  -I-interpret- 

 55 58  0  0  0  0  0  0  0  0999 V2000
   22.7280  -44.7520  -10.7420 C   0  0  0  0  0
   23.1200  -43.3720  -10.2370 C   0  0  0  0  0
   23.0700  -43.3370   -8.8340 C   0  0  0  0  0
   23.7980  -42.3410   -8.1640 C   0  0  0  0  0
   23.7710  -42.2820   -6.7720 C   0  0  0  0  0
   23.0130  -43.1980   -6.0400 C   0  0  0  0  0
   22.2860  -44.1970   -6.6860 C   0  0  0  0  0
   22.3100  -44.2730   -8.0840 C   0  0  0  0  0
   21.5630  -45.2920   -8.6820 C   0  0  0  0  0
   21.4620  -45.2330  -10.1520 N   0  3  0  0  0
   21.1770  -46.5980  -10.6690 C   0  0  0  0  0
   19.6720  -46.8660  -11.0230 C   0  0  0  0  0
   18.8640  -46.0290  -10.2070 O   0  0  0  0  0
   19.2460  -48.3600  -10.8680 C   0  0  0  0  0
   20.4180  -49.2340  -10.5810 N   0  0  0  0  0
   21.2910  -49.7000  -11.5430 C   0  0  0  0  0
   21.2020  -49.4980  -12.7610 O   0  0  0  0  0
   22.4660  -50.5530  -11.0340 C   0  0  0  0  0
   22.1310  -51.2050   -9.7940 O   0  0  0  0  0
   23.2530  -51.6650   -9.1960 C   0  0  0  0  0
   23.3530  -51.4600   -7.8130 C   0  0  0  0  0
   22.3760  -50.8250   -7.1220 N   0  0  0  0  0
   22.5020  -50.6130   -5.7230 C   0  0  0  0  0
   23.6400  -51.0620   -5.0430 C   0  0  0  0  0
   24.6430  -51.7190   -5.7600 C   0  0  0  0  0
   24.4990  -51.9170   -7.1400 C   0  0  0  0  0
   25.4990  -52.5700   -7.8680 C   0  0  0  0  0
   25.3800  -52.7710   -9.2470 C   0  0  0  0  0
   24.2520  -52.3170   -9.9220 C   0  0  0  0  0
   23.5165  -45.4495  -10.4596 H   0  0  0  0  0
   22.5926  -44.6886  -11.8217 H   0  0  0  0  0
   22.4243  -42.6345  -10.6374 H   0  0  0  0  0
   24.1354  -43.1476  -10.5636 H   0  0  0  0  0
   24.3824  -41.6162   -8.7308 H   0  0  0  0  0
   24.3453  -41.5158   -6.2513 H   0  0  0  0  0
   22.9894  -43.1314   -4.9523 H   0  0  0  0  0
   21.7033  -44.9135   -6.1071 H   0  0  0  0  0
   20.5472  -45.1954   -8.2988 H   0  0  0  0  0
   22.0710  -46.2268   -8.4449 H   0  0  0  0  0
   20.7137  -44.5883  -10.4067 H   0  0  0  0  0
   21.4459  -47.2986   -9.8784 H   0  0  0  0  0
   21.7446  -46.7117  -11.5926 H   0  0  0  0  0
   19.5338  -46.6345  -12.0791 H   0  0  0  0  0
   17.9386  -46.1813  -10.4119 H   0  0  0  0  0
   18.7906  -48.6883  -11.8023 H   0  0  0  0  0
   18.5465  -48.4354  -10.0354 H   0  0  0  0  0
   20.5858  -49.5051   -9.6121 H   0  0  0  0  0
   23.3240  -49.9020  -10.8663 H   0  0  0  0  0
   22.6939  -51.3149  -11.7794 H   0  0  0  0  0
   21.7103  -50.0993   -5.1776 H   0  0  0  0  0
   23.7422  -50.9014   -3.9697 H   0  0  0  0  0
   25.5358  -52.0769   -5.2472 H   0  0  0  0  0
   26.3885  -52.9293   -7.3505 H   0  0  0  0  0
   26.1718  -53.2838   -9.7930 H   0  0  0  0  0
   24.1497  -52.4671  -10.9967 H   0  0  0  0  0
  1  2  1  0  0  0
  1 10  1  0  0  0
  2  3  1  0  0  0
  3  4  4  0  0  0
  3  8  4  0  0  0
  4  5  4  0  0  0
  5  6  4  0  0  0
  6  7  4  0  0  0
  7  8  4  0  0  0
  8  9  1  0  0  0
  9 10  1  0  0  0
 10 11  1  0  0  0
 11 12  1  0  0  0
 12 13  1  0  0  0
 12 14  1  0  0  0
 14 15  1  0  0  0
 15 16  1  0  0  0
 16 17  2  0  0  0
 16 18  1  0  0  0
 18 19  1  0  0  0
 19 20  1  0  0  0
 20 21  4  0  0  0
 20 29  4  0  0  0
 21 22  4  0  0  0
 21 26  4  0  0  0
 22 23  4  0  0  0
 23 24  4  0  0  0
 24 25  4  0  0  0
 25 26  4  0  0  0
 26 27  4  0  0  0
 27 28  4  0  0  0
 28 29  4  0  0  0
  1 30  1  0  0  0
  1 31  1  0  0  0
  2 32  1  0  0  0
  2 33  1  0  0  0
  4 34  1  0  0  0
  5 35  1  0  0  0
  6 36  1  0  0  0
  7 37  1  0  0  0
  9 38  1  0  0  0
  9 39  1  0  0  0
 10 40  1  0  0  0
 11 41  1  0  0  0
 11 42  1  0  0  0
 12 43  1  0  0  0
 13 44  1  0  0  0
 14 45  1  0  0  0
 14 46  1  0  0  0
 15 47  1  0  0  0
 18 48  1  0  0  0
 18 49  1  0  0  0
 23 50  1  0  0  0
 24 51  1  0  0  0
 25 52  1  0  0  0
 27 53  1  0  0  0
 28 54  1  0  0  0
 29 55  1  0  0  0
M  END
$$$$
