### 
### Created by X-TOOL on Mon Sep 10 21:12:53 2018
### 

@<TRIPOS>MOLECULE
2fq6_ligand
   49    50     1     0     0
SMALL
GAST_HUCK


@<TRIPOS>ATOM
      1 O4         -5.1270   10.4150   46.5930 O.co2     1 P3F        -0.5536
      2 P1         -5.2470   11.4470   47.6890 P.3       1 P3F         0.2038
      3 O2         -6.6710   11.8790   47.9980 O.co2     1 P3F        -0.5536
      4 O3         -4.2250   12.5780   47.6870 O.co2     1 P3F        -0.5536
      5 O1         -4.7970   10.5940   48.9950 O.3       1 P3F        -0.2638
      6 C5         -5.5640    9.4520   49.4030 C.3       1 P3F         0.1127
      7 C4         -5.3940    9.1750   50.8900 C.ar      1 P3F         0.0045
      8 C3         -4.2730    8.4320   51.2680 C.ar      1 P3F        -0.0092
      9 N1         -4.0510    8.1090   52.5490 N.ar      1 P3F        -0.3218
     10 C2         -4.8720    8.5140   53.5410 C.ar      1 P3F         0.0433
     11 C1         -4.5600    8.1210   54.9800 C.3       1 P3F        -0.0216
     12 C17        -6.0120    9.2590   53.1900 C.ar      1 P3F         0.1172
     13 O9         -6.8400    9.6580   54.1850 O.3       1 P3F        -0.3300
     14 C6         -6.2680    9.6620   51.8630 C.ar      1 P3F         0.0303
     15 C7         -7.5940   10.3710   51.5890 C.2       1 P3F         0.0319
     16 N2         -8.2890   11.4700   51.5470 N.2       1 P3F        -0.1881
     17 N3         -9.6830   11.0410   51.3780 N.am      1 P3F        -0.1666
     18 C8        -10.7860   10.9270   52.2940 C.2       1 P3F         0.2443
     19 O5        -11.0030   11.2870   53.4730 O.2       1 P3F        -0.3782
     20 C9        -11.9590   10.2640   51.6270 C.3       1 P3F         0.1284
     21 N4        -11.8030    9.5710   50.3610 N.am      1 P3F        -0.2635
     22 C10       -12.5160    8.4250   50.0390 C.2       1 P3F         0.2254
     23 O6        -13.3070    7.8160   50.8070 O.2       1 P3F        -0.3729
     24 C11       -12.3430    7.8480   48.6860 C.ar      1 P3F         0.0792
     25 C16       -12.6630    8.6460   47.5870 C.ar      1 P3F         0.0655
     26 C18       -13.2370    9.9650   47.7660 C.3       1 P3F         0.3788
     27 F2        -14.4590    9.8380   48.3210 F         1 P3F        -0.2200
     28 F1        -13.3320   10.6030   46.5930 F         1 P3F        -0.2200
     29 F3        -12.6000   10.7310   48.5900 F         1 P3F        -0.2200
     30 C12       -11.8080    6.5840   48.4780 C.ar      1 P3F        -0.0133
     31 C13       -11.6570    6.1290   47.1500 C.ar      1 P3F        -0.0289
     32 C14       -11.9850    6.9320   46.0780 C.ar      1 P3F        -0.0284
     33 C15       -12.5230    8.2000   46.2760 C.ar      1 P3F        -0.0271
     34 H1         -5.2280    8.5726   48.8339 H         1 P3F         0.0779
     35 H2         -6.6271    9.6405   49.1928 H         1 P3F         0.0779
     36 H3         -3.5686    8.1103   50.5094 H         1 P3F         0.0627
     37 H4         -5.3295    8.5350   55.6482 H         1 P3F         0.0382
     38 H5         -3.5749    8.5199   55.2637 H         1 P3F         0.0382
     39 H6         -4.5505    7.0245   55.0668 H         1 P3F         0.0382
     40 H7         -7.1733    8.8954   54.6430 H         1 P3F         0.2491
     41 H8         -8.2828    9.5841   51.2853 H         1 P3F         0.0706
     42 H9         -9.9104   10.7757   50.4410 H         1 P3F         0.2533
     43 H10       -12.7114   11.0495   51.4634 H         1 P3F         0.0770
     44 H11       -12.3497    9.5253   52.3423 H         1 P3F         0.0770
     45 H12       -11.1542    9.9349   49.6927 H         1 P3F         0.1879
     46 H13       -11.5133    5.9614   49.3150 H         1 P3F         0.0752
     47 H14       -11.2763    5.1302   46.9698 H         1 P3F         0.0864
     48 H15       -11.8218    6.5711   45.0689 H         1 P3F         0.0728
     49 H16       -12.8227    8.8190   45.4381 H         1 P3F         0.0867
@<TRIPOS>BOND
     1    1    2 ar 
     2    2    3 ar 
     3    2    4 ar 
     4    2    5 1  
     5    5    6 1  
     6    6    7 1  
     7    7    8 ar 
     8    7   14 ar 
     9    8    9 ar 
    10    9   10 ar 
    11   10   11 1  
    12   10   12 ar 
    13   12   13 1  
    14   12   14 ar 
    15   14   15 1  
    16   15   16 2  
    17   16   17 1  
    18   17   18 am 
    19   18   19 2  
    20   18   20 1  
    21   20   21 1  
    22   21   22 am 
    23   22   23 2  
    24   22   24 1  
    25   24   25 ar 
    26   24   30 ar 
    27   25   26 1  
    28   25   33 ar 
    29   26   27 1  
    30   26   28 1  
    31   26   29 1  
    32   30   31 ar 
    33   31   32 ar 
    34   32   33 ar 
    35    6   34 1  
    36    6   35 1  
    37    8   36 1  
    38   11   37 1  
    39   11   38 1  
    40   11   39 1  
    41   13   40 1  
    42   15   41 1  
    43   17   42 1  
    44   20   43 1  
    45   20   44 1  
    46   21   45 1  
    47   30   46 1  
    48   31   47 1  
    49   32   48 1  
    50   33   49 1  
@<TRIPOS>SUBSTRUCTURE
     1 P3F         1

