4uiw_ligand
  -I-interpret- 

 55 58  0  0  0  0  0  0  0  0999 V2000
   -2.7760   11.7730    8.3110 C   0  0  0  0  0
   -1.7550   10.9550    9.0700 C   0  0  0  0  0
   -1.0070   11.8680    9.9400 N   0  0  0  0  0
    0.2130   12.3480    9.5360 C   0  0  0  0  0
    0.9720   13.2050   10.2590 C   0  0  0  0  0
    2.2970   13.6510    9.7170 C   0  0  0  0  0
    3.1390   12.7430    9.0790 C   0  0  0  0  0
    4.3670   13.1530    8.5790 C   0  0  0  0  0
    4.7560   14.4710    8.6970 C   0  0  0  0  0
    3.9250   15.3960    9.3150 C   0  0  0  0  0
    2.7010   14.9790    9.8320 C   0  0  0  0  0
    4.3350   16.8310    9.4280 C   0  0  0  0  0
    5.5980   17.0390    9.0310 F   0  0  0  0  0
    4.1970   17.3130   10.6720 F   0  0  0  0  0
    3.5640   17.6020    8.7100 F   0  0  0  0  0
    0.4080   13.6360   11.5150 C   0  0  0  0  0
    1.1400   14.7290   12.6540 S   0  0  0  0  0
   -0.2180   14.6090   13.7110 C   0  0  0  0  0
   -1.1610   13.7560   13.2250 C   0  0  0  0  0
   -0.8490   13.1640   11.9860 C   0  0  0  0  0
   -1.5950   12.2360   11.1510 C   0  0  0  0  0
   -2.6980   11.8050   11.4980 O   0  0  0  0  0
   -0.3840   15.3600   14.9370 C   0  0  0  0  0
    0.7040   15.6840   15.6570 N   0  0  0  0  0
   -1.5550   15.8060   15.1510 N   0  0  0  0  0
   -2.0230   16.6330   16.2420 C   0  0  0  0  0
   -2.8000   17.7960   15.6730 C   0  0  0  0  0
   -3.2670   18.7400   16.7610 C   0  0  0  0  0
   -4.4550   17.9490   17.7990 S   0  0  0  0  0
   -5.5510   17.4910   16.9940 O   0  0  0  0  0
   -4.7500   18.8030   18.9120 O   0  0  0  0  0
   -3.5340   16.5540   18.3680 C   0  0  0  0  0
   -2.8640   15.8150   17.2060 C   0  0  0  0  0
   -3.4485   12.2590    9.0179 H   0  0  0  0  0
   -2.2641   12.5292    7.7159 H   0  0  0  0  0
   -3.3486   11.1182    7.6541 H   0  0  0  0  0
   -1.0794   10.4546    8.3763 H   0  0  0  0  0
   -2.2508   10.1872    9.6640 H   0  0  0  0  0
    0.5962   12.0181    8.5704 H   0  0  0  0  0
    2.8311   11.7029    8.9717 H   0  0  0  0  0
    5.0247   12.4327    8.0925 H   0  0  0  0  0
    5.7214   14.7883    8.3028 H   0  0  0  0  0
    2.0528   15.6989   10.3316 H   0  0  0  0  0
   -2.0896   13.5466   13.7560 H   0  0  0  0  0
    1.6302   15.4008   15.3370 H   0  0  0  0  0
   -2.2594   15.5458   14.4607 H   0  0  0  0  0
   -1.1749   17.0202   16.8067 H   0  0  0  0  0
   -3.6767   17.4048   15.1568 H   0  0  0  0  0
   -2.1480   18.3472   14.9953 H   0  0  0  0  0
   -3.7270   19.6132   16.2984 H   0  0  0  0  0
   -2.4094   19.0349   17.3657 H   0  0  0  0  0
   -4.2183   15.8673   18.8663 H   0  0  0  0  0
   -2.7580   16.9055   19.0480 H   0  0  0  0  0
   -2.1745   15.1084   17.6680 H   0  0  0  0  0
   -3.6803   15.4084   16.6089 H   0  0  0  0  0
  1  2  1  0  0  0
  2  3  1  0  0  0
  3  4  1  0  0  0
  3 21  1  0  0  0
  4  5  2  0  0  0
  5  6  1  0  0  0
  5 16  1  0  0  0
  6  7  4  0  0  0
  6 11  4  0  0  0
  7  8  4  0  0  0
  8  9  4  0  0  0
  9 10  4  0  0  0
 10 11  4  0  0  0
 10 12  1  0  0  0
 12 13  1  0  0  0
 12 14  1  0  0  0
 12 15  1  0  0  0
 16 17  4  0  0  0
 16 20  4  0  0  0
 17 18  4  0  0  0
 18 19  4  0  0  0
 18 23  1  0  0  0
 19 20  4  0  0  0
 20 21  1  0  0  0
 21 22  2  0  0  0
 23 24  2  0  0  0
 23 25  1  0  0  0
 25 26  1  0  0  0
 26 27  1  0  0  0
 26 33  1  0  0  0
 27 28  1  0  0  0
 28 29  1  0  0  0
 29 30  2  0  0  0
 29 31  2  0  0  0
 29 32  1  0  0  0
 32 33  1  0  0  0
  1 34  1  0  0  0
  1 35  1  0  0  0
  1 36  1  0  0  0
  2 37  1  0  0  0
  2 38  1  0  0  0
  4 39  1  0  0  0
  7 40  1  0  0  0
  8 41  1  0  0  0
  9 42  1  0  0  0
 11 43  1  0  0  0
 19 44  1  0  0  0
 24 45  1  0  0  0
 25 46  1  0  0  0
 26 47  1  0  0  0
 27 48  1  0  0  0
 27 49  1  0  0  0
 28 50  1  0  0  0
 28 51  1  0  0  0
 32 52  1  0  0  0
 32 53  1  0  0  0
 33 54  1  0  0  0
 33 55  1  0  0  0
M  END
$$$$
