2n27_ligand
  -I-interpret- 

 51 51  0  0  0  0  0  0  0  0999 V2000
   -8.2530   -3.3390    4.6350 C   0  0  0  0  0
   -8.6460   -3.9040    5.8440 C   0  0  0  0  0
   -9.7180   -4.7910    5.8670 C   0  0  0  0  0
  -10.3920   -5.1090    4.6940 C   0  0  0  0  0
  -10.0000   -4.5420    3.4840 C   0  0  0  0  0
    4.4770   -3.7370    2.5630 C   0  0  0  0  0
    3.6280   -4.0720    3.7900 C   0  0  0  0  0
    4.3710   -5.0790    4.6670 C   0  0  0  0  0
    2.2970   -4.6740    3.3360 C   0  0  0  0  0
    0.9770   -4.0820    3.8380 C   0  0  0  0  0
   -0.3530   -4.6400    3.3300 C   0  0  0  0  0
   -1.4930   -3.7120    3.7540 C   0  0  0  0  0
   -2.8040   -4.4980    3.7890 C   0  0  0  0  0
   -3.9010   -3.6930    3.0880 C   0  0  0  0  0
   -4.8640   -3.1270    4.1350 C   0  0  0  0  0
   -4.4720   -2.8350    5.2630 O   0  0  0  0  0
   -6.1300   -2.9870    3.7220 N   0  0  0  0  0
   -7.1800   -2.4520    4.6010 C   0  0  0  0  0
   -8.9250   -3.6570    3.4580 C   0  0  0  0  0
  -11.4340   -5.9780    4.7930 O   0  0  0  0  0
  -10.1530   -5.3840    7.0120 O   0  0  0  0  0
  -11.2690   -4.6630    7.5370 C   0  0  0  0  0
   -8.1190   -3.6542    6.7649 H   0  0  0  0  0
  -10.5304   -4.7890    2.5644 H   0  0  0  0  0
    5.4255   -3.3075    2.8853 H   0  0  0  0  0
    4.6639   -4.6469    1.9927 H   0  0  0  0  0
    3.9446   -3.0187    1.9395 H   0  0  0  0  0
    3.4413   -3.1635    4.3626 H   0  0  0  0  0
    3.7630   -5.3169    5.5398 H   0  0  0  0  0
    4.5592   -5.9876    4.0951 H   0  0  0  0  0
    5.3189   -4.6482    4.9894 H   0  0  0  0  0
    2.3082   -5.6893    3.7324 H   0  0  0  0  0
    2.2770   -4.5091    2.2587 H   0  0  0  0  0
    0.9908   -3.0496    3.4885 H   0  0  0  0  0
    0.9716   -4.2952    4.9069 H   0  0  0  0  0
   -0.5158   -5.6311    3.7534 H   0  0  0  0  0
   -0.3261   -4.7078    2.2424 H   0  0  0  0  0
   -1.5794   -2.8930    3.0399 H   0  0  0  0  0
   -1.2842   -3.3095    4.7452 H   0  0  0  0  0
   -3.0916   -4.6785    4.8247 H   0  0  0  0  0
   -2.6698   -5.4511    3.2774 H   0  0  0  0  0
   -4.4476   -4.3417    2.4036 H   0  0  0  0  0
   -3.4499   -2.8740    2.5278 H   0  0  0  0  0
   -6.3730   -3.2595    2.7696 H   0  0  0  0  0
   -6.7815   -2.3249    5.6075 H   0  0  0  0  0
   -7.5171   -1.4882    4.2195 H   0  0  0  0  0
   -8.6092   -3.2124    2.5142 H   0  0  0  0  0
  -11.8162   -6.1180    3.9235 H   0  0  0  0  0
  -10.9684   -3.6378    7.7532 H   0  0  0  0  0
  -12.0753   -4.6596    6.8035 H   0  0  0  0  0
  -11.6118   -5.1434    8.4534 H   0  0  0  0  0
  1  2  4  0  0  0
 18  1  1  0  0  0
  1 19  4  0  0  0
  2  3  4  0  0  0
  3  4  4  0  0  0
  3 21  1  0  0  0
  5  4  4  0  0  0
  4 20  1  0  0  0
 19  5  4  0  0  0
  7  6  1  0  0  0
  7  8  1  0  0  0
  9  7  1  0  0  0
 10  9  1  0  0  0
 11 10  1  0  0  0
 12 11  1  0  0  0
 13 12  1  0  0  0
 14 13  1  0  0  0
 15 14  1  0  0  0
 15 16  2  0  0  0
 17 15  1  0  0  0
 17 18  1  0  0  0
 21 22  1  0  0  0
  2 23  1  0  0  0
  5 24  1  0  0  0
  6 25  1  0  0  0
  6 26  1  0  0  0
  6 27  1  0  0  0
  7 28  1  0  0  0
  8 29  1  0  0  0
  8 30  1  0  0  0
  8 31  1  0  0  0
  9 32  1  0  0  0
  9 33  1  0  0  0
 10 34  1  0  0  0
 10 35  1  0  0  0
 11 36  1  0  0  0
 11 37  1  0  0  0
 12 38  1  0  0  0
 12 39  1  0  0  0
 13 40  1  0  0  0
 13 41  1  0  0  0
 14 42  1  0  0  0
 14 43  1  0  0  0
 17 44  1  0  0  0
 18 45  1  0  0  0
 18 46  1  0  0  0
 19 47  1  0  0  0
 20 48  1  0  0  0
 22 49  1  0  0  0
 22 50  1  0  0  0
 22 51  1  0  0  0
M  END
$$$$
