1gi6_ligand
  -I-interpret- 

 31 33  0  0  0  0  0  0  0  0999 V2000
   44.1620   -2.9710   26.3600 C   0  0  0  0  0
   44.6360   -1.6440   26.3740 C   0  0  0  0  0
   44.6090   -0.8910   27.5340 C   0  0  0  0  0
   44.1120   -1.4680   28.6700 C   0  0  0  0  0
   43.6510   -2.7370   28.6680 C   0  0  0  0  0
   43.6550   -3.5290   27.5350 C   0  0  0  0  0
   44.2320   -3.7060   25.1760 C   0  0  0  0  0
   44.0220   -5.0070   25.2220 N   0  0  0  0  0
   44.5210   -3.0830   24.0420 N   0  0  0  0  0
   43.9980   -0.9600   29.8730 N   0  0  0  0  0
   43.2410   -2.9910   29.9540 C   0  0  0  0  0
   43.4830   -1.8500   30.6820 C   0  0  0  0  0
   43.2410   -1.6500   32.0330 C   0  0  0  0  0
   42.9800   -2.7540   32.8420 C   0  0  0  0  0
   42.7360   -2.5920   34.1930 C   0  0  0  0  0
   42.7430   -1.3140   34.7390 C   0  0  0  0  0
   43.0030   -0.1930   33.9290 C   0  0  0  0  0
   43.2500   -0.3590   32.5670 C   0  0  0  0  0
   43.5060    0.7530   31.7730 O   0  0  0  0  0
   45.0296   -1.2046   25.4575 H   0  0  0  0  0
   44.9744    0.1359   27.5425 H   0  0  0  0  0
   43.2765   -4.5509   27.5582 H   0  0  0  0  0
   44.0800   -5.5634   24.3691 H   0  0  0  0  0
   44.5863   -3.6115   23.1720 H   0  0  0  0  0
   44.6781   -2.0752   24.0395 H   0  0  0  0  0
   42.8070   -3.9191   30.3261 H   0  0  0  0  0
   42.9681   -3.7530   32.4063 H   0  0  0  0  0
   42.5399   -3.4587   34.8243 H   0  0  0  0  0
   42.5457   -1.1790   35.8024 H   0  0  0  0  0
   43.0113    0.8053   34.3666 H   0  0  0  0  0
   43.4695    1.5458   32.3132 H   0  0  0  0  0
  7  1  1  0  0  0
  1  6  4  0  0  0
  1  2  4  0  0  0
  2  3  4  0  0  0
  3  4  4  0  0  0
  4 10  4  0  0  0
  5  4  4  0  0  0
  5 11  4  0  0  0
  6  5  4  0  0  0
 11 12  4  0  0  0
 12 13  1  0  0  0
 10 12  4  0  0  0
 13 18  4  0  0  0
 13 14  4  0  0  0
 14 15  4  0  0  0
 15 16  4  0  0  0
 17 16  4  0  0  0
 18 17  4  0  0  0
 18 19  1  0  0  0
  7  9  1  0  0  0
  7  8  2  0  0  0
  2 20  1  0  0  0
  3 21  1  0  0  0
  6 22  1  0  0  0
  8 23  1  0  0  0
  9 24  1  0  0  0
  9 25  1  0  0  0
 11 26  1  0  0  0
 14 27  1  0  0  0
 15 28  1  0  0  0
 16 29  1  0  0  0
 17 30  1  0  0  0
 19 31  1  0  0  0
M  END
$$$$
