3fl8_ligand
  -I-interpret- 

 75 78  0  0  0  0  0  0  0  0999 V2000
   15.3970  -31.3430   -6.2690 N   0  0  0  0  0
   15.8540  -31.8660   -5.0940 C   0  0  0  0  0
   16.2330  -30.9060   -4.0160 C   0  0  0  0  0
   16.1620  -29.4160   -4.2890 C   0  0  0  0  0
   16.9700  -28.6240   -3.2920 C   0  0  0  0  0
   16.2650  -27.4860   -2.5250 C   0  0  0  0  0
   17.0230  -26.7130   -1.4790 C   0  0  0  0  0
   16.3420  -25.7030   -0.8310 O   0  0  0  0  0
   15.0780  -25.4890   -1.3010 C   0  0  0  0  0
   18.4860  -27.0610   -1.1890 C   0  0  0  0  0
   19.0900  -26.3360   -0.1930 O   0  0  0  0  0
   18.6330  -26.5470    1.1530 C   0  0  0  0  0
   19.2210  -28.2020   -1.9390 C   0  0  0  0  0
   20.6800  -28.5920   -1.6810 C   0  0  0  0  0
   21.5310  -27.8320   -1.0510 C   0  0  0  0  0
   22.9260  -28.2980   -0.6990 C   0  0  0  0  0
   23.5290  -29.3200   -1.4780 N   0  0  0  0  0
   22.6920  -29.8720   -2.5010 N   0  3  0  0  0
   23.1870  -30.9750   -3.2220 C   0  0  0  0  0
   24.9290  -29.7900   -1.3140 C   0  0  0  0  0
   25.1220  -31.2630   -0.7360 C   0  0  0  0  0
   26.1410  -31.2130    0.3760 C   0  0  0  0  0
   25.8070  -30.0460    1.2950 C   0  0  0  0  0
   25.4890  -30.1040   -2.7450 C   0  0  0  0  0
   24.5700  -30.7260   -3.6910 C   0  0  0  0  0
   25.0310  -31.0640   -5.1120 C   0  0  0  0  0
   26.4580  -30.7340   -5.4390 C   0  0  0  0  0
   27.3820  -30.1120   -4.4570 C   0  0  0  0  0
   26.9420  -29.7690   -3.0780 C   0  0  0  0  0
   23.5170  -27.8010    0.1640 O   0  0  0  0  0
   18.4360  -28.9780   -2.9930 C   0  0  0  0  0
   16.7030  -31.4680   -2.7430 C   0  0  0  0  0
   16.7610  -32.8710   -2.6230 N   0  0  0  0  0
   16.3770  -33.8330   -3.7060 C   0  0  0  0  0
   16.5040  -35.2090   -3.5200 N   0  0  0  0  0
   15.9230  -33.2890   -4.9570 N   0  0  0  0  0
   15.3256  -30.3320   -6.3836 H   0  0  0  0  0
   15.1269  -31.9632   -7.0324 H   0  0  0  0  0
   15.1208  -29.1030   -4.2115 H   0  0  0  0  0
   16.5682  -29.2304   -5.2833 H   0  0  0  0  0
   17.7803  -28.2558   -3.9212 H   0  0  0  0  0
   15.4628  -27.9792   -1.9760 H   0  0  0  0  0
   16.0203  -26.7486   -3.2895 H   0  0  0  0  0
   17.8406  -26.5428   -0.7785 H   0  0  0  0  0
   15.1249  -25.2184   -2.3558 H   0  0  0  0  0
   14.4893  -26.3988   -1.1839 H   0  0  0  0  0
   14.6143  -24.6796   -0.7372 H   0  0  0  0  0
   19.1265  -27.3705   -2.0148 H   0  0  0  0  0
   17.5734  -26.3000    1.2185 H   0  0  0  0  0
   18.7814  -27.5917    1.4262 H   0  0  0  0  0
   19.1988  -25.9088    1.8317 H   0  0  0  0  0
   19.8828  -27.7027   -1.2313 H   0  0  0  0  0
   21.0258  -29.5596   -2.0448 H   0  0  0  0  0
   21.2264  -26.8245   -0.7677 H   0  0  0  0  0
   22.5709  -29.1275   -3.1876 H   0  0  0  0  0
   21.8584  -30.2103   -2.0204 H   0  0  0  0  0
   22.5482  -31.1406   -4.0896 H   0  0  0  0  0
   23.1915  -31.8467   -2.5677 H   0  0  0  0  0
   25.3720  -29.0188   -0.6838 H   0  0  0  0  0
   25.4668  -31.9299   -1.5262 H   0  0  0  0  0
   24.1731  -31.6394   -0.3538 H   0  0  0  0  0
   27.1385  -31.0798   -0.0427 H   0  0  0  0  0
   26.1186  -32.1455    0.9399 H   0  0  0  0  0
   25.8349  -29.1171    0.7254 H   0  0  0  0  0
   24.8102  -30.1878    1.7126 H   0  0  0  0  0
   26.5376  -30.0006    2.1026 H   0  0  0  0  0
   24.3617  -31.5177   -5.8430 H   0  0  0  0  0
   26.8313  -30.9601   -6.4378 H   0  0  0  0  0
   28.4093  -29.9013   -4.7543 H   0  0  0  0  0
   27.6125  -29.3086   -2.3524 H   0  0  0  0  0
   18.9586  -28.7671   -3.9260 H   0  0  0  0  0
   18.3921  -29.9940   -2.6008 H   0  0  0  0  0
   16.9976  -30.8204   -1.9172 H   0  0  0  0  0
   16.8625  -35.5734   -2.6373 H   0  0  0  0  0
   16.2384  -35.8512   -4.2666 H   0  0  0  0  0
  1  2  1  0  0  0
  2  3  4  0  0  0
  2 36  4  0  0  0
  3  4  1  0  0  0
  3 32  4  0  0  0
  4  5  1  0  0  0
  5  6  1  0  0  0
  5 31  1  0  0  0
  6  7  1  0  0  0
  7  8  1  0  0  0
  7 10  1  0  0  0
  8  9  1  0  0  0
 10 11  1  0  0  0
 10 13  1  0  0  0
 11 12  1  0  0  0
 13 14  1  0  0  0
 13 31  1  0  0  0
 14 15  2  0  0  0
 15 16  1  0  0  0
 16 17  1  0  0  0
 16 30  2  0  0  0
 17 18  1  0  0  0
 17 20  1  0  0  0
 18 19  1  0  0  0
 19 25  1  0  0  0
 20 21  1  0  0  0
 20 24  1  0  0  0
 21 22  1  0  0  0
 22 23  1  0  0  0
 24 25  4  0  0  0
 24 29  4  0  0  0
 25 26  4  0  0  0
 26 27  4  0  0  0
 27 28  4  0  0  0
 28 29  4  0  0  0
 32 33  4  0  0  0
 33 34  4  0  0  0
 34 35  1  0  0  0
 34 36  4  0  0  0
  1 37  1  0  0  0
  1 38  1  0  0  0
  4 39  1  0  0  0
  4 40  1  0  0  0
  5 41  1  0  0  0
  6 42  1  0  0  0
  6 43  1  0  0  0
  7 44  1  0  0  0
  9 45  1  0  0  0
  9 46  1  0  0  0
  9 47  1  0  0  0
 10 48  1  0  0  0
 12 49  1  0  0  0
 12 50  1  0  0  0
 12 51  1  0  0  0
 13 52  1  0  0  0
 14 53  1  0  0  0
 15 54  1  0  0  0
 18 55  1  0  0  0
 18 56  1  0  0  0
 19 57  1  0  0  0
 19 58  1  0  0  0
 20 59  1  0  0  0
 21 60  1  0  0  0
 21 61  1  0  0  0
 22 62  1  0  0  0
 22 63  1  0  0  0
 23 64  1  0  0  0
 23 65  1  0  0  0
 23 66  1  0  0  0
 26 67  1  0  0  0
 27 68  1  0  0  0
 28 69  1  0  0  0
 29 70  1  0  0  0
 31 71  1  0  0  0
 31 72  1  0  0  0
 32 73  1  0  0  0
 35 74  1  0  0  0
 35 75  1  0  0  0
M  END
$$$$
