2hxq_ligand
  -I-interpret- 

 56 60  0  0  0  0  0  0  0  0999 V2000
   14.8080   -1.7500   10.8440 C   0  0  0  0  0
   14.1310   -2.5900   11.8120 C   0  0  0  0  0
   12.7720   -2.2190   12.1800 C   0  0  0  0  0
   12.1320   -1.0350   11.6150 C   0  0  0  0  0
   12.8000   -0.2210   10.6160 C   0  0  0  0  0
   14.1430   -0.6030   10.2540 C   0  0  0  0  0
   14.8540    0.1860    9.3960 N   0  0  0  0  0
   16.1490   -0.0560    9.0860 C   0  0  0  0  0
   16.8850   -1.2130    9.6950 C   0  0  0  0  0
   16.2010   -2.0400   10.5160 C   0  0  0  0  0
   18.3380   -1.4000    9.4110 C   0  0  0  0  0
   19.1620   -0.5230    8.6810 N   0  0  0  0  0
   20.4420   -1.0460    8.6260 C   0  0  0  0  0
   20.4480   -2.3040    9.3660 C   0  0  0  0  0
   19.1490   -2.4680    9.8660 C   0  0  0  0  0
   21.6220   -0.5150    7.9610 C   0  0  0  0  0
   22.8720   -1.2800    8.0410 C   0  0  0  0  0
   22.8620   -2.5500    8.7940 C   0  0  0  0  0
   21.6700   -3.0640    9.4570 C   0  0  0  0  0
   24.0750   -3.4470    8.8370 C   0  0  0  0  0
   24.0800   -4.2690    7.6040 N   0  3  0  0  0
   25.2940   -3.9330    6.8360 C   0  0  0  0  0
   25.1120   -4.5000    5.4370 C   0  0  0  0  0
   24.9640   -6.0130    5.4770 C   0  0  0  0  0
   23.7940   -6.3830    6.4100 C   0  0  0  0  0
   24.0100   -5.7470    7.7840 C   0  0  0  0  0
   24.7100   -6.5230    4.0340 C   0  0  0  0  0
   25.8240   -6.0950    3.1620 N   0  3  0  0  0
   16.7750    0.6520    8.3040 O   0  0  0  0  0
   14.6188   -3.4627   12.2462 H   0  0  0  0  0
   12.2225   -2.8367   12.8904 H   0  0  0  0  0
   11.1328   -0.7567   11.9499 H   0  0  0  0  0
   12.3095    0.6392   10.1604 H   0  0  0  0  0
   14.3908    0.9897    8.9718 H   0  0  0  0  0
   16.6880   -2.9217   10.9325 H   0  0  0  0  0
   18.8160   -3.2871   10.5035 H   0  0  0  0  0
   21.5788    0.4283    7.4165 H   0  0  0  0  0
   23.7812   -0.9211    7.5586 H   0  0  0  0  0
   21.7017   -4.0029   10.0098 H   0  0  0  0  0
   24.0381   -4.0886    9.7174 H   0  0  0  0  0
   24.9842   -2.8486    8.8946 H   0  0  0  0  0
   23.2137   -4.0345    7.1193 H   0  0  0  0  0
   26.1784   -4.3582    7.3105 H   0  0  0  0  0
   25.4370   -2.8531    6.7970 H   0  0  0  0  0
   25.9901   -4.2502    4.8415 H   0  0  0  0  0
   24.2095   -4.0718    5.0009 H   0  0  0  0  0
   25.8699   -6.4807    5.8625 H   0  0  0  0  0
   23.7457   -7.4667    6.5169 H   0  0  0  0  0
   22.8611   -6.0142    5.9836 H   0  0  0  0  0
   23.1879   -6.0058    8.4513 H   0  0  0  0  0
   24.9349   -6.1158    8.2276 H   0  0  0  0  0
   23.7737   -6.1088    3.6599 H   0  0  0  0  0
   24.6463   -7.6111    4.0373 H   0  0  0  0  0
   25.6589   -6.4294    2.2126 H   0  0  0  0  0
   25.8807   -5.0766    3.1600 H   0  0  0  0  0
   26.6985   -6.4847    3.5137 H   0  0  0  0  0
  1  2  4  0  0  0
  1  6  4  0  0  0
  1 10  1  0  0  0
  2  3  4  0  0  0
  3  4  4  0  0  0
  4  5  4  0  0  0
  5  6  4  0  0  0
  6  7  1  0  0  0
  7  8  1  0  0  0
  8  9  1  0  0  0
  8 29  2  0  0  0
  9 10  2  0  0  0
  9 11  1  0  0  0
 11 12  4  0  0  0
 11 15  4  0  0  0
 12 13  4  0  0  0
 13 14  4  0  0  0
 13 16  4  0  0  0
 14 15  4  0  0  0
 14 19  4  0  0  0
 16 17  4  0  0  0
 17 18  4  0  0  0
 18 19  4  0  0  0
 18 20  1  0  0  0
 20 21  1  0  0  0
 21 22  1  0  0  0
 21 26  1  0  0  0
 22 23  1  0  0  0
 23 24  1  0  0  0
 24 25  1  0  0  0
 24 27  1  0  0  0
 25 26  1  0  0  0
 27 28  1  0  0  0
  2 30  1  0  0  0
  3 31  1  0  0  0
  4 32  1  0  0  0
  5 33  1  0  0  0
  7 34  1  0  0  0
 10 35  1  0  0  0
 15 36  1  0  0  0
 16 37  1  0  0  0
 17 38  1  0  0  0
 19 39  1  0  0  0
 20 40  1  0  0  0
 20 41  1  0  0  0
 21 42  1  0  0  0
 22 43  1  0  0  0
 22 44  1  0  0  0
 23 45  1  0  0  0
 23 46  1  0  0  0
 24 47  1  0  0  0
 25 48  1  0  0  0
 25 49  1  0  0  0
 26 50  1  0  0  0
 26 51  1  0  0  0
 27 52  1  0  0  0
 27 53  1  0  0  0
 28 54  1  0  0  0
 28 55  1  0  0  0
 28 56  1  0  0  0
M  END
$$$$
