3phe_ligand
  -I-interpret- 

 71 75  0  0  0  0  0  0  0  0999 V2000
   36.0200   68.9140   19.1500 C   0  0  0  0  0
   35.2550   70.0370   19.7010 N   0  3  0  0  0
   35.6430   71.3160   19.0310 C   0  0  0  0  0
   34.9380   72.5400   19.6560 C   0  0  0  0  0
   35.1970   72.5870   21.1280 N   0  0  0  0  0
   34.7740   71.3370   21.8240 C   0  0  0  0  0
   35.4820   70.1210   21.1820 C   0  0  0  0  0
   34.6950   73.8340   21.6890 C   0  0  0  0  0
   35.4630   75.0480   21.7260 C   0  0  0  0  0
   36.7090   75.0900   21.2380 F   0  0  0  0  0
   34.9580   76.2470   22.2670 C   0  0  0  0  0
   33.6460   76.2820   22.8060 C   0  0  0  0  0
   33.1260   77.5660   23.3750 C   0  0  0  0  0
   33.8530   78.5500   23.3930 O   0  0  0  0  0
   31.7390   77.6260   23.9460 C   0  0  0  0  0
   31.0320   76.4680   23.9130 C   0  0  0  0  0
   31.4630   75.2220   23.4000 N   0  0  0  0  0
   30.5840   74.0170   23.5310 C   0  0  0  0  0
   30.8980   73.1650   24.7810 C   0  0  0  0  0
   31.7570   73.6430   25.8400 C   0  0  0  0  0
   32.0330   72.8500   26.9760 C   0  0  0  0  0
   31.4580   71.5600   27.0820 C   0  0  0  0  0
   30.6090   71.0570   26.0600 C   0  0  0  0  0
   30.3330   71.8570   24.9170 C   0  0  0  0  0
   31.8080   70.5860   28.5030 S   0  0  0  0  0
   33.2230   69.6330   28.0210 C   0  0  0  0  0
   30.7130   69.6590   28.6970 O   0  0  0  0  0
   32.2000   71.4900   29.5640 O   0  0  0  0  0
   32.8040   75.1160   22.8190 C   0  0  0  0  0
   33.3660   73.9130   22.2500 C   0  0  0  0  0
   31.1800   78.8900   24.5140 C   0  0  0  0  0
   31.7850   79.9650   24.5020 O   0  0  0  0  0
   29.9140   78.6850   25.0430 O   0  0  0  0  0
   29.3400   79.7470   25.8460 C   0  0  0  0  0
   29.7340   79.5740   27.3000 C   0  0  0  0  0
   29.3290   78.4180   28.0350 C   0  0  0  0  0
   29.7010   78.2650   29.4010 C   0  0  0  0  0
   30.4820   79.2670   30.0360 C   0  0  0  0  0
   30.9230   79.0850   31.6730 Cl  0  0  0  0  0
   30.8940   80.4190   29.3210 C   0  0  0  0  0
   30.5210   80.5700   27.9570 C   0  0  0  0  0
   37.0811   69.0676   19.3466 H   0  0  0  0  0
   35.6924   67.9871   19.6208 H   0  0  0  0  0
   35.8533   68.8554   18.0744 H   0  0  0  0  0
   34.2619   69.8820   19.5274 H   0  0  0  0  0
   35.3478   71.2531   17.9836 H   0  0  0  0  0
   36.7186   71.4476   19.1489 H   0  0  0  0  0
   33.8646   72.4604   19.4843 H   0  0  0  0  0
   35.3252   73.4491   19.1958 H   0  0  0  0  0
   33.6945   71.2182   21.7312 H   0  0  0  0  0
   35.0455   71.3995   22.8778 H   0  0  0  0  0
   36.5533   70.2285   21.3516 H   0  0  0  0  0
   35.0745   69.2175   21.6356 H   0  0  0  0  0
   35.5742   77.1461   22.2714 H   0  0  0  0  0
   30.0239   76.5016   24.3261 H   0  0  0  0  0
   30.7508   73.3905   22.6548 H   0  0  0  0  0
   29.5557   74.3673   23.6207 H   0  0  0  0  0
   32.2009   74.6353   25.7607 H   0  0  0  0  0
   32.6834   73.2279   27.7648 H   0  0  0  0  0
   30.1713   70.0629   26.1514 H   0  0  0  0  0
   29.6821   71.4686   24.1336 H   0  0  0  0  0
   33.4615   68.9162   28.8068 H   0  0  0  0  0
   33.0026   69.1002   27.0960 H   0  0  0  0  0
   34.0718   70.2988   27.8649 H   0  0  0  0  0
   32.7517   73.0126   22.2435 H   0  0  0  0  0
   28.2538   79.7099   25.7634 H   0  0  0  0  0
   29.7115   80.7068   25.4870 H   0  0  0  0  0
   28.7313   77.6480   27.5471 H   0  0  0  0  0
   29.3874   77.3818   29.9575 H   0  0  0  0  0
   31.4932   81.1848   29.8135 H   0  0  0  0  0
   30.8389   81.4553   27.4063 H   0  0  0  0  0
  1  2  1  0  0  0
  2  3  1  0  0  0
  2  7  1  0  0  0
  3  4  1  0  0  0
  4  5  1  0  0  0
  5  6  1  0  0  0
  5  8  1  0  0  0
  6  7  1  0  0  0
  8  9  4  0  0  0
  8 30  4  0  0  0
  9 10  1  0  0  0
  9 11  4  0  0  0
 11 12  4  0  0  0
 12 13  1  0  0  0
 12 29  4  0  0  0
 13 14  2  0  0  0
 13 15  1  0  0  0
 15 16  2  0  0  0
 15 31  1  0  0  0
 16 17  1  0  0  0
 17 18  1  0  0  0
 17 29  1  0  0  0
 18 19  1  0  0  0
 19 20  4  0  0  0
 19 24  4  0  0  0
 20 21  4  0  0  0
 21 22  4  0  0  0
 22 23  4  0  0  0
 22 25  1  0  0  0
 23 24  4  0  0  0
 25 26  1  0  0  0
 25 27  2  0  0  0
 25 28  2  0  0  0
 29 30  4  0  0  0
 31 32  2  0  0  0
 31 33  1  0  0  0
 33 34  1  0  0  0
 34 35  1  0  0  0
 35 36  4  0  0  0
 35 41  4  0  0  0
 36 37  4  0  0  0
 37 38  4  0  0  0
 38 39  1  0  0  0
 38 40  4  0  0  0
 40 41  4  0  0  0
  1 42  1  0  0  0
  1 43  1  0  0  0
  1 44  1  0  0  0
  2 45  1  0  0  0
  3 46  1  0  0  0
  3 47  1  0  0  0
  4 48  1  0  0  0
  4 49  1  0  0  0
  6 50  1  0  0  0
  6 51  1  0  0  0
  7 52  1  0  0  0
  7 53  1  0  0  0
 11 54  1  0  0  0
 16 55  1  0  0  0
 18 56  1  0  0  0
 18 57  1  0  0  0
 20 58  1  0  0  0
 21 59  1  0  0  0
 23 60  1  0  0  0
 24 61  1  0  0  0
 26 62  1  0  0  0
 26 63  1  0  0  0
 26 64  1  0  0  0
 30 65  1  0  0  0
 34 66  1  0  0  0
 34 67  1  0  0  0
 36 68  1  0  0  0
 37 69  1  0  0  0
 40 70  1  0  0  0
 41 71  1  0  0  0
M  END
$$$$
