5ahw_ligand
  -I-interpret- 

 34 37  0  0  0  0  0  0  0  0999 V2000
   -6.6840   -6.9490   20.1540 P   0  0  0  0  0
   -6.1010   -5.6650   20.6660 O   0  0  0  0  0
   -8.1180   -7.1850   20.0430 O   0  0  0  0  0
   -6.2750   -8.0940   21.2060 O   0  0  0  0  0
   -6.1680   -9.4470   20.8610 C   0  0  0  0  0
   -5.3130   -9.5050   19.6050 C   0  0  0  0  0
   -5.1930  -10.7850   19.0620 O   0  0  0  0  0
   -5.9380   -8.6960   18.4740 C   0  0  0  0  0
   -5.7940   -7.3550   18.8700 O   0  0  0  0  0
   -5.1930   -9.2360   17.2810 C   0  0  0  0  0
   -3.9120   -8.6890   17.1150 O   0  0  0  0  0
   -5.1170  -10.7300   17.6290 C   0  0  0  0  0
   -6.2580  -11.4520   17.0100 N   0  0  0  0  0
   -7.3890  -11.8500   17.5630 C   0  0  0  0  0
   -8.1820  -12.4630   16.6410 N   0  0  0  0  0
   -7.5490  -12.4370   15.4660 C   0  0  0  0  0
   -7.7870  -12.8270   14.0350 C   0  0  0  0  0
   -8.8790  -13.4500   13.6380 N   0  0  0  0  0
   -6.8690  -12.5700   13.1090 N   0  0  0  0  0
   -5.7140  -12.0010   13.4310 C   0  0  0  0  0
   -5.4530  -11.5610   14.6730 N   0  0  0  0  0
   -6.3090  -11.7530   15.7150 C   0  0  0  0  0
   -5.1428   -5.7232   20.6553 H   0  0  0  0  0
   -7.1509   -9.8841   20.6850 H   0  0  0  0  0
   -5.7148  -10.0214   21.6689 H   0  0  0  0  0
   -4.3469   -9.1252   19.9374 H   0  0  0  0  0
   -6.9981   -8.7644   18.2300 H   0  0  0  0  0
   -5.6841   -9.0006   16.3368 H   0  0  0  0  0
   -3.4978   -9.0763   16.3404 H   0  0  0  0  0
   -4.2059  -11.1993   17.2579 H   0  0  0  0  0
   -7.6514  -11.7078   18.6113 H   0  0  0  0  0
   -9.6054  -13.6867   14.3138 H   0  0  0  0  0
   -8.9974  -13.6953   12.6550 H   0  0  0  0  0
   -4.9509  -11.8868   12.6611 H   0  0  0  0  0
  1  2  1  0  0  0
  1  3  2  0  0  0
  1  4  1  0  0  0
  1  9  1  0  0  0
  4  5  1  0  0  0
  5  6  1  0  0  0
  6  7  1  0  0  0
  6  8  1  0  0  0
  7 12  1  0  0  0
  8  9  1  0  0  0
  8 10  1  0  0  0
 10 11  1  0  0  0
 10 12  1  0  0  0
 12 13  1  0  0  0
 13 14  4  0  0  0
 13 22  4  0  0  0
 14 15  4  0  0  0
 15 16  4  0  0  0
 16 17  4  0  0  0
 16 22  4  0  0  0
 17 18  1  0  0  0
 17 19  4  0  0  0
 19 20  4  0  0  0
 20 21  4  0  0  0
 21 22  4  0  0  0
  2 23  1  0  0  0
  5 24  1  0  0  0
  5 25  1  0  0  0
  6 26  1  0  0  0
  8 27  1  0  0  0
 10 28  1  0  0  0
 11 29  1  0  0  0
 12 30  1  0  0  0
 14 31  1  0  0  0
 18 32  1  0  0  0
 18 33  1  0  0  0
 20 34  1  0  0  0
M  END
$$$$
