5fsn_ligand
  -I-interpret- 

 26 26  0  0  0  0  0  0  0  0999 V2000
   15.8790   21.6550    4.7830 N   0  0  0  0  0
   17.1840   21.3420    4.6340 C   0  0  0  0  0
   17.6910   20.4230    5.4540 N   0  0  0  0  0
   18.0160   21.8760    3.7160 N   0  0  0  0  0
   17.5030   22.8020    2.8920 C   0  0  0  0  0
   18.4350   23.3880    1.8770 C   0  0  0  0  0
   15.4140   22.5830    3.9570 C   0  0  0  0  0
   16.1800   23.1950    2.9810 C   0  0  0  0  0
   10.3200   21.6220    4.5260 O   0  0  0  0  0
   10.8800   22.3540    5.5850 C   0  0  0  0  0
   11.9630   23.1580    4.9780 C   0  0  0  0  0
   13.2680   22.3990    5.0100 C   0  0  0  0  0
   14.1200   22.9930    4.0210 O   0  0  0  0  0
   17.0978   19.9860    6.1594 H   0  0  0  0  0
   18.6724   20.1562    5.3765 H   0  0  0  0  0
   19.2675   23.8727    2.3871 H   0  0  0  0  0
   18.8142   22.5946    1.2330 H   0  0  0  0  0
   17.8994   24.1218    1.2747 H   0  0  0  0  0
   15.7615   23.9496    2.3151 H   0  0  0  0  0
    9.6047   21.0754    4.8594 H   0  0  0  0  0
   11.2597   21.6978    6.3682 H   0  0  0  0  0
   10.1370   22.9860    6.0714 H   0  0  0  0  0
   12.0774   24.0823    5.5443 H   0  0  0  0  0
   11.7047   23.3741    3.9413 H   0  0  0  0  0
   13.1061   21.3424    4.7966 H   0  0  0  0  0
   13.7244   22.4562    5.9982 H   0  0  0  0  0
  1  2  4  0  0  0
  7  1  4  0  0  0
  2  3  1  0  0  0
  2  4  4  0  0  0
  5  4  4  0  0  0
  5  6  1  0  0  0
  8  5  4  0  0  0
  7  8  4  0  0  0
 13  7  1  0  0  0
 10  9  1  0  0  0
 11 10  1  0  0  0
 12 11  1  0  0  0
 12 13  1  0  0  0
  3 14  1  0  0  0
  3 15  1  0  0  0
  6 16  1  0  0  0
  6 17  1  0  0  0
  6 18  1  0  0  0
  8 19  1  0  0  0
  9 20  1  0  0  0
 10 21  1  0  0  0
 10 22  1  0  0  0
 11 23  1  0  0  0
 11 24  1  0  0  0
 12 25  1  0  0  0
 12 26  1  0  0  0
M  END
$$$$
