5u14_ligand
  -I-interpret- 

 36 38  0  0  0  0  0  0  0  0999 V2000
   68.0860   -1.1200  101.4700 C   0  0  0  0  0
   67.1570   -0.3940   98.9790 C   0  0  0  0  0
   73.9330    0.2500  103.0540 C   0  0  0  0  0
   74.7490    1.1730  102.3490 C   0  0  0  0  0
   77.3810    1.7060  104.7920 N   0  0  0  0  0
   76.1890    1.1890  104.1820 C   0  0  0  0  0
   75.4640    0.3220  104.8830 N   0  0  0  0  0
   74.3190   -0.1550  104.3190 C   0  0  0  0  0
   73.3760   -0.9980  104.7730 N   0  0  0  0  0
   72.4660   -1.1340  103.8490 C   0  0  0  0  0
   71.0050   -2.1680  104.0320 S   0  0  0  0  0
   70.0870   -1.8300  102.5320 C   0  0  0  0  0
   68.6370   -1.4750  102.8280 C   0  0  0  0  0
   67.7990   -2.1180  100.5410 C   0  0  0  0  0
   67.3280   -1.7560   99.2890 C   0  0  0  0  0
   66.5640    0.1170   97.3530 S   0  0  0  0  0
   64.9710    0.6480   97.2930 N   0  0  0  0  0
   67.4320    1.1330   96.7660 O   0  0  0  0  0
   66.8340   -1.0660   96.5050 O   0  0  0  0  0
   67.4720    0.5960   99.8950 C   0  0  0  0  0
   67.9460    0.2300  101.1350 C   0  0  0  0  0
   72.7650   -0.3930  102.7950 N   0  0  0  0  0
   74.4870    1.5620  101.2460 O   0  0  0  0  0
   75.8350    1.5910  102.9430 N   0  0  0  0  0
   77.9611    2.3776  104.2892 H   0  0  0  0  0
   75.7559    0.0235  105.8136 H   0  0  0  0  0
   70.1016   -2.7257  101.9110 H   0  0  0  0  0
   70.5522   -0.9828  102.0280 H   0  0  0  0  0
   68.0925   -2.2912  103.3028 H   0  0  0  0  0
   68.5413   -0.6612  103.5468 H   0  0  0  0  0
   67.9429   -3.1681  100.7953 H   0  0  0  0  0
   67.0916   -2.5210   98.5494 H   0  0  0  0  0
   64.7516    1.5579   96.8875 H   0  0  0  0  0
   64.2233    0.0605   97.6621 H   0  0  0  0  0
   67.3467    1.6479   99.6385 H   0  0  0  0  0
   68.2139    0.9982  101.8604 H   0  0  0  0  0
  1 13  1  0  0  0
 14  1  4  0  0  0
  1 21  4  0  0  0
 15  2  4  0  0  0
  2 16  1  0  0  0
  2 20  4  0  0  0
  3  4  1  0  0  0
  3  8  4  0  0  0
 22  3  4  0  0  0
  4 23  2  0  0  0
  4 24  1  0  0  0
  6  5  2  0  0  0
  7  6  1  0  0  0
 24  6  4  0  0  0
  8  7  1  0  0  0
  9  8  4  0  0  0
 10  9  4  0  0  0
 11 10  1  0  0  0
 10 22  4  0  0  0
 12 11  1  0  0  0
 13 12  1  0  0  0
 14 15  4  0  0  0
 16 17  1  0  0  0
 16 18  2  0  0  0
 16 19  2  0  0  0
 20 21  4  0  0  0
  5 25  1  0  0  0
  7 26  1  0  0  0
 12 27  1  0  0  0
 12 28  1  0  0  0
 13 29  1  0  0  0
 13 30  1  0  0  0
 14 31  1  0  0  0
 15 32  1  0  0  0
 17 33  1  0  0  0
 17 34  1  0  0  0
 20 35  1  0  0  0
 21 36  1  0  0  0
M  END
$$$$
