4pry_ligand
  -I-interpret- 

 70 69  0  0  0  0  0  0  0  0999 V2000
   41.0870   13.8200   75.4210 C   0  0  0  0  0
   40.2120   14.5870   75.0250 O   0  0  0  0  0
   41.2590   13.5850   76.9030 C   0  0  0  0  0
   41.6080   12.9060   74.6220 N   0  0  0  0  0
   41.4690   13.0150   73.1810 C   0  0  0  0  0
   41.0480   11.6670   72.5850 C   0  0  0  0  0
   41.6500   10.6340   72.8730 O   0  0  0  0  0
   42.7780   13.4960   72.5880 C   0  0  0  0  0
   42.9060   14.1320   71.2180 C   0  0  0  0  0
   41.8790   15.2440   70.9680 C   0  0  0  0  0
   44.3060   14.6830   71.1540 C   0  0  0  0  0
   40.0000   11.6870   71.7690 N   0  0  0  0  0
   39.4120   10.4800   71.1950 C   0  0  0  0  0
   39.1990   10.6620   69.6890 C   0  0  0  0  0
   39.2610   11.7770   69.1990 O   0  0  0  0  0
   38.0880   10.1520   71.9030 C   0  0  0  0  0
   38.2620    9.9880   73.4490 C   0  0  0  0  0
   36.9770    9.6560   74.2310 C   0  0  0  0  0
   35.8480    9.7130   73.6850 O   0  0  0  0  0
   37.1090    9.3520   75.4380 O   0  0  0  0  0
   38.9790    9.5620   68.9720 N   0  0  0  0  0
   38.6580    9.6160   67.5470 C   0  0  0  0  0
   37.2200    9.1880   67.3200 C   0  0  0  0  0
   36.6510    8.4320   68.0930 O   0  0  0  0  0
   39.5650    8.7200   66.6790 C   0  0  0  0  0
   39.5710    7.3830   67.2040 O   0  0  0  0  0
   40.9880    9.2510   66.6290 C   0  0  0  0  0
   36.6420    9.7020   66.2500 N   0  0  0  0  0
   35.3010    9.3200   65.8090 C   0  0  0  0  0
   35.3640    8.3810   64.6520 C   0  0  0  0  0
   34.3270    8.0030   64.0900 O   0  0  0  0  0
   34.6240   10.6250   65.3480 C   0  0  0  0  0
   33.9740   11.3200   66.5720 C   0  0  0  0  0
   33.7050   10.6820   67.6300 O   0  0  0  0  0
   33.6920   12.5540   66.5570 O   0  0  0  0  0
   36.4540    7.9650   64.2360 O   0  0  0  0  0
   41.4884   14.5301   77.3952 H   0  0  0  0  0
   40.3367   13.1743   77.3139 H   0  0  0  0  0
   42.0756   12.8816   77.0657 H   0  0  0  0  0
   42.1133   12.1153   75.0218 H   0  0  0  0  0
   40.6907   13.7390   72.9396 H   0  0  0  0  0
   43.3453   12.5718   72.4774 H   0  0  0  0  0
   43.0602   14.3088   73.2572 H   0  0  0  0  0
   42.7113   13.3889   70.4447 H   0  0  0  0  0
   40.8729   14.8321   71.0472 H   0  0  0  0  0
   42.0101   16.0314   71.7102 H   0  0  0  0  0
   42.0269   15.6557   69.9696 H   0  0  0  0  0
   44.4424   15.4180   71.9472 H   0  0  0  0  0
   45.0211   13.8705   71.2829 H   0  0  0  0  0
   44.4643   15.1579   70.1857 H   0  0  0  0  0
   39.5862   12.5887   71.5320 H   0  0  0  0  0
   40.0951    9.6436   71.3428 H   0  0  0  0  0
   37.7173    9.2080   71.5037 H   0  0  0  0  0
   37.3984   10.9777   71.7273 H   0  0  0  0  0
   38.6139   10.9487   73.8248 H   0  0  0  0  0
   38.9406    9.1479   73.5970 H   0  0  0  0  0
   35.9517    9.9605   72.7633 H   0  0  0  0  0
   39.0362    8.6531   69.4314 H   0  0  0  0  0
   38.8190   10.6509   67.2451 H   0  0  0  0  0
   39.1657    8.7205   65.6648 H   0  0  0  0  0
   40.1366    6.8296   66.6605 H   0  0  0  0  0
   40.9851   10.2548   66.2042 H   0  0  0  0  0
   41.3980    9.2834   67.6384 H   0  0  0  0  0
   41.5979    8.5943   66.0086 H   0  0  0  0  0
   37.1539   10.3969   65.7064 H   0  0  0  0  0
   34.7601    8.8220   66.6137 H   0  0  0  0  0
   33.8584   10.3983   64.6060 H   0  0  0  0  0
   35.3677   11.2863   64.9033 H   0  0  0  0  0
   33.9401   12.9275   65.7082 H   0  0  0  0  0
   37.1616    8.3405   64.7650 H   0  0  0  0  0
  1  2  2  0  0  0
  1  3  1  0  0  0
  1  4  1  0  0  0
  4  5  1  0  0  0
  5  6  1  0  0  0
  5  8  1  0  0  0
  6  7  2  0  0  0
  6 12  1  0  0  0
  8  9  1  0  0  0
  9 10  1  0  0  0
  9 11  1  0  0  0
 12 13  1  0  0  0
 13 14  1  0  0  0
 13 16  1  0  0  0
 14 15  2  0  0  0
 14 21  1  0  0  0
 16 17  1  0  0  0
 17 18  1  0  0  0
 18 19  1  0  0  0
 18 20  2  0  0  0
 21 22  1  0  0  0
 22 23  1  0  0  0
 22 25  1  0  0  0
 23 24  2  0  0  0
 23 28  1  0  0  0
 25 26  1  0  0  0
 25 27  1  0  0  0
 28 29  1  0  0  0
 29 30  1  0  0  0
 29 32  1  0  0  0
 30 31  2  0  0  0
 30 36  1  0  0  0
 32 33  1  0  0  0
 33 34  2  0  0  0
 33 35  1  0  0  0
  3 37  1  0  0  0
  3 38  1  0  0  0
  3 39  1  0  0  0
  4 40  1  0  0  0
  5 41  1  0  0  0
  8 42  1  0  0  0
  8 43  1  0  0  0
  9 44  1  0  0  0
 10 45  1  0  0  0
 10 46  1  0  0  0
 10 47  1  0  0  0
 11 48  1  0  0  0
 11 49  1  0  0  0
 11 50  1  0  0  0
 12 51  1  0  0  0
 13 52  1  0  0  0
 16 53  1  0  0  0
 16 54  1  0  0  0
 17 55  1  0  0  0
 17 56  1  0  0  0
 19 57  1  0  0  0
 21 58  1  0  0  0
 22 59  1  0  0  0
 25 60  1  0  0  0
 26 61  1  0  0  0
 27 62  1  0  0  0
 27 63  1  0  0  0
 27 64  1  0  0  0
 28 65  1  0  0  0
 29 66  1  0  0  0
 32 67  1  0  0  0
 32 68  1  0  0  0
 35 69  1  0  0  0
 36 70  1  0  0  0
M  END
$$$$
