1f8d_ligand
  -I-interpret- 

 39 39  0  0  0  0  0  0  0  0999 V2000
   23.5140   19.7240   64.7280 C   0  0  0  0  0
   24.0900   18.7100   63.9710 C   0  0  0  0  0
   23.4920   17.5310   63.6410 C   0  0  0  0  0
   24.1140   16.5690   62.5990 C   0  0  0  0  0
   25.6390   16.6600   62.6260 C   0  0  0  0  0
   26.0380   18.1480   62.5020 C   0  0  0  0  0
   27.5880   18.4190   62.6030 C   0  0  0  0  0
   27.8270   19.8870   62.2920 C   0  0  0  0  0
   29.1570   20.4070   62.8100 C   0  0  0  0  0
   27.0300   14.8540   61.6660 C   0  0  0  0  0
   27.5130   14.1200   60.4010 C   0  0  0  0  0
   26.1980   15.8800   61.5060 N   0  0  0  0  0
   24.2170   20.7420   64.9230 O   0  0  0  0  0
   22.3550   19.6200   65.1890 O   0  0  0  0  0
   23.7050   15.2960   62.9580 O   0  0  0  0  0
   25.4090   18.9120   63.5900 O   0  0  0  0  0
   27.9620   18.1150   63.9680 O   0  0  0  0  0
   27.7890   20.0350   60.9250 O   0  0  0  0  0
   30.3180   19.6480   62.2720 N   0  3  0  0  0
   27.4240   14.4780   62.7700 O   0  0  0  0  0
   22.5528   17.2583   64.1222 H   0  0  0  0  0
   23.7938   16.8230   61.5885 H   0  0  0  0  0
   26.0313   16.2530   63.5580 H   0  0  0  0  0
   25.7045   18.4526   61.5100 H   0  0  0  0  0
   28.1729   17.8167   61.9079 H   0  0  0  0  0
   27.0523   20.4660   62.7947 H   0  0  0  0  0
   29.1595   20.2988   63.8946 H   0  0  0  0  0
   29.2582   21.4444   62.4912 H   0  0  0  0  0
   28.5992   14.1853   60.3370 H   0  0  0  0  0
   27.2131   13.0734   60.4530 H   0  0  0  0  0
   27.0674   14.5837   59.5210 H   0  0  0  0  0
   25.9322   16.1414   60.5566 H   0  0  0  0  0
   25.0671   20.6300   64.4913 H   0  0  0  0  0
   22.7463   15.2514   62.9373 H   0  0  0  0  0
   27.8031   17.1845   64.1425 H   0  0  0  0  0
   27.9376   20.9563   60.6998 H   0  0  0  0  0
   31.1817   20.0370   62.6503 H   0  0  0  0  0
   30.2374   18.6681   62.5436 H   0  0  0  0  0
   30.3280   19.7204   61.2546 H   0  0  0  0  0
  1 14  2  0  0  0
  1 13  1  0  0  0
  1  2  1  0  0  0
  2 16  1  0  0  0
  2  3  2  0  0  0
  3  4  1  0  0  0
  4 15  1  0  0  0
  4  5  1  0  0  0
  5 12  1  0  0  0
  5  6  1  0  0  0
  6 16  1  0  0  0
  6  7  1  0  0  0
  7 17  1  0  0  0
  7  8  1  0  0  0
  8 18  1  0  0  0
  8  9  1  0  0  0
  9 19  1  0  0  0
 12 10  1  0  0  0
 10 20  2  0  0  0
 10 11  1  0  0  0
  3 21  1  0  0  0
  4 22  1  0  0  0
  5 23  1  0  0  0
  6 24  1  0  0  0
  7 25  1  0  0  0
  8 26  1  0  0  0
  9 27  1  0  0  0
  9 28  1  0  0  0
 11 29  1  0  0  0
 11 30  1  0  0  0
 11 31  1  0  0  0
 12 32  1  0  0  0
 13 33  1  0  0  0
 15 34  1  0  0  0
 17 35  1  0  0  0
 18 36  1  0  0  0
 19 37  1  0  0  0
 19 38  1  0  0  0
 19 39  1  0  0  0
M  END
$$$$
