6ba7_ligand
  -I-interpret- 

 25 25  0  0  0  0  0  0  0  0999 V2000
   34.9880   77.2700   63.8220 C   0  0  0  0  0
   33.4540   78.2900   62.3060 C   0  0  0  0  0
   38.1980   81.0930   64.8960 C   0  0  0  0  0
   36.8660   81.1840   64.1360 C   0  0  0  0  0
   35.9610   80.1830   64.1920 C   0  0  0  0  0
   35.5270   79.5570   62.9610 C   0  0  0  0  0
   34.6400   78.3570   63.0290 C   0  0  0  0  0
   34.1820   76.1470   63.8920 C   0  0  0  0  0
   32.9970   76.1090   63.1550 C   0  0  0  0  0
   32.6260   77.1840   62.3530 C   0  0  0  0  0
   38.0580   80.8500   66.1120 O   0  0  0  0  0
   39.2440   81.2610   64.2550 O   0  0  0  0  0
   36.8300   82.0460   63.0990 O   0  0  0  0  0
   35.8570   79.9260   61.8640 O   0  0  0  0  0
   32.1880   75.0190   63.2070 O   0  0  0  0  0
   32.9770   79.6050   61.3090 Cl  0  0  0  0  0
   35.9121   77.3024   64.3991 H   0  0  0  0  0
   36.3041   81.7165   64.9034 H   0  0  0  0  0
   35.0623   80.6408   64.6054 H   0  0  0  0  0
   36.4561   79.3887   64.7507 H   0  0  0  0  0
   34.4696   75.3009   64.5162 H   0  0  0  0  0
   31.7027   77.1546   61.7745 H   0  0  0  0  0
   37.1232   80.7718   66.3160 H   0  0  0  0  0
   37.5299   82.6953   63.1996 H   0  0  0  0  0
   31.4236   75.1621   62.6441 H   0  0  0  0  0
  7  1  4  0  0  0
  1  8  4  0  0  0
  7  2  4  0  0  0
  2 10  4  0  0  0
  2 16  1  0  0  0
  4  3  1  0  0  0
  3 11  1  0  0  0
  3 12  2  0  0  0
  5  4  1  0  0  0
  4 13  1  0  0  0
  6  5  1  0  0  0
  6  7  1  0  0  0
  6 14  2  0  0  0
  8  9  4  0  0  0
  9 10  4  0  0  0
  9 15  1  0  0  0
  1 17  1  0  0  0
  4 18  1  0  0  0
  5 19  1  0  0  0
  5 20  1  0  0  0
  8 21  1  0  0  0
 10 22  1  0  0  0
 11 23  1  0  0  0
 13 24  1  0  0  0
 15 25  1  0  0  0
M  END
$$$$
