6h7o_ligand
  -I-interpret- 

 42 43  0  0  0  0  0  0  0  0999 V2000
  -19.7330  -32.2460   11.1690 O   0  0  0  0  0
  -18.7990  -32.5390   12.2170 C   0  0  0  0  0
  -12.9560  -33.5470   18.1000 N   0  0  0  0  0
  -17.4620  -31.8500   11.9620 C   0  0  0  0  0
  -17.0350  -32.0250   10.5890 N   0  3  0  0  0
  -15.7480  -31.5410   10.1200 C   0  0  0  0  0
  -14.6240  -31.9170   11.0960 C   0  0  0  0  0
  -15.7580  -30.0200    9.9620 C   0  0  0  0  0
  -19.2960  -32.0740   13.5830 C   0  0  0  0  0
  -18.3480  -32.4670   14.5850 O   0  0  0  0  0
  -18.3180  -31.9950   15.8720 C   0  0  0  0  0
  -19.3780  -31.3050   16.4540 C   0  0  0  0  0
  -19.3230  -30.8480   17.7770 C   0  0  0  0  0
  -18.2100  -31.0400   18.6000 C   0  0  0  0  0
  -17.1060  -31.7160   18.1220 C   0  0  0  0  0
  -17.1260  -32.2210   16.7190 C   0  0  0  0  0
  -15.9080  -32.0420   18.6690 N   0  0  0  0  0
  -15.2800  -32.6990   17.6700 C   0  0  0  0  0
  -15.9140  -32.9000   16.3170 C   0  0  0  0  0
  -14.0360  -33.1440   17.9240 C   0  0  0  0  0
  -15.5020  -32.2010    8.7570 C   0  0  0  0  0
  -19.3798  -32.5550   10.3315 H   0  0  0  0  0
  -18.6855  -33.6231   12.2203 H   0  0  0  0  0
  -16.7124  -32.2922   12.6182 H   0  0  0  0  0
  -17.5777  -30.7838   12.1568 H   0  0  0  0  0
  -17.7085  -31.4758   10.0550 H   0  0  0  0  0
  -16.9644  -33.0373   10.4854 H   0  0  0  0  0
  -13.6688  -31.5758   10.6969 H   0  0  0  0  0
  -14.8072  -31.4417   12.0597 H   0  0  0  0  0
  -14.6008  -32.9995   11.2219 H   0  0  0  0  0
  -15.9343  -29.5563   10.9326 H   0  0  0  0  0
  -14.7959  -29.6904    9.5699 H   0  0  0  0  0
  -16.5509  -29.7329    9.2714 H   0  0  0  0  0
  -20.2640  -32.5279   13.7954 H   0  0  0  0  0
  -19.4034  -30.9893   13.5847 H   0  0  0  0  0
  -20.2748  -31.1153   15.8643 H   0  0  0  0  0
  -20.1859  -30.3196   18.1822 H   0  0  0  0  0
  -18.2139  -30.6556   19.6200 H   0  0  0  0  0
  -15.5855  -33.3743   15.3922 H   0  0  0  0  0
  -14.5482  -31.8584    8.3557 H   0  0  0  0  0
  -15.4787  -33.2840    8.8781 H   0  0  0  0  0
  -16.3049  -31.9278    8.0723 H   0  0  0  0  0
  2  1  1  0  0  0
  2  4  1  0  0  0
  9  2  1  0  0  0
 20  3  3  0  0  0
  4  5  1  0  0  0
  5  6  1  0  0  0
  6  7  1  0  0  0
  6  8  1  0  0  0
  6 21  1  0  0  0
 10  9  1  0  0  0
 11 10  1  0  0  0
 11 12  4  0  0  0
 16 11  4  0  0  0
 12 13  4  0  0  0
 14 13  4  0  0  0
 15 14  4  0  0  0
 16 15  4  0  0  0
 17 15  4  0  0  0
 19 16  4  0  0  0
 18 17  4  0  0  0
 18 19  4  0  0  0
 18 20  1  0  0  0
  1 22  1  0  0  0
  2 23  1  0  0  0
  4 24  1  0  0  0
  4 25  1  0  0  0
  5 26  1  0  0  0
  5 27  1  0  0  0
  7 28  1  0  0  0
  7 29  1  0  0  0
  7 30  1  0  0  0
  8 31  1  0  0  0
  8 32  1  0  0  0
  8 33  1  0  0  0
  9 34  1  0  0  0
  9 35  1  0  0  0
 12 36  1  0  0  0
 13 37  1  0  0  0
 14 38  1  0  0  0
 19 39  1  0  0  0
 21 40  1  0  0  0
 21 41  1  0  0  0
 21 42  1  0  0  0
M  END
$$$$
