3pcb_ligand
  -I-interpret- 

 16 16  0  0  0  0  0  0  0  0999 V2000
   16.0260   13.6040   40.3710 C   0  0  0  0  0
   17.0400   13.3720   39.6730 O   0  0  0  0  0
   15.8070   14.7550   40.7850 O   0  0  0  0  0
   15.1070   12.4240   40.7050 C   0  0  0  0  0
   15.4280   11.1420   40.2030 C   0  0  0  0  0
   14.6230   10.0410   40.4960 C   0  0  0  0  0
   13.5000   10.2010   41.2850 C   0  0  0  0  0
   13.1760   11.4900   41.7970 C   0  0  0  0  0
   13.9570   12.5940   41.5030 C   0  0  0  0  0
   14.9830    8.8250   39.9790 O   0  0  0  0  0
   17.0594   12.4414   39.4382 H   0  0  0  0  0
   16.3135   11.0125   39.5807 H   0  0  0  0  0
   12.8653    9.3451   41.5144 H   0  0  0  0  0
   12.2977   11.6090   42.4314 H   0  0  0  0  0
   13.6873   13.5796   41.8824 H   0  0  0  0  0
   14.3482    8.1602   40.2560 H   0  0  0  0  0
  4  1  1  0  0  0
  1  3  2  0  0  0
  1  2  1  0  0  0
  4  9  4  0  0  0
  5  4  4  0  0  0
  6  5  4  0  0  0
  6 10  1  0  0  0
  7  6  4  0  0  0
  7  8  4  0  0  0
  8  9  4  0  0  0
  2 11  1  0  0  0
  5 12  1  0  0  0
  7 13  1  0  0  0
  8 14  1  0  0  0
  9 15  1  0  0  0
 10 16  1  0  0  0
M  END
$$$$
