1heg_ligand
  -I-interpret- 

 89 89  0  0  0  0  0  0  0  0999 V2000
  -13.8230   14.4740   35.2070 N   0  3  0  0  0
  -12.5640   14.2090   34.5660 C   0  0  0  0  0
  -12.3220   15.0960   33.3430 C   0  0  0  0  0
  -13.0380   15.2390   32.3750 O   0  0  0  0  0
  -12.2500   12.7420   34.3720 C   0  0  0  0  0
  -11.1640   15.7690   33.4360 N   0  0  0  0  0
  -10.5980   16.6900   32.5180 C   0  0  0  0  0
  -10.5140   16.1130   31.1200 C   0  0  0  0  0
   -9.8530   15.1410   30.7800 O   0  0  0  0  0
   -9.2620   17.1870   33.1080 C   0  0  0  0  0
  -11.2340   16.8020   30.1970 N   0  0  0  0  0
  -11.2840   16.4970   28.7790 C   0  0  0  0  0
  -12.6700   16.0790   28.3220 C   0  0  0  0  0
  -13.4320   14.9710   29.0480 C   0  0  0  0  0
  -13.0760   13.6290   28.9830 C   0  0  0  0  0
  -14.5600   15.3730   29.8070 C   0  0  0  0  0
  -13.8180   12.6380   29.6610 C   0  0  0  0  0
  -15.3000   14.3800   30.4830 C   0  0  0  0  0
  -14.9170   13.0430   30.4120 C   0  0  0  0  0
  -10.8180   17.7530   28.0100 C   0  0  0  0  0
  -11.6970   18.8220   28.2490 O   0  0  0  0  0
   -9.4050   18.1960   28.5460 C   0  0  0  0  0
   -8.6050   18.8260   27.3980 C   0  0  0  0  0
   -8.1830   17.8170   26.3600 C   0  0  0  0  0
   -7.4700   16.8490   26.6960 O   0  0  0  0  0
   -8.5850   17.9710   25.1030 N   0  0  0  0  0
   -8.2530   17.0230   24.0680 C   0  0  0  0  0
   -7.3120   17.7050   23.0540 C   0  0  0  0  0
   -7.5440   18.7990   22.5960 O   0  0  0  0  0
   -9.4570   16.3770   23.3870 C   0  0  0  0  0
   -9.2640   14.9020   23.0550 C   0  0  0  0  0
  -10.7390   16.5330   24.2240 C   0  0  0  0  0
   -6.2770   16.9100   22.7550 N   0  0  0  0  0
   -5.1960   17.1430   21.8630 C   0  0  0  0  0
   -4.2530   18.1990   22.4730 C   0  0  0  0  0
   -4.4340   18.6540   23.6000 O   0  0  0  0  0
   -5.5890   17.4860   20.4370 C   0  0  0  0  0
   -7.0590   17.8530   20.2000 C   0  0  0  0  0
   -4.6720   18.5350   19.8020 C   0  0  0  0  0
   -3.5630   18.4470   20.2780 C   0  0  0  0  0
   -3.1720   18.6000   21.6520 O   0  0  0  0  0
  -13.9300   13.8566   36.0118 H   0  0  0  0  0
  -13.8477   15.4456   35.5166 H   0  0  0  0  0
  -14.5816   14.3072   34.5458 H   0  0  0  0  0
  -11.8034   14.5157   35.2841 H   0  0  0  0  0
  -12.8710   12.3417   33.5706 H   0  0  0  0  0
  -11.1982   12.6285   34.1096 H   0  0  0  0  0
  -12.4554   12.2024   35.2965 H   0  0  0  0  0
  -10.6182   15.5945   34.2799 H   0  0  0  0  0
  -11.2403   17.5608   32.3867 H   0  0  0  0  0
   -8.5569   16.3572   33.1571 H   0  0  0  0  0
   -8.8557   17.9735   32.4721 H   0  0  0  0  0
   -9.4328   17.5802   34.1102 H   0  0  0  0  0
  -11.7827   17.5962   30.5264 H   0  0  0  0  0
  -10.6298   15.6489   28.5769 H   0  0  0  0  0
  -12.5107   15.6800   27.3202 H   0  0  0  0  0
  -13.2809   16.9682   28.4778 H   0  0  0  0  0
  -12.2056   13.3357   28.3961 H   0  0  0  0  0
  -14.8482   16.4225   29.8668 H   0  0  0  0  0
  -13.5383   11.5864   29.5981 H   0  0  0  0  0
  -16.1777   14.6613   31.0649 H   0  0  0  0  0
  -15.4923   12.2955   30.9582 H   0  0  0  0  0
  -10.7861   17.5114   26.9476 H   0  0  0  0  0
  -11.3969   19.5956   27.7662 H   0  0  0  0  0
   -8.8707   17.3273   28.9307 H   0  0  0  0  0
   -9.5295   18.9239   29.3478 H   0  0  0  0  0
   -9.2439   19.5615   26.9092 H   0  0  0  0  0
   -7.7029   19.2674   27.8217 H   0  0  0  0  0
   -9.1473   18.7871   24.8619 H   0  0  0  0  0
   -7.7464   16.1847   24.5463 H   0  0  0  0  0
   -9.5573   16.9174   22.4457 H   0  0  0  0  0
   -8.4145   14.7907   22.3812 H   0  0  0  0  0
   -9.0763   14.3457   23.9734 H   0  0  0  0  0
  -10.1637   14.5185   22.5738 H   0  0  0  0  0
  -10.5979   16.0571   25.1944 H   0  0  0  0  0
  -10.9526   17.5925   24.3650 H   0  0  0  0  0
  -11.5713   16.0594   23.7032 H   0  0  0  0  0
   -6.2626   16.0103   23.2353 H   0  0  0  0  0
   -4.6760   16.1911   21.7554 H   0  0  0  0  0
   -5.4510   16.5305   19.9310 H   0  0  0  0  0
   -7.6927   17.0150   20.4902 H   0  0  0  0  0
   -7.3147   18.7277   20.7980 H   0  0  0  0  0
   -7.2107   18.0763   19.1440 H   0  0  0  0  0
   -4.7120   19.4532   20.3880 H   0  0  0  0  0
   -3.6493   18.1584   19.7837 H   0  0  0  0  0
   -5.0042   18.7375   18.7838 H   0  0  0  0  0
   -3.8098   17.4028   20.0859 H   0  0  0  0  0
   -4.4345   19.0704   20.0780 H   0  0  0  0  0
   -2.7403   18.7521   19.6313 H   0  0  0  0  0
  2  1  1  0  0  0
  2  5  1  0  0  0
  3  2  1  0  0  0
  3  4  2  0  0  0
  7  6  1  0  0  0
  7 10  1  0  0  0
  8  7  1  0  0  0
  8  9  2  0  0  0
  6  3  1  0  0  0
 12 11  1  0  0  0
 12 13  1  0  0  0
 13 14  1  0  0  0
 14 15  4  0  0  0
 14 16  4  0  0  0
 16 18  4  0  0  0
 18 19  4  0  0  0
 17 19  4  0  0  0
 15 17  4  0  0  0
 11  8  1  0  0  0
 24 23  1  0  0  0
 24 25  2  0  0  0
 27 26  1  0  0  0
 27 30  1  0  0  0
 28 27  1  0  0  0
 28 29  2  0  0  0
 30 32  1  0  0  0
 30 31  1  0  0  0
 26 24  1  0  0  0
 34 33  1  0  0  0
 34 37  1  0  0  0
 35 34  1  0  0  0
 35 36  2  0  0  0
 37 39  1  0  0  0
 37 38  1  0  0  0
 33 28  1  0  0  0
 41 40  1  0  0  0
 20 12  1  0  0  0
 20 21  1  0  0  0
 22 20  1  0  0  0
 23 22  1  0  0  0
 35 41  1  0  0  0
  1 42  1  0  0  0
  1 43  1  0  0  0
  1 44  1  0  0  0
  2 45  1  0  0  0
  5 46  1  0  0  0
  5 47  1  0  0  0
  5 48  1  0  0  0
  6 49  1  0  0  0
  7 50  1  0  0  0
 10 51  1  0  0  0
 10 52  1  0  0  0
 10 53  1  0  0  0
 11 54  1  0  0  0
 12 55  1  0  0  0
 13 56  1  0  0  0
 13 57  1  0  0  0
 15 58  1  0  0  0
 16 59  1  0  0  0
 17 60  1  0  0  0
 18 61  1  0  0  0
 19 62  1  0  0  0
 20 63  1  0  0  0
 21 64  1  0  0  0
 22 65  1  0  0  0
 22 66  1  0  0  0
 23 67  1  0  0  0
 23 68  1  0  0  0
 26 69  1  0  0  0
 27 70  1  0  0  0
 30 71  1  0  0  0
 31 72  1  0  0  0
 31 73  1  0  0  0
 31 74  1  0  0  0
 32 75  1  0  0  0
 32 76  1  0  0  0
 32 77  1  0  0  0
 33 78  1  0  0  0
 34 79  1  0  0  0
 37 80  1  0  0  0
 38 81  1  0  0  0
 38 82  1  0  0  0
 38 83  1  0  0  0
 39 84  1  0  0  0
 39 85  1  0  0  0
 39 86  1  0  0  0
 40 87  1  0  0  0
 40 88  1  0  0  0
 40 89  1  0  0  0
M  END
$$$$
