4whq_ligand
  -I-interpret- 

 14 14  0  0  0  0  0  0  0  0999 V2000
  -16.8420  -51.4300  -33.6020 C   0  0  0  0  0
  -18.2090  -51.2670  -33.7490 C   0  0  0  0  0
  -18.7490  -50.6320  -34.8500 C   0  0  0  0  0
  -17.8800  -50.1390  -35.8100 C   0  0  0  0  0
  -16.5030  -50.3060  -35.6850 C   0  0  0  0  0
  -15.9780  -50.9450  -34.5700 C   0  0  0  0  0
  -16.3860  -52.0550  -32.4880 O   0  0  0  0  0
  -18.9960  -51.7610  -32.7940 O   0  0  0  0  0
  -18.3730  -49.5210  -36.8920 F   0  0  0  0  0
  -19.8278  -50.5218  -34.9606 H   0  0  0  0  0
  -15.8367  -49.9345  -36.4636 H   0  0  0  0  0
  -14.9003  -51.0635  -34.4577 H   0  0  0  0  0
  -15.4274  -52.0987  -32.5167 H   0  0  0  0  0
  -19.9136  -51.5834  -33.0134 H   0  0  0  0  0
  1  2  4  0  0  0
  1  6  4  0  0  0
  1  7  1  0  0  0
  2  3  4  0  0  0
  2  8  1  0  0  0
  3  4  4  0  0  0
  4  5  4  0  0  0
  4  9  1  0  0  0
  5  6  4  0  0  0
  3 10  1  0  0  0
  5 11  1  0  0  0
  6 12  1  0  0  0
  7 13  1  0  0  0
  8 14  1  0  0  0
M  END
$$$$
