1lbk_ligand
  -I-interpret- 

 38 37  0  0  0  0  0  0  0  0999 V2000
    6.6970   38.3320   -1.7540 N   0  3  0  0  0
    7.9120   38.3730   -2.6060 C   0  0  0  0  0
    7.6830   39.3440   -3.7690 C   0  0  0  0  0
    8.6710   39.9450   -4.2450 O   0  0  0  0  0
    6.5200   39.4980   -4.1950 O   0  0  0  0  0
    8.2190   36.9670   -3.1250 C   0  0  0  0  0
    9.6230   36.8110   -3.7290 C   0  0  0  0  0
    9.9330   35.4020   -4.2200 C   0  0  0  0  0
    9.1050   34.4780   -4.1250 O   0  0  0  0  0
   11.1530   35.2390   -4.7400 N   0  0  0  0  0
   11.6350   33.9500   -5.2420 C   0  0  0  0  0
   13.0820   33.7360   -4.7980 C   0  0  0  0  0
   13.8390   34.7000   -4.6280 O   0  0  0  0  0
   11.5690   33.8910   -6.7800 C   0  0  0  0  0
   11.4270   32.1720   -7.4050 S   0  0  0  0  0
   13.4440   32.4620   -4.6170 N   0  0  0  0  0
   14.7900   32.1000   -4.1960 C   0  0  0  0  0
   14.9210   31.6480   -2.7640 C   0  0  0  0  0
   15.9460   31.0120   -2.4420 O   0  0  0  0  0
   14.0040   31.9320   -1.9640 O   0  0  0  0  0
    6.4935   39.2700   -1.4087 H   0  0  0  0  0
    5.9083   37.9926   -2.3047 H   0  0  0  0  0
    6.8573   37.7054   -0.9653 H   0  0  0  0  0
    8.7649   38.7209   -2.0231 H   0  0  0  0  0
    9.4634   39.6805   -3.7720 H   0  0  0  0  0
    7.5023   36.7534   -3.9180 H   0  0  0  0  0
    8.1583   36.2895   -2.2733 H   0  0  0  0  0
   10.3411   37.0450   -2.9431 H   0  0  0  0  0
    9.6793   37.4741   -4.5923 H   0  0  0  0  0
   11.7748   36.0460   -4.7895 H   0  0  0  0  0
   10.9943   33.1678   -4.8349 H   0  0  0  0  0
   12.4902   34.3195   -7.1748 H   0  0  0  0  0
   10.6855   34.4421   -7.1021 H   0  0  0  0  0
   11.3745   32.1880   -8.7339 H   0  0  0  0  0
   12.7589   31.7237   -4.7781 H   0  0  0  0  0
   15.3990   32.9985   -4.2953 H   0  0  0  0  0
   15.0939   31.2573   -4.8170 H   0  0  0  0  0
   13.3189   32.4215   -2.4250 H   0  0  0  0  0
  1  2  1  0  0  0
  2  3  1  0  0  0
  2  6  1  0  0  0
  3  4  1  0  0  0
  3  5  2  0  0  0
  6  7  1  0  0  0
  7  8  1  0  0  0
  8  9  2  0  0  0
  8 10  1  0  0  0
 10 11  1  0  0  0
 11 12  1  0  0  0
 11 14  1  0  0  0
 12 13  2  0  0  0
 12 16  1  0  0  0
 14 15  1  0  0  0
 16 17  1  0  0  0
 17 18  1  0  0  0
 18 19  2  0  0  0
 18 20  1  0  0  0
  1 21  1  0  0  0
  1 22  1  0  0  0
  1 23  1  0  0  0
  2 24  1  0  0  0
  4 25  1  0  0  0
  6 26  1  0  0  0
  6 27  1  0  0  0
  7 28  1  0  0  0
  7 29  1  0  0  0
 10 30  1  0  0  0
 11 31  1  0  0  0
 14 32  1  0  0  0
 14 33  1  0  0  0
 15 34  1  0  0  0
 16 35  1  0  0  0
 17 36  1  0  0  0
 17 37  1  0  0  0
 20 38  1  0  0  0
M  END
$$$$
