4hys_ligand
  -I-interpret- 

 42 45  0  0  0  0  0  0  0  0999 V2000
   -2.1330   -2.2240   10.3770 N   0  0  0  0  0
   -2.8040   -1.1460   10.7660 C   0  0  0  0  0
   -2.5090   -0.5690   11.9330 N   0  0  0  0  0
   -1.1550   -2.7350   11.1330 C   0  0  0  0  0
   -0.8190   -2.1630   12.3390 C   0  0  0  0  0
   -1.5280   -1.0270   12.7180 C   0  0  0  0  0
   -1.2380   -0.4240   13.9400 N   0  0  0  0  0
   -3.8280   -0.6430    9.9570 N   0  0  0  0  0
   -4.8260    0.2840   10.5240 C   0  0  0  0  0
   -5.8390   -0.4900   11.3800 C   0  0  0  0  0
   -6.8740    0.4370   12.0280 C   0  0  0  0  0
   -7.5610    1.2990   10.9600 C   0  0  0  0  0
   -6.5400    2.0580   10.0820 C   0  0  0  0  0
   -5.5430    1.0890    9.4250 C   0  0  0  0  0
   -8.3840    2.2490   11.6370 O   0  0  0  0  0
   -0.2820   -0.1860   15.9160 C   0  0  0  0  0
   -0.3190   -0.9390   14.8590 N   0  0  0  0  0
   -1.2390    0.8980   15.7250 C   0  0  0  0  0
   -1.8210    0.7030   14.4610 C   0  0  0  0  0
   -2.7820    1.6050   13.9980 C   0  0  0  0  0
   -3.1470    2.6660   14.7970 C   0  0  0  0  0
   -2.5670    2.8530   16.0450 C   0  0  0  0  0
   -1.6220    1.9900   16.5180 C   0  0  0  0  0
   -0.6160   -3.6177   10.7888 H   0  0  0  0  0
   -0.0334   -2.5808   12.9686 H   0  0  0  0  0
   -3.8848   -0.9167    8.9761 H   0  0  0  0  0
   -4.2999    0.9981   11.1576 H   0  0  0  0  0
   -5.2938   -0.9991   12.1748 H   0  0  0  0  0
   -6.3674   -1.1894   10.7321 H   0  0  0  0  0
   -6.3699    1.0893   12.7411 H   0  0  0  0  0
   -7.6260   -0.1684   12.5340 H   0  0  0  0  0
   -8.1408    0.6503   10.3034 H   0  0  0  0  0
   -5.9858    2.7520   10.7138 H   0  0  0  0  0
   -7.0810    2.5860    9.2967 H   0  0  0  0  0
   -6.0758    0.4090    8.7603 H   0  0  0  0  0
   -4.8112    1.6521    8.8458 H   0  0  0  0  0
   -8.8277    2.8039   10.9914 H   0  0  0  0  0
    0.3513   -0.3370   16.7902 H   0  0  0  0  0
   -3.2373    1.4709   13.0168 H   0  0  0  0  0
   -3.9019    3.3689   14.4447 H   0  0  0  0  0
   -2.8716    3.7026   16.6562 H   0  0  0  0  0
   -1.1711    2.1468   17.4979 H   0  0  0  0  0
  1  2  4  0  0  0
  1  4  4  0  0  0
  2  3  4  0  0  0
  2  8  1  0  0  0
  3  6  4  0  0  0
  4  5  4  0  0  0
  5  6  4  0  0  0
  6  7  1  0  0  0
  7 17  4  0  0  0
  7 19  4  0  0  0
  8  9  1  0  0  0
  9 10  1  0  0  0
  9 14  1  0  0  0
 10 11  1  0  0  0
 11 12  1  0  0  0
 12 13  1  0  0  0
 12 15  1  0  0  0
 13 14  1  0  0  0
 17 16  4  0  0  0
 16 18  4  0  0  0
 18 19  4  0  0  0
 18 23  4  0  0  0
 19 20  4  0  0  0
 20 21  4  0  0  0
 21 22  4  0  0  0
 22 23  4  0  0  0
  4 24  1  0  0  0
  5 25  1  0  0  0
  8 26  1  0  0  0
  9 27  1  0  0  0
 10 28  1  0  0  0
 10 29  1  0  0  0
 11 30  1  0  0  0
 11 31  1  0  0  0
 12 32  1  0  0  0
 13 33  1  0  0  0
 13 34  1  0  0  0
 14 35  1  0  0  0
 14 36  1  0  0  0
 15 37  1  0  0  0
 16 38  1  0  0  0
 20 39  1  0  0  0
 21 40  1  0  0  0
 22 41  1  0  0  0
 23 42  1  0  0  0
M  END
$$$$
