6djc_ligand
  -I-interpret- 

118125  0  0  0  0  0  0  0  0999 V2000
  -27.4110   13.0650   26.1080 Cl  0  0  0  0  0
  -26.9400   12.7080   27.7890 C   0  0  0  0  0
  -27.4800   11.5980   28.4130 C   0  0  0  0  0
  -27.1120   11.3170   29.7150 C   0  0  0  0  0
  -26.0510   13.5470   28.4490 C   0  0  0  0  0
  -25.6800   13.2680   29.7570 C   0  0  0  0  0
  -26.2180   12.1510   30.3900 C   0  0  0  0  0
  -25.8330   11.8360   31.8040 C   0  0  0  0  0
  -25.8720   10.4090   32.2390 C   0  0  0  0  0
  -25.3230    9.2530   31.4350 C   0  0  0  0  0
  -24.6150    9.3020   30.1060 C   0  0  0  0  0
  -25.5620   12.7730   32.6050 N   0  0  0  0  0
  -25.2010   12.4610   33.9770 C   0  0  0  0  0
  -26.4270   11.9770   34.6520 C   0  0  0  0  0
  -27.1600   12.6010   35.5930 N   0  0  0  0  0
  -28.2290   11.7470   35.9290 N   0  0  0  0  0
  -28.1340   10.6200   35.1850 C   0  0  0  0  0
  -29.1080    9.4650   35.2450 C   0  0  0  0  0
  -27.0440   10.8100   34.4230 N   0  0  0  0  0
  -26.5120    9.9620   33.5080 C   0  0  0  0  0
  -26.3820    8.2430   33.6500 S   0  0  0  0  0
  -25.5540    7.9710   32.1440 C   0  0  0  0  0
  -25.2010    6.5570   31.7580 C   0  0  0  0  0
  -24.6570   13.7460   34.5960 C   0  0  0  0  0
  -23.3780   14.1270   33.8760 C   0  0  0  0  0
  -22.6570   13.2660   33.3730 O   0  0  0  0  0
  -23.0840   15.4270   33.8150 N   0  0  0  0  0
  -21.8400   15.8890   33.2270 C   0  0  0  0  0
  -22.0650   16.8150   32.0360 C   0  0  0  0  0
  -22.7960   16.1080   30.9040 C   0  0  0  0  0
  -22.9060   17.0000   29.6690 C   0  0  0  0  0
  -23.7880   16.3330   28.6190 C   0  0  0  0  0
  -23.9070   17.1250   27.3130 C   0  0  0  0  0
  -24.9000   16.4170   26.3960 C   0  0  0  0  0
  -24.9440   16.9690   24.9750 C   0  0  0  0  0
  -26.0050   16.1880   24.2000 C   0  0  0  0  0
  -26.1390   16.6030   22.7340 C   0  0  0  0  0
  -25.0310   16.1420   21.9110 N   0  0  0  0  0
  -24.9500   14.8820   21.4780 C   0  0  0  0  0
  -25.8240   14.0450   21.6860 O   0  0  0  0  0
  -23.7140   14.5050   20.6810 C   0  0  0  0  0
  -23.1460   13.2400   21.3120 C   0  0  0  0  0
  -22.0090   12.6520   20.5620 C   0  0  0  0  0
  -21.3730   13.1600   19.4820 N   0  0  0  0  0
  -20.3440   12.2520   19.1370 N   0  0  0  0  0
  -20.3740   11.2110   20.0050 C   0  0  0  0  0
  -19.4360   10.0360   19.9760 C   0  0  0  0  0
  -21.3640   11.5120   20.8700 N   0  0  0  0  0
  -21.8450   10.7690   21.8990 C   0  0  0  0  0
  -22.3730   11.3610   23.1520 C   0  0  0  0  0
  -22.9380   10.3150   24.0840 C   0  0  0  0  0
  -23.5460   10.5210   25.4540 C   0  0  0  0  0
  -22.8210    8.9660   23.4740 C   0  0  0  0  0
  -23.2340    7.6130   24.0020 C   0  0  0  0  0
  -22.0880    9.0540   21.9040 S   0  0  0  0  0
  -22.2880   12.8170   23.4470 C   0  0  0  0  0
  -22.6090   13.6800   22.5900 N   0  0  0  0  0
  -21.7070   13.2500   24.7590 C   0  0  0  0  0
  -20.9790   12.3520   25.5450 C   0  0  0  0  0
  -20.4340   12.7250   26.7600 C   0  0  0  0  0
  -20.6020   14.0370   27.1540 C   0  0  0  0  0
  -19.8840   14.5270   28.7010 Cl  0  0  0  0  0
  -21.2930   14.9600   26.3780 C   0  0  0  0  0
  -21.8480   14.5720   25.1680 C   0  0  0  0  0
  -28.1848   10.9549   27.8860 H   0  0  0  0  0
  -27.5213   10.4405   30.2174 H   0  0  0  0  0
  -25.6459   14.4221   27.9410 H   0  0  0  0  0
  -24.9768   13.9149   30.2816 H   0  0  0  0  0
  -25.2747    9.7460   29.3605 H   0  0  0  0  0
  -23.7118    9.9050   30.1990 H   0  0  0  0  0
  -24.3481    8.2903   29.8004 H   0  0  0  0  0
  -24.4379   11.6877   34.0652 H   0  0  0  0  0
  -29.1239    9.0569   36.2556 H   0  0  0  0  0
  -30.1044    9.8174   34.9784 H   0  0  0  0  0
  -28.7954    8.6910   34.5441 H   0  0  0  0  0
  -25.6935    6.3044   30.8190 H   0  0  0  0  0
  -24.1209    6.4736   31.6373 H   0  0  0  0  0
  -25.5343    5.8744   32.5397 H   0  0  0  0  0
  -24.4538   13.5902   35.6555 H   0  0  0  0  0
  -25.3911   14.5455   34.4960 H   0  0  0  0  0
  -23.7451   16.1082   34.1882 H   0  0  0  0  0
  -21.2900   15.0162   32.8751 H   0  0  0  0  0
  -21.2951   16.4470   33.9884 H   0  0  0  0  0
  -21.0930   17.1415   31.6662 H   0  0  0  0  0
  -22.6742   17.6567   32.3655 H   0  0  0  0  0
  -23.8019   15.8603   31.2429 H   0  0  0  0  0
  -22.2352   15.2127   30.6356 H   0  0  0  0  0
  -21.9114   17.1591   29.2525 H   0  0  0  0  0
  -23.3487   17.9542   29.9547 H   0  0  0  0  0
  -24.7896   16.2524   29.0413 H   0  0  0  0  0
  -23.3321   15.3733   28.3754 H   0  0  0  0  0
  -22.9331   17.1837   26.8270 H   0  0  0  0  0
  -24.2562   18.1356   27.5248 H   0  0  0  0  0
  -25.8915   16.5583   26.8262 H   0  0  0  0  0
  -24.5864   15.3754   26.3263 H   0  0  0  0  0
  -23.9705   16.8592   24.4972 H   0  0  0  0  0
  -25.1923   18.0302   24.9899 H   0  0  0  0  0
  -26.9641   16.3837   24.6796 H   0  0  0  0  0
  -25.7071   15.1396   24.2125 H   0  0  0  0  0
  -26.1508   17.6923   22.6963 H   0  0  0  0  0
  -27.0526   16.1548   22.3435 H   0  0  0  0  0
  -24.2948   16.8009   21.6576 H   0  0  0  0  0
  -22.9799   15.3104   20.7037 H   0  0  0  0  0
  -23.9671   14.3340   19.6347 H   0  0  0  0  0
  -23.9295   12.4834   21.3541 H   0  0  0  0  0
  -19.5316    9.5199   19.0207 H   0  0  0  0  0
  -18.4116   10.3873   20.0997 H   0  0  0  0  0
  -19.6873    9.3520   20.7867 H   0  0  0  0  0
  -22.8061   10.9737   26.1141 H   0  0  0  0  0
  -24.4113   11.1786   25.3709 H   0  0  0  0  0
  -23.8570    9.5587   25.8605 H   0  0  0  0  0
  -22.7039    7.4103   24.9326 H   0  0  0  0  0
  -24.3083    7.6087   24.1860 H   0  0  0  0  0
  -22.9869    6.8468   23.2672 H   0  0  0  0  0
  -20.8372   11.3309   25.1909 H   0  0  0  0  0
  -19.8933   12.0113   27.3817 H   0  0  0  0  0
  -21.3987   15.9893   26.7207 H   0  0  0  0  0
  -22.3852   15.2901   24.5484 H   0  0  0  0  0
  1  2  1  0  0  0
  2  3  4  0  0  0
  2  5  4  0  0  0
  3  4  4  0  0  0
  4  7  4  0  0  0
  5  6  4  0  0  0
  6  7  4  0  0  0
  7  8  1  0  0  0
  8  9  1  0  0  0
  8 12  2  0  0  0
  9 10  4  0  0  0
  9 20  4  0  0  0
 10 11  1  0  0  0
 10 22  4  0  0  0
 12 13  1  0  0  0
 13 14  1  0  0  0
 13 24  1  0  0  0
 14 15  4  0  0  0
 14 19  4  0  0  0
 15 16  4  0  0  0
 16 17  4  0  0  0
 17 18  1  0  0  0
 17 19  4  0  0  0
 19 20  1  0  0  0
 20 21  4  0  0  0
 21 22  4  0  0  0
 22 23  1  0  0  0
 24 25  1  0  0  0
 25 26  2  0  0  0
 25 27  1  0  0  0
 27 28  1  0  0  0
 28 29  1  0  0  0
 29 30  1  0  0  0
 30 31  1  0  0  0
 31 32  1  0  0  0
 32 33  1  0  0  0
 33 34  1  0  0  0
 34 35  1  0  0  0
 35 36  1  0  0  0
 36 37  1  0  0  0
 37 38  1  0  0  0
 38 39  1  0  0  0
 39 40  2  0  0  0
 39 41  1  0  0  0
 41 42  1  0  0  0
 42 43  1  0  0  0
 42 57  1  0  0  0
 43 44  4  0  0  0
 43 48  4  0  0  0
 44 45  4  0  0  0
 45 46  4  0  0  0
 46 47  1  0  0  0
 46 48  4  0  0  0
 48 49  1  0  0  0
 49 50  4  0  0  0
 49 55  4  0  0  0
 50 51  4  0  0  0
 50 56  1  0  0  0
 51 52  1  0  0  0
 51 53  4  0  0  0
 53 54  1  0  0  0
 53 55  4  0  0  0
 56 57  2  0  0  0
 56 58  1  0  0  0
 58 59  4  0  0  0
 58 64  4  0  0  0
 59 60  4  0  0  0
 60 61  4  0  0  0
 61 62  1  0  0  0
 61 63  4  0  0  0
 63 64  4  0  0  0
  3 65  1  0  0  0
  4 66  1  0  0  0
  5 67  1  0  0  0
  6 68  1  0  0  0
 11 69  1  0  0  0
 11 70  1  0  0  0
 11 71  1  0  0  0
 13 72  1  0  0  0
 18 73  1  0  0  0
 18 74  1  0  0  0
 18 75  1  0  0  0
 23 76  1  0  0  0
 23 77  1  0  0  0
 23 78  1  0  0  0
 24 79  1  0  0  0
 24 80  1  0  0  0
 27 81  1  0  0  0
 28 82  1  0  0  0
 28 83  1  0  0  0
 29 84  1  0  0  0
 29 85  1  0  0  0
 30 86  1  0  0  0
 30 87  1  0  0  0
 31 88  1  0  0  0
 31 89  1  0  0  0
 32 90  1  0  0  0
 32 91  1  0  0  0
 33 92  1  0  0  0
 33 93  1  0  0  0
 34 94  1  0  0  0
 34 95  1  0  0  0
 35 96  1  0  0  0
 35 97  1  0  0  0
 36 98  1  0  0  0
 36 99  1  0  0  0
 37100  1  0  0  0
 37101  1  0  0  0
 38102  1  0  0  0
 41103  1  0  0  0
 41104  1  0  0  0
 42105  1  0  0  0
 47106  1  0  0  0
 47107  1  0  0  0
 47108  1  0  0  0
 52109  1  0  0  0
 52110  1  0  0  0
 52111  1  0  0  0
 54112  1  0  0  0
 54113  1  0  0  0
 54114  1  0  0  0
 59115  1  0  0  0
 60116  1  0  0  0
 63117  1  0  0  0
 64118  1  0  0  0
M  END
$$$$
