### 
### Created by X-TOOL on Wed Jan  1 15:39:38 2020
### 

@<TRIPOS>MOLECULE
5w4s_ligand
  158   160     1     0     0
SMALL
GAST_HUCK


@<TRIPOS>ATOM
      1 C          -4.0500  -19.2780    4.9100 C.2       1 ACE         0.1752
      2 O          -3.5350  -19.3550    3.7930 O.2       1 ACE        -0.3972
      3 CH3        -5.1320  -20.2380    5.3250 C.3       1 ACE         0.0258
      4 N          -3.6950  -18.3710    5.8100 N.am      1 ASP        -0.2643
      5 CA         -2.6600  -17.3820    5.5370 C.3       1 ASP         0.1422
      6 C          -1.2930  -18.0430    5.5040 C.2       1 ASP         0.2056
      7 O          -0.9210  -18.7640    6.4290 O.2       1 ASP        -0.3943
      8 CB         -2.6770  -16.2750    6.5920 C.3       1 ASP         0.0406
      9 CG         -2.9960  -14.9160    6.0000 C.2       1 ASP         0.0393
     10 OD1        -3.6740  -14.1110    6.6750 O.co2     1 ASP        -0.5688
     11 OD2        -2.5860  -14.6510    4.8500 O.co2     1 ASP        -0.5688
     12 N          -0.5530  -17.8060    4.4350 N.am      1 GLN        -0.2635
     13 CA          0.7700  -18.3910    4.2790 C.3       1 GLN         0.1330
     14 C           1.8370  -17.3070    4.3580 C.2       1 GLN         0.2041
     15 O           1.5620  -16.1890    4.7970 O.2       1 GLN        -0.3944
     16 CB          0.8710  -19.1330    2.9440 C.3       1 GLN         0.0045
     17 CG         -0.2670  -20.1140    2.7070 C.3       1 GLN         0.0412
     18 CD         -0.3030  -21.2280    3.7320 C.2       1 GLN         0.1737
     19 OE1         0.7350  -21.6920    4.2040 O.2       1 GLN        -0.3973
     20 NE2        -1.4990  -21.6610    4.0910 N.am      1 GLN        -0.3009
     21 N           3.0490  -17.6360    3.9410 N.am      1 SER        -0.2616
     22 CA          4.1530  -16.6910    3.9610 C.3       1 SER         0.1539
     23 C           4.1260  -15.7850    2.7280 C.2       1 SER         0.2063
     24 O           4.9350  -15.9390    1.8140 O.2       1 SER        -0.3943
     25 CB          5.4720  -17.4600    4.0330 C.3       1 SER         0.0843
     26 OG          5.2700  -18.8340    3.7250 O.3       1 SER        -0.3903
     27 N           3.1910  -14.8450    2.7040 N.am      1 ASP        -0.2621
     28 CA          3.0660  -13.9250    1.5770 C.3       1 ASP         0.1423
     29 C           3.9670  -12.7110    1.7670 C.2       1 ASP         0.2057
     30 O           4.4920  -12.1600    0.7940 O.2       1 ASP        -0.3943
     31 CB          1.6050  -13.4840    1.3890 C.3       1 ASP         0.0406
     32 CG          1.2640  -12.1850    2.1060 C.2       1 ASP         0.0393
     33 OD1         0.6680  -12.2470    3.2030 O.co2     1 ASP        -0.5688
     34 OD2         1.5730  -11.1010    1.5690 O.co2     1 ASP        -0.5688
     35 N           4.1510  -12.3090    3.0230 N.am      1 PHE        -0.2618
     36 CA          4.9780  -11.1550    3.3560 C.3       1 PHE         0.1404
     37 C           6.4050  -11.3740    2.8910 C.2       1 PHE         0.2060
     38 O           7.0590  -10.4610    2.3890 O.2       1 PHE        -0.3942
     39 CB          4.9600  -10.9070    4.8670 C.3       1 PHE         0.0214
     40 CG          4.3910   -9.5710    5.2570 C.ar      1 PHE        -0.0386
     41 CD1         3.0400   -9.4360    5.5320 C.ar      1 PHE        -0.0601
     42 CD2         5.2050   -8.4530    5.3550 C.ar      1 PHE        -0.0601
     43 CE1         2.5110   -8.2130    5.8950 C.ar      1 PHE        -0.0686
     44 CE2         4.6810   -7.2280    5.7170 C.ar      1 PHE        -0.0686
     45 CZ          3.3330   -7.1080    5.9870 C.ar      1 PHE        -0.0687
     46 N           6.8770  -12.5960    3.0580 N.am      1 GLU        -0.2635
     47 CA          8.2230  -12.9570    2.6660 C.3       1 GLU         0.1325
     48 C           8.1980  -13.9260    1.4870 C.2       1 GLU         0.2038
     49 O           8.8520  -14.9710    1.5080 O.2       1 GLU        -0.3944
     50 CB          8.9620  -13.5630    3.8570 C.3       1 GLU        -0.0008
     51 CG          9.1450  -12.5810    5.0040 C.3       1 GLU         0.0044
     52 CD          8.5870  -13.0900    6.3180 C.2       1 GLU         0.0350
     53 OE1         7.4230  -12.7650    6.6440 O.co2     1 GLU        -0.5690
     54 OE2         9.3120  -13.8000    7.0390 O.co2     1 GLU        -0.5690
     55 N           7.4400  -13.5660    0.4580 N.am      1 GLY        -0.2664
     56 CA          7.3370  -14.4060   -0.7180 C.3       1 GLY         0.1201
     57 C           7.3780  -13.6120   -2.0070 C.2       1 GLY         0.2009
     58 O           6.3380  -13.2400   -2.5540 O.2       1 GLY        -0.3947
     59 N           8.5880  -13.3420   -2.4800 N.am      1 PHE        -0.2622
     60 CA          8.7970  -12.5980   -3.7190 C.3       1 PHE         0.1404
     61 C           9.9890  -13.1700   -4.4700 C.2       1 PHE         0.2060
     62 O           9.8350  -13.8330   -5.4970 O.2       1 PHE        -0.3942
     63 CB          9.0370  -11.1120   -3.4410 C.3       1 PHE         0.0214
     64 CG          7.8430  -10.3940   -2.8830 C.ar      1 PHE        -0.0386
     65 CD1         7.7980  -10.0340   -1.5470 C.ar      1 PHE        -0.0601
     66 CD2         6.7650  -10.0820   -3.6960 C.ar      1 PHE        -0.0601
     67 CE1         6.7000   -9.3800   -1.0310 C.ar      1 PHE        -0.0686
     68 CE2         5.6630   -9.4260   -3.1840 C.ar      1 PHE        -0.0686
     69 CZ          5.6310   -9.0750   -1.8500 C.ar      1 PHE        -0.0687
     70 N          11.1740  -12.9220   -3.9400 N.am      1 SEP        -0.2611
     71 CA         12.4010  -13.4100   -4.5420 C.3       1 SEP         0.1586
     72 CB         13.3860  -12.2530   -4.7180 C.3       1 SEP         0.1184
     73 OG         12.7230  -11.0920   -5.2040 O.3       1 SEP        -0.2714
     74 C          13.0050  -14.5040   -3.6640 C.2       1 SEP         0.2066
     75 O          12.5790  -14.6930   -2.5220 O.2       1 SEP        -0.3943
     76 P          13.4560  -10.1280   -6.2510 P.3       1 SEP         0.2010
     77 O1P        13.4620  -10.9400   -7.6300 O.co2     1 SEP        -0.5537
     78 O2P        12.6980   -8.8980   -6.5610 O.co2     1 SEP        -0.5537
     79 O3P        14.8830   -9.8930   -5.9640 O.co2     1 SEP        -0.5537
     80 N          13.9770  -15.2250   -4.1970 N.am      1 TYR        -0.2621
     81 CA         14.6300  -16.2960   -3.4550 C.3       1 TYR         0.1387
     82 C          16.0760  -15.9190   -3.1390 C.2       1 TYR         0.2010
     83 O          16.9930  -16.7270   -3.2980 O.2       1 TYR        -0.3946
     84 CB         14.5880  -17.5910   -4.2680 C.3       1 TYR         0.0163
     85 CG         14.2790  -18.8290   -3.4480 C.ar      1 TYR        -0.0493
     86 CD1        15.2990  -19.6060   -2.9130 C.ar      1 TYR        -0.0685
     87 CD2        12.9660  -19.2240   -3.2220 C.ar      1 TYR        -0.0685
     88 CE1        15.0200  -20.7430   -2.1780 C.ar      1 TYR        -0.0398
     89 CE2        12.6790  -20.3600   -2.4850 C.ar      1 TYR        -0.0398
     90 CZ         13.7080  -21.1150   -1.9680 C.ar      1 TYR         0.0805
     91 OH         13.4260  -22.2510   -1.2440 O.3       1 TYR        -0.3376
     92 N          16.2730  -14.6870   -2.6940 N.am      1 NH2        -0.2988
     93 H1         -5.4569  -20.0037    6.3495 H         1 ACE         0.0467
     94 H2         -4.7431  -21.2663    5.2899 H         1 ACE         0.0467
     95 H3         -5.9870  -20.1457    4.6391 H         1 ACE         0.0467
     96 H4         -4.1500  -18.3655    6.7005 H         1 ASP         0.1884
     97 H5         -2.8577  -16.9320    4.5529 H         1 ASP         0.0819
     98 H6         -1.6877  -16.2282    7.0707 H         1 ASP         0.0478
     99 H7         -3.4387  -16.5187    7.3473 H         1 ASP         0.0478
    100 H8         -0.9110  -17.2102    3.7160 H         1 GLN         0.1883
    101 H9          0.9357  -19.1097    5.0950 H         1 GLN         0.0801
    102 H10         1.8197  -19.6895    2.9259 H         1 GLN         0.0337
    103 H11         0.8656  -18.3910    2.1320 H         1 GLN         0.0337
    104 H12        -0.1456  -20.5589    1.7083 H         1 GLN         0.0504
    105 H13        -1.2193  -19.5651    2.7506 H         1 GLN         0.0504
    106 H14        -1.5835  -22.3953    4.7646 H         1 GLN         0.1814
    107 H15        -2.3194  -21.2543    3.6890 H         1 GLN         0.1814
    108 H16         3.2102  -18.5628    3.6019 H         1 SER         0.1884
    109 H17         4.0610  -16.0605    4.8576 H         1 SER         0.0823
    110 H18         5.8849  -17.3746    5.0490 H         1 SER         0.0606
    111 H19         6.1814  -17.0287    3.3114 H         1 SER         0.0606
    112 H20         6.0997  -19.2939    3.7750 H         1 SER         0.2097
    113 H21         2.5581  -14.7645    3.4740 H         1 ASP         0.1884
    114 H22         3.3862  -14.4527    0.6665 H         1 ASP         0.0819
    115 H23         0.9494  -14.2777    1.7766 H         1 ASP         0.0478
    116 H24         1.4186  -13.3470    0.3136 H         1 ASP         0.0478
    117 H25         3.7073  -12.8153    3.7625 H         1 PHE         0.1885
    118 H26         4.5704  -10.2699    2.8457 H         1 PHE         0.0823
    119 H27         5.9930  -10.9660    5.2403 H         1 PHE         0.0474
    120 H28         4.3536  -11.6934    5.3401 H         1 PHE         0.0474
    121 H29         2.3902  -10.3008    5.4614 H         1 PHE         0.0557
    122 H30         6.2648   -8.5416    5.1450 H         1 PHE         0.0557
    123 H31         1.4520   -8.1210    6.1073 H         1 PHE         0.0599
    124 H32         5.3279   -6.3612    5.7891 H         1 PHE         0.0599
    125 H33         2.9201   -6.1468    6.2711 H         1 PHE         0.0559
    126 H34         6.2874  -13.2924    3.4672 H         1 GLU         0.1883
    127 H35         8.7533  -12.0454    2.3533 H         1 GLU         0.0801
    128 H36         9.9542  -13.8980    3.5205 H         1 GLU         0.0330
    129 H37         8.3880  -14.4269    4.2233 H         1 GLU         0.0330
    130 H38         8.6325  -11.6424    4.7463 H         1 GLU         0.0433
    131 H39        10.2205  -12.3885    5.1317 H         1 GLU         0.0433
    132 H40         6.9339  -12.7043    0.4952 H         1 GLY         0.1881
    133 H41         6.3865  -14.9579   -0.6745 H         1 GLY         0.0763
    134 H42         8.1751  -15.1184   -0.7165 H         1 GLY         0.0763
    135 H43         9.3866  -13.6599   -1.9689 H         1 PHE         0.1885
    136 H44         7.8980  -12.6988   -4.3448 H         1 PHE         0.0823
    137 H45         9.3229  -10.6254   -4.3851 H         1 PHE         0.0474
    138 H46         9.8619  -11.0242   -2.7187 H         1 PHE         0.0474
    139 H47         8.6353  -10.2690   -0.8998 H         1 PHE         0.0557
    140 H48         6.7870  -10.3557   -4.7446 H         1 PHE         0.0557
    141 H49         6.6757   -9.1052    0.0173 H         1 PHE         0.0599
    142 H50         4.8249   -9.1873   -3.8287 H         1 PHE         0.0599
    143 H51         4.7672   -8.5601   -1.4452 H         1 PHE         0.0559
    144 H52        11.2267  -12.3824   -3.0997 H         1 SEP         0.1884
    145 H53        12.1715  -13.8343   -5.5306 H         1 SEP         0.0827
    146 H54        14.1655  -12.5494   -5.4353 H         1 SEP         0.0662
    147 H55        13.8492  -12.0234   -3.7471 H         1 SEP         0.0662
    148 H56        14.2714  -15.0305   -5.1327 H         1 TYR         0.1885
    149 H57        14.0906  -16.4524   -2.5092 H         1 TYR         0.0821
    150 H58        15.5686  -17.7300   -4.7467 H         1 TYR         0.0453
    151 H59        13.8134  -17.4876   -5.0421 H         1 TYR         0.0453
    152 H60        16.3308  -19.3158   -3.0747 H         1 TYR         0.0530
    153 H61        12.1536  -18.6331   -3.6293 H         1 TYR         0.0530
    154 H62        15.8276  -21.3392   -1.7688 H         1 TYR         0.0525
    155 H63        11.6494  -20.6538   -2.3157 H         1 TYR         0.0525
    156 H64        14.2381  -22.6541   -0.9603 H         1 TYR         0.2458
    157 H65        17.1972  -14.3785   -2.4690 H         1 NH2         0.1815
    158 H66        15.4975  -14.0655   -2.5830 H         1 NH2         0.1815
@<TRIPOS>BOND
     1    1    2 2  
     2    1    3 1  
     3    1    4 am 
     4    4    5 1  
     5    5    6 1  
     6    5    8 1  
     7    6    7 2  
     8    6   12 am 
     9    8    9 1  
    10    9   10 ar 
    11    9   11 ar 
    12   12   13 1  
    13   13   14 1  
    14   13   16 1  
    15   14   15 2  
    16   14   21 am 
    17   16   17 1  
    18   17   18 1  
    19   18   19 2  
    20   18   20 am 
    21   21   22 1  
    22   22   23 1  
    23   22   25 1  
    24   23   24 2  
    25   23   27 am 
    26   25   26 1  
    27   27   28 1  
    28   28   29 1  
    29   28   31 1  
    30   29   30 2  
    31   29   35 am 
    32   31   32 1  
    33   32   33 ar 
    34   32   34 ar 
    35   35   36 1  
    36   36   37 1  
    37   36   39 1  
    38   37   38 2  
    39   37   46 am 
    40   39   40 1  
    41   40   41 ar 
    42   40   42 ar 
    43   41   43 ar 
    44   42   44 ar 
    45   43   45 ar 
    46   44   45 ar 
    47   46   47 1  
    48   47   48 1  
    49   47   50 1  
    50   48   49 2  
    51   48   55 am 
    52   50   51 1  
    53   51   52 1  
    54   52   53 ar 
    55   52   54 ar 
    56   55   56 1  
    57   56   57 1  
    58   57   58 2  
    59   57   59 am 
    60   59   60 1  
    61   60   61 1  
    62   60   63 1  
    63   61   62 2  
    64   61   70 am 
    65   63   64 1  
    66   64   65 ar 
    67   64   66 ar 
    68   65   67 ar 
    69   66   68 ar 
    70   67   69 ar 
    71   68   69 ar 
    72   70   71 1  
    73   71   72 1  
    74   71   74 1  
    75   72   73 1  
    76   73   76 1  
    77   74   75 2  
    78   74   80 am 
    79   76   77 ar 
    80   76   78 ar 
    81   76   79 ar 
    82   80   81 1  
    83   81   82 1  
    84   81   84 1  
    85   82   83 2  
    86   82   92 am 
    87   84   85 1  
    88   85   86 ar 
    89   85   87 ar 
    90   86   88 ar 
    91   87   89 ar 
    92   88   90 ar 
    93   89   90 ar 
    94   90   91 1  
    95    3   93 1  
    96    3   94 1  
    97    3   95 1  
    98    4   96 1  
    99    5   97 1  
   100    8   98 1  
   101    8   99 1  
   102   12  100 1  
   103   13  101 1  
   104   16  102 1  
   105   16  103 1  
   106   17  104 1  
   107   17  105 1  
   108   20  106 1  
   109   20  107 1  
   110   21  108 1  
   111   22  109 1  
   112   25  110 1  
   113   25  111 1  
   114   26  112 1  
   115   27  113 1  
   116   28  114 1  
   117   31  115 1  
   118   31  116 1  
   119   35  117 1  
   120   36  118 1  
   121   39  119 1  
   122   39  120 1  
   123   41  121 1  
   124   42  122 1  
   125   43  123 1  
   126   44  124 1  
   127   45  125 1  
   128   46  126 1  
   129   47  127 1  
   130   50  128 1  
   131   50  129 1  
   132   51  130 1  
   133   51  131 1  
   134   55  132 1  
   135   56  133 1  
   136   56  134 1  
   137   59  135 1  
   138   60  136 1  
   139   63  137 1  
   140   63  138 1  
   141   65  139 1  
   142   66  140 1  
   143   67  141 1  
   144   68  142 1  
   145   69  143 1  
   146   70  144 1  
   147   71  145 1  
   148   72  146 1  
   149   72  147 1  
   150   80  148 1  
   151   81  149 1  
   152   84  150 1  
   153   84  151 1  
   154   86  152 1  
   155   87  153 1  
   156   88  154 1  
   157   89  155 1  
   158   91  156 1  
   159   92  157 1  
   160   92  158 1  
@<TRIPOS>SUBSTRUCTURE
     1 ACE         1

