5w4s_ligand
  -I-interpret- 

163165  0  0  0  0  0  0  0  0999 V2000
   -4.0500  -19.2780    4.9100 C   0  0  0  0  0
   -3.5350  -19.3550    3.7930 O   0  0  0  0  0
   -5.1320  -20.2380    5.3250 C   0  0  0  0  0
   -3.6950  -18.3710    5.8100 N   0  0  0  0  0
   -2.6600  -17.3820    5.5370 C   0  0  0  0  0
   -1.2930  -18.0430    5.5040 C   0  0  0  0  0
   -0.9210  -18.7640    6.4290 O   0  0  0  0  0
   -2.6770  -16.2750    6.5920 C   0  0  0  0  0
   -2.9960  -14.9160    6.0000 C   0  0  0  0  0
   -3.6740  -14.1110    6.6750 O   0  0  0  0  0
   -2.5860  -14.6510    4.8500 O   0  0  0  0  0
   -0.5530  -17.8060    4.4350 N   0  0  0  0  0
    0.7700  -18.3910    4.2790 C   0  0  0  0  0
    1.8370  -17.3070    4.3580 C   0  0  0  0  0
    1.5620  -16.1890    4.7970 O   0  0  0  0  0
    0.8710  -19.1330    2.9440 C   0  0  0  0  0
   -0.2670  -20.1140    2.7070 C   0  0  0  0  0
   -0.3030  -21.2280    3.7320 C   0  0  0  0  0
    0.7350  -21.6920    4.2040 O   0  0  0  0  0
   -1.4990  -21.6610    4.0910 N   0  0  0  0  0
    3.0490  -17.6360    3.9410 N   0  0  0  0  0
    4.1530  -16.6910    3.9610 C   0  0  0  0  0
    4.1260  -15.7850    2.7280 C   0  0  0  0  0
    4.9350  -15.9390    1.8140 O   0  0  0  0  0
    5.4720  -17.4600    4.0330 C   0  0  0  0  0
    5.2700  -18.8340    3.7250 O   0  0  0  0  0
    3.1910  -14.8450    2.7040 N   0  0  0  0  0
    3.0660  -13.9250    1.5770 C   0  0  0  0  0
    3.9670  -12.7110    1.7670 C   0  0  0  0  0
    4.4920  -12.1600    0.7940 O   0  0  0  0  0
    1.6050  -13.4840    1.3890 C   0  0  0  0  0
    1.2640  -12.1850    2.1060 C   0  0  0  0  0
    0.6680  -12.2470    3.2030 O   0  0  0  0  0
    1.5730  -11.1010    1.5690 O   0  0  0  0  0
    4.1510  -12.3090    3.0230 N   0  0  0  0  0
    4.9780  -11.1550    3.3560 C   0  0  0  0  0
    6.4050  -11.3740    2.8910 C   0  0  0  0  0
    7.0590  -10.4610    2.3890 O   0  0  0  0  0
    4.9600  -10.9070    4.8670 C   0  0  0  0  0
    4.3910   -9.5710    5.2570 C   0  0  0  0  0
    3.0400   -9.4360    5.5320 C   0  0  0  0  0
    5.2050   -8.4530    5.3550 C   0  0  0  0  0
    2.5110   -8.2130    5.8950 C   0  0  0  0  0
    4.6810   -7.2280    5.7170 C   0  0  0  0  0
    3.3330   -7.1080    5.9870 C   0  0  0  0  0
    6.8770  -12.5960    3.0580 N   0  0  0  0  0
    8.2230  -12.9570    2.6660 C   0  0  0  0  0
    8.1980  -13.9260    1.4870 C   0  0  0  0  0
    8.8520  -14.9710    1.5080 O   0  0  0  0  0
    8.9620  -13.5630    3.8570 C   0  0  0  0  0
    9.1450  -12.5810    5.0040 C   0  0  0  0  0
    8.5870  -13.0900    6.3180 C   0  0  0  0  0
    7.4230  -12.7650    6.6440 O   0  0  0  0  0
    9.3120  -13.8000    7.0390 O   0  0  0  0  0
    7.4400  -13.5660    0.4580 N   0  0  0  0  0
    7.3370  -14.4060   -0.7180 C   0  0  0  0  0
    7.3780  -13.6120   -2.0070 C   0  0  0  0  0
    6.3380  -13.2400   -2.5540 O   0  0  0  0  0
    8.5880  -13.3420   -2.4800 N   0  0  0  0  0
    8.7970  -12.5980   -3.7190 C   0  0  0  0  0
    9.9890  -13.1700   -4.4700 C   0  0  0  0  0
    9.8350  -13.8330   -5.4970 O   0  0  0  0  0
    9.0370  -11.1120   -3.4410 C   0  0  0  0  0
    7.8430  -10.3940   -2.8830 C   0  0  0  0  0
    7.7980  -10.0340   -1.5470 C   0  0  0  0  0
    6.7650  -10.0820   -3.6960 C   0  0  0  0  0
    6.7000   -9.3800   -1.0310 C   0  0  0  0  0
    5.6630   -9.4260   -3.1840 C   0  0  0  0  0
    5.6310   -9.0750   -1.8500 C   0  0  0  0  0
   11.1740  -12.9220   -3.9400 N   0  0  0  0  0
   12.4010  -13.4100   -4.5420 C   0  0  0  0  0
   13.3860  -12.2530   -4.7180 C   0  0  0  0  0
   12.7230  -11.0920   -5.2040 O   0  0  0  0  0
   13.0050  -14.5040   -3.6640 C   0  0  0  0  0
   12.5790  -14.6930   -2.5220 O   0  0  0  0  0
   13.4560  -10.1280   -6.2510 P   0  0  0  0  0
   13.4620  -10.9400   -7.6300 O   0  0  0  0  0
   12.6980   -8.8980   -6.5610 O   0  0  0  0  0
   14.8830   -9.8930   -5.9640 O   0  0  0  0  0
   13.9770  -15.2250   -4.1970 N   0  0  0  0  0
   14.6300  -16.2960   -3.4550 C   0  0  0  0  0
   16.0760  -15.9190   -3.1390 C   0  0  0  0  0
   16.9930  -16.7270   -3.2980 O   0  0  0  0  0
   14.5880  -17.5910   -4.2680 C   0  0  0  0  0
   14.2790  -18.8290   -3.4480 C   0  0  0  0  0
   15.2990  -19.6060   -2.9130 C   0  0  0  0  0
   12.9660  -19.2240   -3.2220 C   0  0  0  0  0
   15.0200  -20.7430   -2.1780 C   0  0  0  0  0
   12.6790  -20.3600   -2.4850 C   0  0  0  0  0
   13.7080  -21.1150   -1.9680 C   0  0  0  0  0
   13.4260  -22.2510   -1.2440 O   0  0  0  0  0
   16.2730  -14.6870   -2.6940 N   0  0  0  0  0
   -5.9785  -20.1456    4.6446 H   0  0  0  0  0
   -4.7454  -21.2565    5.2897 H   0  0  0  0  0
   -5.4530  -20.0048    6.3402 H   0  0  0  0  0
   -4.1591  -18.3654    6.7183 H   0  0  0  0  0
   -2.8636  -16.9378    4.5627 H   0  0  0  0  0
   -1.6853  -16.2224    7.0412 H   0  0  0  0  0
   -3.4515  -16.5155    7.3203 H   0  0  0  0  0
   -3.8859  -14.5060    7.5239 H   0  0  0  0  0
   -0.9181  -17.1983    3.7016 H   0  0  0  0  0
    0.9318  -19.1041    5.0873 H   0  0  0  0  0
    1.7989  -19.7047    2.9565 H   0  0  0  0  0
    0.8305  -18.3866    2.1507 H   0  0  0  0  0
   -0.1193  -20.5667    1.7265 H   0  0  0  0  0
   -1.2043  -19.5624    2.7798 H   0  0  0  0  0
   -1.5854  -22.4057    4.7826 H   0  0  0  0  0
   -2.3357  -21.2504    3.6764 H   0  0  0  0  0
    3.2134  -18.5814    3.5951 H   0  0  0  0  0
    4.0556  -16.0528    4.8392 H   0  0  0  0  0
    5.8717  -17.3804    5.0439 H   0  0  0  0  0
    6.1677  -17.0351    3.3094 H   0  0  0  0  0
    6.1085  -19.2987    3.7756 H   0  0  0  0  0
    2.5454  -14.7629    3.4894 H   0  0  0  0  0
    3.3835  -14.4520    0.6772 H   0  0  0  0  0
    0.9710  -14.2652    1.8084 H   0  0  0  0  0
    1.4474  -13.3202    0.3230 H   0  0  0  0  0
    0.5259  -13.1671    3.4372 H   0  0  0  0  0
    3.6985  -12.8254    3.7773 H   0  0  0  0  0
    4.5697  -10.2822    2.8464 H   0  0  0  0  0
    5.9934  -10.9332    5.2126 H   0  0  0  0  0
    4.3263  -11.6728    5.3142 H   0  0  0  0  0
    2.3866  -10.3056    5.4610 H   0  0  0  0  0
    6.2706   -8.5421    5.1439 H   0  0  0  0  0
    1.4461   -8.1205    6.1085 H   0  0  0  0  0
    5.3315   -6.3564    5.7895 H   0  0  0  0  0
    2.9178   -6.1415    6.2726 H   0  0  0  0  0
    6.2756  -13.3063    3.4754 H   0  0  0  0  0
    8.7531  -12.0597    2.3468 H   0  0  0  0  0
    9.9525  -13.8636    3.5156 H   0  0  0  0  0
    8.3678  -14.3987    4.2266 H   0  0  0  0  0
    8.6071  -11.6683    4.7474 H   0  0  0  0  0
   10.2153  -12.4239    5.1376 H   0  0  0  0  0
    7.0390  -12.2195    5.9536 H   0  0  0  0  0
    6.9238  -12.6871    0.4959 H   0  0  0  0  0
    6.3803  -14.9266   -0.6753 H   0  0  0  0  0
    8.1867  -15.0888   -0.7177 H   0  0  0  0  0
    9.4025  -13.6662   -1.9587 H   0  0  0  0  0
    7.8959  -12.6941   -4.3248 H   0  0  0  0  0
    9.2817  -10.6407   -4.3929 H   0  0  0  0  0
    9.8304  -11.0466   -2.6964 H   0  0  0  0  0
    8.6399  -10.2703   -0.8962 H   0  0  0  0  0
    6.7872  -10.3572   -4.7504 H   0  0  0  0  0
    6.6755   -9.1037    0.0231 H   0  0  0  0  0
    4.8203   -9.1860   -3.8323 H   0  0  0  0  0
    4.7624   -8.5573   -1.4430 H   0  0  0  0  0
   11.2277  -12.3716   -3.0829 H   0  0  0  0  0
   12.1835  -13.8321   -5.5231 H   0  0  0  0  0
   14.1490  -12.5485   -5.4382 H   0  0  0  0  0
   13.8329  -12.0227   -3.7509 H   0  0  0  0  0
   12.5584  -11.1346   -7.8894 H   0  0  0  0  0
   11.7816   -9.1239   -6.7366 H   0  0  0  0  0
   14.2773  -15.0266   -5.1514 H   0  0  0  0  0
   14.0990  -16.4482   -2.5154 H   0  0  0  0  0
   15.5781  -17.7310   -4.7018 H   0  0  0  0  0
   13.7900  -17.4841   -5.0028 H   0  0  0  0  0
   16.3365  -19.3142   -3.0756 H   0  0  0  0  0
   12.1491  -18.6298   -3.6316 H   0  0  0  0  0
   15.8321  -21.3425   -1.7665 H   0  0  0  0  0
   11.6437  -20.6554   -2.3147 H   0  0  0  0  0
   12.4745  -22.3671   -1.1905 H   0  0  0  0  0
   17.2160  -14.3715   -2.4667 H   0  0  0  0  0
   15.4817  -14.0538   -2.5786 H   0  0  0  0  0
  1  2  2  0  0  0
  1  3  1  0  0  0
  1  4  1  0  0  0
  4  5  1  0  0  0
  5  6  1  0  0  0
  5  8  1  0  0  0
  6  7  2  0  0  0
  6 12  1  0  0  0
  8  9  1  0  0  0
  9 10  1  0  0  0
  9 11  2  0  0  0
 12 13  1  0  0  0
 13 14  1  0  0  0
 13 16  1  0  0  0
 14 15  2  0  0  0
 14 21  1  0  0  0
 16 17  1  0  0  0
 17 18  1  0  0  0
 18 19  2  0  0  0
 18 20  1  0  0  0
 21 22  1  0  0  0
 22 23  1  0  0  0
 22 25  1  0  0  0
 23 24  2  0  0  0
 23 27  1  0  0  0
 25 26  1  0  0  0
 27 28  1  0  0  0
 28 29  1  0  0  0
 28 31  1  0  0  0
 29 30  2  0  0  0
 29 35  1  0  0  0
 31 32  1  0  0  0
 32 33  1  0  0  0
 32 34  2  0  0  0
 35 36  1  0  0  0
 36 37  1  0  0  0
 36 39  1  0  0  0
 37 38  2  0  0  0
 37 46  1  0  0  0
 39 40  1  0  0  0
 40 41  4  0  0  0
 40 42  4  0  0  0
 41 43  4  0  0  0
 42 44  4  0  0  0
 43 45  4  0  0  0
 44 45  4  0  0  0
 46 47  1  0  0  0
 47 48  1  0  0  0
 47 50  1  0  0  0
 48 49  2  0  0  0
 48 55  1  0  0  0
 50 51  1  0  0  0
 51 52  1  0  0  0
 52 53  1  0  0  0
 52 54  2  0  0  0
 55 56  1  0  0  0
 56 57  1  0  0  0
 57 58  2  0  0  0
 57 59  1  0  0  0
 59 60  1  0  0  0
 60 61  1  0  0  0
 60 63  1  0  0  0
 61 62  2  0  0  0
 61 70  1  0  0  0
 63 64  1  0  0  0
 64 65  4  0  0  0
 64 66  4  0  0  0
 65 67  4  0  0  0
 66 68  4  0  0  0
 67 69  4  0  0  0
 68 69  4  0  0  0
 70 71  1  0  0  0
 71 72  1  0  0  0
 71 74  1  0  0  0
 72 73  1  0  0  0
 73 76  1  0  0  0
 74 75  2  0  0  0
 74 80  1  0  0  0
 76 77  1  0  0  0
 76 78  1  0  0  0
 76 79  2  0  0  0
 80 81  1  0  0  0
 81 82  1  0  0  0
 81 84  1  0  0  0
 82 83  2  0  0  0
 82 92  1  0  0  0
 84 85  1  0  0  0
 85 86  4  0  0  0
 85 87  4  0  0  0
 86 88  4  0  0  0
 87 89  4  0  0  0
 88 90  4  0  0  0
 89 90  4  0  0  0
 90 91  1  0  0  0
  3 93  1  0  0  0
  3 94  1  0  0  0
  3 95  1  0  0  0
  4 96  1  0  0  0
  5 97  1  0  0  0
  8 98  1  0  0  0
  8 99  1  0  0  0
 10100  1  0  0  0
 12101  1  0  0  0
 13102  1  0  0  0
 16103  1  0  0  0
 16104  1  0  0  0
 17105  1  0  0  0
 17106  1  0  0  0
 20107  1  0  0  0
 20108  1  0  0  0
 21109  1  0  0  0
 22110  1  0  0  0
 25111  1  0  0  0
 25112  1  0  0  0
 26113  1  0  0  0
 27114  1  0  0  0
 28115  1  0  0  0
 31116  1  0  0  0
 31117  1  0  0  0
 33118  1  0  0  0
 35119  1  0  0  0
 36120  1  0  0  0
 39121  1  0  0  0
 39122  1  0  0  0
 41123  1  0  0  0
 42124  1  0  0  0
 43125  1  0  0  0
 44126  1  0  0  0
 45127  1  0  0  0
 46128  1  0  0  0
 47129  1  0  0  0
 50130  1  0  0  0
 50131  1  0  0  0
 51132  1  0  0  0
 51133  1  0  0  0
 53134  1  0  0  0
 55135  1  0  0  0
 56136  1  0  0  0
 56137  1  0  0  0
 59138  1  0  0  0
 60139  1  0  0  0
 63140  1  0  0  0
 63141  1  0  0  0
 65142  1  0  0  0
 66143  1  0  0  0
 67144  1  0  0  0
 68145  1  0  0  0
 69146  1  0  0  0
 70147  1  0  0  0
 71148  1  0  0  0
 72149  1  0  0  0
 72150  1  0  0  0
 77151  1  0  0  0
 78152  1  0  0  0
 80153  1  0  0  0
 81154  1  0  0  0
 84155  1  0  0  0
 84156  1  0  0  0
 86157  1  0  0  0
 87158  1  0  0  0
 88159  1  0  0  0
 89160  1  0  0  0
 91161  1  0  0  0
 92162  1  0  0  0
 92163  1  0  0  0
M  END
$$$$
