4bcb_ligand
  -I-interpret- 

 54 56  0  0  0  0  0  0  0  0999 V2000
   42.4870   37.8250   86.0200 C   0  0  0  0  0
   43.9410   38.0060   85.5470 C   0  0  0  0  0
   44.9410   37.9630   86.7070 C   0  0  0  0  0
   45.0670   36.5460   87.2640 C   0  0  0  0  0
   45.4310   35.4920   86.4410 C   0  0  0  0  0
   44.8420   36.3140   88.6190 C   0  0  0  0  0
   45.5320   34.1970   86.9560 C   0  0  0  0  0
   44.9550   35.0170   89.1510 C   0  0  0  0  0
   45.3090   33.9520   88.3170 C   0  0  0  0  0
   41.5840   37.4350   84.8510 C   0  0  0  0  0
   42.0250   37.3970   83.7200 O   0  0  0  0  0
   39.1610   38.9710   83.3580 O   0  0  0  0  0
   39.0090   37.7590   83.0970 C   0  0  0  0  0
   39.3820   36.7050   84.0900 C   0  0  0  0  0
   38.1520   36.1970   84.8570 C   0  0  0  0  0
   38.2240   36.8900   86.1980 C   0  0  0  0  0
   37.6290   38.2030   85.9780 N   0  0  0  0  0
   36.4360   38.4290   86.2290 N   0  0  0  0  0
   35.1750   38.6560   86.4950 N   0  0  0  0  0
   39.6990   37.1720   86.4660 C   0  0  0  0  0
   40.3110   37.1350   85.1400 N   0  0  0  0  0
   38.5490   37.3030   81.9080 N   0  0  0  0  0
   38.3650   35.8960   81.4800 C   0  0  0  0  0
   37.8540   35.9950   80.0490 C   0  0  0  0  0
   38.2100   37.4160   79.6110 C   0  0  0  0  0
   38.1290   38.2370   80.8840 C   0  0  0  0  0
   36.6930   38.6860   81.0920 C   0  0  0  0  0
   35.8430   37.9600   81.6630 N   0  0  0  0  0
   42.1331   38.7665   86.4400 H   0  0  0  0  0
   42.4558   37.0336   86.7689 H   0  0  0  0  0
   44.0212   38.9818   85.0680 H   0  0  0  0  0
   44.1787   37.1889   84.8659 H   0  0  0  0  0
   44.5872   38.6218   87.5001 H   0  0  0  0  0
   45.9163   38.2846   86.3418 H   0  0  0  0  0
   45.6395   35.6741   85.3868 H   0  0  0  0  0
   44.5761   37.1448   89.2726 H   0  0  0  0  0
   45.7865   33.3702   86.2929 H   0  0  0  0  0
   44.7672   34.8425   90.2104 H   0  0  0  0  0
   45.4101   32.9445   88.7206 H   0  0  0  0  0
   39.8548   35.9478   83.4645 H   0  0  0  0  0
   38.1556   35.1118   84.9590 H   0  0  0  0  0
   37.2236   36.4219   84.3320 H   0  0  0  0  0
   37.7527   36.3123   86.9931 H   0  0  0  0  0
   40.1422   36.4450   87.1466 H   0  0  0  0  0
   39.8532   38.1281   86.9663 H   0  0  0  0  0
   37.6688   35.3608   82.1258 H   0  0  0  0  0
   39.2916   35.3256   81.5438 H   0  0  0  0  0
   36.7827   35.8045   79.9843 H   0  0  0  0  0
   38.3057   35.2434   79.4016 H   0  0  0  0  0
   37.5338   37.7878   78.8412 H   0  0  0  0  0
   39.1982   37.4672   79.1539 H   0  0  0  0  0
   38.7395   39.1400   80.8791 H   0  0  0  0  0
   36.3909   39.6702   80.7340 H   0  0  0  0  0
   36.1082   37.0361   82.0043 H   0  0  0  0  0
  1  2  1  0  0  0
 10  1  1  0  0  0
  2  3  1  0  0  0
  3  4  1  0  0  0
  4  5  4  0  0  0
  4  6  4  0  0  0
  5  7  4  0  0  0
  6  8  4  0  0  0
  7  9  4  0  0  0
  8  9  4  0  0  0
 10 11  2  0  0  0
 21 10  1  0  0  0
 13 12  2  0  0  0
 14 13  1  0  0  0
 13 22  1  0  0  0
 14 15  1  0  0  0
 14 21  1  0  0  0
 15 16  1  0  0  0
 16 17  1  0  0  0
 16 20  1  0  0  0
 17 18  2  0  0  0
 18 19  3  0  0  0
 20 21  1  0  0  0
 22 23  1  0  0  0
 22 26  1  0  0  0
 23 24  1  0  0  0
 24 25  1  0  0  0
 25 26  1  0  0  0
 26 27  1  0  0  0
 27 28  2  0  0  0
  1 29  1  0  0  0
  1 30  1  0  0  0
  2 31  1  0  0  0
  2 32  1  0  0  0
  3 33  1  0  0  0
  3 34  1  0  0  0
  5 35  1  0  0  0
  6 36  1  0  0  0
  7 37  1  0  0  0
  8 38  1  0  0  0
  9 39  1  0  0  0
 14 40  1  0  0  0
 15 41  1  0  0  0
 15 42  1  0  0  0
 16 43  1  0  0  0
 20 44  1  0  0  0
 20 45  1  0  0  0
 23 46  1  0  0  0
 23 47  1  0  0  0
 24 48  1  0  0  0
 24 49  1  0  0  0
 25 50  1  0  0  0
 25 51  1  0  0  0
 26 52  1  0  0  0
 27 53  1  0  0  0
 28 54  1  0  0  0
M  END
$$$$
