### 
### Created by X-TOOL on Mon Sep 10 21:13:13 2018
### 

@<TRIPOS>MOLECULE
4bcb_ligand
   54    56     1     0     0
SMALL
GAST_HUCK


@<TRIPOS>ATOM
      1 C14        42.4870   37.8250   86.0200 C.3       1 4I4         0.0393
      2 C15        43.9410   38.0060   85.5470 C.3       1 4I4        -0.0263
      3 C16        44.9410   37.9630   86.7070 C.3       1 4I4        -0.0171
      4 C17        45.0670   36.5460   87.2640 C.ar      1 4I4        -0.0429
      5 C22        45.4310   35.4920   86.4410 C.ar      1 4I4        -0.0603
      6 C18        44.8420   36.3140   88.6190 C.ar      1 4I4        -0.0603
      7 C21        45.5320   34.1970   86.9560 C.ar      1 4I4        -0.0686
      8 C19        44.9550   35.0170   89.1510 C.ar      1 4I4        -0.0686
      9 C20        45.3090   33.9520   88.3170 C.ar      1 4I4        -0.0687
     10 C12        41.5840   37.4350   84.8510 C.2       1 4I4         0.1810
     11 O13        42.0250   37.3970   83.7200 O.2       1 4I4        -0.3967
     12 O9         39.1610   38.9710   83.3580 O.2       1 4I4        -0.3941
     13 C8         39.0090   37.7590   83.0970 C.2       1 4I4         0.2077
     14 C10        39.3820   36.7050   84.0900 C.3       1 4I4         0.1392
     15 C25        38.1520   36.1970   84.8570 C.3       1 4I4         0.0484
     16 C24        38.2240   36.8900   86.1980 C.3       1 4I4         0.2428
     17 N26        37.6290   38.2030   85.9780 N.2       1 4I4         0.1715
     18 N27        36.4360   38.4290   86.2290 N.1       1 4I4         0.1296
     19 N28        35.1750   38.6560   86.4950 N.1       1 4I4         0.2334
     20 C23        39.6990   37.1720   86.4660 C.3       1 4I4         0.0951
     21 N11        40.3110   37.1350   85.1400 N.am      1 4I4        -0.2462
     22 N7         38.5490   37.3030   81.9080 N.am      1 4I4        -0.2486
     23 C6         38.3650   35.8960   81.4800 C.3       1 4I4         0.0380
     24 C5         37.8540   35.9950   80.0490 C.3       1 4I4        -0.0272
     25 C4         38.2100   37.4160   79.6110 C.3       1 4I4        -0.0096
     26 C3         38.1290   38.2370   80.8840 C.3       1 4I4         0.1036
     27 C1         36.6930   38.6860   81.0920 C.2       1 4I4         0.0209
     28 N2         35.8430   37.9600   81.6630 N.2       1 4I4        -0.3619
     29 H1         42.1281   38.7699   86.4540 H         1 4I4         0.0504
     30 H2         42.4513   37.0339   86.7834 H         1 4I4         0.0504
     31 H3         44.0294   38.9782   85.0401 H         1 4I4         0.0312
     32 H4         44.1855   37.2000   84.8395 H         1 4I4         0.0312
     33 H5         44.5950   38.6349   87.5062 H         1 4I4         0.0427
     34 H6         45.9251   38.2976   86.3471 H         1 4I4         0.0427
     35 H7         45.6384   35.6731   85.3926 H         1 4I4         0.0557
     36 H8         44.5775   37.1402   89.2690 H         1 4I4         0.0557
     37 H9         45.7851   33.3748   86.2965 H         1 4I4         0.0599
     38 H10        44.7682   34.8435   90.2046 H         1 4I4         0.0599
     39 H11        45.4095   32.9501   88.7184 H         1 4I4         0.0559
     40 H12        39.8380   35.8737   83.5323 H         1 4I4         0.0804
     41 H13        38.1962   35.1050   84.9817 H         1 4I4         0.0367
     42 H14        37.2260   36.4687   84.3291 H         1 4I4         0.0367
     43 H15        37.7400   36.3195   87.0044 H         1 4I4         0.1018
     44 H16        40.1327   36.4000   87.1187 H         1 4I4         0.0579
     45 H17        39.8303   38.1606   86.9300 H         1 4I4         0.0579
     46 H18        37.6295   35.3879   82.1209 H         1 4I4         0.0525
     47 H19        39.3200   35.3512   81.5147 H         1 4I4         0.0525
     48 H20        36.7658   35.8386   80.0133 H         1 4I4         0.0288
     49 H21        38.3522   35.2541   79.4064 H         1 4I4         0.0288
     50 H22        37.4911   37.7844   78.8643 H         1 4I4         0.0324
     51 H23        39.2257   37.4503   79.1902 H         1 4I4         0.0324
     52 H24        38.7953   39.1115   80.8470 H         1 4I4         0.0842
     53 H25        36.3912   39.6693   80.7343 H         1 4I4         0.1225
     54 H26        34.8983   38.2900   81.7842 H         1 4I4         0.1054
@<TRIPOS>BOND
     1    1    2 1  
     2   10    1 1  
     3    2    3 1  
     4    3    4 1  
     5    4    5 ar 
     6    4    6 ar 
     7    5    7 ar 
     8    6    8 ar 
     9    7    9 ar 
    10    8    9 ar 
    11   10   11 2  
    12   21   10 am 
    13   13   12 2  
    14   14   13 1  
    15   13   22 am 
    16   14   15 1  
    17   14   21 1  
    18   15   16 1  
    19   16   17 1  
    20   16   20 1  
    21   17   18 2  
    22   18   19 3  
    23   20   21 1  
    24   22   23 1  
    25   22   26 1  
    26   23   24 1  
    27   24   25 1  
    28   25   26 1  
    29   26   27 1  
    30   27   28 2  
    31    1   29 1  
    32    1   30 1  
    33    2   31 1  
    34    2   32 1  
    35    3   33 1  
    36    3   34 1  
    37    5   35 1  
    38    6   36 1  
    39    7   37 1  
    40    8   38 1  
    41    9   39 1  
    42   14   40 1  
    43   15   41 1  
    44   15   42 1  
    45   16   43 1  
    46   20   44 1  
    47   20   45 1  
    48   23   46 1  
    49   23   47 1  
    50   24   48 1  
    51   24   49 1  
    52   25   50 1  
    53   25   51 1  
    54   26   52 1  
    55   27   53 1  
    56   28   54 1  
@<TRIPOS>SUBSTRUCTURE
     1 4I4         1

