6cnj_ligand
  -I-interpret- 

 27 28  0  0  0  0  0  0  0  0999 V2000
  156.8880  123.4800  170.6510 N   0  0  0  0  0
  157.1490  122.9840  169.4150 C   0  0  0  0  0
  158.4420  122.6000  168.9990 C   0  0  0  0  0
  159.4730  122.7480  169.9200 C   0  0  0  0  0
  159.2280  123.2520  171.1940 C   0  0  0  0  0
  157.9180  123.6060  171.5220 C   0  0  0  0  0
  157.8440  120.8290  167.4430 N   0  3  0  0  0
  158.6930  122.0530  167.6300 C   0  0  0  0  0
  158.2260  122.8660  166.4680 C   0  0  0  0  0
  157.9760  121.9170  165.3200 C   0  0  0  0  0
  157.6940  120.5920  165.9850 C   0  0  0  0  0
  158.7150  119.7830  167.9800 C   0  0  0  0  0
  156.3230  122.8774  168.7119 H   0  0  0  0  0
  160.4878  122.4652  169.6402 H   0  0  0  0  0
  160.0366  123.3671  171.9158 H   0  0  0  0  0
  157.7159  123.9993  172.5183 H   0  0  0  0  0
  156.9195  120.8806  167.8709 H   0  0  0  0  0
  159.7785  121.9544  167.6169 H   0  0  0  0  0
  158.9782  123.6056  166.1938 H   0  0  0  0  0
  157.3133  123.4048  166.7224 H   0  0  0  0  0
  158.8267  121.8620  164.6408 H   0  0  0  0  0
  157.1485  122.2441  164.6904 H   0  0  0  0  0
  156.6937  120.2327  165.7432 H   0  0  0  0  0
  158.3805  119.8203  165.6367 H   0  0  0  0  0
  159.6427  119.7556  167.4084 H   0  0  0  0  0
  158.9370  119.9980  169.0253 H   0  0  0  0  0
  158.2118  118.8190  167.9049 H   0  0  0  0  0
  1  2  4  0  0  0
  1  6  4  0  0  0
  2  3  4  0  0  0
  3  4  4  0  0  0
  3  8  1  0  0  0
  4  5  4  0  0  0
  5  6  4  0  0  0
  8  7  1  0  0  0
  7 11  1  0  0  0
  7 12  1  0  0  0
  8  9  1  0  0  0
  9 10  1  0  0  0
 10 11  1  0  0  0
  2 13  1  0  0  0
  4 14  1  0  0  0
  5 15  1  0  0  0
  6 16  1  0  0  0
  7 17  1  0  0  0
  8 18  1  0  0  0
  9 19  1  0  0  0
  9 20  1  0  0  0
 10 21  1  0  0  0
 10 22  1  0  0  0
 11 23  1  0  0  0
 11 24  1  0  0  0
 12 25  1  0  0  0
 12 26  1  0  0  0
 12 27  1  0  0  0
M  END
$$$$
