5k1v_ligand
  -I-interpret- 

 67 68  0  0  0  0  0  0  0  0999 V2000
   18.4950    4.5740    1.4430 C   0  0  0  0  0
   19.9830    4.2950    1.2780 C   0  0  0  0  0
   16.4340    3.2490    2.5930 C   0  0  0  0  0
   13.7590    3.5790    5.2160 C   0  0  0  0  0
   21.8650    2.6770    2.2350 C   0  0  0  0  0
   24.4640    1.4890    2.5860 C   0  0  0  0  0
   22.0730    1.2910    2.0570 C   0  0  0  0  0
   19.8660   -1.8000    1.5110 C   0  0  0  0  0
   19.9600   -2.4980    0.3070 C   0  0  0  0  0
   21.3090   -1.0540    7.8550 C   0  0  0  0  0
   17.8570    4.6580    0.1850 N   0  3  0  0  0
   20.6750    4.9630    0.5140 O   0  0  0  0  0
   17.9740    3.5220    2.4230 C   0  0  0  0  0
   15.8940    3.9260    3.8780 C   0  0  0  0  0
   15.0130    3.0570    4.6210 N   0  0  0  0  0
   13.4100    4.8560    5.0690 N   0  0  0  0  0
   12.9830    2.7250    5.9030 N   0  0  0  0  0
   23.5800   -0.8130    2.1010 C   0  0  0  0  0
   20.5390    3.2180    2.1150 N   0  0  0  0  0
   24.4210   -1.3650    1.3130 O   0  0  0  0  0
   22.9510    3.4730    2.5950 C   0  0  0  0  0
   22.7680    4.8480    2.7660 N   0  0  0  0  0
   23.3550    0.7160    2.2400 C   0  0  0  0  0
   24.2230    2.8740    2.7540 C   0  0  0  0  0
   22.8670   -1.5230    3.1670 N   0  0  0  0  0
   21.8840   -0.9740    4.1420 C   0  0  0  0  0
   22.2270   -1.1020    5.5820 C   0  0  0  0  0
   23.3910   -1.1180    6.0050 O   0  0  0  0  0
   20.4870   -1.6240    4.0020 C   0  0  0  0  0
   20.4770   -2.3590    2.6450 C   0  0  0  0  0
   21.1540   -3.5870    2.5760 C   0  0  0  0  0
   21.2590   -4.2840    1.3930 C   0  0  0  0  0
   20.6540   -3.7090    0.2830 C   0  0  0  0  0
   20.7350   -4.4080   -0.9200 O   0  0  0  0  0
   21.0750   -0.9830    6.4150 O   0  0  0  0  0
   18.2726    5.5504    1.8734 H   0  0  0  0  0
   16.2738    2.1735    2.6684 H   0  0  0  0  0
   15.9070    3.6592    1.7315 H   0  0  0  0  0
   25.4544    1.0536    2.7187 H   0  0  0  0  0
   21.2345    0.6543    1.7746 H   0  0  0  0  0
   19.3347   -0.8501    1.5698 H   0  0  0  0  0
   19.4996   -2.1047   -0.5993 H   0  0  0  0  0
   21.7606   -2.0149    8.1015 H   0  0  0  0  0
   21.9803   -0.2485    8.1529 H   0  0  0  0  0
   20.3601   -0.9513    8.3815 H   0  0  0  0  0
   18.2962    5.3931   -0.3692 H   0  0  0  0  0
   17.9461    3.7653   -0.3004 H   0  0  0  0  0
   16.8697    4.8760    0.3197 H   0  0  0  0  0
   18.2807    3.9000    3.3983 H   0  0  0  0  0
   18.3629    2.5833    2.0285 H   0  0  0  0  0
   15.3299    4.8112    3.5843 H   0  0  0  0  0
   16.7436    4.1733    4.5145 H   0  0  0  0  0
   15.2556    2.0732    4.7381 H   0  0  0  0  0
   14.0087    5.4908    4.5408 H   0  0  0  0  0
   12.1119    3.0512    6.3215 H   0  0  0  0  0
   13.2647    1.7501    6.0063 H   0  0  0  0  0
   19.8535    2.7720    2.7245 H   0  0  0  0  0
   21.8457    5.2609    2.6274 H   0  0  0  0  0
   23.5568    5.4386    3.0294 H   0  0  0  0  0
   25.0639    3.5143    3.0206 H   0  0  0  0  0
   23.0697   -2.5191    3.2518 H   0  0  0  0  0
   21.8986    0.0818    3.8716 H   0  0  0  0  0
   19.7009   -0.8700    4.0423 H   0  0  0  0  0
   20.2960   -2.3168    4.8215 H   0  0  0  0  0
   21.6064   -3.9977    3.4786 H   0  0  0  0  0
   21.7880   -5.2350    1.3312 H   0  0  0  0  0
   21.2376   -5.2150   -0.7867 H   0  0  0  0  0
  2  1  1  0  0  0
  1 11  1  0  0  0
  1 13  1  0  0  0
  2 12  2  0  0  0
 19  2  1  0  0  0
 13  3  1  0  0  0
  3 14  1  0  0  0
 15  4  1  0  0  0
  4 16  2  0  0  0
  4 17  1  0  0  0
  7  5  4  0  0  0
  5 19  1  0  0  0
  5 21  4  0  0  0
 23  6  4  0  0  0
  6 24  4  0  0  0
 23  7  4  0  0  0
  8  9  4  0  0  0
 30  8  4  0  0  0
  9 33  4  0  0  0
 35 10  1  0  0  0
 14 15  1  0  0  0
 18 20  2  0  0  0
 18 23  1  0  0  0
 25 18  1  0  0  0
 21 22  1  0  0  0
 24 21  4  0  0  0
 26 25  1  0  0  0
 26 27  1  0  0  0
 29 26  1  0  0  0
 27 28  2  0  0  0
 27 35  1  0  0  0
 29 30  1  0  0  0
 30 31  4  0  0  0
 31 32  4  0  0  0
 32 33  4  0  0  0
 33 34  1  0  0  0
  1 36  1  0  0  0
  3 37  1  0  0  0
  3 38  1  0  0  0
  6 39  1  0  0  0
  7 40  1  0  0  0
  8 41  1  0  0  0
  9 42  1  0  0  0
 10 43  1  0  0  0
 10 44  1  0  0  0
 10 45  1  0  0  0
 11 46  1  0  0  0
 11 47  1  0  0  0
 11 48  1  0  0  0
 13 49  1  0  0  0
 13 50  1  0  0  0
 14 51  1  0  0  0
 14 52  1  0  0  0
 15 53  1  0  0  0
 16 54  1  0  0  0
 17 55  1  0  0  0
 17 56  1  0  0  0
 19 57  1  0  0  0
 22 58  1  0  0  0
 22 59  1  0  0  0
 24 60  1  0  0  0
 25 61  1  0  0  0
 26 62  1  0  0  0
 29 63  1  0  0  0
 29 64  1  0  0  0
 31 65  1  0  0  0
 32 66  1  0  0  0
 34 67  1  0  0  0
M  END
$$$$
