3gk2_ligand
  -I-interpret- 

 39 40  0  0  0  0  0  0  0  0999 V2000
   -0.7550    6.8060   14.2460 C   0  0  0  0  0
   -0.0400    7.9990   14.3320 C   0  0  0  0  0
    1.3280    8.0470   14.6440 C   0  0  0  0  0
    2.0280    6.7230   14.8590 C   0  0  0  0  0
    1.2420    5.5650   14.7960 C   0  0  0  0  0
   -0.1210    5.5920   14.4850 C   0  0  0  0  0
    1.2880   10.4110   13.9170 C   0  0  0  0  0
    1.1880   11.6550   14.7890 C   0  0  0  0  0
    3.6420   11.0120   14.9620 C   0  0  0  0  0
    3.1100    9.6610   15.4610 C   0  0  0  0  0
    2.9000   13.3790   15.4210 C   0  0  0  0  0
    3.4500    6.4840   15.2670 C   0  0  0  0  0
    5.1540    7.2260   12.6370 C   0  0  0  0  0
    3.9260    7.4690   12.2110 N   0  0  0  0  0
    6.4840    7.4650   11.6180 S   0  0  0  0  0
    5.3870    6.7880   13.8670 N   0  0  0  0  0
    4.6650    6.5040   14.8550 N   0  0  0  0  0
    1.9170    9.3390   14.6830 N   0  0  0  0  0
    2.5740   12.0090   15.0580 N   0  3  0  0  0
   -1.8145    6.8247   13.9906 H   0  0  0  0  0
   -0.5659    8.9360   14.1490 H   0  0  0  0  0
    1.7126    4.6028   14.9979 H   0  0  0  0  0
   -0.6862    4.6616   14.4300 H   0  0  0  0  0
    1.8873   10.6302   13.0333 H   0  0  0  0  0
    0.2907   10.1015   13.6045 H   0  0  0  0  0
    0.6229   11.4742   15.7034 H   0  0  0  0  0
    0.6436   12.4613   14.2975 H   0  0  0  0  0
    3.9666   10.9194   13.9256 H   0  0  0  0  0
    4.4901   11.3216   15.5727 H   0  0  0  0  0
    2.8671    9.7175   16.5221 H   0  0  0  0  0
    3.8658    8.8857   15.3349 H   0  0  0  0  0
    2.6004   14.0483   14.6146 H   0  0  0  0  0
    2.3689   13.6477   16.3342 H   0  0  0  0  0
    3.9742   13.4642   15.5854 H   0  0  0  0  0
    3.4535    6.1755   16.3124 H   0  0  0  0  0
    3.7731    7.8039   11.2598 H   0  0  0  0  0
    3.1317    7.3215   12.8336 H   0  0  0  0  0
    6.3803    6.6501   14.0535 H   0  0  0  0  0
    2.4962   10.9929   15.1014 H   0  0  0  0  0
  2  1  4  0  0  0
  6  1  4  0  0  0
  3  2  4  0  0  0
  4  3  4  0  0  0
  3 18  1  0  0  0
  4  5  4  0  0  0
 12  4  1  0  0  0
  5  6  4  0  0  0
  7  8  1  0  0  0
 18  7  1  0  0  0
  8 19  1  0  0  0
 10  9  1  0  0  0
  9 19  1  0  0  0
 18 10  1  0  0  0
 19 11  1  0  0  0
 17 12  2  0  0  0
 13 14  1  0  0  0
 13 15  2  0  0  0
 16 13  1  0  0  0
 16 17  1  0  0  0
  1 20  1  0  0  0
  2 21  1  0  0  0
  5 22  1  0  0  0
  6 23  1  0  0  0
  7 24  1  0  0  0
  7 25  1  0  0  0
  8 26  1  0  0  0
  8 27  1  0  0  0
  9 28  1  0  0  0
  9 29  1  0  0  0
 10 30  1  0  0  0
 10 31  1  0  0  0
 11 32  1  0  0  0
 11 33  1  0  0  0
 11 34  1  0  0  0
 12 35  1  0  0  0
 14 36  1  0  0  0
 14 37  1  0  0  0
 16 38  1  0  0  0
 19 39  1  0  0  0
M  END
$$$$
