5juz_ligand
  -I-interpret- 

 49 53  0  0  0  0  0  0  0  0999 V2000
    8.1830   69.2940   25.0410 C   0  0  0  0  0
    8.5340   69.1360   23.7360 C   0  0  0  0  0
    8.8960   67.9800   23.0340 C   0  0  0  0  0
    8.7070   68.4390   21.5500 C   0  0  0  0  0
    8.9880   69.8600   21.5860 O   0  0  0  0  0
    8.6190   70.2010   22.8650 C   0  0  0  0  0
    8.3280   71.4370   23.2960 C   0  0  0  0  0
    7.9480   71.6600   24.6150 C   0  0  0  0  0
    7.8710   70.5780   25.5190 C   0  0  0  0  0
    7.4870   70.8060   26.8520 C   0  0  0  0  0
    8.8810   71.7280   27.7950 P   0  0  0  0  0
    8.5760   71.7140   29.4460 O   0  0  0  0  0
   10.3340   70.9570   27.5050 O   0  0  0  0  0
    8.7500   73.3540   27.2820 O   0  0  0  0  0
    6.2770   71.6920   26.8870 N   0  0  0  0  0
    5.0680   71.3350   27.3580 C   0  0  0  0  0
    4.7430   70.0170   27.4340 N   0  0  0  0  0
    3.4990   69.6360   27.9220 C   0  0  0  0  0
    2.6300   70.6580   28.3090 N   0  0  0  0  0
    2.9970   71.9600   28.2130 C   0  0  0  0  0
    2.1310   73.3710   28.6090 S   0  0  0  0  0
    4.2140   72.3420   27.7350 C   0  0  0  0  0
    4.3710   73.7250   27.7150 C   0  0  0  0  0
    3.3300   74.4770   28.1690 C   0  0  0  0  0
    3.2190   75.8600   28.2400 C   0  0  0  0  0
    1.9490   76.4530   28.1470 C   0  0  0  0  0
    1.7740   77.8340   28.2050 C   0  0  0  0  0
    2.8460   78.7120   28.3560 C   0  0  0  0  0
    2.5770   80.1040   28.3900 C   0  0  0  0  0
    4.1330   78.1660   28.4480 C   0  0  0  0  0
    4.3070   76.7690   28.3850 C   0  0  0  0  0
    8.1442   68.4334   25.7088 H   0  0  0  0  0
    9.2233   67.0145   23.4196 H   0  0  0  0  0
    8.4286   67.8310   20.6892 H   0  0  0  0  0
    8.3901   72.2770   22.6042 H   0  0  0  0  0
    7.7098   72.6693   24.9508 H   0  0  0  0  0
    7.2819   69.8397   27.3128 H   0  0  0  0  0
    7.7417   72.1559   29.6199 H   0  0  0  0  0
    7.8771   73.6881   27.5009 H   0  0  0  0  0
    6.3787   72.6402   26.5251 H   0  0  0  0  0
    3.2144   68.5866   27.9992 H   0  0  0  0  0
    5.2888   74.1869   27.3512 H   0  0  0  0  0
    1.0745   75.8138   28.0259 H   0  0  0  0  0
    0.7657   78.2412   28.1298 H   0  0  0  0  0
    2.0987   80.4032   27.4574 H   0  0  0  0  0
    1.9141   80.3243   29.2267 H   0  0  0  0  0
    3.5121   80.6506   28.5119 H   0  0  0  0  0
    4.9969   78.8197   28.5679 H   0  0  0  0  0
    5.3177   76.3661   28.4500 H   0  0  0  0  0
  1  2  4  0  0  0
  1  9  4  0  0  0
  2  3  4  0  0  0
  2  6  4  0  0  0
  3  4  4  0  0  0
  4  5  4  0  0  0
  5  6  4  0  0  0
  6  7  4  0  0  0
  7  8  4  0  0  0
  8  9  4  0  0  0
  9 10  1  0  0  0
 10 11  1  0  0  0
 10 15  1  0  0  0
 11 12  1  0  0  0
 11 13  2  0  0  0
 11 14  1  0  0  0
 15 16  1  0  0  0
 16 17  4  0  0  0
 16 22  4  0  0  0
 17 18  4  0  0  0
 18 19  4  0  0  0
 19 20  4  0  0  0
 20 21  4  0  0  0
 20 22  4  0  0  0
 21 24  4  0  0  0
 22 23  4  0  0  0
 23 24  4  0  0  0
 24 25  1  0  0  0
 25 26  4  0  0  0
 25 31  4  0  0  0
 26 27  4  0  0  0
 27 28  4  0  0  0
 28 29  1  0  0  0
 28 30  4  0  0  0
 30 31  4  0  0  0
  1 32  1  0  0  0
  3 33  1  0  0  0
  4 34  1  0  0  0
  7 35  1  0  0  0
  8 36  1  0  0  0
 10 37  1  0  0  0
 12 38  1  0  0  0
 14 39  1  0  0  0
 15 40  1  0  0  0
 18 41  1  0  0  0
 23 42  1  0  0  0
 26 43  1  0  0  0
 27 44  1  0  0  0
 29 45  1  0  0  0
 29 46  1  0  0  0
 29 47  1  0  0  0
 30 48  1  0  0  0
 31 49  1  0  0  0
M  END
$$$$
