### 
### Created by X-TOOL on Mon Sep 10 21:13:32 2018
### 

@<TRIPOS>MOLECULE
5juz_ligand
   47    51     1     0     0
SMALL
GAST_HUCK


@<TRIPOS>ATOM
      1 CAT         8.1830   69.2940   25.0410 C.ar      1 YL4        -0.0675
      2 CAU         8.5340   69.1360   23.7360 C.ar      1 YL4        -0.0186
      3 CAY         8.8960   67.9800   23.0340 C.2       1 YL4        -0.0492
      4 CAZ         8.7070   68.4390   21.5500 C.2       1 YL4         0.0828
      5 OBA         8.9880   69.8600   21.5860 O.3       1 YL4        -0.2606
      6 CAV         8.6190   70.2010   22.8650 C.ar      1 YL4         0.1183
      7 CAW         8.3280   71.4370   23.2960 C.ar      1 YL4        -0.0358
      8 CAX         7.9480   71.6600   24.6150 C.ar      1 YL4        -0.0669
      9 CAS         7.8710   70.5780   25.5190 C.ar      1 YL4        -0.0159
     10 CAR         7.4870   70.8060   26.8520 C.3       1 YL4         0.1407
     11 PBB         8.8810   71.7280   27.7950 P.3       1 YL4         0.0962
     12 OBD         8.5760   71.7140   29.4460 O.co2     1 YL4        -0.5594
     13 OBE        10.3340   70.9570   27.5050 O.co2     1 YL4        -0.5594
     14 OBC         8.7500   73.3540   27.2820 O.co2     1 YL4        -0.5594
     15 NAQ         6.2770   71.6920   26.8870 N.pl3     1 YL4        -0.2727
     16 C4          5.0680   71.3350   27.3580 C.ar      1 YL4         0.1310
     17 N3          4.7430   70.0170   27.4340 N.ar      1 YL4        -0.2638
     18 C2          3.4990   69.6360   27.9220 C.ar      1 YL4         0.0586
     19 N1          2.6300   70.6580   28.3090 N.ar      1 YL4        -0.2773
     20 C6          2.9970   71.9600   28.2130 C.ar      1 YL4         0.1085
     21 SAI         2.1310   73.3710   28.6090 S.3       1 YL4        -0.0140
     22 C5          4.2140   72.3420   27.7350 C.ar      1 YL4         0.0471
     23 CAL         4.3710   73.7250   27.7150 C.2       1 YL4        -0.0456
     24 CAH         3.3300   74.4770   28.1690 C.2       1 YL4         0.0373
     25 CAE         3.2190   75.8600   28.2400 C.ar      1 YL4        -0.0128
     26 CAD         1.9490   76.4530   28.1470 C.ar      1 YL4        -0.0592
     27 CAC         1.7740   77.8340   28.2050 C.ar      1 YL4        -0.0593
     28 CAB         2.8460   78.7120   28.3560 C.ar      1 YL4        -0.0451
     29 CAA         2.5770   80.1040   28.3900 C.3       1 YL4        -0.0306
     30 CAG         4.1330   78.1660   28.4480 C.ar      1 YL4        -0.0593
     31 CAF         4.3070   76.7690   28.3850 C.ar      1 YL4        -0.0592
     32 H1          8.1444   68.4381   25.7051 H         1 YL4         0.0470
     33 H2          9.2230   67.0154   23.4193 H         1 YL4         0.0334
     34 H3          8.4289   67.8316   20.6900 H         1 YL4         0.1069
     35 H4          8.3897   72.2724   22.6080 H         1 YL4         0.0551
     36 H5          7.7111   72.6637   24.9489 H         1 YL4         0.0498
     37 H6          7.2693   69.8456   27.3421 H         1 YL4         0.0904
     38 H7          6.3797   72.6495   26.5216 H         1 YL4         0.1908
     39 H8          3.2160   68.5924   27.9988 H         1 YL4         0.1012
     40 H9          5.2880   74.1865   27.3515 H         1 YL4         0.0448
     41 H10         1.0793   75.8173   28.0265 H         1 YL4         0.0607
     42 H11         0.7713   78.2389   28.1302 H         1 YL4         0.0561
     43 H12         3.5200   80.6568   28.5130 H         1 YL4         0.0395
     44 H13         1.9081   80.3277   29.2341 H         1 YL4         0.0395
     45 H14         2.0943   80.4073   27.4492 H         1 YL4         0.0395
     46 H15         4.9922   78.8161   28.5673 H         1 YL4         0.0561
     47 H16         5.3122   76.3683   28.4496 H         1 YL4         0.0607
@<TRIPOS>BOND
     1    1    2 ar 
     2    1    9 ar 
     3    2    3 1  
     4    2    6 ar 
     5    3    4 2  
     6    4    5 1  
     7    5    6 1  
     8    6    7 ar 
     9    7    8 ar 
    10    8    9 ar 
    11    9   10 1  
    12   10   11 1  
    13   10   15 1  
    14   11   12 ar 
    15   11   13 ar 
    16   11   14 ar 
    17   15   16 1  
    18   16   17 ar 
    19   16   22 ar 
    20   17   18 ar 
    21   18   19 ar 
    22   19   20 ar 
    23   20   21 1  
    24   20   22 ar 
    25   21   24 1  
    26   22   23 1  
    27   23   24 2  
    28   24   25 1  
    29   25   26 ar 
    30   25   31 ar 
    31   26   27 ar 
    32   27   28 ar 
    33   28   29 1  
    34   28   30 ar 
    35   30   31 ar 
    36    1   32 1  
    37    3   33 1  
    38    4   34 1  
    39    7   35 1  
    40    8   36 1  
    41   10   37 1  
    42   15   38 1  
    43   18   39 1  
    44   23   40 1  
    45   26   41 1  
    46   27   42 1  
    47   29   43 1  
    48   29   44 1  
    49   29   45 1  
    50   30   46 1  
    51   31   47 1  
@<TRIPOS>SUBSTRUCTURE
     1 YL4         1

