2is0_ligand
  -I-interpret- 

 72 74  0  0  0  0  0  0  0  0999 V2000
   32.2120   44.6970    6.2880 C   0  0  0  0  0
   32.5680   45.5980    5.1870 C   0  0  0  0  0
   32.5130   47.0440    5.2780 C   0  0  0  0  0
   32.1020   47.6220    6.5340 C   0  0  0  0  0
   31.8440   46.7160    7.6250 C   0  0  0  0  0
   31.8920   45.2720    7.5480 C   0  0  0  0  0
   33.0420   45.0360    3.8750 C   0  0  0  0  0
   32.0340   44.2360    3.1800 N   0  0  0  0  0
   31.2980   44.6760    2.1100 C   0  0  0  0  0
   30.2940   43.7250    1.5460 C   0  0  0  0  0
   30.4610   42.2830    1.4070 C   0  0  0  0  0
   29.3610   41.4750    0.9070 C   0  0  0  0  0
   28.1300   42.0850    0.5790 C   0  0  0  0  0
   27.9380   43.4900    0.6760 C   0  0  0  0  0
   29.0370   44.2950    1.1570 C   0  0  0  0  0
   26.7020   43.9860    0.2950 N   0  0  0  0  0
   25.9190   45.1560    1.1060 S   0  0  0  0  0
   26.2010   46.7160    0.2850 C   0  0  0  0  0
   26.0660   43.6160   -0.9820 C   0  0  0  0  0
   31.4640   45.8050    1.6560 O   0  0  0  0  0
   26.4930   45.2170    2.4100 O   0  0  0  0  0
   24.5350   44.8250    0.9440 O   0  0  0  0  0
   34.3150   44.1500    4.0690 C   0  0  0  0  0
   31.5540   47.2300    8.8200 F   0  0  0  0  0
   29.4230   40.0400    0.6400 C   0  0  0  0  0
   30.2830   39.4230    1.4720 O   0  0  0  0  0
   28.7810   39.4840   -0.1960 O   0  0  0  0  0
   30.4240   37.9460    1.5350 C   0  0  0  0  0
   31.5390   37.6370    2.4940 C   0  0  0  0  0
   31.3970   38.4940    3.6730 N   0  3  0  0  0
   31.2340   36.2150    2.8920 C   0  0  0  0  0
   32.9490   37.8260    1.9000 C   0  0  0  0  0
   34.5490   41.7140    0.7390 C   0  0  0  0  0
   33.6730   41.0130   -0.1910 C   0  0  0  0  0
   33.0920   39.7490    0.2100 C   0  0  0  0  0
   33.4200   39.2130    1.5340 C   0  0  0  0  0
   34.2500   39.9410    2.4860 C   0  0  0  0  0
   34.8360   41.2100    2.0780 C   0  0  0  0  0
   32.0390   35.8570    3.8430 O   0  0  0  0  0
   32.1933   43.6167    6.1442 H   0  0  0  0  0
   32.7733   47.6727    4.4265 H   0  0  0  0  0
   31.9911   48.6998    6.6532 H   0  0  0  0  0
   31.6910   44.6504    8.4205 H   0  0  0  0  0
   33.2658   45.9082    3.2607 H   0  0  0  0  0
   31.8672   43.2867    3.5138 H   0  0  0  0  0
   31.4067   41.8130    1.6769 H   0  0  0  0  0
   27.3031   41.4600    0.2416 H   0  0  0  0  0
   28.9059   45.3748    1.2267 H   0  0  0  0  0
   25.7346   47.5167    0.8590 H   0  0  0  0  0
   27.2732   46.8974    0.2107 H   0  0  0  0  0
   25.7667   46.6830   -0.7142 H   0  0  0  0  0
   25.0547   43.2563   -0.7920 H   0  0  0  0  0
   26.0261   44.4893   -1.6330 H   0  0  0  0  0
   26.6485   42.8297   -1.4621 H   0  0  0  0  0
   34.0580   43.2716    4.6609 H   0  0  0  0  0
   34.6897   43.8363    3.0947 H   0  0  0  0  0
   35.0820   44.7265    4.5862 H   0  0  0  0  0
   30.6489   37.5429    0.5476 H   0  0  0  0  0
   29.4939   37.4892    1.8731 H   0  0  0  0  0
   32.1497   38.2922    4.3312 H   0  0  0  0  0
   31.4456   39.4723    3.3886 H   0  0  0  0  0
   30.4971   38.3123    4.1176 H   0  0  0  0  0
   31.3675   35.5578    2.0327 H   0  0  0  0  0
   30.2032   36.1452    3.2394 H   0  0  0  0  0
   32.9270   37.2824    0.9555 H   0  0  0  0  0
   33.6278   37.5019    2.6888 H   0  0  0  0  0
   35.0075   42.6508    0.4222 H   0  0  0  0  0
   33.4585   41.4338   -1.1733 H   0  0  0  0  0
   32.4240   39.2069   -0.4594 H   0  0  0  0  0
   34.4286   39.5427    3.4848 H   0  0  0  0  0
   35.4757   41.7718    2.7586 H   0  0  0  0  0
   31.8475   34.9518    4.0990 H   0  0  0  0  0
  2  1  4  0  0  0
  1  6  4  0  0  0
  2  3  4  0  0  0
  7  2  1  0  0  0
  3  4  4  0  0  0
  4  5  4  0  0  0
  6  5  4  0  0  0
  5 24  1  0  0  0
  8  7  1  0  0  0
  7 23  1  0  0  0
  9  8  1  0  0  0
 10  9  1  0  0  0
  9 20  2  0  0  0
 11 10  4  0  0  0
 10 15  4  0  0  0
 12 11  4  0  0  0
 12 13  4  0  0  0
 25 12  1  0  0  0
 13 14  4  0  0  0
 14 15  4  0  0  0
 14 16  1  0  0  0
 16 17  1  0  0  0
 16 19  1  0  0  0
 17 18  1  0  0  0
 17 21  2  0  0  0
 17 22  2  0  0  0
 26 25  1  0  0  0
 25 27  2  0  0  0
 28 26  1  0  0  0
 29 28  1  0  0  0
 29 30  1  0  0  0
 29 31  1  0  0  0
 32 29  1  0  0  0
 31 39  1  0  0  0
 36 32  1  0  0  0
 34 33  4  0  0  0
 33 38  4  0  0  0
 35 34  4  0  0  0
 35 36  4  0  0  0
 36 37  4  0  0  0
 37 38  4  0  0  0
  1 40  1  0  0  0
  3 41  1  0  0  0
  4 42  1  0  0  0
  6 43  1  0  0  0
  7 44  1  0  0  0
  8 45  1  0  0  0
 11 46  1  0  0  0
 13 47  1  0  0  0
 15 48  1  0  0  0
 18 49  1  0  0  0
 18 50  1  0  0  0
 18 51  1  0  0  0
 19 52  1  0  0  0
 19 53  1  0  0  0
 19 54  1  0  0  0
 23 55  1  0  0  0
 23 56  1  0  0  0
 23 57  1  0  0  0
 28 58  1  0  0  0
 28 59  1  0  0  0
 30 60  1  0  0  0
 30 61  1  0  0  0
 30 62  1  0  0  0
 31 63  1  0  0  0
 31 64  1  0  0  0
 32 65  1  0  0  0
 32 66  1  0  0  0
 33 67  1  0  0  0
 34 68  1  0  0  0
 35 69  1  0  0  0
 37 70  1  0  0  0
 38 71  1  0  0  0
 39 72  1  0  0  0
M  END
$$$$
