2kff_ligand
  -I-interpret- 

194197  0  0  0  0  0  0  0  0999 V2000
   13.2890   17.7240  -15.8450 N   0  3  0  0  0
   12.3710   16.7100  -15.2870 C   0  0  0  0  0
   13.1240   15.7750  -14.3490 C   0  0  0  0  0
   13.9360   14.9610  -14.7890 O   0  0  0  0  0
   11.7120   15.8920  -16.4050 C   0  0  0  0  0
   10.8120   16.6950  -17.3080 C   0  0  0  0  0
    9.5020   16.9610  -16.9420 C   0  0  0  0  0
   11.2760   17.1790  -18.5220 C   0  0  0  0  0
    8.6740   17.6990  -17.7660 C   0  0  0  0  0
   10.4520   17.9180  -19.3490 C   0  0  0  0  0
    9.1490   18.1760  -18.9720 C   0  0  0  0  0
   12.8760   15.9240  -13.0590 N   0  0  0  0  0
   13.4720   15.0610  -12.0480 C   0  0  0  0  0
   12.4380   14.7290  -10.9810 C   0  0  0  0  0
   12.1700   13.5560  -10.7140 O   0  0  0  0  0
   14.6950   15.7400  -11.4220 C   0  0  0  0  0
   15.2790   14.9620  -10.2540 C   0  0  0  0  0
   15.2020   13.7340  -10.1970 O   0  0  0  0  0
   15.8760   15.6780   -9.3160 N   0  0  0  0  0
   11.8530   15.7790  -10.4020 N   0  0  0  0  0
   10.8110   15.6560   -9.3810 C   0  0  0  0  0
   11.3560   15.1420   -8.0510 C   0  0  0  0  0
   12.4190   14.5210   -7.9830 O   0  0  0  0  0
    9.6580   14.7630   -9.8570 C   0  0  0  0  0
    8.7310   15.4290  -10.8540 C   0  0  0  0  0
    7.8330   16.4080  -10.4530 C   0  0  0  0  0
    8.7660   15.0840  -12.2010 C   0  0  0  0  0
    6.9980   17.0280  -11.3640 C   0  0  0  0  0
    7.9330   15.6960  -13.1170 C   0  0  0  0  0
    7.0040   16.6360  -12.6730 C   0  0  0  0  0
    6.2280   17.2890  -13.6060 O   0  0  0  0  0
   10.6150   15.4310   -6.9900 N   0  0  0  0  0
   10.9860   15.0150   -5.6470 C   0  0  0  0  0
   10.5600   13.5780   -5.4020 C   0  0  0  0  0
    9.4100   13.3110   -5.0450 O   0  0  0  0  0
   10.3470   15.9230   -4.5870 C   0  0  0  0  0
   10.7930   17.3770   -4.6490 C   0  0  0  0  0
   10.3450   18.0940   -5.9080 C   0  0  0  0  0
    9.2500   17.7730   -6.4120 O   0  0  0  0  0
   11.0870   18.9660   -6.4100 O   0  0  0  0  0
   11.4780   12.6530   -5.6220 N   0  0  0  0  0
   11.1930   11.2460   -5.4110 C   0  0  0  0  0
   11.0530   10.9450   -3.9200 C   0  0  0  0  0
   11.9910   11.1340   -3.1430 O   0  0  0  0  0
   12.2890   10.3760   -6.0380 C   0  0  0  0  0
   11.9360    8.9990   -6.0130 O   0  0  0  0  0
    9.8720   10.4930   -3.5250 N   0  0  0  0  0
    9.6120   10.1470   -2.1390 C   0  0  0  0  0
    9.5490    8.6260   -1.9910 C   0  0  0  0  0
    9.0010    8.0910   -1.0270 O   0  0  0  0  0
    8.2910   10.7810   -1.6580 C   0  0  0  0  0
    8.1780   12.1100   -2.1870 O   0  0  0  0  0
    8.2280   10.8410   -0.1350 C   0  0  0  0  0
   10.1260    7.9330   -2.9640 N   0  0  0  0  0
   10.1550    6.4800   -2.9610 C   0  0  0  0  0
   11.5060    5.9780   -2.4510 C   0  0  0  0  0
   12.5260    6.1230   -3.1270 O   0  0  0  0  0
    9.8900    5.9410   -4.3680 C   0  0  0  0  0
    9.8660    4.4270   -4.4110 C   0  0  0  0  0
   10.8950    3.7810   -4.5920 O   0  0  0  0  0
    8.6910    3.8490   -4.2430 N   0  0  0  0  0
   11.5230    5.3730   -1.2510 N   0  0  0  0  0
   12.7550    4.9030   -0.5940 C   0  0  0  0  0
   13.3380    3.6520   -1.2440 C   0  0  0  0  0
   14.3950    3.1650   -0.8430 O   0  0  0  0  0
   12.3040    4.5890    0.8430 C   0  0  0  0  0
   10.9090    5.1170    0.9610 C   0  0  0  0  0
   10.3440    5.1030   -0.4250 C   0  0  0  0  0
   12.6490    3.1330   -2.2450 N   0  0  0  0  0
   13.1090    1.9390   -2.9350 C   0  0  0  0  0
   13.9690    2.3040   -4.1340 C   0  0  0  0  0
   14.7310    1.4800   -4.6280 O   0  0  0  0  0
   11.9220    1.0800   -3.3790 C   0  0  0  0  0
   11.1620    0.4830   -2.2340 C   0  0  0  0  0
   11.6020   -0.6830   -1.6420 C   0  0  0  0  0
   10.0070    1.0830   -1.7590 C   0  0  0  0  0
   10.9050   -1.2490   -0.5940 C   0  0  0  0  0
    9.3040    0.5260   -0.7110 C   0  0  0  0  0
    9.7550   -0.6040   -0.1060 C   0  0  0  0  0
   13.8430    3.5370   -4.6040 N   0  0  0  0  0
   14.6310    3.9830   -5.7390 C   0  0  0  0  0
   15.6100    5.0860   -5.3320 C   0  0  0  0  0
   16.7690    5.0520   -5.7410 O   0  0  0  0  0
   13.7360    4.4480   -6.9210 C   0  0  0  0  0
   14.5460    4.7900   -8.0560 O   0  0  0  0  0
   12.8710    5.6420   -6.5410 C   0  0  0  0  0
   15.1340    6.0400   -4.5100 N   0  0  0  0  0
   15.9450    7.1670   -4.0180 C   0  0  0  0  0
   16.4000    8.0980   -5.1500 C   0  0  0  0  0
   15.9630    9.2490   -5.2280 O   0  0  0  0  0
   17.1450    6.6660   -3.2220 C   0  0  0  0  0
   17.2690    7.5760   -6.0140 N   0  0  0  0  0
   17.8340    8.3070   -7.1450 C   0  0  0  0  0
   18.6930    9.4760   -6.6610 C   0  0  0  0  0
   19.7540    9.2200   -6.0620 O   0  0  0  0  0
   16.7340    8.8140   -8.0810 C   0  0  0  0  0
   17.1820    8.9040   -9.5310 C   0  0  0  0  0
   16.3640    9.9200  -10.3170 C   0  0  0  0  0
   17.0350   11.2880  -10.3310 C   0  0  0  0  0
   17.1160   11.9050   -8.9750 N   0  3  0  0  0
   18.3160   10.6450   -6.9050 O   0  0  0  0  0
   13.7131   18.2530  -15.0830 H   0  0  0  0  0
   14.0188   17.2595  -16.3854 H   0  0  0  0  0
   12.7667   18.3572  -16.4505 H   0  0  0  0  0
   11.5929   17.2323  -14.7303 H   0  0  0  0  0
   11.0935   15.1326  -15.9266 H   0  0  0  0  0
   12.5133   15.4893  -17.0245 H   0  0  0  0  0
    9.1205   16.5837  -15.9932 H   0  0  0  0  0
   12.3022   16.9741  -18.8271 H   0  0  0  0  0
    7.6469   17.9045  -17.4645 H   0  0  0  0  0
   10.8303   18.2971  -20.2984 H   0  0  0  0  0
    8.4963   18.7552  -19.6251 H   0  0  0  0  0
   12.2458   16.6687  -12.7614 H   0  0  0  0  0
   13.8010   14.1346  -12.5187 H   0  0  0  0  0
   14.3766   16.7120  -11.0454 H   0  0  0  0  0
   15.4645   15.8088  -12.1910 H   0  0  0  0  0
   16.2935   15.2146   -8.5089 H   0  0  0  0  0
   15.9190   16.6937   -9.3996 H   0  0  0  0  0
   12.1464   16.7141  -10.6848 H   0  0  0  0  0
   10.4283   16.6633   -9.2164 H   0  0  0  0  0
    9.0615   14.5114   -8.9800 H   0  0  0  0  0
   10.1019   13.9011  -10.3551 H   0  0  0  0  0
    7.7851   16.6930   -9.4020 H   0  0  0  0  0
    9.4629   14.3173  -12.5395 H   0  0  0  0  0
    6.3350   17.8294  -11.0381 H   0  0  0  0  0
    8.0012   15.4467  -14.1759 H   0  0  0  0  0
    6.3555   16.8836  -14.4668 H   0  0  0  0  0
    9.7549   15.9636   -7.1205 H   0  0  0  0  0
   12.0701   15.0931   -5.5653 H   0  0  0  0  0
   10.6494   15.5380   -3.6131 H   0  0  0  0  0
    9.2715   15.9116   -4.7638 H   0  0  0  0  0
   11.8829   17.3862   -4.6370 H   0  0  0  0  0
   10.3445   17.8937   -3.8005 H   0  0  0  0  0
   11.8761   19.0615   -5.8717 H   0  0  0  0  0
   12.4037   12.9333   -5.9460 H   0  0  0  0  0
   10.2470   11.0091   -5.8979 H   0  0  0  0  0
   13.2065   10.5086   -5.4647 H   0  0  0  0  0
   12.4212   10.6807   -7.0762 H   0  0  0  0  0
   12.6401    8.4820   -6.4113 H   0  0  0  0  0
    9.1261   10.3853   -4.2123 H   0  0  0  0  0
   10.4228   10.5363   -1.5232 H   0  0  0  0  0
    7.4677   10.1612   -2.0132 H   0  0  0  0  0
    7.3554   12.5037   -1.8870 H   0  0  0  0  0
    8.2969    9.8315    0.2703 H   0  0  0  0  0
    9.0578   11.4412    0.2383 H   0  0  0  0  0
    7.2845   11.2931    0.1708 H   0  0  0  0  0
   10.5623    8.4350   -3.7373 H   0  0  0  0  0
    9.3723    6.1183   -2.2943 H   0  0  0  0  0
   10.6949    6.2842   -5.0179 H   0  0  0  0  0
    8.9135    6.3032   -4.6896 H   0  0  0  0  0
    8.6157    2.8319   -4.2610 H   0  0  0  0  0
    7.8585    4.4195   -4.0952 H   0  0  0  0  0
   13.5464    5.6497   -0.6597 H   0  0  0  0  0
   12.9653    5.0528    1.5749 H   0  0  0  0  0
   12.3394    3.5181    1.0432 H   0  0  0  0  0
   10.9018    6.1232    1.3801 H   0  0  0  0  0
   10.3114    4.5057    1.6372 H   0  0  0  0  0
    9.8528    4.1630   -0.6763 H   0  0  0  0  0
    9.5463    5.8319   -0.5683 H   0  0  0  0  0
   11.7793    3.5778   -2.5386 H   0  0  0  0  0
   13.7160    1.3615   -2.2377 H   0  0  0  0  0
   12.3153    0.2584   -3.9776 H   0  0  0  0  0
   11.2365    1.7243   -3.9294 H   0  0  0  0  0
   12.5105   -1.1626   -2.0062 H   0  0  0  0  0
    9.6501    2.0048   -2.2183 H   0  0  0  0  0
   11.2422   -2.1854   -0.1496 H   0  0  0  0  0
    8.3822    0.9946   -0.3665 H   0  0  0  0  0
    9.2260   -1.0098    0.7563 H   0  0  0  0  0
   13.1850    4.1798   -4.1633 H   0  0  0  0  0
   15.2073    3.1248   -6.0845 H   0  0  0  0  0
   13.0782    3.6164   -7.1737 H   0  0  0  0  0
   13.9802    5.0750   -8.7773 H   0  0  0  0  0
   12.2234    5.3693   -5.7077 H   0  0  0  0  0
   13.5111    6.4742   -6.2481 H   0  0  0  0  0
   12.2614    5.9342   -7.3961 H   0  0  0  0  0
   14.1604    5.9792   -4.2121 H   0  0  0  0  0
   15.3047    7.7521   -3.3578 H   0  0  0  0  0
   16.7961    6.0851   -2.3682 H   0  0  0  0  0
   17.7665    6.0383   -3.8606 H   0  0  0  0  0
   17.7272    7.5177   -2.8701 H   0  0  0  0  0
   17.5573    6.6072   -5.8774 H   0  0  0  0  0
   18.4660    7.6154   -7.7022 H   0  0  0  0  0
   16.4580    9.8172   -7.7560 H   0  0  0  0  0
   15.9055    8.1073   -8.0329 H   0  0  0  0  0
   17.0455    7.9257   -9.9919 H   0  0  0  0  0
   18.2252    9.2196   -9.5471 H   0  0  0  0  0
   15.3883   10.0193   -9.8414 H   0  0  0  0  0
   16.2743    9.5693  -11.3451 H   0  0  0  0  0
   16.4385   11.9463  -10.9626 H   0  0  0  0  0
   18.0523   11.1575  -10.7001 H   0  0  0  0  0
   17.5719   12.8149   -9.0435 H   0  0  0  0  0
   16.1750   12.0223   -8.5994 H   0  0  0  0  0
   17.6563   11.2982   -8.3584 H   0  0  0  0  0
   17.4775   10.6188   -7.3718 H   0  0  0  0  0
  1  2  1  0  0  0
  2  3  1  0  0  0
  2  5  1  0  0  0
  3  4  2  0  0  0
  3 12  1  0  0  0
  5  6  1  0  0  0
  6  7  4  0  0  0
  6  8  4  0  0  0
  7  9  4  0  0  0
  8 10  4  0  0  0
  9 11  4  0  0  0
 10 11  4  0  0  0
 12 13  1  0  0  0
 13 14  1  0  0  0
 13 16  1  0  0  0
 14 15  2  0  0  0
 14 20  1  0  0  0
 16 17  1  0  0  0
 17 18  2  0  0  0
 17 19  1  0  0  0
 20 21  1  0  0  0
 21 22  1  0  0  0
 21 24  1  0  0  0
 22 23  2  0  0  0
 22 32  1  0  0  0
 24 25  1  0  0  0
 25 26  4  0  0  0
 25 27  4  0  0  0
 26 28  4  0  0  0
 27 29  4  0  0  0
 28 30  4  0  0  0
 29 30  4  0  0  0
 30 31  1  0  0  0
 32 33  1  0  0  0
 33 34  1  0  0  0
 33 36  1  0  0  0
 34 35  2  0  0  0
 34 41  1  0  0  0
 36 37  1  0  0  0
 37 38  1  0  0  0
 38 39  2  0  0  0
 38 40  1  0  0  0
 41 42  1  0  0  0
 42 43  1  0  0  0
 42 45  1  0  0  0
 43 44  2  0  0  0
 43 47  1  0  0  0
 45 46  1  0  0  0
 47 48  1  0  0  0
 48 49  1  0  0  0
 48 51  1  0  0  0
 49 50  2  0  0  0
 49 54  1  0  0  0
 51 52  1  0  0  0
 51 53  1  0  0  0
 54 55  1  0  0  0
 55 56  1  0  0  0
 55 58  1  0  0  0
 56 57  2  0  0  0
 56 62  1  0  0  0
 58 59  1  0  0  0
 59 60  2  0  0  0
 59 61  1  0  0  0
 62 63  1  0  0  0
 62 68  1  0  0  0
 63 64  1  0  0  0
 63 66  1  0  0  0
 64 65  2  0  0  0
 64 69  1  0  0  0
 66 67  1  0  0  0
 67 68  1  0  0  0
 69 70  1  0  0  0
 70 71  1  0  0  0
 70 73  1  0  0  0
 71 72  2  0  0  0
 71 80  1  0  0  0
 73 74  1  0  0  0
 74 75  4  0  0  0
 74 76  4  0  0  0
 75 77  4  0  0  0
 76 78  4  0  0  0
 77 79  4  0  0  0
 78 79  4  0  0  0
 80 81  1  0  0  0
 81 82  1  0  0  0
 81 84  1  0  0  0
 82 83  2  0  0  0
 82 87  1  0  0  0
 84 85  1  0  0  0
 84 86  1  0  0  0
 87 88  1  0  0  0
 88 89  1  0  0  0
 88 91  1  0  0  0
 89 90  2  0  0  0
 89 92  1  0  0  0
 92 93  1  0  0  0
 93 94  1  0  0  0
 93 96  1  0  0  0
 94 95  2  0  0  0
 94101  1  0  0  0
 96 97  1  0  0  0
 97 98  1  0  0  0
 98 99  1  0  0  0
 99100  1  0  0  0
  1102  1  0  0  0
  1103  1  0  0  0
  1104  1  0  0  0
  2105  1  0  0  0
  5106  1  0  0  0
  5107  1  0  0  0
  7108  1  0  0  0
  8109  1  0  0  0
  9110  1  0  0  0
 10111  1  0  0  0
 11112  1  0  0  0
 12113  1  0  0  0
 13114  1  0  0  0
 16115  1  0  0  0
 16116  1  0  0  0
 19117  1  0  0  0
 19118  1  0  0  0
 20119  1  0  0  0
 21120  1  0  0  0
 24121  1  0  0  0
 24122  1  0  0  0
 26123  1  0  0  0
 27124  1  0  0  0
 28125  1  0  0  0
 29126  1  0  0  0
 31127  1  0  0  0
 32128  1  0  0  0
 33129  1  0  0  0
 36130  1  0  0  0
 36131  1  0  0  0
 37132  1  0  0  0
 37133  1  0  0  0
 40134  1  0  0  0
 41135  1  0  0  0
 42136  1  0  0  0
 45137  1  0  0  0
 45138  1  0  0  0
 46139  1  0  0  0
 47140  1  0  0  0
 48141  1  0  0  0
 51142  1  0  0  0
 52143  1  0  0  0
 53144  1  0  0  0
 53145  1  0  0  0
 53146  1  0  0  0
 54147  1  0  0  0
 55148  1  0  0  0
 58149  1  0  0  0
 58150  1  0  0  0
 61151  1  0  0  0
 61152  1  0  0  0
 63153  1  0  0  0
 66154  1  0  0  0
 66155  1  0  0  0
 67156  1  0  0  0
 67157  1  0  0  0
 68158  1  0  0  0
 68159  1  0  0  0
 69160  1  0  0  0
 70161  1  0  0  0
 73162  1  0  0  0
 73163  1  0  0  0
 75164  1  0  0  0
 76165  1  0  0  0
 77166  1  0  0  0
 78167  1  0  0  0
 79168  1  0  0  0
 80169  1  0  0  0
 81170  1  0  0  0
 84171  1  0  0  0
 85172  1  0  0  0
 86173  1  0  0  0
 86174  1  0  0  0
 86175  1  0  0  0
 87176  1  0  0  0
 88177  1  0  0  0
 91178  1  0  0  0
 91179  1  0  0  0
 91180  1  0  0  0
 92181  1  0  0  0
 93182  1  0  0  0
 96183  1  0  0  0
 96184  1  0  0  0
 97185  1  0  0  0
 97186  1  0  0  0
 98187  1  0  0  0
 98188  1  0  0  0
 99189  1  0  0  0
 99190  1  0  0  0
100191  1  0  0  0
100192  1  0  0  0
100193  1  0  0  0
101194  1  0  0  0
M  END
$$$$
