### 
### Created by X-TOOL on Mon Sep 10 21:13:02 2018
### 

@<TRIPOS>MOLECULE
2kff_ligand
  192   195     1     0     0
SMALL
GAST_HUCK


@<TRIPOS>ATOM
      1 N          13.2890   17.7240  -15.8450 N.4       1 PHE         0.2394
      2 CA         12.3710   16.7100  -15.2870 C.3       1 PHE         0.0744
      3 C          13.1240   15.7750  -14.3490 C.2       1 PHE         0.2289
      4 O          13.9360   14.9610  -14.7890 O.2       1 PHE        -0.3905
      5 CB         11.7120   15.8920  -16.4050 C.3       1 PHE         0.0416
      6 CG         10.8120   16.6950  -17.3080 C.ar      1 PHE        -0.0353
      7 CD1         9.5020   16.9610  -16.9420 C.ar      1 PHE        -0.0600
      8 CD2        11.2760   17.1790  -18.5220 C.ar      1 PHE        -0.0600
      9 CE1         8.6740   17.6990  -17.7660 C.ar      1 PHE        -0.0686
     10 CE2        10.4520   17.9180  -19.3490 C.ar      1 PHE        -0.0686
     11 CZ          9.1490   18.1760  -18.9720 C.ar      1 PHE        -0.0687
     12 N          12.8760   15.9240  -13.0590 N.am      1 ASN        -0.2587
     13 CA         13.4720   15.0610  -12.0480 C.3       1 ASN         0.1477
     14 C          12.4380   14.7290  -10.9810 C.2       1 ASN         0.2064
     15 O          12.1700   13.5560  -10.7140 O.2       1 ASN        -0.3942
     16 CB         14.6950   15.7400  -11.4220 C.3       1 ASN         0.0773
     17 CG         15.2790   14.9620  -10.2540 C.2       1 ASN         0.1780
     18 OD1        15.2020   13.7340  -10.1970 O.2       1 ASN        -0.3970
     19 ND2        15.8760   15.6780   -9.3160 N.am      1 ASN        -0.3007
     20 N          11.8530   15.7790  -10.4020 N.am      1 TYR        -0.2620
     21 CA         10.8110   15.6560   -9.3810 C.3       1 TYR         0.1390
     22 C          11.3560   15.1420   -8.0510 C.2       1 TYR         0.2057
     23 O          12.4190   14.5210   -7.9830 O.2       1 TYR        -0.3942
     24 CB          9.6580   14.7630   -9.8570 C.3       1 TYR         0.0163
     25 CG          8.7310   15.4290  -10.8540 C.ar      1 TYR        -0.0493
     26 CD1         7.8330   16.4080  -10.4530 C.ar      1 TYR        -0.0685
     27 CD2         8.7660   15.0840  -12.2010 C.ar      1 TYR        -0.0685
     28 CE1         6.9980   17.0280  -11.3640 C.ar      1 TYR        -0.0398
     29 CE2         7.9330   15.6960  -13.1170 C.ar      1 TYR        -0.0398
     30 CZ          7.0040   16.6360  -12.6730 C.ar      1 TYR         0.0805
     31 OH          6.2280   17.2890  -13.6060 O.3       1 TYR        -0.3376
     32 N          10.6150   15.4310   -6.9900 N.am      1 GLU        -0.2635
     33 CA         10.9860   15.0150   -5.6470 C.3       1 GLU         0.1325
     34 C          10.5600   13.5780   -5.4020 C.2       1 GLU         0.2041
     35 O           9.4100   13.3110   -5.0450 O.2       1 GLU        -0.3944
     36 CB         10.3470   15.9230   -4.5870 C.3       1 GLU        -0.0008
     37 CG         10.7930   17.3770   -4.6490 C.3       1 GLU         0.0044
     38 CD         10.3450   18.0940   -5.9080 C.2       1 GLU         0.0350
     39 OE1         9.2500   17.7730   -6.4120 O.co2     1 GLU        -0.5690
     40 OE2        11.0870   18.9660   -6.4100 O.co2     1 GLU        -0.5690
     41 N          11.4780   12.6530   -5.6220 N.am      1 SER        -0.2616
     42 CA         11.1930   11.2460   -5.4110 C.3       1 SER         0.1539
     43 C          11.0530   10.9450   -3.9200 C.2       1 SER         0.2063
     44 O          11.9910   11.1340   -3.1430 O.2       1 SER        -0.3943
     45 CB         12.2890   10.3760   -6.0380 C.3       1 SER         0.0843
     46 OG         11.9360    8.9990   -6.0130 O.3       1 SER        -0.3903
     47 N           9.8720   10.4930   -3.5250 N.am      1 THR        -0.2613
     48 CA          9.6120   10.1470   -2.1390 C.3       1 THR         0.1565
     49 C           9.5490    8.6260   -1.9910 C.2       1 THR         0.2066
     50 O           9.0010    8.0910   -1.0270 O.2       1 THR        -0.3943
     51 CB          8.2910   10.7810   -1.6580 C.3       1 THR         0.0924
     52 OG1         8.1780   12.1100   -2.1870 O.3       1 THR        -0.3874
     53 CG2         8.2280   10.8410   -0.1350 C.3       1 THR        -0.0346
     54 N          10.1260    7.9330   -2.9640 N.am      1 ASN        -0.2615
     55 CA         10.1550    6.4800   -2.9610 C.3       1 ASN         0.1478
     56 C          11.5060    5.9780   -2.4510 C.2       1 ASN         0.2088
     57 O          12.5260    6.1230   -3.1270 O.2       1 ASN        -0.3940
     58 CB          9.8900    5.9410   -4.3680 C.3       1 ASN         0.0773
     59 CG          9.8660    4.4270   -4.4110 C.2       1 ASN         0.1780
     60 OD1        10.8950    3.7810   -4.5920 O.2       1 ASN        -0.3970
     61 ND2         8.6910    3.8490   -4.2430 N.am      1 ASN        -0.3007
     62 N          11.5230    5.3730   -1.2510 N.am      1 PRO        -0.2497
     63 CA         12.7550    4.9030   -0.5940 C.3       1 PRO         0.1338
     64 C          13.3380    3.6520   -1.2440 C.2       1 PRO         0.2042
     65 O          14.3950    3.1650   -0.8430 O.2       1 PRO        -0.3944
     66 CB         12.3040    4.5890    0.8430 C.3       1 PRO        -0.0104
     67 CG         10.9090    5.1170    0.9610 C.3       1 PRO        -0.0281
     68 CD         10.3440    5.1030   -0.4250 C.3       1 PRO         0.0369
     69 N          12.6490    3.1330   -2.2450 N.am      1 PHE        -0.2619
     70 CA         13.1090    1.9390   -2.9350 C.3       1 PHE         0.1404
     71 C          13.9690    2.3040   -4.1340 C.2       1 PHE         0.2060
     72 O          14.7310    1.4800   -4.6280 O.2       1 PHE        -0.3942
     73 CB         11.9220    1.0800   -3.3790 C.3       1 PHE         0.0214
     74 CG         11.1620    0.4830   -2.2340 C.ar      1 PHE        -0.0386
     75 CD1        11.6020   -0.6830   -1.6420 C.ar      1 PHE        -0.0601
     76 CD2        10.0070    1.0830   -1.7590 C.ar      1 PHE        -0.0601
     77 CE1        10.9050   -1.2490   -0.5940 C.ar      1 PHE        -0.0686
     78 CE2         9.3040    0.5260   -0.7110 C.ar      1 PHE        -0.0686
     79 CZ          9.7550   -0.6040   -0.1060 C.ar      1 PHE        -0.0687
     80 N          13.8430    3.5370   -4.6040 N.am      1 THR        -0.2612
     81 CA         14.6310    3.9830   -5.7390 C.3       1 THR         0.1565
     82 C          15.6100    5.0860   -5.3320 C.2       1 THR         0.2065
     83 O          16.7690    5.0520   -5.7410 O.2       1 THR        -0.3943
     84 CB         13.7360    4.4480   -6.9210 C.3       1 THR         0.0924
     85 OG1        14.5460    4.7900   -8.0560 O.3       1 THR        -0.3874
     86 CG2        12.8710    5.6420   -6.5410 C.3       1 THR        -0.0346
     87 N          15.1340    6.0400   -4.5100 N.am      1 ALA        -0.2639
     88 CA         15.9450    7.1670   -4.0180 C.3       1 ALA         0.1282
     89 C          16.4000    8.0980   -5.1500 C.2       1 ALA         0.2031
     90 O          15.9630    9.2490   -5.2280 O.2       1 ALA        -0.3944
     91 CB         17.1450    6.6660   -3.2220 C.3       1 ALA        -0.0244
     92 N          17.2690    7.5760   -6.0140 N.am      1 LYS        -0.2695
     93 CA         17.8340    8.3070   -7.1450 C.3       1 LYS         0.0944
     94 C          18.6930    9.4760   -6.6610 C.2       1 LYS         0.0601
     95 O          19.7540    9.2200   -6.0620 O.co2     1 LYS        -0.5666
     96 CB         16.7340    8.8140   -8.0810 C.3       1 LYS        -0.0177
     97 CG         17.1820    8.9040   -9.5310 C.3       1 LYS        -0.0446
     98 CD         16.3640    9.9200  -10.3170 C.3       1 LYS        -0.0125
     99 CE         17.0350   11.2880  -10.3310 C.3       1 LYS        -0.0354
    100 NZ         17.1160   11.9050   -8.9750 N.4       1 LYS         0.2185
    101 OXT        18.3160   10.6450   -6.9050 O.co2     1 LYS        -0.5666
    102 H1         12.7787   18.3353  -16.4630 H         1 PHE         0.2017
    103 H2         14.0247   17.2648  -16.3587 H         1 PHE         0.2017
    104 H3         13.6899   18.2638  -15.0941 H         1 PHE         0.2017
    105 H4         11.5843   17.2263  -14.7174 H         1 PHE         0.1122
    106 H5         11.1131   15.0940  -15.9418 H         1 PHE         0.0507
    107 H6         12.5068   15.4442  -17.0195 H         1 PHE         0.0507
    108 H7          9.1226   16.5858  -15.9984 H         1 PHE         0.0557
    109 H8         12.2965   16.9753  -18.8255 H         1 PHE         0.0557
    110 H9          7.6525   17.9034  -17.4662 H         1 PHE         0.0599
    111 H10        10.8282   18.2950  -20.2931 H         1 PHE         0.0599
    112 H11         8.4999   18.7520  -19.6215 H         1 PHE         0.0559
    113 H12        12.2581   16.6541  -12.7673 H         1 ASN         0.1886
    114 H13        13.7971   14.1260  -12.5276 H         1 ASN         0.0826
    115 H14        14.3968   16.7365  -11.0641 H         1 ASN         0.0551
    116 H15        15.4706   15.8449  -12.1949 H         1 ASN         0.0551
    117 H16        16.2802   15.2241   -8.5219 H         1 ASN         0.1814
    118 H17        15.9232   16.6733   -9.4008 H         1 ASN         0.1814
    119 H18        12.1406   16.6957  -10.6792 H         1 TYR         0.1885
    120 H19        10.4047   16.6631   -9.2062 H         1 TYR         0.0821
    121 H20         9.0654   14.4665   -8.9790 H         1 TYR         0.0453
    122 H21        10.0872   13.8671  -10.3294 H         1 TYR         0.0453
    123 H22         7.7854   16.6915   -9.4078 H         1 TYR         0.0530
    124 H23         9.4591   14.3216  -12.5377 H         1 TYR         0.0530
    125 H24         6.3386   17.8250  -11.0399 H         1 TYR         0.0525
    126 H25         8.0008   15.4481  -14.1701 H         1 TYR         0.0525
    127 H26         5.6454   17.8951  -13.1634 H         1 TYR         0.2458
    128 H27         9.7718   15.9532   -7.1179 H         1 GLU         0.1883
    129 H28        12.0799   15.0812   -5.5525 H         1 GLU         0.0801
    130 H29        10.6055   15.5265   -3.5941 H         1 GLU         0.0330
    131 H30         9.2557   15.8925   -4.7213 H         1 GLU         0.0330
    132 H31        11.8917   17.4064   -4.6039 H         1 GLU         0.0433
    133 H32        10.3759   17.9065   -3.7797 H         1 GLU         0.0433
    134 H33        12.3855   12.9278   -5.9397 H         1 SER         0.1884
    135 H34        10.2384   11.0081   -5.9031 H         1 SER         0.0823
    136 H35        13.2233   10.5162   -5.4746 H         1 SER         0.0606
    137 H36        12.4400   10.6878   -7.0820 H         1 SER         0.0606
    138 H37        12.6327    8.4874   -6.4071 H         1 SER         0.2097
    139 H38         9.1407   10.3874   -4.1988 H         1 THR         0.1884
    140 H39        10.4343   10.5316   -1.5178 H         1 THR         0.0826
    141 H40         7.4513   10.1725   -2.0249 H         1 THR         0.0639
    142 H41         8.1852   12.0735   -3.1363 H         1 THR         0.2101
    143 H42         7.2762   11.2971    0.1749 H         1 THR         0.0257
    144 H43         9.0649   11.4465    0.2431 H         1 THR         0.0257
    145 H44         8.2974    9.8227    0.2753 H         1 THR         0.0257
    146 H45        10.5538    8.4251   -3.7222 H         1 ASN         0.1885
    147 H46         9.3656    6.1133   -2.2884 H         1 ASN         0.0826
    148 H47        10.6834    6.3009   -5.0395 H         1 ASN         0.0551
    149 H48         8.9169    6.3197   -4.7140 H         1 ASN         0.0551
    150 H49         8.6170    2.8519   -4.2621 H         1 ASN         0.1814
    151 H50         7.8750    4.4083   -4.0966 H         1 ASN         0.1814
    152 H51        13.5160    5.6972   -0.6005 H         1 PRO         0.0802
    153 H52        12.9640    5.0872    1.5684 H         1 PRO         0.0313
    154 H53        12.3181    3.5034    1.0196 H         1 PRO         0.0313
    155 H54        10.9208    6.1426    1.3585 H         1 PRO         0.0287
    156 H55        10.3116    4.4737    1.6237 H         1 PRO         0.0287
    157 H56         9.9060    4.1231   -0.6657 H         1 PRO         0.0524
    158 H57         9.5822    5.8863   -0.5515 H         1 PRO         0.0524
    159 H58        11.7964    3.5691   -2.5329 H         1 PHE         0.1885
    160 H59        13.7211    1.3507   -2.2355 H         1 PHE         0.0823
    161 H60        12.2994    0.2630   -4.0115 H         1 PHE         0.0474
    162 H61        11.2350    1.7092   -3.9639 H         1 PHE         0.0474
    163 H62        12.5055   -1.1600   -2.0042 H         1 PHE         0.0557
    164 H63         9.6521    1.9998   -2.2157 H         1 PHE         0.0557
    165 H64        11.2404   -2.1803   -0.1521 H         1 PHE         0.0599
    166 H65         8.3872    0.9921   -0.3684 H         1 PHE         0.0599
    167 H66         9.2289   -1.0076    0.7516 H         1 PHE         0.0559
    168 H67        13.1979    4.1672   -4.1719 H         1 THR         0.1884
    169 H68        15.2219    3.1237   -6.0888 H         1 THR         0.0826
    170 H69        13.0740    3.6146   -7.1989 H         1 THR         0.0639
    171 H70        13.9861    5.0720   -8.7698 H         1 THR         0.2101
    172 H71        12.2553    5.9379   -7.4032 H         1 THR         0.0257
    173 H72        13.5158    6.4826   -6.2452 H         1 THR         0.0257
    174 H73        12.2169    5.3681   -5.7001 H         1 THR         0.0257
    175 H74        14.1794    5.9804   -4.2180 H         1 ALA         0.1883
    176 H75        15.3125    7.7568   -3.3382 H         1 ALA         0.0797
    177 H76        17.7334    7.5247   -2.8663 H         1 ALA         0.0277
    178 H77        17.7732    6.0324   -3.8654 H         1 ALA         0.0277
    179 H78        16.7943    6.0796   -2.3600 H         1 ALA         0.0277
    180 H79        17.5516    6.6262   -5.8801 H         1 LYS         0.1875
    181 H80        18.4767    7.6170   -7.7113 H         1 LYS         0.0726
    182 H81        16.4238    9.8152   -7.7473 H         1 LYS         0.0305
    183 H82        15.8779    8.1259   -8.0208 H         1 LYS         0.0305
    184 H83        17.0674    7.9158  -10.0005 H         1 LYS         0.0269
    185 H84        18.2404    9.2024   -9.5582 H         1 LYS         0.0269
    186 H85        15.3707   10.0141   -9.8539 H         1 LYS         0.0317
    187 H86        16.2537    9.5656  -11.3525 H         1 LYS         0.0317
    188 H87        16.4580   11.9560  -10.9873 H         1 LYS         0.0813
    189 H88        18.0548   11.1754  -10.7276 H         1 LYS         0.0813
    190 H89        17.5664   12.8043   -9.0414 H         1 LYS         0.1994
    191 H90        17.6498   11.3062   -8.3647 H         1 LYS         0.1994
    192 H91        16.1865   12.0215   -8.6028 H         1 LYS         0.1994
@<TRIPOS>BOND
     1    1    2 1  
     2    2    3 1  
     3    2    5 1  
     4    3    4 2  
     5    3   12 am 
     6    5    6 1  
     7    6    7 ar 
     8    6    8 ar 
     9    7    9 ar 
    10    8   10 ar 
    11    9   11 ar 
    12   10   11 ar 
    13   12   13 1  
    14   13   14 1  
    15   13   16 1  
    16   14   15 2  
    17   14   20 am 
    18   16   17 1  
    19   17   18 2  
    20   17   19 am 
    21   20   21 1  
    22   21   22 1  
    23   21   24 1  
    24   22   23 2  
    25   22   32 am 
    26   24   25 1  
    27   25   26 ar 
    28   25   27 ar 
    29   26   28 ar 
    30   27   29 ar 
    31   28   30 ar 
    32   29   30 ar 
    33   30   31 1  
    34   32   33 1  
    35   33   34 1  
    36   33   36 1  
    37   34   35 2  
    38   34   41 am 
    39   36   37 1  
    40   37   38 1  
    41   38   39 ar 
    42   38   40 ar 
    43   41   42 1  
    44   42   43 1  
    45   42   45 1  
    46   43   44 2  
    47   43   47 am 
    48   45   46 1  
    49   47   48 1  
    50   48   49 1  
    51   48   51 1  
    52   49   50 2  
    53   49   54 am 
    54   51   52 1  
    55   51   53 1  
    56   54   55 1  
    57   55   56 1  
    58   55   58 1  
    59   56   57 2  
    60   56   62 am 
    61   58   59 1  
    62   59   60 2  
    63   59   61 am 
    64   62   63 1  
    65   62   68 1  
    66   63   64 1  
    67   63   66 1  
    68   64   65 2  
    69   64   69 am 
    70   66   67 1  
    71   67   68 1  
    72   69   70 1  
    73   70   71 1  
    74   70   73 1  
    75   71   72 2  
    76   71   80 am 
    77   73   74 1  
    78   74   75 ar 
    79   74   76 ar 
    80   75   77 ar 
    81   76   78 ar 
    82   77   79 ar 
    83   78   79 ar 
    84   80   81 1  
    85   81   82 1  
    86   81   84 1  
    87   82   83 2  
    88   82   87 am 
    89   84   85 1  
    90   84   86 1  
    91   87   88 1  
    92   88   89 1  
    93   88   91 1  
    94   89   90 2  
    95   89   92 am 
    96   92   93 1  
    97   93   94 1  
    98   93   96 1  
    99   94   95 ar 
   100   94  101 ar 
   101   96   97 1  
   102   97   98 1  
   103   98   99 1  
   104   99  100 1  
   105    1  102 1  
   106    1  103 1  
   107    1  104 1  
   108    2  105 1  
   109    5  106 1  
   110    5  107 1  
   111    7  108 1  
   112    8  109 1  
   113    9  110 1  
   114   10  111 1  
   115   11  112 1  
   116   12  113 1  
   117   13  114 1  
   118   16  115 1  
   119   16  116 1  
   120   19  117 1  
   121   19  118 1  
   122   20  119 1  
   123   21  120 1  
   124   24  121 1  
   125   24  122 1  
   126   26  123 1  
   127   27  124 1  
   128   28  125 1  
   129   29  126 1  
   130   31  127 1  
   131   32  128 1  
   132   33  129 1  
   133   36  130 1  
   134   36  131 1  
   135   37  132 1  
   136   37  133 1  
   137   41  134 1  
   138   42  135 1  
   139   45  136 1  
   140   45  137 1  
   141   46  138 1  
   142   47  139 1  
   143   48  140 1  
   144   51  141 1  
   145   52  142 1  
   146   53  143 1  
   147   53  144 1  
   148   53  145 1  
   149   54  146 1  
   150   55  147 1  
   151   58  148 1  
   152   58  149 1  
   153   61  150 1  
   154   61  151 1  
   155   63  152 1  
   156   66  153 1  
   157   66  154 1  
   158   67  155 1  
   159   67  156 1  
   160   68  157 1  
   161   68  158 1  
   162   69  159 1  
   163   70  160 1  
   164   73  161 1  
   165   73  162 1  
   166   75  163 1  
   167   76  164 1  
   168   77  165 1  
   169   78  166 1  
   170   79  167 1  
   171   80  168 1  
   172   81  169 1  
   173   84  170 1  
   174   85  171 1  
   175   86  172 1  
   176   86  173 1  
   177   86  174 1  
   178   87  175 1  
   179   88  176 1  
   180   91  177 1  
   181   91  178 1  
   182   91  179 1  
   183   92  180 1  
   184   93  181 1  
   185   96  182 1  
   186   96  183 1  
   187   97  184 1  
   188   97  185 1  
   189   98  186 1  
   190   98  187 1  
   191   99  188 1  
   192   99  189 1  
   193  100  190 1  
   194  100  191 1  
   195  100  192 1  
@<TRIPOS>SUBSTRUCTURE
     1 PHE         1

