1axz_ligand
  -I-interpret- 

 24 24  0  0  0  0  0  0  0  0999 V2000
   16.9890   -1.2610   36.5220 C   0  0  0  0  0
   16.0000   -0.6800   35.5100 C   0  0  0  0  0
   14.6050   -1.2400   35.7680 C   0  0  0  0  0
   14.6550   -2.7660   35.7620 C   0  0  0  0  0
   15.7010   -3.2540   36.7620 C   0  0  0  0  0
   15.8620   -4.7600   36.7480 C   0  0  0  0  0
   18.2680   -0.8220   36.2290 O   0  0  0  0  0
   15.9770    0.7360   35.6220 O   0  0  0  0  0
   13.7100   -0.7840   34.7630 O   0  0  0  0  0
   14.9850   -3.2320   34.4610 O   0  0  0  0  0
   16.9880   -2.6890   36.4490 O   0  0  0  0  0
   16.7250   -5.1870   37.7910 O   0  0  0  0  0
   16.6902   -0.9359   37.5186 H   0  0  0  0  0
   16.3145   -0.9563   34.5036 H   0  0  0  0  0
   14.2541   -0.8959   36.7409 H   0  0  0  0  0
   13.6772   -3.1551   36.0461 H   0  0  0  0  0
   15.3497   -2.9392   37.7446 H   0  0  0  0  0
   16.2934   -5.0575   35.7922 H   0  0  0  0  0
   14.8837   -5.2184   36.8928 H   0  0  0  0  0
   18.2937    0.1367   36.2718 H   0  0  0  0  0
   16.8570    1.0831   35.4588 H   0  0  0  0  0
   13.6829    0.1756   34.7717 H   0  0  0  0  0
   14.3257   -2.9236   33.8351 H   0  0  0  0  0
   16.8116   -6.1427   37.7621 H   0  0  0  0  0
 11  1  1  0  0  0
  1  7  1  0  0  0
  1  2  1  0  0  0
  2  8  1  0  0  0
  2  3  1  0  0  0
  3  9  1  0  0  0
  3  4  1  0  0  0
  4 10  1  0  0  0
  4  5  1  0  0  0
  5 11  1  0  0  0
  5  6  1  0  0  0
  6 12  1  0  0  0
  1 13  1  0  0  0
  2 14  1  0  0  0
  3 15  1  0  0  0
  4 16  1  0  0  0
  5 17  1  0  0  0
  6 18  1  0  0  0
  6 19  1  0  0  0
  7 20  1  0  0  0
  8 21  1  0  0  0
  9 22  1  0  0  0
 10 23  1  0  0  0
 12 24  1  0  0  0
M  END
$$$$
