5z9e_ligand
  -I-interpret- 

 28 28  0  0  0  0  0  0  0  0999 V2000
   19.4310   26.7550   21.7910 C   0  0  0  0  0
   19.2990   25.4540   21.0150 C   0  0  0  0  0
   20.5040   25.1650   20.1340 C   0  0  0  0  0
   20.4150   23.8850   19.3390 C   0  0  0  0  0
   21.6490   23.1440   19.5430 O   0  0  0  0  0
   21.8030   21.9800   18.8950 C   0  0  0  0  0
   20.9860   21.5300   18.1290 O   0  0  0  0  0
   23.1200   21.3400   19.1820 C   0  0  0  0  0
   24.1060   21.9910   19.9240 C   0  0  0  0  0
   25.3770   21.4550   20.0400 C   0  0  0  0  0
   25.6790   20.2470   19.4270 C   0  0  0  0  0
   26.9360   19.7230   19.5160 O   0  0  0  0  0
   24.6990   19.5740   18.7100 C   0  0  0  0  0
   23.4320   20.1160   18.5920 C   0  0  0  0  0
   20.3091   26.7051   22.4348 H   0  0  0  0  0
   19.5382   27.5843   21.0918 H   0  0  0  0  0
   18.5400   26.9049   22.4007 H   0  0  0  0  0
   18.4264   25.5399   20.3675 H   0  0  0  0  0
   19.2131   24.6427   21.7379 H   0  0  0  0  0
   21.3639   25.0667   20.7966 H   0  0  0  0  0
   20.5722   25.9805   19.4139 H   0  0  0  0  0
   20.2793   24.1073   18.2806 H   0  0  0  0  0
   19.5612   23.2940   19.6704 H   0  0  0  0  0
   23.8725   22.9338   20.4187 H   0  0  0  0  0
   26.1405   21.9816   20.6127 H   0  0  0  0  0
   26.9691   18.8908   19.0386 H   0  0  0  0  0
   24.9282   18.6178   18.2397 H   0  0  0  0  0
   22.6675   19.5792   18.0304 H   0  0  0  0  0
  1  2  1  0  0  0
  2  3  1  0  0  0
  3  4  1  0  0  0
  4  5  1  0  0  0
  5  6  1  0  0  0
  6  7  2  0  0  0
  6  8  1  0  0  0
  8  9  4  0  0  0
  8 14  4  0  0  0
  9 10  4  0  0  0
 10 11  4  0  0  0
 11 12  1  0  0  0
 11 13  4  0  0  0
 13 14  4  0  0  0
  1 15  1  0  0  0
  1 16  1  0  0  0
  1 17  1  0  0  0
  2 18  1  0  0  0
  2 19  1  0  0  0
  3 20  1  0  0  0
  3 21  1  0  0  0
  4 22  1  0  0  0
  4 23  1  0  0  0
  9 24  1  0  0  0
 10 25  1  0  0  0
 12 26  1  0  0  0
 13 27  1  0  0  0
 14 28  1  0  0  0
M  END
$$$$
