1k3t_ligand
  -I-interpret- 

 47 49  0  0  0  0  0  0  0  0999 V2000
   26.4600    9.6930    7.8100 C   0  0  0  0  0
   27.8250    9.8620    7.9860 C   0  0  0  0  0
   28.1220   10.8250    8.9560 C   0  0  0  0  0
   27.1210   11.5020    9.6200 C   0  0  0  0  0
   25.7470   11.3070    9.4130 C   0  0  0  0  0
   25.3840   10.3520    8.4590 C   0  0  0  0  0
   24.0140   10.0930    8.1850 O   0  0  0  0  0
   23.5040    9.1440    7.2600 C   0  0  0  0  0
   24.7270    8.4850    6.5790 C   0  0  0  0  0
   26.0380    8.6720    6.7800 C   0  0  0  0  0
   27.5970   12.4240   10.5220 O   0  0  0  0  0
   29.0370   12.3260   10.5190 C   0  0  0  0  0
   29.4660   11.2920    9.4280 C   0  0  0  0  0
   22.3140    8.8240    6.9000 O   0  0  0  0  0
   24.3570    7.3970    5.5230 C   0  0  0  0  0
   25.5250    6.4030    5.1820 C   0  0  0  0  0
   24.1130    8.1880    4.2430 C   0  0  0  0  0
   23.3900    6.5730    6.3380 C   0  0  0  0  0
   23.0800    6.3460    7.6070 C   0  0  0  0  0
   29.9000   13.5870   10.7530 C   0  0  0  0  0
   29.4600   14.9070   10.4370 O   0  0  0  0  0
   30.3940   13.6950   12.2080 C   0  0  0  0  0
   31.1440   13.2520    9.8870 C   0  0  0  0  0
   28.5813    9.3070    7.4310 H   0  0  0  0  0
   24.9992   11.8726    9.9689 H   0  0  0  0  0
   22.4635    9.1761    7.5831 H   0  0  0  0  0
   26.7785    8.1041    6.2168 H   0  0  0  0  0
   29.3314   11.9295   11.4907 H   0  0  0  0  0
   30.0964   11.7073    8.6418 H   0  0  0  0  0
   30.1120   10.4952    9.7967 H   0  0  0  0  0
   22.3567    8.1274    6.2408 H   0  0  0  0  0
   26.3709    6.9620    4.7818 H   0  0  0  0  0
   25.8301    5.8786    6.0875 H   0  0  0  0  0
   25.1815    5.6813    4.4409 H   0  0  0  0  0
   23.3001    8.8960    4.4043 H   0  0  0  0  0
   25.0199    8.7293    3.9735 H   0  0  0  0  0
   23.8452    7.5023    3.4391 H   0  0  0  0  0
   22.7499    5.9834    5.6817 H   0  0  0  0  0
   23.6250    6.8566    8.4009 H   0  0  0  0  0
   22.2801    5.6488    7.8563 H   0  0  0  0  0
   30.1499   15.5355   10.6621 H   0  0  0  0  0
   29.5363   13.7427   12.8790 H   0  0  0  0  0
   30.9988   12.8213   12.4508 H   0  0  0  0  0
   30.9953   14.5972   12.3202 H   0  0  0  0  0
   31.6032   12.3337   10.2529 H   0  0  0  0  0
   30.8375   13.1181    8.8496 H   0  0  0  0  0
   31.8617   14.0698    9.9526 H   0  0  0  0  0
  1  2  4  0  0  0
  1  6  4  0  0  0
  1 10  1  0  0  0
  2  3  4  0  0  0
  3  4  4  0  0  0
  3 13  1  0  0  0
  4  5  4  0  0  0
  4 11  1  0  0  0
  5  6  4  0  0  0
  6  7  1  0  0  0
  7  8  1  0  0  0
  8  9  1  0  0  0
  8 14  1  0  0  0
  9 10  2  0  0  0
  9 15  1  0  0  0
 11 12  1  0  0  0
 12 13  1  0  0  0
 12 20  1  0  0  0
 15 16  1  0  0  0
 15 17  1  0  0  0
 15 18  1  0  0  0
 18 19  2  0  0  0
 20 21  1  0  0  0
 20 22  1  0  0  0
 20 23  1  0  0  0
  2 24  1  0  0  0
  5 25  1  0  0  0
  8 26  1  0  0  0
 10 27  1  0  0  0
 12 28  1  0  0  0
 13 29  1  0  0  0
 13 30  1  0  0  0
 14 31  1  0  0  0
 16 32  1  0  0  0
 16 33  1  0  0  0
 16 34  1  0  0  0
 17 35  1  0  0  0
 17 36  1  0  0  0
 17 37  1  0  0  0
 18 38  1  0  0  0
 19 39  1  0  0  0
 19 40  1  0  0  0
 21 41  1  0  0  0
 22 42  1  0  0  0
 22 43  1  0  0  0
 22 44  1  0  0  0
 23 45  1  0  0  0
 23 46  1  0  0  0
 23 47  1  0  0  0
M  END
$$$$
