4ith_ligand
  -I-interpret- 

 30 32  0  0  0  0  0  0  0  0999 V2000
  -24.8020    3.7240   11.0110 O   0  0  0  0  0
  -25.9470    4.2550   11.3020 C   0  0  0  0  0
  -26.7120    5.1270   10.3800 N   0  0  0  0  0
  -26.7520    4.6130    8.9670 C   0  0  0  0  0
  -27.9970    5.2140   11.1050 C   0  0  0  0  0
  -29.1130    5.6800   10.6440 O   0  0  0  0  0
  -26.5890    4.0360   12.6170 N   0  0  0  0  0
  -27.8950    4.7710   12.5030 C   0  0  0  0  0
  -29.0590    3.9030   12.8600 C   0  0  0  0  0
  -29.1930    2.6680   12.0230 C   0  0  0  0  0
  -28.5060    1.4980   12.2200 C   0  0  0  0  0
  -30.0740    2.4900   10.9600 C   0  0  0  0  0
  -29.9500    1.2380   10.4550 N   0  0  0  0  0
  -28.9570    0.6290   11.2630 C   0  0  0  0  0
  -28.4080   -0.6350   11.2290 C   0  0  0  0  0
  -28.8390   -1.6300   10.2230 Cl  0  0  0  0  0
  -27.4290   -0.9730   12.1540 C   0  0  0  0  0
  -27.0080   -0.0630   13.1040 C   0  0  0  0  0
  -27.5420    1.1950   13.1490 C   0  0  0  0  0
  -27.1589    3.6018    8.9610 H   0  0  0  0  0
  -27.3839    5.2639    8.3627 H   0  0  0  0  0
  -25.7421    4.6021    8.5570 H   0  0  0  0  0
  -26.2297    3.5099   13.4136 H   0  0  0  0  0
  -27.9181    5.6102   13.1982 H   0  0  0  0  0
  -29.9597    4.4958   12.7003 H   0  0  0  0  0
  -28.9093    3.5762   13.8890 H   0  0  0  0  0
  -30.7636    3.2475   10.5876 H   0  0  0  0  0
  -26.9871   -1.9691   12.1301 H   0  0  0  0  0
  -26.2426   -0.3505   13.8249 H   0  0  0  0  0
  -27.2165    1.9251   13.8900 H   0  0  0  0  0
  1  2  2  0  0  0
  2  3  1  0  0  0
  2  7  1  0  0  0
  3  4  1  0  0  0
  3  5  1  0  0  0
  5  6  2  0  0  0
  5  8  1  0  0  0
  7  8  1  0  0  0
  8  9  1  0  0  0
  9 10  1  0  0  0
 10 11  4  0  0  0
 10 12  4  0  0  0
 11 14  4  0  0  0
 11 19  4  0  0  0
 12 13  4  0  0  0
 13 14  4  0  0  0
 14 15  4  0  0  0
 15 16  1  0  0  0
 15 17  4  0  0  0
 17 18  4  0  0  0
 18 19  4  0  0  0
  4 20  1  0  0  0
  4 21  1  0  0  0
  4 22  1  0  0  0
  7 23  1  0  0  0
  8 24  1  0  0  0
  9 25  1  0  0  0
  9 26  1  0  0  0
 12 27  1  0  0  0
 17 28  1  0  0  0
 18 29  1  0  0  0
 19 30  1  0  0  0
M  END
$$$$
