3ud8_ligand
  -I-interpret- 

 60 61  0  0  0  0  0  0  0  0999 V2000
   26.3640   -8.5660  -22.0630 N   0  0  0  0  0
   26.5610   -6.1840  -21.5870 C   0  0  0  0  0
   24.9720   -9.3200  -22.2950 S   0  0  0  0  0
   26.5910   -7.2650  -22.6610 C   0  0  0  0  0
   27.9220   -7.2580  -23.4040 C   0  0  0  0  0
   27.8300   -8.0860  -24.5420 O   0  0  0  0  0
   28.3000   -5.8450  -23.8340 C   0  0  0  0  0
   29.6350   -5.8330  -24.2880 O   0  0  0  0  0
   28.1480   -4.8640  -22.6780 C   0  0  0  0  0
   26.8330   -4.9310  -22.1730 O   0  0  0  0  0
   28.4470   -3.4390  -23.1280 C   0  0  0  0  0
   27.5070   -2.5580  -22.5540 O   0  0  0  0  0
   28.0250   -9.3910  -26.5320 O   0  0  0  0  0
   28.6590   -8.9470  -25.2450 S   0  0  0  0  0
   24.7090   -9.2880  -23.7310 O   0  0  0  0  0
   30.0870   -8.7560  -25.5020 O   0  0  0  0  0
   25.1400  -10.6800  -21.7920 O   0  0  0  0  0
   28.5560  -10.0550  -24.2900 O   0  0  0  0  0
   23.9620   -8.5820  -21.5410 O   0  0  0  0  0
   28.4250  -10.9820  -19.4380 S   0  0  0  0  0
   28.5390   -8.1630  -17.5960 C   0  0  0  0  0
   28.8130   -8.7190  -16.1310 O   0  0  0  0  0
   27.3910   -8.7840  -18.3950 C   0  0  0  0  0
   27.8370   -9.5410  -19.5440 O   0  0  0  0  0
   26.3470   -7.7110  -18.7310 C   0  0  0  0  0
   25.4850   -7.5560  -17.5850 O   0  0  0  0  0
   26.9170   -6.3410  -19.1330 C   0  0  0  0  0
   27.5350   -6.4670  -20.6080 O   0  0  0  0  0
   28.1350   -5.8670  -18.3310 C   0  0  0  0  0
   29.0600   -6.9280  -18.0950 O   0  0  0  0  0
   28.9100   -4.8650  -19.1450 C   0  0  0  0  0
   28.8600   -8.5230  -15.1760 C   0  0  0  0  0
   28.7720   -3.5920  -18.8930 O   0  0  0  0  0
   29.7190   -5.2660  -20.0310 O   0  0  0  0  0
   29.1890  -11.2790  -20.6680 O   0  0  0  0  0
   27.3490  -11.9950  -19.3410 O   0  0  0  0  0
   29.3540  -11.1270  -18.2580 O   0  0  0  0  0
   27.0912   -9.0004  -21.4948 H   0  0  0  0  0
   25.5752   -6.1609  -21.1224 H   0  0  0  0  0
   25.7973   -7.0559  -23.3782 H   0  0  0  0  0
   28.6938   -7.6326  -22.7316 H   0  0  0  0  0
   27.6304   -5.5382  -24.6375 H   0  0  0  0  0
   29.7297   -6.4513  -25.0162 H   0  0  0  0  0
   28.8603   -5.1367  -21.8993 H   0  0  0  0  0
   28.3839   -3.3802  -24.2146 H   0  0  0  0  0
   29.4504   -3.1594  -22.8069 H   0  0  0  0  0
   27.6961   -1.6607  -22.8380 H   0  0  0  0  0
   27.0844   -9.5250  -26.3945 H   0  0  0  0  0
   24.1682   -8.6256  -20.6044 H   0  0  0  0  0
   29.4910   -8.6449  -17.8186 H   0  0  0  0  0
   26.9062   -9.5299  -17.7651 H   0  0  0  0  0
   25.8142   -8.0626  -19.6145 H   0  0  0  0  0
   24.8219   -6.8877  -17.7728 H   0  0  0  0  0
   26.0798   -5.6572  -18.9933 H   0  0  0  0  0
   27.7507   -5.4634  -17.3942 H   0  0  0  0  0
   29.6156   -7.7573  -15.0003 H   0  0  0  0  0
   27.8901   -8.1639  -14.8319 H   0  0  0  0  0
   29.1267   -9.4297  -14.6330 H   0  0  0  0  0
   28.1212   -3.4734  -18.1973 H   0  0  0  0  0
   28.8736  -10.9374  -17.4488 H   0  0  0  0  0
  1  3  1  0  0  0
  4  1  1  0  0  0
  2  4  1  0  0  0
  2 10  1  0  0  0
 28  2  1  0  0  0
  3 15  2  0  0  0
  3 17  2  0  0  0
  3 19  1  0  0  0
  4  5  1  0  0  0
  5  6  1  0  0  0
  5  7  1  0  0  0
  6 14  1  0  0  0
  7  8  1  0  0  0
  9  7  1  0  0  0
 10  9  1  0  0  0
  9 11  1  0  0  0
 11 12  1  0  0  0
 14 13  1  0  0  0
 14 16  2  0  0  0
 14 18  2  0  0  0
 24 20  1  0  0  0
 20 35  2  0  0  0
 20 36  2  0  0  0
 20 37  1  0  0  0
 21 22  1  0  0  0
 23 21  1  0  0  0
 21 30  1  0  0  0
 22 32  1  0  0  0
 23 24  1  0  0  0
 25 23  1  0  0  0
 25 26  1  0  0  0
 27 25  1  0  0  0
 27 28  1  0  0  0
 27 29  1  0  0  0
 29 30  1  0  0  0
 29 31  1  0  0  0
 31 33  1  0  0  0
 31 34  2  0  0  0
  1 38  1  0  0  0
  2 39  1  0  0  0
  4 40  1  0  0  0
  5 41  1  0  0  0
  7 42  1  0  0  0
  8 43  1  0  0  0
  9 44  1  0  0  0
 11 45  1  0  0  0
 11 46  1  0  0  0
 12 47  1  0  0  0
 13 48  1  0  0  0
 19 49  1  0  0  0
 21 50  1  0  0  0
 23 51  1  0  0  0
 25 52  1  0  0  0
 26 53  1  0  0  0
 27 54  1  0  0  0
 29 55  1  0  0  0
 32 56  1  0  0  0
 32 57  1  0  0  0
 32 58  1  0  0  0
 33 59  1  0  0  0
 37 60  1  0  0  0
M  END
$$$$
