3q43_ligand
  -I-interpret- 

 51 51  0  0  0  0  0  0  0  0999 V2000
   12.7870    9.3880   19.3530 C   0  0  0  0  0
   11.7900   12.7360   12.2200 N   0  3  0  0  0
   12.4990   10.7280   18.9290 O   0  0  0  0  0
   12.7980   11.1710   17.6370 C   0  0  0  0  0
   16.0230   10.9360   10.6630 N   0  0  0  0  0
   13.3370   12.3110   10.0810 O   0  0  0  0  0
   12.7540   12.5200   17.3410 C   0  0  0  0  0
   14.6360    9.8690   11.9850 O   0  0  0  0  0
   13.0520   13.0070   16.0490 C   0  0  0  0  0
   18.7290    8.9920   12.1680 O   0  0  0  0  0
   13.4110   12.1250   15.0400 C   0  0  0  0  0
   17.6760   10.8660   12.7480 O   0  0  0  0  0
   13.7440   12.6920   13.6700 C   0  0  0  0  0
   13.0500   12.0360   12.4850 C   0  0  0  0  0
   14.0170   12.1470   11.3230 C   0  0  0  0  0
   14.9110   10.8990   11.3390 C   0  0  0  0  0
   16.8830    9.7510   10.7440 C   0  0  0  0  0
   17.7300    9.6240    9.4720 C   0  0  0  0  0
   16.9920    9.0190    8.2750 C   0  0  0  0  0
   16.4860    7.5980    8.5350 C   0  0  0  0  0
   17.9590    9.0950    7.1010 C   0  0  0  0  0
   17.8150    9.8280   11.9350 C   0  0  0  0  0
   13.4760   10.7600   15.3290 C   0  0  0  0  0
   13.1640   10.2960   16.6280 C   0  0  0  0  0
   12.2472    8.6840   18.7197 H   0  0  0  0  0
   13.8584    9.2047   19.2711 H   0  0  0  0  0
   12.4735    9.2608   20.3892 H   0  0  0  0  0
   11.3207   12.3000   11.4262 H   0  0  0  0  0
   11.1911   12.6792   13.0437 H   0  0  0  0  0
   11.9843   13.7142   12.0062 H   0  0  0  0  0
   16.2832   11.7490   10.1047 H   0  0  0  0  0
   13.9803   12.3774    9.3716 H   0  0  0  0  0
   12.4822   13.2268   18.1250 H   0  0  0  0  0
   12.9999   14.0764   15.8446 H   0  0  0  0  0
   16.9454   11.4112   12.4471 H   0  0  0  0  0
   14.8122   12.5305   13.5250 H   0  0  0  0  0
   13.4117   13.7301   13.6811 H   0  0  0  0  0
   12.8006   10.9903   12.6648 H   0  0  0  0  0
   14.6334   13.0393   11.4321 H   0  0  0  0  0
   16.2329    8.8830   10.8538 H   0  0  0  0  0
   18.5589    8.9560    9.7063 H   0  0  0  0  0
   18.0287   10.6325    9.1859 H   0  0  0  0  0
   16.0806    9.5790    8.0654 H   0  0  0  0  0
   17.3312    6.9490    8.7642 H   0  0  0  0  0
   15.7951    7.6083    9.3780 H   0  0  0  0  0
   15.9726    7.2284    7.6473 H   0  0  0  0  0
   18.2224   10.1363    6.9157 H   0  0  0  0  0
   18.8594    8.5274    7.3362 H   0  0  0  0  0
   17.4849    8.6754    6.2137 H   0  0  0  0  0
   13.7673   10.0521   14.5530 H   0  0  0  0  0
   13.2126    9.2278   16.8393 H   0  0  0  0  0
  3  1  1  0  0  0
 14  2  1  0  0  0
  4  3  1  0  0  0
  7  4  4  0  0  0
  4 24  4  0  0  0
  5 16  1  0  0  0
 17  5  1  0  0  0
 15  6  1  0  0  0
  9  7  4  0  0  0
 16  8  2  0  0  0
 11  9  4  0  0  0
 22 10  2  0  0  0
 13 11  1  0  0  0
 11 23  4  0  0  0
 22 12  1  0  0  0
 14 13  1  0  0  0
 15 14  1  0  0  0
 16 15  1  0  0  0
 17 18  1  0  0  0
 17 22  1  0  0  0
 18 19  1  0  0  0
 19 20  1  0  0  0
 19 21  1  0  0  0
 23 24  4  0  0  0
  1 25  1  0  0  0
  1 26  1  0  0  0
  1 27  1  0  0  0
  2 28  1  0  0  0
  2 29  1  0  0  0
  2 30  1  0  0  0
  5 31  1  0  0  0
  6 32  1  0  0  0
  7 33  1  0  0  0
  9 34  1  0  0  0
 12 35  1  0  0  0
 13 36  1  0  0  0
 13 37  1  0  0  0
 14 38  1  0  0  0
 15 39  1  0  0  0
 17 40  1  0  0  0
 18 41  1  0  0  0
 18 42  1  0  0  0
 19 43  1  0  0  0
 20 44  1  0  0  0
 20 45  1  0  0  0
 20 46  1  0  0  0
 21 47  1  0  0  0
 21 48  1  0  0  0
 21 49  1  0  0  0
 23 50  1  0  0  0
 24 51  1  0  0  0
M  END
$$$$
