4c72_ligand
  -I-interpret- 

 30 30  0  0  0  0  0  0  0  0999 V2000
   -4.9490  -21.2920    8.2670 S   0  0  0  0  0
   -6.0810  -18.2660    8.4540 C   0  0  0  0  0
   -5.4480  -20.3720    5.7440 C   0  0  0  0  0
   -6.2050  -21.0010    6.9230 C   0  0  0  0  0
   -7.7030  -22.4460    5.7810 O   0  0  0  0  0
   -8.7700  -17.3110    9.1810 C   0  0  0  0  0
   -8.6110  -18.5020    8.5740 C   0  0  0  0  0
   -7.3280  -19.0460    8.1040 C   0  0  0  0  0
   -7.3210  -20.1950    7.4580 C   0  0  0  0  0
   -4.9850  -23.0810    8.0520 C   0  0  0  0  0
   -4.1970  -23.6960    8.6710 O   0  0  0  0  0
   -5.9900  -23.4780    7.1070 C   0  0  0  0  0
   -6.2770  -24.8370    6.8180 C   0  0  0  0  0
   -7.5460  -25.2810    6.1490 C   0  0  0  0  0
   -6.6240  -22.4180    6.5510 C   0  0  0  0  0
   -5.4690  -25.6940    7.1260 O   0  0  0  0  0
   -5.4386  -18.8761    9.0890 H   0  0  0  0  0
   -5.5482  -18.0056    7.5394 H   0  0  0  0  0
   -6.3603  -17.3560    8.9850 H   0  0  0  0  0
   -6.1380  -20.2094    4.9161 H   0  0  0  0  0
   -5.0209  -19.4187    6.0552 H   0  0  0  0  0
   -4.6497  -21.0430    5.4269 H   0  0  0  0  0
   -7.9370  -21.5502    5.5272 H   0  0  0  0  0
   -7.9066  -16.6694    9.3569 H   0  0  0  0  0
   -9.7621  -16.9883    9.4966 H   0  0  0  0  0
   -9.5021  -19.1102    8.4188 H   0  0  0  0  0
   -8.3088  -20.6241    7.2897 H   0  0  0  0  0
   -7.3042  -25.7944    5.2184 H   0  0  0  0  0
   -8.0856  -25.9592    6.8100 H   0  0  0  0  0
   -8.1660  -24.4105    5.9347 H   0  0  0  0  0
  4  1  1  0  0  0
  1 10  1  0  0  0
  8  2  1  0  0  0
  4  3  1  0  0  0
  9  4  1  0  0  0
  4 15  1  0  0  0
 15  5  1  0  0  0
  7  6  2  0  0  0
  8  7  1  0  0  0
  8  9  2  0  0  0
 10 11  2  0  0  0
 10 12  1  0  0  0
 12 13  1  0  0  0
 12 15  2  0  0  0
 13 14  1  0  0  0
 13 16  2  0  0  0
  2 17  1  0  0  0
  2 18  1  0  0  0
  2 19  1  0  0  0
  3 20  1  0  0  0
  3 21  1  0  0  0
  3 22  1  0  0  0
  5 23  1  0  0  0
  6 24  1  0  0  0
  6 25  1  0  0  0
  7 26  1  0  0  0
  9 27  1  0  0  0
 14 28  1  0  0  0
 14 29  1  0  0  0
 14 30  1  0  0  0
M  END
$$$$
