1w14_ligand
  -I-interpret- 

 67 67  0  0  0  0  0  0  0  0999 V2000
   32.7040   12.0000   27.3830 C   0  0  0  0  0
   32.7350   12.9370   26.1960 C   0  0  0  0  0
   33.6190   12.4380   25.0570 C   0  0  0  0  0
   33.2190   11.3510   24.2740 C   0  0  0  0  0
   34.8320   13.0800   24.7990 C   0  0  0  0  0
   33.9910   10.9560   23.1850 C   0  0  0  0  0
   35.5850   12.6790   23.7080 C   0  0  0  0  0
   35.1660   11.6370   22.8950 C   0  0  0  0  0
   33.9890   12.3310   28.5990 S   0  0  0  0  0
   35.6470   11.8470   28.2450 O   0  0  0  0  0
   34.0560   14.0560   28.9730 O   0  0  0  0  0
   33.5470   11.4050   30.0130 N   0  0  0  0  0
   32.4610   11.9220   30.7860 C   0  0  0  0  0
   33.1480   12.2830   32.0940 C   0  0  0  0  0
   33.8480   11.1250   32.5350 O   0  0  0  0  0
   31.4270   10.8060   30.8860 C   0  0  0  0  0
   31.7310    9.6360   30.5900 O   0  0  0  0  0
   30.2100   11.1610   31.3020 N   0  0  0  0  0
   29.1480   10.2120   31.4990 C   0  0  0  0  0
   27.9950   10.9430   32.1380 C   0  0  0  0  0
   28.7610    9.5930   30.1500 C   0  0  0  0  0
   28.7030   10.2590   29.0860 O   0  0  0  0  0
   28.5020    8.2860   30.2400 N   0  0  0  0  0
   28.0250    7.5620   29.0730 C   0  0  0  0  0
   28.7440    6.2450   28.8480 C   0  0  0  0  0
   30.2290    6.4680   28.6670 C   0  0  0  0  0
   30.8540    5.1510   28.3070 C   0  0  0  0  0
   32.2470    5.4100   28.0420 N   0  0  0  0  0
   33.1520    4.4440   27.8860 C   0  0  0  0  0
   32.8260    3.1440   27.9710 N   0  0  0  0  0
   34.4110    4.8090   27.6420 N   0  0  0  0  0
   26.5090    7.3490   29.1840 C   0  0  0  0  0
   25.8170    8.5400   29.5650 O   0  0  0  0  0
   32.8645   10.9901   27.0056 H   0  0  0  0  0
   31.7429   12.1342   27.8794 H   0  0  0  0  0
   33.1430   13.8883   26.5375 H   0  0  0  0  0
   31.7177   13.0174   25.8128 H   0  0  0  0  0
   32.3026   10.8128   24.5162 H   0  0  0  0  0
   35.1809   13.8845   25.4464 H   0  0  0  0  0
   33.6753   10.1177   22.5640 H   0  0  0  0  0
   36.5214   13.1904   23.4851 H   0  0  0  0  0
   35.7599   11.3518   22.0267 H   0  0  0  0  0
   34.0344   10.5471   30.2715 H   0  0  0  0  0
   31.9228   12.7865   30.3973 H   0  0  0  0  0
   32.4160   12.5959   32.8385 H   0  0  0  0  0
   33.8362   13.1157   31.9491 H   0  0  0  0  0
   34.2952   11.3184   33.3622 H   0  0  0  0  0
   30.0253   12.1467   31.4880 H   0  0  0  0  0
   29.4550    9.3950   32.1520 H   0  0  0  0  0
   28.3150   11.3592   33.0932 H   0  0  0  0  0
   27.6680   11.7485   31.4805 H   0  0  0  0  0
   27.1712   10.2480   32.3007 H   0  0  0  0  0
   28.6384    7.7972   31.1248 H   0  0  0  0  0
   28.2483    8.1739   28.1990 H   0  0  0  0  0
   28.3465    5.7769   27.9475 H   0  0  0  0  0
   28.5879    5.6063   29.7173 H   0  0  0  0  0
   30.6672    6.8544   29.5872 H   0  0  0  0  0
   30.4072    7.1983   27.8777 H   0  0  0  0  0
   30.3674    4.7169   27.4336 H   0  0  0  0  0
   30.7409    4.4333   29.1195 H   0  0  0  0  0
   32.5551    6.3797   27.9704 H   0  0  0  0  0
   33.5433    2.4293   27.8487 H   0  0  0  0  0
   31.8610    2.8714   28.1579 H   0  0  0  0  0
   34.6525    5.7981   27.5807 H   0  0  0  0  0
   26.3299    6.5954   29.9509 H   0  0  0  0  0
   26.1393    7.0430   28.2054 H   0  0  0  0  0
   24.8761    8.3580   29.6211 H   0  0  0  0  0
  1  2  1  0  0  0
  1  9  1  0  0  0
  2  3  1  0  0  0
  3  4  4  0  0  0
  3  5  4  0  0  0
  4  6  4  0  0  0
  5  7  4  0  0  0
  6  8  4  0  0  0
  7  8  4  0  0  0
  9 10  2  0  0  0
  9 11  2  0  0  0
  9 12  1  0  0  0
 12 13  1  0  0  0
 13 14  1  0  0  0
 13 16  1  0  0  0
 14 15  1  0  0  0
 16 17  2  0  0  0
 16 18  1  0  0  0
 18 19  1  0  0  0
 19 20  1  0  0  0
 19 21  1  0  0  0
 21 22  2  0  0  0
 21 23  1  0  0  0
 23 24  1  0  0  0
 24 25  1  0  0  0
 24 32  1  0  0  0
 25 26  1  0  0  0
 26 27  1  0  0  0
 27 28  1  0  0  0
 28 29  1  0  0  0
 29 30  1  0  0  0
 29 31  2  0  0  0
 32 33  1  0  0  0
  1 34  1  0  0  0
  1 35  1  0  0  0
  2 36  1  0  0  0
  2 37  1  0  0  0
  4 38  1  0  0  0
  5 39  1  0  0  0
  6 40  1  0  0  0
  7 41  1  0  0  0
  8 42  1  0  0  0
 12 43  1  0  0  0
 13 44  1  0  0  0
 14 45  1  0  0  0
 14 46  1  0  0  0
 15 47  1  0  0  0
 18 48  1  0  0  0
 19 49  1  0  0  0
 20 50  1  0  0  0
 20 51  1  0  0  0
 20 52  1  0  0  0
 23 53  1  0  0  0
 24 54  1  0  0  0
 25 55  1  0  0  0
 25 56  1  0  0  0
 26 57  1  0  0  0
 26 58  1  0  0  0
 27 59  1  0  0  0
 27 60  1  0  0  0
 28 61  1  0  0  0
 30 62  1  0  0  0
 30 63  1  0  0  0
 31 64  1  0  0  0
 32 65  1  0  0  0
 32 66  1  0  0  0
 33 67  1  0  0  0
M  END
$$$$
