### 
### Created by X-TOOL on Mon Sep 10 21:12:49 2018
### 

@<TRIPOS>MOLECULE
1lkx_ligand
   39    41     1     0     0
SMALL
GAST_HUCK


@<TRIPOS>ATOM
      1 PB        127.7590   85.0890  -10.4070 P.3       1 ADP         0.2069
      2 O1B       127.9770   86.0820   -9.3200 O.co2     1 ADP        -0.5891
      3 O2B       127.8390   85.5660  -11.7820 O.co2     1 ADP        -0.5891
      4 O3B       128.7730   83.9800  -10.0920 O.co2     1 ADP        -0.5891
      5 PA        125.0640   84.9780   -9.5550 P.3       1 ADP         0.3276
      6 O1A       125.2220   84.9380   -8.0940 O.co2     1 ADP        -0.5556
      7 O2A       124.7850   86.2880  -10.2030 O.co2     1 ADP        -0.5556
      8 O3A       126.3470   84.4200  -10.3110 O.3       1 ADP        -0.1548
      9 O5        123.9350   83.9300   -9.8740 O.3       1 ADP        -0.2436
     10 C5        123.4060   83.9720  -11.2020 C.3       1 ADP         0.1132
     11 C4        121.9550   83.7400  -11.0700 C.3       1 ADP         0.1189
     12 O4        121.9070   82.4610  -10.5090 O.3       1 ADP        -0.3364
     13 C3        121.2810   84.5520  -10.0350 C.3       1 ADP         0.1149
     14 O3        121.1290   85.9490  -10.2690 O.3       1 ADP        -0.3864
     15 C2        120.0710   83.6950   -9.7750 C.3       1 ADP         0.1385
     16 O2        119.0390   83.8140  -10.7210 O.3       1 ADP        -0.3836
     17 C1        120.7540   82.3610   -9.6900 C.3       1 ADP         0.2010
     18 N9        121.1970   81.9770   -8.3420 N.pl3     1 ADP        -0.1919
     19 C8        122.4690   81.7890   -7.8670 C.2       1 ADP         0.1123
     20 N7        122.5110   81.3100   -6.6670 N.2       1 ADP        -0.2958
     21 C5        121.1820   81.1700   -6.3270 C.ar      1 ADP         0.1045
     22 C6        120.5790   80.6960   -5.1660 C.ar      1 ADP         0.1298
     23 N6        121.2970   80.3720   -4.1290 N.pl3     1 ADP        -0.3152
     24 N1        119.1750   80.6610   -5.1180 N.ar      1 ADP        -0.2698
     25 C2        118.4370   81.1090   -6.2290 C.ar      1 ADP         0.0533
     26 N3        118.9430   81.5860   -7.3750 N.ar      1 ADP        -0.2714
     27 C4        120.3480   81.5780   -7.3520 C.ar      1 ADP         0.1613
     28 H1        123.8638   83.1861  -11.8207 H         1 ADP         0.0648
     29 H2        123.5958   84.9549  -11.6580 H         1 ADP         0.0648
     30 H3        121.4461   83.8246  -12.0415 H         1 ADP         0.0651
     31 H4        121.9035   84.5093   -9.1291 H         1 ADP         0.0648
     32 H5        120.6830   86.3460   -9.5301 H         1 ADP         0.2100
     33 H6        119.6323   83.9497   -8.7990 H         1 ADP         0.0676
     34 H7        118.3210   83.2412  -10.4784 H         1 ADP         0.2101
     35 H8        120.0749   81.5850  -10.0728 H         1 ADP         0.0996
     36 H9        123.3612   82.0215   -8.4466 H         1 ADP         0.1349
     37 H10       120.8397   80.0222   -3.2749 H         1 ADP         0.1820
     38 H11       122.3222   80.4655   -4.1629 H         1 ADP         0.1820
     39 H12       117.3568   81.0642   -6.1508 H         1 ADP         0.0996
@<TRIPOS>BOND
     1    1    2 ar 
     2    1    3 ar 
     3    1    4 ar 
     4    8    1 1  
     5    5    6 ar 
     6    5    7 ar 
     7    5    8 1  
     8    5    9 1  
     9    9   10 1  
    10   10   11 1  
    11   11   12 1  
    12   11   13 1  
    13   12   17 1  
    14   13   14 1  
    15   13   15 1  
    16   15   16 1  
    17   15   17 1  
    18   17   18 1  
    19   18   19 1  
    20   18   27 1  
    21   19   20 2  
    22   20   21 1  
    23   21   22 ar 
    24   21   27 ar 
    25   22   23 1  
    26   22   24 ar 
    27   24   25 ar 
    28   25   26 ar 
    29   26   27 ar 
    30   10   28 1  
    31   10   29 1  
    32   11   30 1  
    33   13   31 1  
    34   14   32 1  
    35   15   33 1  
    36   16   34 1  
    37   17   35 1  
    38   19   36 1  
    39   23   37 1  
    40   23   38 1  
    41   25   39 1  
@<TRIPOS>SUBSTRUCTURE
     1 ADP         1

