1lkx_ligand
  -I-interpret- 

 42 44  0  0  0  0  0  0  0  0999 V2000
  127.7590   85.0890  -10.4070 P   0  0  0  0  0
  127.9770   86.0820   -9.3200 O   0  0  0  0  0
  127.8390   85.5660  -11.7820 O   0  0  0  0  0
  128.7730   83.9800  -10.0920 O   0  0  0  0  0
  125.0640   84.9780   -9.5550 P   0  0  0  0  0
  125.2220   84.9380   -8.0940 O   0  0  0  0  0
  124.7850   86.2880  -10.2030 O   0  0  0  0  0
  126.3470   84.4200  -10.3110 O   0  0  0  0  0
  123.9350   83.9300   -9.8740 O   0  0  0  0  0
  123.4060   83.9720  -11.2020 C   0  0  0  0  0
  121.9550   83.7400  -11.0700 C   0  0  0  0  0
  121.9070   82.4610  -10.5090 O   0  0  0  0  0
  121.2810   84.5520  -10.0350 C   0  0  0  0  0
  121.1290   85.9490  -10.2690 O   0  0  0  0  0
  120.0710   83.6950   -9.7750 C   0  0  0  0  0
  119.0390   83.8140  -10.7210 O   0  0  0  0  0
  120.7540   82.3610   -9.6900 C   0  0  0  0  0
  121.1970   81.9770   -8.3420 N   0  0  0  0  0
  122.4690   81.7890   -7.8670 C   0  0  0  0  0
  122.5110   81.3100   -6.6670 N   0  0  0  0  0
  121.1820   81.1700   -6.3270 C   0  0  0  0  0
  120.5790   80.6960   -5.1660 C   0  0  0  0  0
  121.2970   80.3720   -4.1290 N   0  0  0  0  0
  119.1750   80.6610   -5.1180 N   0  0  0  0  0
  118.4370   81.1090   -6.2290 C   0  0  0  0  0
  118.9430   81.5860   -7.3750 N   0  0  0  0  0
  120.3480   81.5780   -7.3520 C   0  0  0  0  0
  127.8984   85.6453   -8.4687 H   0  0  0  0  0
  128.6734   83.7074   -9.1769 H   0  0  0  0  0
  124.7066   86.1642  -11.1517 H   0  0  0  0  0
  123.8703   83.2164  -11.8357 H   0  0  0  0  0
  123.6105   84.9310  -11.6780 H   0  0  0  0  0
  121.4856   83.9386  -12.0335 H   0  0  0  0  0
  121.8714   84.7313   -9.1364 H   0  0  0  0  0
  120.6783   86.3502   -9.5223 H   0  0  0  0  0
  119.4856   83.9570   -8.8936 H   0  0  0  0  0
  118.3134   83.2352  -10.4759 H   0  0  0  0  0
  120.0358   81.6010   -9.9979 H   0  0  0  0  0
  123.3620   82.0217   -8.4471 H   0  0  0  0  0
  122.3122   80.4646   -4.1625 H   0  0  0  0  0
  120.8441   80.0256   -3.2832 H   0  0  0  0  0
  117.3508   81.0639   -6.1504 H   0  0  0  0  0
  1  2  1  0  0  0
  1  3  2  0  0  0
  1  4  1  0  0  0
  8  1  1  0  0  0
  5  6  2  0  0  0
  5  7  1  0  0  0
  5  8  1  0  0  0
  5  9  1  0  0  0
  9 10  1  0  0  0
 10 11  1  0  0  0
 11 12  1  0  0  0
 11 13  1  0  0  0
 12 17  1  0  0  0
 13 14  1  0  0  0
 13 15  1  0  0  0
 15 16  1  0  0  0
 15 17  1  0  0  0
 17 18  1  0  0  0
 18 19  4  0  0  0
 18 27  4  0  0  0
 19 20  4  0  0  0
 20 21  4  0  0  0
 21 22  4  0  0  0
 21 27  4  0  0  0
 22 23  1  0  0  0
 22 24  4  0  0  0
 24 25  4  0  0  0
 25 26  4  0  0  0
 26 27  4  0  0  0
  2 28  1  0  0  0
  4 29  1  0  0  0
  7 30  1  0  0  0
 10 31  1  0  0  0
 10 32  1  0  0  0
 11 33  1  0  0  0
 13 34  1  0  0  0
 14 35  1  0  0  0
 15 36  1  0  0  0
 16 37  1  0  0  0
 17 38  1  0  0  0
 19 39  1  0  0  0
 23 40  1  0  0  0
 23 41  1  0  0  0
 25 42  1  0  0  0
M  END
$$$$
