6q38_ligand
  -I-interpret- 

219226  0  0  0  0  0  0  0  0999 V2000
   23.1590   68.2810    9.6700 C   0  0  0  0  0
   27.3230   65.4280   13.0820 N   0  0  0  0  0
   24.3140   67.3790   10.0680 C   0  0  0  0  0
   26.4780   66.5620   12.7120 C   0  0  0  0  0
   31.4790   59.7230   13.8590 O   0  0  0  0  0
   25.3010   66.0500   11.8770 C   0  0  0  0  0
   30.4270   61.0440   15.5420 C   0  0  0  0  0
   30.2570   61.2620   16.9090 C   0  0  0  0  0
   29.4450   62.3010   17.3580 C   0  0  0  0  0
   28.7910   63.1150   16.4350 C   0  0  0  0  0
   28.5330   63.6990   12.7520 N   0  0  0  0  0
   29.7820   61.8720   14.6250 C   0  0  0  0  0
   28.9680   62.9120   15.0680 C   0  0  0  0  0
   28.3480   63.8300   14.0980 C   0  0  0  0  0
   24.8950   63.8530   12.6880 O   0  0  0  0  0
   24.4720   67.1470   11.3760 N   0  0  0  0  0
   21.5290   69.6900   10.7980 C   0  0  0  0  0
   31.7840   59.1560   15.9930 O   0  0  0  0  0
   27.5710   64.9380   14.3070 C   0  0  0  0  0
   29.2390   61.5200   30.7470 O   0  0  0  0  0
   27.6910   61.6400   27.6340 O   0  0  0  0  0
   28.7310   62.5090   25.0930 O   0  0  0  0  0
   22.1080   68.4950   10.6450 N   0  0  0  0  0
   20.4550   69.7740   11.8400 C   0  0  0  0  0
   21.8610   70.6680   10.1280 O   0  0  0  0  0
   25.0470   66.8890    9.2100 O   0  0  0  0  0
   27.9160   64.6790   12.1350 N   0  0  0  0  0
   29.3660   62.5440   20.9550 N   0  0  0  0  0
   27.1540   61.6700   22.4770 N   0  0  0  0  0
   28.6910   60.2480   25.1600 N   0  0  0  0  0
   27.9570   59.5860   28.5350 N   0  0  0  0  0
   29.6140   59.3540   31.2300 N   0  0  0  0  0
   28.6980   63.6530   20.5940 N   0  0  0  0  0
   28.6600   63.6680   19.2820 N   0  0  0  0  0
   29.3100   62.5680   18.8030 C   0  0  0  0  0
   29.7630   61.8490   19.8760 C   0  0  0  0  0
   29.5930   62.2420   22.3650 C   0  0  0  0  0
   28.5080   61.3470   22.9730 C   0  0  0  0  0
   28.6370   61.4210   24.5250 C   0  0  0  0  0
   29.1690   60.1190   26.5200 C   0  0  0  0  0
   28.1830   60.5130   27.6040 C   0  0  0  0  0
   27.6660   59.9360   29.9090 C   0  0  0  0  0
   28.9080   60.3320   30.6820 C   0  0  0  0  0
   31.2720   59.9110   15.0560 C   0  0  0  0  0
   24.4560   64.9700   12.6150 C   0  0  0  0  0
   23.1280   65.2260   12.6670 N   0  0  0  0  0
   21.8690   64.4940   12.7840 C   0  0  0  0  0
   21.7370   63.3880   11.7400 C   0  0  0  0  0
   21.9220   63.6440   10.5480 O   0  0  0  0  0
   20.6590   65.4430   12.7300 C   0  0  0  0  0
   20.4520   66.2510   14.0020 C   0  0  0  0  0
   19.1080   66.9400   13.9830 C   0  0  0  0  0
   19.0940   68.1560   14.7990 N   0  0  0  0  0
   18.3240   68.3350   15.8670 C   0  0  0  0  0
   18.3670   69.4780   16.5370 N   0  0  0  0  0
   17.4940   67.3780   16.2650 N   0  0  0  0  0
   21.4220   62.1590   12.1900 N   0  0  0  0  0
   21.2070   61.0140   11.3100 C   0  0  0  0  0
   19.7400   60.5870   11.4170 C   0  0  0  0  0
   19.3060   60.1160   12.4750 O   0  0  0  0  0
   22.1790   59.8650   11.6310 C   0  0  0  0  0
   22.0350   58.5550   10.8270 C   0  0  0  0  0
   22.1410   58.7870    9.3140 C   0  0  0  0  0
   23.0700   57.5510   11.2620 C   0  0  0  0  0
   18.9770   60.8060   10.3190 N   0  0  0  0  0
   17.5370   60.5590   10.1830 C   0  0  0  0  0
   16.7210   61.3740   11.2060 C   0  0  0  0  0
   15.6930   60.8990   11.7020 O   0  0  0  0  0
   17.1920   59.0570   10.2360 C   0  0  0  0  0
   17.6370   58.2580    9.0310 C   0  0  0  0  0
   17.0160   58.4180    7.7950 C   0  0  0  0  0
   18.6130   57.2710    9.1480 C   0  0  0  0  0
   17.4050   57.6660    6.6870 C   0  0  0  0  0
   19.0010   56.5030    8.0510 C   0  0  0  0  0
   18.4010   56.7090    6.8190 C   0  0  0  0  0
   18.7840   55.9560    5.7320 O   0  0  0  0  0
   17.2050   62.5850   11.5030 N   0  0  0  0  0
   16.5890   63.5120   12.4470 C   0  0  0  0  0
   17.1150   63.4340   13.8680 C   0  0  0  0  0
   16.8770   64.3520   14.6610 O   0  0  0  0  0
   17.8240   62.3330   14.2090 N   0  0  0  0  0
   18.3780   62.0920   15.5450 C   0  0  0  0  0
   19.7580   62.6750   15.7040 C   0  0  0  0  0
   20.6340   62.4220   14.8700 O   0  0  0  0  0
   18.4870   60.5830   15.8380 C   0  0  0  0  0
   17.2030   59.7900   15.9050 C   0  0  0  0  0
   16.4610   59.7340   17.0790 C   0  0  0  0  0
   16.7860   59.0220   14.8250 C   0  0  0  0  0
   15.2990   58.9590   17.1540 C   0  0  0  0  0
   15.6220   58.2530   14.9020 C   0  0  0  0  0
   14.8920   58.2300   16.0640 C   0  0  0  0  0
   19.9880   63.3670   16.8290 N   0  0  0  0  0
   21.3090   63.8790   17.1840 C   0  0  0  0  0
   22.1580   62.6630   17.5950 C   0  0  0  0  0
   21.6090   61.6290   17.9930 O   0  0  0  0  0
   21.2090   64.8770   18.3570 C   0  0  0  0  0
   20.6230   66.2450   18.0100 C   0  0  0  0  0
   20.0910   66.9400   19.2650 C   0  0  0  0  0
   20.1400   68.4460   19.1860 C   0  0  0  0  0
   19.5190   69.0800   20.3790 N   0  3  0  0  0
   23.4790   62.7690   17.4620 N   0  0  0  0  0
   24.4020   61.6950   17.8350 C   0  0  0  0  0
   24.8930   61.9480   19.2570 C   0  0  0  0  0
   25.3130   63.0620   19.5770 O   0  0  0  0  0
   25.5580   61.4880   16.8050 C   0  0  0  0  0
   25.0520   61.4570   15.3320 C   0  0  0  0  0
   26.4140   60.2550   17.1350 C   0  0  0  0  0
   24.0230   60.3350   14.9500 C   0  0  0  0  0
   24.7980   60.9260   20.0990 N   0  0  0  0  0
   25.1800   61.0250   21.5280 C   0  0  0  0  0
   26.6910   60.8290   21.6690 C   0  0  0  0  0
   27.1580   59.8190   21.1370 O   0  0  0  0  0
   24.4320   59.9560   22.3250 C   0  0  0  0  0
   24.3580   60.2620   23.7720 C   0  0  0  0  0
   23.6910   61.3550   24.2470 N   0  0  0  0  0
   24.8690   59.6320   24.8400 C   0  0  0  0  0
   23.7890   61.3850   25.5540 C   0  0  0  0  0
   24.5110   60.3450   25.9380 N   0  0  0  0  0
   27.2930   61.7000   22.3010 O   0  0  0  0  0
   22.6788   67.7864    8.8257 H   0  0  0  0  0
   23.6005   69.2622    9.4954 H   0  0  0  0  0
   27.0574   67.2800   12.1317 H   0  0  0  0  0
   26.1064   67.0540   13.6108 H   0  0  0  0  0
   25.7364   65.5507   11.0114 H   0  0  0  0  0
   30.7613   60.6171   17.6286 H   0  0  0  0  0
   28.1377   63.9145   16.7843 H   0  0  0  0  0
   29.9151   61.7050   13.5561 H   0  0  0  0  0
   23.9995   67.7542   12.0456 H   0  0  0  0  0
   31.4976   59.4754   16.8518 H   0  0  0  0  0
   27.2279   65.3362   15.2619 H   0  0  0  0  0
   21.8031   67.7155   11.2280 H   0  0  0  0  0
   20.7408   70.5049   12.5965 H   0  0  0  0  0
   19.5196   70.0805   11.3719 H   0  0  0  0  0
   20.3263   68.7975   12.3068 H   0  0  0  0  0
   28.3833   59.4096   24.6673 H   0  0  0  0  0
   27.9901   58.6012   28.2714 H   0  0  0  0  0
   30.4747   59.5670   31.7343 H   0  0  0  0  0
   29.2969   58.3881   31.1476 H   0  0  0  0  0
   30.3243   60.9148   19.8588 H   0  0  0  0  0
   29.5863   63.1859   22.9102 H   0  0  0  0  0
   30.5410   61.7093   22.4402 H   0  0  0  0  0
   30.0182   60.7958   26.6143 H   0  0  0  0  0
   29.3881   59.0620   26.6713 H   0  0  0  0  0
   27.2321   59.0617   30.3943 H   0  0  0  0  0
   26.9875   60.7890   29.9025 H   0  0  0  0  0
   22.9543   66.2293   12.6064 H   0  0  0  0  0
   21.8826   64.0127   13.7619 H   0  0  0  0  0
   19.7705   64.8276   12.5887 H   0  0  0  0  0
   20.8387   66.1516   11.9215 H   0  0  0  0  0
   21.2347   67.0065   14.0712 H   0  0  0  0  0
   20.4909   65.5773   14.8580 H   0  0  0  0  0
   18.3692   66.2505   14.3916 H   0  0  0  0  0
   18.8873   67.2216   12.9534 H   0  0  0  0  0
   19.7174   68.9169   14.5293 H   0  0  0  0  0
   18.9928   70.2240   16.2332 H   0  0  0  0  0
   16.8975   67.5262   17.0790 H   0  0  0  0  0
   17.4529   66.4946   15.7567 H   0  0  0  0  0
   21.3288   62.0208   13.1963 H   0  0  0  0  0
   21.4165   61.2964   10.2783 H   0  0  0  0  0
   21.9772   59.5941   12.6673 H   0  0  0  0  0
   23.1709   60.2470   11.3897 H   0  0  0  0  0
   21.0387   58.1643   11.0340 H   0  0  0  0  0
   21.3516   59.4680    8.9960 H   0  0  0  0  0
   23.1131   59.2218    9.0816 H   0  0  0  0  0
   22.0333   57.8354    8.7934 H   0  0  0  0  0
   24.0657   57.9617   11.0945 H   0  0  0  0  0
   22.9393   57.3323   12.3218 H   0  0  0  0  0
   22.9514   56.6349   10.6834 H   0  0  0  0  0
   19.4543   61.1826    9.5000 H   0  0  0  0  0
   17.2504   60.9068    9.1905 H   0  0  0  0  0
   16.1053   58.9843   10.2788 H   0  0  0  0  0
   17.7142   58.6437   11.0989 H   0  0  0  0  0
   16.2104   59.1450    7.6916 H   0  0  0  0  0
   19.0825   57.0957   10.1160 H   0  0  0  0  0
   16.9283   57.8294    5.7205 H   0  0  0  0  0
   19.7741   55.7427    8.1621 H   0  0  0  0  0
   19.4780   55.3469    5.9946 H   0  0  0  0  0
   18.0633   62.8808   11.0380 H   0  0  0  0  0
   15.5305   63.2555   12.4912 H   0  0  0  0  0
   16.8095   64.5169   12.0870 H   0  0  0  0  0
   17.9831   61.6260   13.4912 H   0  0  0  0  0
   17.6907   62.5749   16.2397 H   0  0  0  0  0
   18.9295   60.5086   16.8313 H   0  0  0  0  0
   19.0480   60.1623   15.0036 H   0  0  0  0  0
   16.7883   60.3003   17.9509 H   0  0  0  0  0
   17.3737   59.0193   13.9070 H   0  0  0  0  0
   14.7178   58.9339   18.0758 H   0  0  0  0  0
   15.2940   57.6719   14.0401 H   0  0  0  0  0
   13.9841   57.6297   16.1219 H   0  0  0  0  0
   19.2086   63.5431   17.4629 H   0  0  0  0  0
   21.7568   64.4088   16.3432 H   0  0  0  0  0
   22.2280   65.0544   18.7008 H   0  0  0  0  0
   20.5373   64.4287   19.0891 H   0  0  0  0  0
   19.8006   66.1081   17.3078 H   0  0  0  0  0
   21.4064   66.8626   17.5706 H   0  0  0  0  0
   20.7215   66.6352   20.1003 H   0  0  0  0  0
   19.0461   66.6520   19.3808 H   0  0  0  0  0
   19.5860   68.7616   18.3019 H   0  0  0  0  0
   21.1846   68.7535   19.1384 H   0  0  0  0  0
   19.5712   70.0947   20.2892 H   0  0  0  0  0
   18.5424   68.7931   20.4454 H   0  0  0  0  0
   20.0189   68.7856   21.2179 H   0  0  0  0  0
   23.8640   63.6348   17.0844 H   0  0  0  0  0
   23.8674   60.7454   17.8126 H   0  0  0  0  0
   26.2021   62.3627   16.8956 H   0  0  0  0  0
   25.9344   61.2699   14.7200 H   0  0  0  0  0
   24.5302   62.4016   15.1786 H   0  0  0  0  0
   26.8573   60.3760   18.1234 H   0  0  0  0  0
   25.7856   59.3645   17.1238 H   0  0  0  0  0
   27.2041   60.1531   16.3910 H   0  0  0  0  0
   24.4720   59.3573   15.1247 H   0  0  0  0  0
   23.1282   60.4402   15.5635 H   0  0  0  0  0
   23.7567   60.4311   13.8974 H   0  0  0  0  0
   24.4473   60.0349   19.7478 H   0  0  0  0  0
   24.9151   62.0094   21.9139 H   0  0  0  0  0
   24.9727   59.0165   22.2107 H   0  0  0  0  0
   23.4125   59.9081   21.9424 H   0  0  0  0  0
   25.4617   58.7173   24.8284 H   0  0  0  0  0
   23.3513   62.1368   26.2107 H   0  0  0  0  0
  3  1  1  0  0  0
  1 23  1  0  0  0
  2  4  1  0  0  0
 19  2  4  0  0  0
  2 27  4  0  0  0
 16  3  1  0  0  0
  3 26  2  0  0  0
  4  6  1  0  0  0
 44  5  2  0  0  0
  6 16  1  0  0  0
  6 45  1  0  0  0
  8  7  4  0  0  0
  7 12  4  0  0  0
  7 44  1  0  0  0
  9  8  4  0  0  0
  9 10  4  0  0  0
 35  9  1  0  0  0
 10 13  4  0  0  0
 14 11  4  0  0  0
 11 27  4  0  0  0
 13 12  4  0  0  0
 13 14  1  0  0  0
 14 19  4  0  0  0
 45 15  2  0  0  0
 23 17  1  0  0  0
 17 24  1  0  0  0
 17 25  2  0  0  0
 44 18  1  0  0  0
 43 20  2  0  0  0
 41 21  2  0  0  0
 39 22  2  0  0  0
 28 33  4  0  0  0
 28 36  4  0  0  0
 37 28  1  0  0  0
 38 29  1  0  0  0
 29111  1  0  0  0
119 29  1  0  0  0
 30 39  1  0  0  0
 40 30  1  0  0  0
 31 41  1  0  0  0
 42 31  1  0  0  0
 43 32  1  0  0  0
 33 34  4  0  0  0
 35 34  4  0  0  0
 36 35  4  0  0  0
 38 37  1  0  0  0
 39 38  1  0  0  0
 38119  1  0  0  0
 41 40  1  0  0  0
 42 43  1  0  0  0
 45 46  1  0  0  0
 46 47  1  0  0  0
 47 48  1  0  0  0
 47 50  1  0  0  0
 48 49  2  0  0  0
 48 57  1  0  0  0
 50 51  1  0  0  0
 51 52  1  0  0  0
 52 53  1  0  0  0
 53 54  1  0  0  0
 54 55  2  0  0  0
 54 56  1  0  0  0
 57 58  1  0  0  0
 58 59  1  0  0  0
 58 61  1  0  0  0
 59 60  2  0  0  0
 59 65  1  0  0  0
 61 62  1  0  0  0
 62 63  1  0  0  0
 62 64  1  0  0  0
 65 66  1  0  0  0
 66 67  1  0  0  0
 66 69  1  0  0  0
 67 68  2  0  0  0
 67 77  1  0  0  0
 69 70  1  0  0  0
 70 71  4  0  0  0
 70 72  4  0  0  0
 71 73  4  0  0  0
 72 74  4  0  0  0
 73 75  4  0  0  0
 74 75  4  0  0  0
 75 76  1  0  0  0
 77 78  1  0  0  0
 78 79  1  0  0  0
 79 80  2  0  0  0
 79 81  1  0  0  0
 81 82  1  0  0  0
 82 83  1  0  0  0
 82 85  1  0  0  0
 83 84  2  0  0  0
 83 92  1  0  0  0
 85 86  1  0  0  0
 86 87  4  0  0  0
 86 88  4  0  0  0
 87 89  4  0  0  0
 88 90  4  0  0  0
 89 91  4  0  0  0
 90 91  4  0  0  0
 92 93  1  0  0  0
 93 94  1  0  0  0
 93 96  1  0  0  0
 94 95  2  0  0  0
 94101  1  0  0  0
 96 97  1  0  0  0
 97 98  1  0  0  0
 98 99  1  0  0  0
 99100  1  0  0  0
101102  1  0  0  0
102103  1  0  0  0
102105  1  0  0  0
103104  2  0  0  0
103109  1  0  0  0
105106  1  0  0  0
105107  1  0  0  0
106108  1  0  0  0
109110  1  0  0  0
110111  1  0  0  0
110113  1  0  0  0
111112  2  0  0  0
113114  1  0  0  0
114115  4  0  0  0
114116  4  0  0  0
115117  4  0  0  0
116118  4  0  0  0
117118  4  0  0  0
  1120  1  0  0  0
  1121  1  0  0  0
  4122  1  0  0  0
  4123  1  0  0  0
  6124  1  0  0  0
  8125  1  0  0  0
 10126  1  0  0  0
 12127  1  0  0  0
 16128  1  0  0  0
 18129  1  0  0  0
 19130  1  0  0  0
 23131  1  0  0  0
 24132  1  0  0  0
 24133  1  0  0  0
 24134  1  0  0  0
 30135  1  0  0  0
 31136  1  0  0  0
 32137  1  0  0  0
 32138  1  0  0  0
 36139  1  0  0  0
 37140  1  0  0  0
 37141  1  0  0  0
 40142  1  0  0  0
 40143  1  0  0  0
 42144  1  0  0  0
 42145  1  0  0  0
 46146  1  0  0  0
 47147  1  0  0  0
 50148  1  0  0  0
 50149  1  0  0  0
 51150  1  0  0  0
 51151  1  0  0  0
 52152  1  0  0  0
 52153  1  0  0  0
 53154  1  0  0  0
 55155  1  0  0  0
 56156  1  0  0  0
 56157  1  0  0  0
 57158  1  0  0  0
 58159  1  0  0  0
 61160  1  0  0  0
 61161  1  0  0  0
 62162  1  0  0  0
 63163  1  0  0  0
 63164  1  0  0  0
 63165  1  0  0  0
 64166  1  0  0  0
 64167  1  0  0  0
 64168  1  0  0  0
 65169  1  0  0  0
 66170  1  0  0  0
 69171  1  0  0  0
 69172  1  0  0  0
 71173  1  0  0  0
 72174  1  0  0  0
 73175  1  0  0  0
 74176  1  0  0  0
 76177  1  0  0  0
 77178  1  0  0  0
 78179  1  0  0  0
 78180  1  0  0  0
 81181  1  0  0  0
 82182  1  0  0  0
 85183  1  0  0  0
 85184  1  0  0  0
 87185  1  0  0  0
 88186  1  0  0  0
 89187  1  0  0  0
 90188  1  0  0  0
 91189  1  0  0  0
 92190  1  0  0  0
 93191  1  0  0  0
 96192  1  0  0  0
 96193  1  0  0  0
 97194  1  0  0  0
 97195  1  0  0  0
 98196  1  0  0  0
 98197  1  0  0  0
 99198  1  0  0  0
 99199  1  0  0  0
100200  1  0  0  0
100201  1  0  0  0
100202  1  0  0  0
101203  1  0  0  0
102204  1  0  0  0
105205  1  0  0  0
106206  1  0  0  0
106207  1  0  0  0
107208  1  0  0  0
107209  1  0  0  0
107210  1  0  0  0
108211  1  0  0  0
108212  1  0  0  0
108213  1  0  0  0
109214  1  0  0  0
110215  1  0  0  0
113216  1  0  0  0
113217  1  0  0  0
116218  1  0  0  0
117219  1  0  0  0
M  END
$$$$
