### 
### Created by X-TOOL on Mon Aug  2 16:11:27 2021
### 

@<TRIPOS>MOLECULE
6q38_ligand
  220   227     1     0     0
SMALL
GAST_HUCK


@<TRIPOS>ATOM
      1 C2         23.1590   68.2810    9.6700 C.3       1 HEK         0.1200
      2 N2         27.3230   65.4280   13.0820 N.pl3     1 HEK        -0.1625
      3 C3         24.3140   67.3790   10.0680 C.2       1 HEK         0.2008
      4 C5         26.4780   66.5620   12.7120 C.3       1 HEK         0.1197
      5 O6         31.4790   59.7230   13.8590 O.co2     1 HEK        -0.5607
      6 C4         25.3010   66.0500   11.8770 C.3       1 HEK         0.1617
      7 C10        30.4270   61.0440   15.5420 C.ar      1 HEK         0.0019
      8 C11        30.2570   61.2620   16.9090 C.ar      1 HEK        -0.0501
      9 C12        29.4450   62.3010   17.3580 C.ar      1 HEK        -0.0205
     10 C13        28.7910   63.1150   16.4350 C.ar      1 HEK        -0.0562
     11 N3         28.5330   63.6990   12.7520 N.2       1 HEK        -0.2165
     12 C9         29.7820   61.8720   14.6250 C.ar      1 HEK        -0.0501
     13 C8         28.9680   62.9120   15.0680 C.ar      1 HEK        -0.0205
     14 C7         28.3480   63.8300   14.0980 C.2       1 HEK         0.0696
     15 O7         24.8950   63.8530   12.6880 O.2       1 HEK        -0.3943
     16 N1         24.4720   67.1470   11.3760 N.am      1 HEK        -0.2612
     17 C1         21.5290   69.6900   10.7980 C.2       1 HEK         0.1749
     18 O5         31.7840   59.1560   15.9930 O.co2     1 HEK        -0.5607
     19 C6         27.5710   64.9380   14.3070 C.2       1 HEK         0.0879
     20 O4         29.2390   61.5200   30.7470 O.2       1 HEK        -0.3951
     21 O3         27.6910   61.6400   27.6340 O.2       1 HEK        -0.3947
     22 O2         28.7310   62.5090   25.0930 O.2       1 HEK        -0.3388
     23 N          22.1080   68.4950   10.6450 N.am      1 HEK        -0.2685
     24 C24        20.4550   69.7740   11.8400 C.3       1 HEK         0.0258
     25 O          21.8610   70.6680   10.1280 O.2       1 HEK        -0.3972
     26 O1         25.0470   66.8890    9.2100 O.2       1 HEK        -0.3947
     27 N4         27.9160   64.6790   12.1350 N.2       1 HEK        -0.0903
     28 N5         29.3660   62.5440   20.9550 N.pl3     1 HEK        -0.1629
     29 N6         27.1540   61.6700   22.4770 N.am      1 HEK        -0.0999
     30 N7         28.6910   60.2480   25.1600 N.am      1 HEK        -0.2633
     31 N8         27.9570   59.5860   28.5350 N.am      1 HEK        -0.2666
     32 N9         29.6140   59.3540   31.2300 N.am      1 HEK        -0.2992
     33 N10        28.6980   63.6530   20.5940 N.2       1 HEK        -0.0905
     34 N11        28.6600   63.6680   19.2820 N.2       1 HEK        -0.2166
     35 C14        29.3100   62.5680   18.8030 C.2       1 HEK         0.0696
     36 C15        29.7630   61.8490   19.8760 C.2       1 HEK         0.0877
     37 C16        29.5930   62.2420   22.3650 C.3       1 HEK         0.1431
     38 C17        28.5080   61.3470   22.9730 C.3       1 HEK         0.3182
     39 C18        28.6370   61.4210   24.5250 C.2       1 HEK         0.2624
     40 C19        29.1690   60.1190   26.5200 C.3       1 HEK         0.1204
     41 C20        28.1830   60.5130   27.6040 C.2       1 HEK         0.2007
     42 C21        27.6660   59.9360   29.9090 C.3       1 HEK         0.1198
     43 C22        28.9080   60.3320   30.6820 C.2       1 HEK         0.1960
     44 C23        31.2720   59.9110   15.0560 C.2       1 HEK         0.0610
     45 C          24.4560   64.9700   12.6150 C.2       1 HEK         0.2070
     46 N          23.1280   65.2260   12.6670 N.am      1 HEK        -0.2636
     47 CA         21.8690   64.4940   12.7840 C.3       1 HEK         0.1311
     48 C          21.7370   63.3880   11.7400 C.2       1 HEK         0.2039
     49 O          21.9220   63.6440   10.5480 O.2       1 HEK        -0.3944
     50 CB         20.6590   65.4430   12.7300 C.3       1 HEK        -0.0092
     51 CG         20.4520   66.2510   14.0020 C.3       1 HEK        -0.0156
     52 CD         19.1080   66.9400   13.9830 C.3       1 HEK         0.0627
     53 NE         19.0940   68.1560   14.7990 N.pl3     1 HEK        -0.2723
     54 CZ         18.3240   68.3350   15.8670 C.cat     1 HEK         0.2882
     55 NH1        18.3670   69.4780   16.5370 N.pl3     1 HEK        -0.2849
     56 NH2        17.4940   67.3780   16.2650 N.pl3     1 HEK        -0.2849
     57 N          21.4220   62.1590   12.1900 N.am      1 HEK        -0.2637
     58 CA         21.2070   61.0140   11.3100 C.3       1 HEK         0.1312
     59 C          19.7400   60.5870   11.4170 C.2       1 HEK         0.2040
     60 O          19.3060   60.1160   12.4750 O.2       1 HEK        -0.3944
     61 CB         22.1790   59.8650   11.6310 C.3       1 HEK        -0.0101
     62 CG         22.0350   58.5550   10.8270 C.3       1 HEK        -0.0425
     63 CD1        22.1410   58.7870    9.3140 C.3       1 HEK        -0.0625
     64 CD2        23.0700   57.5510   11.2620 C.3       1 HEK        -0.0625
     65 N          18.9770   60.8060   10.3190 N.am      1 HEK        -0.2621
     66 CA         17.5370   60.5590   10.1830 C.3       1 HEK         0.1390
     67 C          16.7210   61.3740   11.2060 C.2       1 HEK         0.2055
     68 O          15.6930   60.8990   11.7020 O.2       1 HEK        -0.3942
     69 CB         17.1920   59.0570   10.2360 C.3       1 HEK         0.0163
     70 CG         17.6370   58.2580    9.0310 C.ar      1 HEK        -0.0493
     71 CD1        17.0160   58.4180    7.7950 C.ar      1 HEK        -0.0685
     72 CD2        18.6130   57.2710    9.1480 C.ar      1 HEK        -0.0685
     73 CE1        17.4050   57.6660    6.6870 C.ar      1 HEK        -0.0398
     74 CE2        19.0010   56.5030    8.0510 C.ar      1 HEK        -0.0398
     75 CZ         18.4010   56.7090    6.8190 C.ar      1 HEK         0.0805
     76 OH         18.7840   55.9560    5.7320 O.3       1 HEK        -0.3376
     77 N          17.2050   62.5850   11.5030 N.am      1 HEK        -0.2663
     78 CA         16.5890   63.5120   12.4470 C.3       1 HEK         0.1201
     79 C          17.1150   63.4340   13.8680 C.2       1 HEK         0.2009
     80 O          16.8770   64.3520   14.6610 O.2       1 HEK        -0.3947
     81 N          17.8240   62.3330   14.2090 N.am      1 HEK        -0.2622
     82 CA         18.3780   62.0920   15.5450 C.3       1 HEK         0.1404
     83 C          19.7580   62.6750   15.7040 C.2       1 HEK         0.2060
     84 O          20.6340   62.4220   14.8700 O.2       1 HEK        -0.3942
     85 CB         18.4870   60.5830   15.8380 C.3       1 HEK         0.0214
     86 CG         17.2030   59.7900   15.9050 C.ar      1 HEK        -0.0386
     87 CD1        16.4610   59.7340   17.0790 C.ar      1 HEK        -0.0601
     88 CD2        16.7860   59.0220   14.8250 C.ar      1 HEK        -0.0601
     89 CE1        15.2990   58.9590   17.1540 C.ar      1 HEK        -0.0686
     90 CE2        15.6220   58.2530   14.9020 C.ar      1 HEK        -0.0686
     91 CZ         14.8920   58.2300   16.0640 C.ar      1 HEK        -0.0687
     92 N          19.9880   63.3670   16.8290 N.am      1 HEK        -0.2636
     93 CA         21.3090   63.8790   17.1840 C.3       1 HEK         0.1310
     94 C          22.1580   62.6630   17.5950 C.2       1 HEK         0.2039
     95 O          21.6090   61.6290   17.9930 O.2       1 HEK        -0.3944
     96 CB         21.2090   64.8770   18.3570 C.3       1 HEK        -0.0122
     97 CG         20.6230   66.2450   18.0100 C.3       1 HEK        -0.0440
     98 CD         20.0910   66.9400   19.2650 C.3       1 HEK        -0.0124
     99 CE         20.1400   68.4460   19.1860 C.3       1 HEK        -0.0354
    100 NZ         19.5190   69.0800   20.3790 N.4       1 HEK         0.2185
    101 N          23.4790   62.7690   17.4620 N.am      1 HEK        -0.2635
    102 CA         24.4020   61.6950   17.8350 C.3       1 HEK         0.1335
    103 C          24.8930   61.9480   19.2570 C.2       1 HEK         0.2042
    104 O          25.3130   63.0620   19.5770 O.2       1 HEK        -0.3944
    105 CB         25.5580   61.4880   16.8050 C.3       1 HEK        -0.0037
    106 CG1        25.0520   61.4570   15.3320 C.3       1 HEK        -0.0491
    107 CG2        26.4140   60.2550   17.1350 C.3       1 HEK        -0.0582
    108 CD1        24.0230   60.3350   14.9500 C.3       1 HEK        -0.0648
    109 N          24.7980   60.9260   20.0990 N.am      1 HEK        -0.2625
    110 CA         25.1800   61.0250   21.5280 C.3       1 HEK         0.1386
    111 C          26.6910   60.8290   21.6690 C.2       1 HEK         0.2305
    112 O          27.1580   59.8190   21.1370 O.2       1 HEK        -0.3941
    113 CB         24.4320   59.9560   22.3250 C.3       1 HEK         0.0145
    114 CG         24.3580   60.2620   23.7720 C.2       1 HEK        -0.0027
    115 ND1        23.6910   61.3550   24.2470 N.2       1 HEK        -0.3252
    116 CD2        24.8690   59.6320   24.8400 C.2       1 HEK         0.0291
    117 CE1        23.7890   61.3850   25.5540 C.2       1 HEK         0.0907
    118 NE2        24.5110   60.3450   25.9380 N.pl3     1 HEK        -0.2752
    119 OXT        27.2930   61.7000   22.3010 O.3       1 HEK        -0.2088
    120 H1         22.6932   67.8436    8.7747 H         1 HEK         0.0763
    121 H2         23.5812   69.2654    9.4199 H         1 HEK         0.0763
    122 H3         27.0638   67.2824   12.1221 H         1 HEK         0.0705
    123 H4         26.1002   67.0534   13.6208 H         1 HEK         0.0705
    124 H5         25.7358   65.5557   10.9958 H         1 HEK         0.0831
    125 H6         30.7585   60.6206   17.6247 H         1 HEK         0.0580
    126 H7         28.1413   63.9101   16.7824 H         1 HEK         0.0563
    127 H8         29.9144   61.7059   13.5620 H         1 HEK         0.0580
    128 H9         24.0087   67.7423   12.0325 H         1 HEK         0.1884
    129 H10        27.2282   65.3358   15.2610 H         1 HEK         0.1077
    130 H11        21.8091   67.7308   11.2165 H         1 HEK         0.1880
    131 H12        20.0562   70.7986   11.8737 H         1 HEK         0.0467
    132 H13        20.8755   69.5118   12.8220 H         1 HEK         0.0467
    133 H14        19.6450   69.0734   11.5890 H         1 HEK         0.0467
    134 H15        28.3893   59.4260   24.6770 H         1 HEK         0.1887
    135 H16        27.9895   58.6205   28.2765 H         1 HEK         0.1881
    136 H17        29.3031   58.4070   31.1493 H         1 HEK         0.1815
    137 H18        30.4578   59.5628   31.7244 H         1 HEK         0.1815
    138 H19        30.3238   60.9157   19.8588 H         1 HEK         0.1077
    139 H20        29.6200   63.1882   22.9253 H         1 HEK         0.0696
    140 H21        30.5623   61.7309   22.4614 H         1 HEK         0.0696
    141 H22        30.0604   60.7546   26.6267 H         1 HEK         0.0765
    142 H23        29.4471   59.0672   26.6822 H         1 HEK         0.0765
    143 H24        27.2040   59.0690   30.4038 H         1 HEK         0.0763
    144 H25        26.9616   60.7808   29.9164 H         1 HEK         0.0763
    145 H26        22.9577   66.2096   12.6076 H         1 HEK         0.1883
    146 H27        21.8658   64.0114   13.7725 H         1 HEK         0.0800
    147 H28        19.7553   64.8421   12.5506 H         1 HEK         0.0313
    148 H29        20.8053   66.1436   11.8947 H         1 HEK         0.0313
    149 H30        21.2453   67.0088   14.0817 H         1 HEK         0.0301
    150 H31        20.5001   65.5770   14.8700 H         1 HEK         0.0301
    151 H32        18.3489   66.2450   14.3713 H         1 HEK         0.0689
    152 H33        18.8628   67.2082   12.9448 H         1 HEK         0.0689
    153 H34        19.7235   68.9244   14.5266 H         1 HEK         0.2642
    154 H35        17.7685   69.6128   17.3644 H         1 HEK         0.2615
    155 H36        18.9989   70.2313   16.2302 H         1 HEK         0.2615
    156 H37        17.4525   66.4860   15.7517 H         1 HEK         0.2615
    157 H38        16.8917   67.5277   17.0870 H         1 HEK         0.2615
    158 H39        21.3307   62.0235   13.1766 H         1 HEK         0.1883
    159 H40        21.3977   61.3316   10.2743 H         1 HEK         0.0800
    160 H41        22.0501   59.6134   12.6940 H         1 HEK         0.0315
    161 H42        23.1989   60.2418   11.4644 H         1 HEK         0.0315
    162 H43        21.0391   58.1383   11.0377 H         1 HEK         0.0298
    163 H44        22.0325   57.8273    8.7874 H         1 HEK         0.0232
    164 H45        23.1217   59.2258    9.0781 H         1 HEK         0.0232
    165 H46        21.3448   59.4741    8.9917 H         1 HEK         0.0232
    166 H47        22.9898   57.3884   12.3469 H         1 HEK         0.0232
    167 H48        24.0737   57.9314   11.0215 H         1 HEK         0.0232
    168 H49        22.9024   56.5999   10.7353 H         1 HEK         0.0232
    169 H50        19.4449   61.1752    9.5160 H         1 HEK         0.1885
    170 H51        17.2457   60.9162    9.1842 H         1 HEK         0.0821
    171 H52        16.1000   58.9602   10.3257 H         1 HEK         0.0453
    172 H53        17.6726   58.6273   11.1272 H         1 HEK         0.0453
    173 H54        16.2149   59.1410    7.6922 H         1 HEK         0.0530
    174 H55        19.0799   57.0967   10.1107 H         1 HEK         0.0530
    175 H56        16.9309   57.8285    5.7258 H         1 HEK         0.0525
    176 H57        19.7698   55.7469    8.1615 H         1 HEK         0.0525
    177 H58        18.2797   56.2204    4.9715 H         1 HEK         0.2458
    178 H59        18.0464   62.8750   11.0471 H         1 HEK         0.1881
    179 H60        15.5092   63.3039   12.4723 H         1 HEK         0.0763
    180 H61        16.7569   64.5346   12.0780 H         1 HEK         0.0763
    181 H62        17.9800   61.6399   13.5053 H         1 HEK         0.1885
    182 H63        17.7071   62.5557   16.2831 H         1 HEK         0.0823
    183 H64        18.9937   60.4716   16.8079 H         1 HEK         0.0474
    184 H65        19.1079   60.1379   15.0466 H         1 HEK         0.0474
    185 H66        16.7865   60.2972   17.9461 H         1 HEK         0.0557
    186 H67        17.3704   59.0193   13.9120 H         1 HEK         0.0557
    187 H68        14.7210   58.9340   18.0707 H         1 HEK         0.0599
    188 H69        15.2958   57.6751   14.0448 H         1 HEK         0.0599
    189 H70        13.9891   57.6330   16.1215 H         1 HEK         0.0559
    190 H71        19.2238   63.5397   17.4505 H         1 HEK         0.1883
    191 H72        21.7630   64.3813   16.3170 H         1 HEK         0.0800
    192 H73        22.2222   65.0338   18.7556 H         1 HEK         0.0312
    193 H74        20.5753   64.4243   19.1338 H         1 HEK         0.0312
    194 H75        19.7989   66.1135   17.2934 H         1 HEK         0.0269
    195 H76        21.4071   66.8692   17.5566 H         1 HEK         0.0269
    196 H77        20.6960   66.6167   20.1249 H         1 HEK         0.0317
    197 H78        19.0455   66.6332   19.4161 H         1 HEK         0.0317
    198 H79        19.5989   68.7735   18.2861 H         1 HEK         0.0813
    199 H80        21.1904   68.7654   19.1189 H         1 HEK         0.0813
    200 H81        19.5700   70.0829   20.2913 H         1 HEK         0.1994
    201 H82        20.0122   68.7898   21.2088 H         1 HEK         0.1994
    202 H83        18.5538   68.7972   20.4457 H         1 HEK         0.1994
    203 H84        23.8565   63.6178   17.0918 H         1 HEK         0.1883
    204 H85        23.8266   60.7576   17.8489 H         1 HEK         0.0803
    205 H86        26.2169   62.3643   16.8935 H         1 HEK         0.0345
    206 H87        25.9313   61.3344   14.6826 H         1 HEK         0.0267
    207 H88        24.5758   62.4268   15.1253 H         1 HEK         0.0267
    208 H89        26.7519   60.3123   18.1802 H         1 HEK         0.0235
    209 H90        27.2883   60.2264   16.4681 H         1 HEK         0.0235
    210 H91        25.8145   59.3437   16.9930 H         1 HEK         0.0235
    211 H92        23.7535   60.4309   13.8879 H         1 HEK         0.0230
    212 H93        23.1194   60.4401   15.5685 H         1 HEK         0.0230
    213 H94        24.4749   59.3477   15.1258 H         1 HEK         0.0230
    214 H95        24.4542   60.0523   19.7547 H         1 HEK         0.1884
    215 H96        24.9072   62.0196   21.9106 H         1 HEK         0.0816
    216 H97        24.9508   58.9947   22.1957 H         1 HEK         0.0420
    217 H98        23.4083   59.8762   21.9304 H         1 HEK         0.0420
    218 H99        25.4612   58.7181   24.8284 H         1 HEK         0.0729
    219 H100       23.3517   62.1361   26.2101 H         1 HEK         0.1199
    220 H101       24.7604   60.1143   26.9104 H         1 HEK         0.2361
@<TRIPOS>BOND
     1    3    1 1  
     2    1   23 1  
     3    2    4 1  
     4   19    2 1  
     5    2   27 1  
     6   16    3 am 
     7    3   26 2  
     8    4    6 1  
     9   44    5 ar 
    10    6   16 1  
    11    6   45 1  
    12    8    7 ar 
    13    7   12 ar 
    14    7   44 1  
    15    9    8 ar 
    16    9   10 ar 
    17   35    9 1  
    18   10   13 ar 
    19   14   11 1  
    20   11   27 2  
    21   13   12 ar 
    22   13   14 1  
    23   14   19 2  
    24   45   15 2  
    25   23   17 am 
    26   17   24 1  
    27   17   25 2  
    28   44   18 ar 
    29   43   20 2  
    30   41   21 2  
    31   39   22 2  
    32   28   33 1  
    33   28   36 1  
    34   37   28 1  
    35   38   29 1  
    36   29  111 am 
    37  119   29 1  
    38   30   39 am 
    39   40   30 1  
    40   31   41 am 
    41   42   31 1  
    42   43   32 am 
    43   33   34 2  
    44   35   34 1  
    45   36   35 2  
    46   38   37 1  
    47   39   38 1  
    48   38  119 1  
    49   41   40 1  
    50   42   43 1  
    51   45   46 am 
    52   46   47 1  
    53   47   48 1  
    54   47   50 1  
    55   48   49 2  
    56   48   57 am 
    57   50   51 1  
    58   51   52 1  
    59   52   53 1  
    60   53   54 ar 
    61   54   55 ar 
    62   54   56 ar 
    63   57   58 1  
    64   58   59 1  
    65   58   61 1  
    66   59   60 2  
    67   59   65 am 
    68   61   62 1  
    69   62   63 1  
    70   62   64 1  
    71   65   66 1  
    72   66   67 1  
    73   66   69 1  
    74   67   68 2  
    75   67   77 am 
    76   69   70 1  
    77   70   71 ar 
    78   70   72 ar 
    79   71   73 ar 
    80   72   74 ar 
    81   73   75 ar 
    82   74   75 ar 
    83   75   76 1  
    84   77   78 1  
    85   78   79 1  
    86   79   80 2  
    87   79   81 am 
    88   81   82 1  
    89   82   83 1  
    90   82   85 1  
    91   83   84 2  
    92   83   92 am 
    93   85   86 1  
    94   86   87 ar 
    95   86   88 ar 
    96   87   89 ar 
    97   88   90 ar 
    98   89   91 ar 
    99   90   91 ar 
   100   92   93 1  
   101   93   94 1  
   102   93   96 1  
   103   94   95 2  
   104   94  101 am 
   105   96   97 1  
   106   97   98 1  
   107   98   99 1  
   108   99  100 1  
   109  101  102 1  
   110  102  103 1  
   111  102  105 1  
   112  103  104 2  
   113  103  109 am 
   114  105  106 1  
   115  105  107 1  
   116  106  108 1  
   117  109  110 1  
   118  110  111 1  
   119  110  113 1  
   120  111  112 2  
   121  113  114 1  
   122  114  115 1  
   123  114  116 2  
   124  115  117 2  
   125  116  118 1  
   126  117  118 1  
   127    1  120 1  
   128    1  121 1  
   129    4  122 1  
   130    4  123 1  
   131    6  124 1  
   132    8  125 1  
   133   10  126 1  
   134   12  127 1  
   135   16  128 1  
   136   19  129 1  
   137   23  130 1  
   138   24  131 1  
   139   24  132 1  
   140   24  133 1  
   141   30  134 1  
   142   31  135 1  
   143   32  136 1  
   144   32  137 1  
   145   36  138 1  
   146   37  139 1  
   147   37  140 1  
   148   40  141 1  
   149   40  142 1  
   150   42  143 1  
   151   42  144 1  
   152   46  145 1  
   153   47  146 1  
   154   50  147 1  
   155   50  148 1  
   156   51  149 1  
   157   51  150 1  
   158   52  151 1  
   159   52  152 1  
   160   53  153 1  
   161   55  154 1  
   162   55  155 1  
   163   56  156 1  
   164   56  157 1  
   165   57  158 1  
   166   58  159 1  
   167   61  160 1  
   168   61  161 1  
   169   62  162 1  
   170   63  163 1  
   171   63  164 1  
   172   63  165 1  
   173   64  166 1  
   174   64  167 1  
   175   64  168 1  
   176   65  169 1  
   177   66  170 1  
   178   69  171 1  
   179   69  172 1  
   180   71  173 1  
   181   72  174 1  
   182   73  175 1  
   183   74  176 1  
   184   76  177 1  
   185   77  178 1  
   186   78  179 1  
   187   78  180 1  
   188   81  181 1  
   189   82  182 1  
   190   85  183 1  
   191   85  184 1  
   192   87  185 1  
   193   88  186 1  
   194   89  187 1  
   195   90  188 1  
   196   91  189 1  
   197   92  190 1  
   198   93  191 1  
   199   96  192 1  
   200   96  193 1  
   201   97  194 1  
   202   97  195 1  
   203   98  196 1  
   204   98  197 1  
   205   99  198 1  
   206   99  199 1  
   207  100  200 1  
   208  100  201 1  
   209  100  202 1  
   210  101  203 1  
   211  102  204 1  
   212  105  205 1  
   213  106  206 1  
   214  106  207 1  
   215  107  208 1  
   216  107  209 1  
   217  107  210 1  
   218  108  211 1  
   219  108  212 1  
   220  108  213 1  
   221  109  214 1  
   222  110  215 1  
   223  113  216 1  
   224  113  217 1  
   225  116  218 1  
   226  117  219 1  
   227  118  220 1  
@<TRIPOS>SUBSTRUCTURE
     1 HEK         1

