6f20_ligand
  -I-interpret- 

 23 24  0  0  0  0  0  0  0  0999 V2000
    3.1180   -9.0640  -16.5960 C   0  0  0  0  0
   -3.0420   -8.6750  -14.6400 C   0  0  0  0  0
   -2.5850   -7.8760  -15.8550 C   0  0  0  0  0
    1.3830   -9.8290  -15.3070 C   0  0  0  0  0
    1.0000   -8.1550  -17.3230 C   0  0  0  0  0
    1.6950   -8.9980  -16.4420 C   0  0  0  0  0
    2.5800  -10.3810  -14.8430 C   0  0  0  0  0
    3.8750   -8.4550  -17.5240 N   0  0  0  0  0
    3.5950   -9.9060  -15.6370 N   0  0  0  0  0
    3.1860   -7.6590  -18.3600 C   0  0  0  0  0
    1.8000   -7.5080  -18.2980 C   0  0  0  0  0
   -0.5010   -7.9820  -17.2040 C   0  0  0  0  0
   -1.0090   -7.2660  -18.0670 O   0  0  0  0  0
   -1.1670   -7.9350  -15.9880 O   0  0  0  0  0
   -2.7401   -9.7158  -14.7567 H   0  0  0  0  0
   -2.5843   -8.2611  -13.7415 H   0  0  0  0  0
   -4.1272   -8.6174  -14.5561 H   0  0  0  0  0
   -2.8854   -6.8360  -15.7278 H   0  0  0  0  0
   -3.0421   -8.2996  -16.7493 H   0  0  0  0  0
    0.3917   -9.9969  -14.8861 H   0  0  0  0  0
    2.6886  -11.0657  -14.0019 H   0  0  0  0  0
    3.7354   -7.1058  -19.1217 H   0  0  0  0  0
    1.3119   -6.8652  -19.0305 H   0  0  0  0  0
  6  1  4  0  0  0
  1  8  4  0  0  0
  1  9  4  0  0  0
  3  2  1  0  0  0
 14  3  1  0  0  0
  6  4  4  0  0  0
  4  7  4  0  0  0
  5  6  4  0  0  0
  5 11  4  0  0  0
 12  5  1  0  0  0
  7  9  4  0  0  0
 10  8  4  0  0  0
 11 10  4  0  0  0
 12 13  2  0  0  0
 12 14  1  0  0  0
  2 15  1  0  0  0
  2 16  1  0  0  0
  2 17  1  0  0  0
  3 18  1  0  0  0
  3 19  1  0  0  0
  4 20  1  0  0  0
  7 21  1  0  0  0
 10 22  1  0  0  0
 11 23  1  0  0  0
M  END
$$$$
