4ucc_ligand
  -I-interpret- 

 28 29  0  0  0  0  0  0  0  0999 V2000
  -21.8460   17.8660  -15.8120 O   0  0  0  0  0
  -21.1860   17.6730  -16.8650 C   0  0  0  0  0
  -20.0030   17.2470  -16.9130 O   0  0  0  0  0
  -21.9210   17.9610  -18.1760 C   0  0  0  0  0
  -23.2270   18.3740  -18.3010 C   0  0  0  0  0
  -23.4450   18.5340  -19.6660 C   0  0  0  0  0
  -24.7460   19.0260  -20.3230 C   0  0  0  0  0
  -24.9320   18.7240  -21.5260 O   0  0  0  0  0
  -25.5260   19.6990  -19.6070 O   0  0  0  0  0
  -22.3440   18.2310  -20.3790 N   0  0  0  0  0
  -21.4150   17.8810  -19.4400 N   0  0  0  0  0
  -20.0950   17.4430  -19.9030 C   0  0  0  0  0
  -20.0090   15.9660  -20.2150 C   0  0  0  0  0
  -21.1430   15.1500  -20.1880 C   0  0  0  0  0
  -18.8020   15.3570  -20.5390 C   0  0  0  0  0
  -17.3630   16.3140  -20.6650 Cl  0  0  0  0  0
  -18.6990   14.0080  -20.7990 C   0  0  0  0  0
  -19.8500   13.2450  -20.7780 C   0  0  0  0  0
  -19.7540   11.5520  -21.1820 Cl  0  0  0  0  0
  -21.0730   13.8000  -20.4800 C   0  0  0  0  0
  -19.7231   17.1856  -17.8292 H   0  0  0  0  0
  -23.9434   18.5414  -17.4968 H   0  0  0  0  0
  -25.1534   19.7889  -18.7269 H   0  0  0  0  0
  -19.3878   17.6443  -19.0983 H   0  0  0  0  0
  -19.8826   17.9807  -20.8270 H   0  0  0  0  0
  -22.1070   15.5885  -19.9303 H   0  0  0  0  0
  -17.7322   13.5537  -21.0161 H   0  0  0  0  0
  -21.9730   13.1852  -20.4741 H   0  0  0  0  0
  1  2  2  0  0  0
  2  3  1  0  0  0
  2  4  1  0  0  0
  4  5  4  0  0  0
  4 11  4  0  0  0
  5  6  4  0  0  0
  6  7  1  0  0  0
  6 10  4  0  0  0
  7  8  2  0  0  0
  7  9  1  0  0  0
 10 11  4  0  0  0
 11 12  1  0  0  0
 12 13  1  0  0  0
 13 14  4  0  0  0
 13 15  4  0  0  0
 14 20  4  0  0  0
 15 16  1  0  0  0
 15 17  4  0  0  0
 17 18  4  0  0  0
 18 19  1  0  0  0
 18 20  4  0  0  0
  3 21  1  0  0  0
  5 22  1  0  0  0
  9 23  1  0  0  0
 12 24  1  0  0  0
 12 25  1  0  0  0
 14 26  1  0  0  0
 17 27  1  0  0  0
 20 28  1  0  0  0
M  END
$$$$
