6fv4_ligand
  -I-interpret- 

 35 35  0  0  0  0  0  0  0  0999 V2000
  123.5810 -113.6940  105.7860 C   0  0  0  0  0
  122.6150 -113.4770  104.6180 C   0  0  0  0  0
  123.2670 -113.8800  103.2940 C   0  0  0  0  0
  124.6550 -113.2680  103.1410 C   0  0  0  0  0
  125.4910 -113.6070  104.3680 C   0  0  0  0  0
  126.8920 -113.0420  104.3010 C   0  0  0  0  0
  120.2420 -114.0160  104.1800 C   0  0  0  0  0
  119.1060 -114.9340  104.5220 C   0  0  0  0  0
  121.3940 -114.2410  104.8300 N   0  0  0  0  0
  123.7700 -115.0650  105.9890 O   0  0  0  0  0
  122.4400 -113.4440  102.2220 O   0  0  0  0  0
  125.2930 -113.7870  101.9790 O   0  0  0  0  0
  124.8320 -113.0500  105.5100 O   0  0  0  0  0
  126.8840 -111.8670  103.4640 O   0  0  0  0  0
  120.1180 -113.1030  103.3690 O   0  0  0  0  0
  128.2460 -111.1290  103.1200 P   0  0  0  0  0
  129.0510 -112.1400  102.3090 O   0  0  0  0  0
  128.0550 -109.8240  102.4260 O   0  0  0  0  0
  128.8640 -110.9670  104.4690 O   0  0  0  0  0
  123.1597 -113.2586  106.6921 H   0  0  0  0  0
  122.3661 -112.4169  104.5690 H   0  0  0  0  0
  123.3755 -114.9645  103.2812 H   0  0  0  0  0
  124.5601 -112.1866  103.0428 H   0  0  0  0  0
  125.5822 -114.6917  104.4254 H   0  0  0  0  0
  127.5695 -113.7867  103.8832 H   0  0  0  0  0
  127.2305 -112.7778  105.3029 H   0  0  0  0  0
  118.2814 -114.3519  104.9334 H   0  0  0  0  0
  118.7741 -115.4504  103.6213 H   0  0  0  0  0
  119.4400 -115.6644  105.2590 H   0  0  0  0  0
  121.4157 -114.9953  105.5163 H   0  0  0  0  0
  122.9239 -115.4798  106.1722 H   0  0  0  0  0
  121.5656 -113.8286  102.3170 H   0  0  0  0  0
  124.7672 -113.5741  101.2045 H   0  0  0  0  0
  129.1372 -112.9544  102.8099 H   0  0  0  0  0
  128.9679 -111.8294  104.8778 H   0  0  0  0  0
  2  1  1  0  0  0
  1 10  1  0  0  0
  1 13  1  0  0  0
  2  3  1  0  0  0
  9  2  1  0  0  0
  3  4  1  0  0  0
  3 11  1  0  0  0
  4  5  1  0  0  0
  4 12  1  0  0  0
  5  6  1  0  0  0
 13  5  1  0  0  0
  6 14  1  0  0  0
  7  8  1  0  0  0
  7  9  1  0  0  0
  7 15  2  0  0  0
 14 16  1  0  0  0
 16 17  1  0  0  0
 16 18  2  0  0  0
 16 19  1  0  0  0
  1 20  1  0  0  0
  2 21  1  0  0  0
  3 22  1  0  0  0
  4 23  1  0  0  0
  5 24  1  0  0  0
  6 25  1  0  0  0
  6 26  1  0  0  0
  8 27  1  0  0  0
  8 28  1  0  0  0
  8 29  1  0  0  0
  9 30  1  0  0  0
 10 31  1  0  0  0
 11 32  1  0  0  0
 12 33  1  0  0  0
 17 34  1  0  0  0
 19 35  1  0  0  0
M  END
$$$$
