### 
### Created by X-TOOL on Wed Jan  1 15:39:36 2020
### 

@<TRIPOS>MOLECULE
6fv4_ligand
   33    33     1     0     0
SMALL
GAST_HUCK


@<TRIPOS>ATOM
      1 C1        123.5810 -113.6940  105.7860 C.3       1 16G         0.1823
      2 C2        122.6150 -113.4770  104.6180 C.3       1 16G         0.1208
      3 C3        123.2670 -113.8800  103.2940 C.3       1 16G         0.1111
      4 C4        124.6550 -113.2680  103.1410 C.3       1 16G         0.1120
      5 C5        125.4910 -113.6070  104.3680 C.3       1 16G         0.1176
      6 C6        126.8920 -113.0420  104.3010 C.3       1 16G         0.1071
      7 C7        120.2420 -114.0160  104.1800 C.2       1 16G         0.1733
      8 C8        119.1060 -114.9340  104.5220 C.3       1 16G         0.0257
      9 N2        121.3940 -114.2410  104.8300 N.am      1 16G        -0.2766
     10 O1        123.7700 -115.0650  105.9890 O.3       1 16G        -0.3651
     11 O3        122.4400 -113.4440  102.2220 O.3       1 16G        -0.3867
     12 O4        125.2930 -113.7870  101.9790 O.3       1 16G        -0.3865
     13 O5        124.8320 -113.0500  105.5100 O.3       1 16G        -0.3406
     14 O6        126.8840 -111.8670  103.4640 O.3       1 16G        -0.2734
     15 O7        120.1180 -113.1030  103.3690 O.2       1 16G        -0.3974
     16 P         128.2460 -111.1290  103.1200 P.3       1 16G         0.2008
     17 O1P       129.0510 -112.1400  102.3090 O.co2     1 16G        -0.5537
     18 O2P       128.0550 -109.8240  102.4260 O.co2     1 16G        -0.5537
     19 O3P       128.8640 -110.9670  104.4690 O.co2     1 16G        -0.5537
     20 H1        123.1480 -113.2546  106.6967 H         1 16G         0.0932
     21 H2        122.3578 -112.4086  104.5703 H         1 16G         0.0633
     22 H3        123.3577 -114.9758  103.2614 H         1 16G         0.0645
     23 H4        124.5636 -112.1757  103.0491 H         1 16G         0.0647
     24 H5        125.5533 -114.7007  104.4679 H         1 16G         0.0650
     25 H6        127.5730 -113.7936  103.8752 H         1 16G         0.0639
     26 H7        127.2298 -112.7722  105.3125 H         1 16G         0.0639
     27 H8        118.2200 -114.6565  103.9320 H         1 16G         0.0467
     28 H9        118.8745 -114.8475  105.5939 H         1 16G         0.0467
     29 H10       119.3903 -115.9712  104.2908 H         1 16G         0.0467
     30 H11       121.4153 -114.9805  105.5028 H         1 16G         0.1857
     31 H12       124.3549 -115.1972  106.7258 H         1 16G         0.2126
     32 H13       121.5746 -113.8246  102.3161 H         1 16G         0.2100
     33 H14       125.3744 -114.7302  102.0584 H         1 16G         0.2100
@<TRIPOS>BOND
     1    2    1 1  
     2    1   10 1  
     3    1   13 1  
     4    2    3 1  
     5    9    2 1  
     6    3    4 1  
     7    3   11 1  
     8    4    5 1  
     9    4   12 1  
    10    5    6 1  
    11   13    5 1  
    12    6   14 1  
    13    7    8 1  
    14    7    9 am 
    15    7   15 2  
    16   14   16 1  
    17   16   17 ar 
    18   16   18 ar 
    19   16   19 ar 
    20    1   20 1  
    21    2   21 1  
    22    3   22 1  
    23    4   23 1  
    24    5   24 1  
    25    6   25 1  
    26    6   26 1  
    27    8   27 1  
    28    8   28 1  
    29    8   29 1  
    30    9   30 1  
    31   10   31 1  
    32   11   32 1  
    33   12   33 1  
@<TRIPOS>SUBSTRUCTURE
     1 16G         1

