1o6i_ligand
  -I-interpret- 

 17 17  0  0  0  0  0  0  0  0999 V2000
   17.4790   44.8250  102.0630 N   0  3  0  0  0
   18.3740   44.6700  103.2560 C   0  0  0  0  0
   19.0950   46.0050  103.3720 C   0  0  0  0  0
   18.1800   47.0260  102.6730 C   0  0  0  0  0
   17.1570   46.2510  101.8230 C   0  0  0  0  0
   19.3580   43.5230  103.0310 C   0  0  0  0  0
   20.4680   43.5410  103.5490 O   0  0  0  0  0
   16.6111   44.3182  102.2369 H   0  0  0  0  0
   17.9598   44.4554  101.2428 H   0  0  0  0  0
   17.8264   44.4283  104.1670 H   0  0  0  0  0
   20.0812   45.9687  102.9092 H   0  0  0  0  0
   19.2734   46.2744  104.4130 H   0  0  0  0  0
   18.7710   47.6865  102.0386 H   0  0  0  0  0
   17.6653   47.6374  103.4142 H   0  0  0  0  0
   16.1305   46.4902  102.1008 H   0  0  0  0  0
   17.2222   46.5122  100.7668 H   0  0  0  0  0
   19.0694   42.6800  102.4031 H   0  0  0  0  0
  1  2  1  0  0  0
  1  5  1  0  0  0
  2  3  1  0  0  0
  2  6  1  0  0  0
  3  4  1  0  0  0
  4  5  1  0  0  0
  6  7  2  0  0  0
  1  8  1  0  0  0
  1  9  1  0  0  0
  2 10  1  0  0  0
  3 11  1  0  0  0
  3 12  1  0  0  0
  4 13  1  0  0  0
  4 14  1  0  0  0
  5 15  1  0  0  0
  5 16  1  0  0  0
  6 17  1  0  0  0
M  END
$$$$
