3r6c_ligand
  -I-interpret- 

 37 40  0  0  0  0  0  0  0  0999 V2000
   10.3760   -6.1330   24.6970 C   0  0  0  0  0
    2.6230   -4.8880   30.0280 O   0  0  0  0  0
    4.1220   -4.1620   27.6140 O   0  0  0  0  0
    2.8150   -6.6300   28.6580 O   0  0  0  0  0
    4.3780   -5.9230   25.9140 O   0  0  0  0  0
   10.5520   -7.1870   28.7120 C   0  0  0  0  0
   10.5110   -6.7710   27.3790 C   0  0  0  0  0
    9.4060   -7.1530   29.5060 C   0  0  0  0  0
    4.7010   -6.6210   31.2930 C   0  0  0  0  0
    6.9980   -5.8390   27.0790 C   0  0  0  0  0
    7.5680   -7.2840   33.2050 C   0  0  0  0  0
    9.2160   -5.8790   25.5240 O   0  0  0  0  0
    6.1660   -7.5030   33.0910 O   0  0  0  0  0
    8.0440   -7.5620   31.8670 O   0  0  0  0  0
    3.2760   -5.8030   29.4990 C   0  0  0  0  0
    5.8870   -7.0600   31.8450 C   0  0  0  0  0
    9.3170   -6.3130   26.8290 C   0  0  0  0  0
    4.6620   -6.1910   29.9830 C   0  0  0  0  0
    5.8260   -5.8060   27.8130 C   0  0  0  0  0
    7.0390   -7.0930   31.0760 C   0  0  0  0  0
    8.1780   -6.2880   27.6360 C   0  0  0  0  0
    8.1990   -6.7000   28.9710 C   0  0  0  0  0
    5.8130   -6.2150   29.1690 C   0  0  0  0  0
    7.0200   -6.6620   29.7410 C   0  0  0  0  0
    4.7720   -5.3390   27.1420 C   0  0  0  0  0
   11.2430   -5.6299   25.1251 H   0  0  0  0  0
   10.5617   -7.2062   24.6536 H   0  0  0  0  0
   10.1939   -5.7535   23.6915 H   0  0  0  0  0
    4.5069   -3.9001   28.4535 H   0  0  0  0  0
    3.5094   -7.2388   28.3958 H   0  0  0  0  0
   11.4909   -7.5424   29.1366 H   0  0  0  0  0
   11.4140   -6.8050   26.7695 H   0  0  0  0  0
    9.4529   -7.4803   30.5447 H   0  0  0  0  0
    3.7918   -6.6140   31.8942 H   0  0  0  0  0
    6.9893   -5.5042   26.0417 H   0  0  0  0  0
    8.0362   -7.9133   33.9619 H   0  0  0  0  0
    7.8147   -6.2776   33.5432 H   0  0  0  0  0
 12  1  1  0  0  0
 15  2  2  0  0  0
 25  3  1  0  0  0
 15  4  1  0  0  0
 25  5  2  0  0  0
  7  6  4  0  0  0
  6  8  4  0  0  0
 17  7  4  0  0  0
  8 22  4  0  0  0
  9 16  4  0  0  0
 18  9  4  0  0  0
 19 10  4  0  0  0
 10 21  4  0  0  0
 13 11  1  0  0  0
 14 11  1  0  0  0
 17 12  1  0  0  0
 16 13  1  0  0  0
 20 14  1  0  0  0
 18 15  1  0  0  0
 16 20  4  0  0  0
 21 17  4  0  0  0
 23 18  4  0  0  0
 19 23  4  0  0  0
 19 25  1  0  0  0
 20 24  4  0  0  0
 21 22  4  0  0  0
 22 24  4  0  0  0
 23 24  4  0  0  0
  1 26  1  0  0  0
  1 27  1  0  0  0
  1 28  1  0  0  0
  3 29  1  0  0  0
  4 30  1  0  0  0
  6 31  1  0  0  0
  7 32  1  0  0  0
  8 33  1  0  0  0
  9 34  1  0  0  0
 10 35  1  0  0  0
 11 36  1  0  0  0
 11 37  1  0  0  0
M  END
$$$$
