4f6v_ligand
  -I-interpret- 

 44 45  0  0  0  0  0  0  0  0999 V2000
   23.1220   -4.9850    8.0820 O   0  0  0  0  0
   26.1080   -7.1770    4.8260 O   0  0  0  0  0
   23.3830   -3.8290    6.2680 O   0  0  0  0  0
   24.8290   -5.2890    5.1000 O   0  0  0  0  0
   25.0240   -6.9120    6.7480 C   0  0  0  0  0
   25.2010  -15.9270   12.2540 C   0  0  0  0  0
   26.5640  -15.9240   12.0510 C   0  0  0  0  0
   24.4010  -15.1820   11.4420 C   0  0  0  0  0
   28.4540  -10.6370   10.1600 C   0  0  0  0  0
   28.9560  -10.2450    8.9470 C   0  0  0  0  0
   27.1230  -15.1670   11.0490 C   0  0  0  0  0
   24.9680  -14.4500   10.4270 C   0  0  0  0  0
   27.7230  -11.7920   10.2680 C   0  0  0  0  0
   28.0260  -12.1640    7.9190 C   0  0  0  0  0
   28.6020   -9.2970    6.0410 C   0  0  0  0  0
   27.2360   -9.5820    5.4410 C   0  0  0  0  0
   29.3290  -10.5420    6.5320 C   0  0  0  0  0
   26.3430   -8.7730    6.2580 N   0  0  0  0  0
   26.8050  -13.7150    9.1670 O   0  0  0  0  0
   23.6380   -4.8070    6.9630 C   0  0  0  0  0
   25.8320   -7.6000    5.9180 C   0  0  0  0  0
   24.5320   -5.7340    6.3050 C   0  0  0  0  0
   28.7550  -11.0090    7.8330 C   0  0  0  0  0
   26.3220  -14.4220   10.2230 C   0  0  0  0  0
   27.5150  -12.5660    9.1400 C   0  0  0  0  0
   23.4520   -5.8041    8.4587 H   0  0  0  0  0
   25.6355   -6.6667    7.6163 H   0  0  0  0  0
   24.1556   -7.5509    6.9086 H   0  0  0  0  0
   24.7667  -16.5210   13.0581 H   0  0  0  0  0
   27.2058  -16.5285   12.6919 H   0  0  0  0  0
   23.3220  -15.1666   11.5957 H   0  0  0  0  0
   28.6368  -10.0270   11.0446 H   0  0  0  0  0
   29.5205   -9.3157    8.8704 H   0  0  0  0  0
   28.2042  -15.1591   10.9112 H   0  0  0  0  0
   24.3212  -13.8746    9.7646 H   0  0  0  0  0
   27.3110  -12.0966   11.2301 H   0  0  0  0  0
   27.8485  -12.7657    7.0276 H   0  0  0  0  0
   28.4495   -8.6481    6.9034 H   0  0  0  0  0
   29.2145   -8.8504    5.2578 H   0  0  0  0  0
   26.9801  -10.6414    5.4584 H   0  0  0  0  0
   27.1802   -9.3328    4.3813 H   0  0  0  0  0
   30.3823  -10.3017    6.6768 H   0  0  0  0  0
   29.2140  -11.3332    5.7911 H   0  0  0  0  0
   26.0884   -9.1428    7.1739 H   0  0  0  0  0
 20  1  1  0  0  0
 21  2  2  0  0  0
 20  3  2  0  0  0
 22  4  2  0  0  0
  5 21  1  0  0  0
 22  5  1  0  0  0
  7  6  4  0  0  0
  8  6  4  0  0  0
 11  7  4  0  0  0
 12  8  4  0  0  0
 10  9  4  0  0  0
  9 13  4  0  0  0
 23 10  4  0  0  0
 24 11  4  0  0  0
 24 12  4  0  0  0
 25 13  4  0  0  0
 23 14  4  0  0  0
 14 25  4  0  0  0
 16 15  1  0  0  0
 15 17  1  0  0  0
 18 16  1  0  0  0
 17 23  1  0  0  0
 21 18  1  0  0  0
 19 24  1  0  0  0
 25 19  1  0  0  0
 20 22  1  0  0  0
  1 26  1  0  0  0
  5 27  1  0  0  0
  5 28  1  0  0  0
  6 29  1  0  0  0
  7 30  1  0  0  0
  8 31  1  0  0  0
  9 32  1  0  0  0
 10 33  1  0  0  0
 11 34  1  0  0  0
 12 35  1  0  0  0
 13 36  1  0  0  0
 14 37  1  0  0  0
 15 38  1  0  0  0
 15 39  1  0  0  0
 16 40  1  0  0  0
 16 41  1  0  0  0
 17 42  1  0  0  0
 17 43  1  0  0  0
 18 44  1  0  0  0
M  END
$$$$
