1qf2_ligand
  -I-interpret- 

 53 55  0  0  0  0  0  0  0  0999 V2000
   36.1630   42.4450   -6.1130 S   0  0  0  0  0
   36.8570   42.4760   -4.3810 C   0  0  0  0  0
   35.7910   42.4910   -3.2890 C   0  0  0  0  0
   36.3600   42.5880   -1.8980 C   0  0  0  0  0
   37.0910   43.7140   -1.5100 C   0  0  0  0  0
   36.1980   41.5450   -0.9900 C   0  0  0  0  0
   37.6510   43.7920   -0.2420 C   0  0  0  0  0
   36.7550   41.6130    0.2810 C   0  0  0  0  0
   37.4820   42.7320    0.6580 C   0  0  0  0  0
   37.8660   41.3970   -4.0130 C   0  0  0  0  0
   39.0490   41.6790   -3.8340 O   0  0  0  0  0
   37.3580   40.1930   -3.7970 N   0  0  0  0  0
   38.2040   39.0630   -3.4860 C   0  0  0  0  0
   38.2310   38.2730   -4.7800 C   0  0  0  0  0
   37.3010   38.3880   -5.5820 O   0  0  0  0  0
   39.2610   37.4550   -5.0190 N   0  0  0  0  0
   40.3860   37.0580   -4.1410 C   0  0  0  0  0
   39.2670   36.7060   -6.2840 C   0  0  0  0  0
   40.7070   36.2070   -6.3690 C   0  0  0  0  0
   41.0540   35.9540   -4.9460 C   0  0  0  0  0
   40.0020   36.5450   -2.7660 C   0  0  0  0  0
   38.7600   35.9420   -2.5460 C   0  0  0  0  0
   40.9070   36.6040   -1.7130 C   0  0  0  0  0
   38.4290   35.4090   -1.3070 C   0  0  0  0  0
   40.5880   36.0710   -0.4680 C   0  0  0  0  0
   39.3480   35.4720   -0.2650 C   0  0  0  0  0
   38.2320   35.5680   -6.3930 C   0  0  0  0  0
   37.8780   34.9710   -5.3490 O   0  0  0  0  0
   37.7500   35.3150   -7.5250 O   0  0  0  0  0
   35.3039   43.4492   -6.2627 H   0  0  0  0  0
   37.3962   43.4225   -4.4195 H   0  0  0  0  0
   35.2412   41.5521   -3.3540 H   0  0  0  0  0
   35.1677   43.3704   -3.4508 H   0  0  0  0  0
   37.2228   44.5392   -2.2098 H   0  0  0  0  0
   35.6265   40.6633   -1.2802 H   0  0  0  0  0
   38.2197   44.6742    0.0519 H   0  0  0  0  0
   36.6207   40.7881    0.9807 H   0  0  0  0  0
   37.9216   42.7867    1.6539 H   0  0  0  0  0
   36.3481   40.0604   -3.8513 H   0  0  0  0  0
   37.8270   38.4776   -2.6474 H   0  0  0  0  0
   39.1995   39.3641   -3.1599 H   0  0  0  0  0
   41.0082   37.9218   -3.9070 H   0  0  0  0  0
   38.9621   37.3374   -7.1186 H   0  0  0  0  0
   40.8121   35.3207   -6.9948 H   0  0  0  0  0
   41.3758   36.9225   -6.8475 H   0  0  0  0  0
   40.7072   34.9712   -4.6267 H   0  0  0  0  0
   42.1340   35.9600   -4.7988 H   0  0  0  0  0
   38.0386   35.8893   -3.3614 H   0  0  0  0  0
   41.8789   37.0737   -1.8643 H   0  0  0  0  0
   37.4552   34.9443   -1.1522 H   0  0  0  0  0
   41.3088   36.1225    0.3480 H   0  0  0  0  0
   39.0975   35.0528    0.7095 H   0  0  0  0  0
   38.1595   35.8845   -8.1805 H   0  0  0  0  0
  1  2  1  0  0  0
  2 10  1  0  0  0
  2  3  1  0  0  0
  3  4  1  0  0  0
  4  6  4  0  0  0
  4  5  4  0  0  0
  5  7  4  0  0  0
  7  9  4  0  0  0
  9  8  4  0  0  0
  8  6  4  0  0  0
 10 12  1  0  0  0
 10 11  2  0  0  0
 12 13  1  0  0  0
 13 14  1  0  0  0
 14 16  1  0  0  0
 14 15  2  0  0  0
 16 18  1  0  0  0
 16 17  1  0  0  0
 17 21  1  0  0  0
 17 20  1  0  0  0
 20 19  1  0  0  0
 19 18  1  0  0  0
 18 27  1  0  0  0
 27 29  1  0  0  0
 27 28  2  0  0  0
 21 23  4  0  0  0
 21 22  4  0  0  0
 22 24  4  0  0  0
 24 26  4  0  0  0
 26 25  4  0  0  0
 25 23  4  0  0  0
  1 30  1  0  0  0
  2 31  1  0  0  0
  3 32  1  0  0  0
  3 33  1  0  0  0
  5 34  1  0  0  0
  6 35  1  0  0  0
  7 36  1  0  0  0
  8 37  1  0  0  0
  9 38  1  0  0  0
 12 39  1  0  0  0
 13 40  1  0  0  0
 13 41  1  0  0  0
 17 42  1  0  0  0
 18 43  1  0  0  0
 19 44  1  0  0  0
 19 45  1  0  0  0
 20 46  1  0  0  0
 20 47  1  0  0  0
 22 48  1  0  0  0
 23 49  1  0  0  0
 24 50  1  0  0  0
 25 51  1  0  0  0
 26 52  1  0  0  0
 29 53  1  0  0  0
M  END
$$$$
