5jog_ligand
  -I-interpret- 

 66 70  0  0  0  0  0  0  0  0999 V2000
   28.1670  -28.4150   19.0010 C   0  0  0  0  0
   27.5950  -27.5270   17.1360 C   0  0  0  0  0
   28.9580  -29.4870   13.1940 C   0  0  0  0  0
   28.9880  -29.7110   14.5780 C   0  0  0  0  0
   28.3470  -30.9650   15.0780 C   0  0  0  0  0
   28.9040  -29.1660   20.1040 C   0  0  0  0  0
   30.4230  -28.9110   20.2160 C   0  0  0  0  0
   31.2030  -29.4480   18.9780 C   0  0  0  0  0
   30.9710  -28.6540   17.6520 C   0  0  0  0  0
   27.1040  -30.9000   15.7460 C   0  0  0  0  0
   26.5380  -32.0970   16.1850 C   0  0  0  0  0
   27.1800  -33.3430   16.0050 C   0  0  0  0  0
   28.4220  -33.4070   15.3600 C   0  0  0  0  0
   29.0080  -32.2080   14.9090 C   0  0  0  0  0
   29.5330  -28.9470   10.2140 C   0  0  0  0  0
   29.4410  -28.4400    8.8270 C   0  0  0  0  0
   30.4500  -27.7120    8.3270 C   0  0  0  0  0
   30.0400  -27.3340    6.9750 C   0  0  0  0  0
   28.4710  -28.3280   17.7120 N   0  0  0  0  0
   26.7700  -27.0910   17.9650 N   0  0  0  0  0
   27.0930  -27.6320   19.2690 C   0  0  0  0  0
   29.5800  -28.9740   16.9740 C   0  0  0  0  0
   29.5490  -28.7360   15.4350 C   0  0  0  0  0
   30.0390  -27.5300   14.8600 C   0  0  0  0  0
   30.0520  -27.3340   13.4750 C   0  0  0  0  0
   29.5160  -28.3190   12.6280 C   0  0  0  0  0
   29.4300  -28.0530   11.2280 N   0  0  0  0  0
   31.1190  -27.2280   17.8710 O   0  0  0  0  0
   29.8050  -30.1290   10.3680 O   0  0  0  0  0
   28.8890  -27.8280    6.8190 N   0  0  0  0  0
   28.4750  -28.5010    7.9220 N   0  0  0  0  0
   27.1640  -29.1520    7.9420 C   0  0  0  0  0
   30.7900  -26.5170    5.9590 C   0  0  0  0  0
   26.1590  -28.2410    7.1830 C   0  0  0  0  0
   27.2660  -30.5060    7.1980 C   0  0  0  0  0
   30.0160  -26.3370    4.8390 F   0  0  0  0  0
   31.1040  -25.3190    6.5260 F   0  0  0  0  0
   27.5921  -27.2784   16.0747 H   0  0  0  0  0
   28.4953  -30.2283   12.5424 H   0  0  0  0  0
   28.7922  -30.2256   19.8740 H   0  0  0  0  0
   28.4706  -28.8234   21.0436 H   0  0  0  0  0
   30.7901  -29.4320   21.1002 H   0  0  0  0  0
   30.5826  -27.8344   20.2766 H   0  0  0  0  0
   30.8496  -30.4639   18.8012 H   0  0  0  0  0
   32.2636  -29.3614   19.2139 H   0  0  0  0  0
   31.7403  -28.9871   16.9553 H   0  0  0  0  0
   26.6037  -29.9461   15.9129 H   0  0  0  0  0
   25.5689  -32.0704   16.6832 H   0  0  0  0  0
   26.7081  -34.2558   16.3686 H   0  0  0  0  0
   28.9236  -34.3631   15.2105 H   0  0  0  0  0
   29.9834  -32.2362   14.4232 H   0  0  0  0  0
   31.3843  -27.4547    8.8260 H   0  0  0  0  0
   26.5981  -27.4547   20.2239 H   0  0  0  0  0
   29.4287  -30.0503   17.0563 H   0  0  0  0  0
   30.4125  -26.7415   15.5133 H   0  0  0  0  0
   30.4757  -26.4218   13.0549 H   0  0  0  0  0
   29.2735  -27.0812   10.9606 H   0  0  0  0  0
   30.9725  -26.7616   17.0448 H   0  0  0  0  0
   26.8351  -29.3153    8.9683 H   0  0  0  0  0
   31.7028  -27.0299    5.6559 H   0  0  0  0  0
   26.1044  -27.2713    7.6778 H   0  0  0  0  0
   26.4964  -28.1074    6.1552 H   0  0  0  0  0
   25.1740  -28.7077    7.1857 H   0  0  0  0  0
   27.5756  -30.3306    6.1677 H   0  0  0  0  0
   28.0002  -31.1387    7.6967 H   0  0  0  0  0
   26.2937  -30.9986    7.2077 H   0  0  0  0  0
  1  6  1  0  0  0
 19  1  4  0  0  0
  1 21  4  0  0  0
 19  2  4  0  0  0
  2 20  4  0  0  0
  3  4  4  0  0  0
 26  3  4  0  0  0
  4  5  1  0  0  0
  4 23  4  0  0  0
  5 10  4  0  0  0
  5 14  4  0  0  0
  6  7  1  0  0  0
  8  7  1  0  0  0
  9  8  1  0  0  0
 22  9  1  0  0  0
  9 28  1  0  0  0
 10 11  4  0  0  0
 11 12  4  0  0  0
 13 12  4  0  0  0
 14 13  4  0  0  0
 15 16  1  0  0  0
 27 15  1  0  0  0
 15 29  2  0  0  0
 16 17  4  0  0  0
 16 31  4  0  0  0
 17 18  4  0  0  0
 18 30  4  0  0  0
 18 33  1  0  0  0
 22 19  1  0  0  0
 20 21  4  0  0  0
 23 22  1  0  0  0
 24 23  4  0  0  0
 25 24  4  0  0  0
 26 25  4  0  0  0
 26 27  1  0  0  0
 30 31  4  0  0  0
 31 32  1  0  0  0
 32 34  1  0  0  0
 32 35  1  0  0  0
 33 36  1  0  0  0
 33 37  1  0  0  0
  2 38  1  0  0  0
  3 39  1  0  0  0
  6 40  1  0  0  0
  6 41  1  0  0  0
  7 42  1  0  0  0
  7 43  1  0  0  0
  8 44  1  0  0  0
  8 45  1  0  0  0
  9 46  1  0  0  0
 10 47  1  0  0  0
 11 48  1  0  0  0
 12 49  1  0  0  0
 13 50  1  0  0  0
 14 51  1  0  0  0
 17 52  1  0  0  0
 21 53  1  0  0  0
 22 54  1  0  0  0
 24 55  1  0  0  0
 25 56  1  0  0  0
 27 57  1  0  0  0
 28 58  1  0  0  0
 32 59  1  0  0  0
 33 60  1  0  0  0
 34 61  1  0  0  0
 34 62  1  0  0  0
 34 63  1  0  0  0
 35 64  1  0  0  0
 35 65  1  0  0  0
 35 66  1  0  0  0
M  END
$$$$
