3d50_ligand
  -I-interpret- 

 50 50  0  0  0  0  0  0  0  0999 V2000
   31.0090   66.4990    9.8830 C   0  0  0  0  0
   30.6640   65.6540   10.9880 N   0  3  0  0  0
   32.0920   65.7570    9.0390 C   0  0  0  0  0
   33.1750   65.4250    9.8250 O   0  0  0  0  0
   32.4520   66.6210    7.8710 C   0  0  0  0  0
   33.5420   66.2060    7.1200 O   0  0  0  0  0
   31.2470   66.7780    6.9260 C   0  0  0  0  0
   31.4800   67.7320    5.9490 O   0  0  0  0  0
   29.9150   67.0050    7.6700 C   0  0  0  0  0
   28.6920   67.3290    6.8370 C   0  0  0  0  0
   27.5090   67.0920    7.5090 O   0  0  0  0  0
   29.8170   66.8480    9.0230 C   0  0  0  0  0
   29.5290   66.1410   11.7530 C   0  0  0  0  0
   29.7400   67.5650   12.2080 C   0  0  0  0  0
   28.9420   67.9290   13.4760 C   0  0  0  0  0
   27.4620   68.1630   13.2640 C   0  0  0  0  0
   26.9860   68.0100   11.8560 C   0  0  0  0  0
   25.5470   68.5010   11.5720 C   0  0  0  0  0
   24.5710   67.3530   11.5300 C   0  0  0  0  0
   23.8660   67.1690   10.1960 C   0  0  0  0  0
   31.3900   67.4451   10.2676 H   0  0  0  0  0
   31.4678   65.6239   11.6152 H   0  0  0  0  0
   30.4115   64.7408   10.6101 H   0  0  0  0  0
   31.7058   64.8129    8.6547 H   0  0  0  0  0
   32.8827   64.8730   10.5540 H   0  0  0  0  0
   32.7421   67.5667    8.3288 H   0  0  0  0  0
   34.3042   66.1027    7.6944 H   0  0  0  0  0
   31.1330   65.8213    6.4163 H   0  0  0  0  0
   32.3172   67.5479    5.5167 H   0  0  0  0  0
   28.7093   66.6884    5.9553 H   0  0  0  0  0
   28.7284   68.3898    6.5889 H   0  0  0  0  0
   26.7687   67.3126    6.9390 H   0  0  0  0  0
   28.8452   66.9790    9.4989 H   0  0  0  0  0
   29.4099   65.5106   12.6342 H   0  0  0  0  0
   28.6442   66.1087   11.1173 H   0  0  0  0  0
   29.3982   68.2196   11.4062 H   0  0  0  0  0
   30.7983   67.6812   12.4418 H   0  0  0  0  0
   29.3562   68.8666   13.8469 H   0  0  0  0  0
   29.0297   67.0802   14.1542 H   0  0  0  0  0
   27.2657   69.1966   13.5490 H   0  0  0  0  0
   26.9395   67.4096   13.8535 H   0  0  0  0  0
   26.9928   66.9408   11.6442 H   0  0  0  0  0
   27.6460   68.6216   11.2408 H   0  0  0  0  0
   25.5367   68.9991   10.6025 H   0  0  0  0  0
   25.2490   69.1790   12.3717 H   0  0  0  0  0
   23.7997   67.5644   12.2706 H   0  0  0  0  0
   25.1422   66.4434   11.7157 H   0  0  0  0  0
   23.3035   68.0713    9.9563 H   0  0  0  0  0
   24.6063   66.9834    9.4178 H   0  0  0  0  0
   23.1844   66.3208   10.2606 H   0  0  0  0  0
  1  2  1  0  0  0
  1  3  1  0  0  0
  1 12  1  0  0  0
  2 13  1  0  0  0
  3  4  1  0  0  0
  3  5  1  0  0  0
  5  6  1  0  0  0
  5  7  1  0  0  0
  7  8  1  0  0  0
  7  9  1  0  0  0
  9 10  1  0  0  0
  9 12  2  0  0  0
 10 11  1  0  0  0
 13 14  1  0  0  0
 14 15  1  0  0  0
 15 16  1  0  0  0
 16 17  1  0  0  0
 17 18  1  0  0  0
 18 19  1  0  0  0
 19 20  1  0  0  0
  1 21  1  0  0  0
  2 22  1  0  0  0
  2 23  1  0  0  0
  3 24  1  0  0  0
  4 25  1  0  0  0
  5 26  1  0  0  0
  6 27  1  0  0  0
  7 28  1  0  0  0
  8 29  1  0  0  0
 10 30  1  0  0  0
 10 31  1  0  0  0
 11 32  1  0  0  0
 12 33  1  0  0  0
 13 34  1  0  0  0
 13 35  1  0  0  0
 14 36  1  0  0  0
 14 37  1  0  0  0
 15 38  1  0  0  0
 15 39  1  0  0  0
 16 40  1  0  0  0
 16 41  1  0  0  0
 17 42  1  0  0  0
 17 43  1  0  0  0
 18 44  1  0  0  0
 18 45  1  0  0  0
 19 46  1  0  0  0
 19 47  1  0  0  0
 20 48  1  0  0  0
 20 49  1  0  0  0
 20 50  1  0  0  0
M  END
$$$$
