1j4k_ligand
  -I-interpret- 

131132  0  0  0  0  0  0  0  0999 V2000
   -2.9880  -29.8900   -5.4150 N   0  3  0  0  0
   -2.5410  -28.4800   -5.2590 C   0  0  0  0  0
   -2.4170  -27.7880   -6.6120 C   0  0  0  0  0
   -2.4890  -28.4310   -7.6590 O   0  0  0  0  0
   -1.1920  -28.4750   -4.5350 C   0  0  0  0  0
   -1.0620  -27.3690   -3.5010 C   0  0  0  0  0
   -1.9770  -27.5750   -2.3100 C   0  0  0  0  0
   -1.7160  -26.9700   -1.2490 O   0  0  0  0  0
   -2.9560  -28.3410   -2.4380 O   0  0  0  0  0
   -2.2300  -26.4720   -6.5820 N   0  0  0  0  0
   -2.0960  -25.6920   -7.8060 C   0  0  0  0  0
   -0.6780  -25.1470   -7.9520 C   0  0  0  0  0
   -0.3060  -24.1760   -7.2940 O   0  0  0  0  0
   -3.1000  -24.5380   -7.8130 C   0  0  0  0  0
   -2.9170  -23.6040   -6.6340 C   0  0  0  0  0
   -3.5230  -23.8620   -5.5720 O   0  0  0  0  0
   -2.1680  -22.6140   -6.7700 O   0  0  0  0  0
    0.1070  -25.7790   -8.8180 N   0  0  0  0  0
    1.4830  -25.3580   -9.0500 C   0  0  0  0  0
    1.6170  -24.6350  -10.3850 C   0  0  0  0  0
    1.5570  -25.2550  -11.4470 O   0  0  0  0  0
    2.4480  -26.5590   -9.0300 C   0  0  0  0  0
    2.1890  -27.4300   -7.7990 C   0  0  0  0  0
    3.8910  -26.0780   -9.0500 C   0  0  0  0  0
    2.8680  -28.7800   -7.8600 C   0  0  0  0  0
    1.7980  -23.3200  -10.3250 N   0  0  0  0  0
    1.9400  -22.5120  -11.5310 C   0  0  0  0  0
    3.3800  -22.0400  -11.7050 C   0  0  0  0  0
    4.1070  -21.8580  -10.7290 O   0  0  0  0  0
    1.0000  -21.3070  -11.4750 C   0  0  0  0  0
   -0.4450  -21.6510  -11.7600 C   0  0  0  0  0
   -1.4390  -21.3830  -10.8270 C   0  0  0  0  0
   -0.8130  -22.2460  -12.9600 C   0  0  0  0  0
   -2.7600  -21.6990  -11.0830 C   0  0  0  0  0
   -2.1320  -22.5640  -13.2230 C   0  0  0  0  0
   -3.1000  -22.2890  -12.2820 C   0  0  0  0  0
   -4.4380  -22.6100  -12.5440 O   0  0  0  0  0
   -5.0340  -23.8800  -11.8600 P   0  0  0  0  0
   -4.2300  -25.0640  -12.4600 O   0  0  0  0  0
   -4.6670  -23.7270  -10.3620 O   0  0  0  0  0
   -6.5110  -24.0160  -12.0820 O   0  0  0  0  0
    3.7850  -21.8440  -12.9560 N   0  0  0  0  0
    5.1380  -21.3930  -13.2610 C   0  0  0  0  0
    5.3150  -21.1840  -14.7610 C   0  0  0  0  0
    4.6370  -21.8190  -15.5700 O   0  0  0  0  0
    6.1650  -22.4050  -12.7500 C   0  0  0  0  0
    5.7970  -23.8430  -13.0390 C   0  0  0  0  0
    5.4020  -24.6970  -12.0170 C   0  0  0  0  0
    5.8450  -24.3460  -14.3330 C   0  0  0  0  0
    5.0650  -26.0130  -12.2760 C   0  0  0  0  0
    5.5090  -25.6590  -14.6010 C   0  0  0  0  0
    5.1200  -26.4880  -13.5690 C   0  0  0  0  0
    4.7850  -27.7970  -13.8320 O   0  0  0  0  0
    6.2290  -20.2920  -15.1260 N   0  0  0  0  0
    6.4950  -20.0000  -16.5300 C   0  0  0  0  0
    7.9850  -19.7780  -16.7670 C   0  0  0  0  0
    8.5900  -18.8800  -16.1810 O   0  0  0  0  0
    5.7050  -18.7660  -16.9730 C   0  0  0  0  0
    4.2190  -19.0110  -17.2390 C   0  0  0  0  0
    3.4820  -17.6910  -17.4010 C   0  0  0  0  0
    4.0340  -19.8810  -18.4730 C   0  0  0  0  0
    8.5700  -20.6010  -17.6290 N   0  0  0  0  0
    9.9910  -20.4950  -17.9450 C   0  0  0  0  0
   10.2060  -19.6820  -19.2160 C   0  0  0  0  0
    9.2230  -19.4720  -19.9580 O   0  0  0  0  0
   10.6040  -21.8860  -18.1060 C   0  0  0  0  0
   10.9580  -22.5210  -16.7740 C   0  0  0  0  0
   10.5980  -23.6980  -16.5620 O   0  0  0  0  0
   11.5950  -21.8390  -15.9440 O   0  0  0  0  0
   11.3570  -19.2600  -19.4600 O   0  0  0  0  0
   -3.8870  -29.9091   -5.8965 H   0  0  0  0  0
   -2.2977  -30.4059   -5.9606 H   0  0  0  0  0
   -3.0848  -30.3185   -4.4945 H   0  0  0  0  0
   -3.2817  -27.9307   -4.6778 H   0  0  0  0  0
   -0.4183  -28.3138   -5.2857 H   0  0  0  0  0
   -1.0985  -29.4260   -4.0105 H   0  0  0  0  0
   -1.3388  -26.4290   -3.9783 H   0  0  0  0  0
   -0.0341  -27.3676   -3.1384 H   0  0  0  0  0
   -2.9676  -28.6974   -3.3293 H   0  0  0  0  0
   -2.1791  -25.9969   -5.6809 H   0  0  0  0  0
   -2.3024  -26.3500   -8.6501 H   0  0  0  0  0
   -4.1019  -24.9631   -7.7535 H   0  0  0  0  0
   -2.9451  -23.9625   -8.7257 H   0  0  0  0  0
   -4.0394  -24.6632   -5.6861 H   0  0  0  0  0
   -0.2623  -26.5782   -9.3330 H   0  0  0  0  0
    1.7469  -24.6759   -8.2418 H   0  0  0  0  0
    2.2728  -27.1617   -9.9212 H   0  0  0  0  0
    1.1148  -27.6063   -7.7431 H   0  0  0  0  0
    2.5893  -26.9012   -6.9340 H   0  0  0  0  0
    4.0660  -25.4955   -9.9545 H   0  0  0  0  0
    4.0776  -25.4565   -8.1742 H   0  0  0  0  0
    4.5597  -26.9386   -9.0355 H   0  0  0  0  0
    2.5062  -29.3283   -8.7299 H   0  0  0  0  0
    3.9460  -28.6398   -7.9398 H   0  0  0  0  0
    2.6394  -29.3415   -6.9541 H   0  0  0  0  0
    1.8386  -22.8645   -9.4133 H   0  0  0  0  0
    1.6750  -23.1327  -12.3869 H   0  0  0  0  0
    1.3253  -20.6034  -12.2413 H   0  0  0  0  0
    1.0461  -20.9038  -10.4634 H   0  0  0  0  0
   -1.1730  -20.9164   -9.8785 H   0  0  0  0  0
   -0.0493  -22.4656  -13.7061 H   0  0  0  0  0
   -3.5288  -21.4830  -10.3411 H   0  0  0  0  0
   -2.4050  -23.0299  -14.1699 H   0  0  0  0  0
   -3.2941  -24.9312  -12.2926 H   0  0  0  0  0
   -3.7147  -23.6439  -10.2739 H   0  0  0  0  0
    3.1330  -22.0133  -13.7219 H   0  0  0  0  0
    5.2984  -20.4398  -12.7573 H   0  0  0  0  0
    6.2209  -22.2942  -11.6671 H   0  0  0  0  0
    7.1061  -22.2004  -13.2605 H   0  0  0  0  0
    5.3569  -24.3236  -10.9939 H   0  0  0  0  0
    6.1529  -23.6940  -15.1504 H   0  0  0  0  0
    4.7578  -26.6706  -11.4628 H   0  0  0  0  0
    5.5510  -26.0379  -15.6222 H   0  0  0  0  0
    4.8753  -27.9665  -14.7726 H   0  0  0  0  0
    6.7580  -19.7990  -14.4066 H   0  0  0  0  0
    6.1768  -20.8585  -17.1215 H   0  0  0  0  0
    6.1425  -18.4335  -17.9143 H   0  0  0  0  0
    5.7640  -18.0452  -16.1575 H   0  0  0  0  0
    3.7981  -19.5368  -16.3820 H   0  0  0  0  0
    3.5868  -17.1035  -16.4889 H   0  0  0  0  0
    3.9063  -17.1400  -18.2403 H   0  0  0  0  0
    2.4264  -17.8865  -17.5895 H   0  0  0  0  0
    4.4710  -19.3809  -19.3374 H   0  0  0  0  0
    4.5289  -20.8397  -18.3176 H   0  0  0  0  0
    2.9700  -20.0436  -18.6451 H   0  0  0  0  0
    8.0125  -21.3254  -18.0817 H   0  0  0  0  0
   10.4839  -19.9819  -17.1193 H   0  0  0  0  0
   11.5217  -21.7847  -18.6854 H   0  0  0  0  0
    9.8692  -22.5231  -18.5982 H   0  0  0  0  0
   10.1250  -24.0298  -17.3287 H   0  0  0  0  0
   11.9532  -19.5371  -18.7605 H   0  0  0  0  0
  1  2  1  0  0  0
  2  3  1  0  0  0
  2  5  1  0  0  0
  3  4  2  0  0  0
  3 10  1  0  0  0
  5  6  1  0  0  0
  6  7  1  0  0  0
  7  8  2  0  0  0
  7  9  1  0  0  0
 10 11  1  0  0  0
 11 12  1  0  0  0
 11 14  1  0  0  0
 12 13  2  0  0  0
 12 18  1  0  0  0
 14 15  1  0  0  0
 15 16  1  0  0  0
 15 17  2  0  0  0
 18 19  1  0  0  0
 19 20  1  0  0  0
 19 22  1  0  0  0
 20 21  2  0  0  0
 20 26  1  0  0  0
 22 23  1  0  0  0
 22 24  1  0  0  0
 23 25  1  0  0  0
 26 27  1  0  0  0
 27 28  1  0  0  0
 27 30  1  0  0  0
 28 29  2  0  0  0
 28 42  1  0  0  0
 30 31  1  0  0  0
 31 32  4  0  0  0
 31 33  4  0  0  0
 32 34  4  0  0  0
 33 35  4  0  0  0
 34 36  4  0  0  0
 35 36  4  0  0  0
 36 37  1  0  0  0
 37 38  1  0  0  0
 38 39  1  0  0  0
 38 40  1  0  0  0
 38 41  2  0  0  0
 42 43  1  0  0  0
 43 44  1  0  0  0
 43 46  1  0  0  0
 44 45  2  0  0  0
 44 54  1  0  0  0
 46 47  1  0  0  0
 47 48  4  0  0  0
 47 49  4  0  0  0
 48 50  4  0  0  0
 49 51  4  0  0  0
 50 52  4  0  0  0
 51 52  4  0  0  0
 52 53  1  0  0  0
 54 55  1  0  0  0
 55 56  1  0  0  0
 55 58  1  0  0  0
 56 57  2  0  0  0
 56 62  1  0  0  0
 58 59  1  0  0  0
 59 60  1  0  0  0
 59 61  1  0  0  0
 62 63  1  0  0  0
 63 64  1  0  0  0
 63 66  1  0  0  0
 64 65  2  0  0  0
 64 70  1  0  0  0
 66 67  1  0  0  0
 67 68  1  0  0  0
 67 69  2  0  0  0
  1 71  1  0  0  0
  1 72  1  0  0  0
  1 73  1  0  0  0
  2 74  1  0  0  0
  5 75  1  0  0  0
  5 76  1  0  0  0
  6 77  1  0  0  0
  6 78  1  0  0  0
  9 79  1  0  0  0
 10 80  1  0  0  0
 11 81  1  0  0  0
 14 82  1  0  0  0
 14 83  1  0  0  0
 16 84  1  0  0  0
 18 85  1  0  0  0
 19 86  1  0  0  0
 22 87  1  0  0  0
 23 88  1  0  0  0
 23 89  1  0  0  0
 24 90  1  0  0  0
 24 91  1  0  0  0
 24 92  1  0  0  0
 25 93  1  0  0  0
 25 94  1  0  0  0
 25 95  1  0  0  0
 26 96  1  0  0  0
 27 97  1  0  0  0
 30 98  1  0  0  0
 30 99  1  0  0  0
 32100  1  0  0  0
 33101  1  0  0  0
 34102  1  0  0  0
 35103  1  0  0  0
 39104  1  0  0  0
 40105  1  0  0  0
 42106  1  0  0  0
 43107  1  0  0  0
 46108  1  0  0  0
 46109  1  0  0  0
 48110  1  0  0  0
 49111  1  0  0  0
 50112  1  0  0  0
 51113  1  0  0  0
 53114  1  0  0  0
 54115  1  0  0  0
 55116  1  0  0  0
 58117  1  0  0  0
 58118  1  0  0  0
 59119  1  0  0  0
 60120  1  0  0  0
 60121  1  0  0  0
 60122  1  0  0  0
 61123  1  0  0  0
 61124  1  0  0  0
 61125  1  0  0  0
 62126  1  0  0  0
 63127  1  0  0  0
 66128  1  0  0  0
 66129  1  0  0  0
 68130  1  0  0  0
 70131  1  0  0  0
M  END
$$$$
