### 
### Created by X-TOOL on Mon Sep 10 21:12:48 2018
### 

@<TRIPOS>MOLECULE
1j4k_ligand
  125   126     1     0     0
SMALL
GAST_HUCK


@<TRIPOS>ATOM
      1 N          -2.9880  -29.8900   -5.4150 N.4       1 GLU         0.2380
      2 CA         -2.5410  -28.4800   -5.2590 C.3       1 GLU         0.0665
      3 C          -2.4170  -27.7880   -6.6120 C.2       1 GLU         0.2269
      4 O          -2.4890  -28.4310   -7.6590 O.2       1 GLU        -0.3907
      5 CB         -1.1920  -28.4750   -4.5350 C.3       1 GLU         0.0194
      6 CG         -1.0620  -27.3690   -3.5010 C.3       1 GLU         0.0075
      7 CD         -1.9770  -27.5750   -2.3100 C.2       1 GLU         0.0351
      8 OE1        -1.7160  -26.9700   -1.2490 O.co2     1 GLU        -0.5690
      9 OE2        -2.9560  -28.3410   -2.4380 O.co2     1 GLU        -0.5690
     10 H1         -3.0611  -30.3217   -4.5071 H         1 GLU         0.2015
     11 H2         -2.3183  -30.3949   -5.9741 H         1 GLU         0.2015
     12 H3         -3.8875  -29.9090   -5.8694 H         1 GLU         0.2015
     13 H4         -3.2791  -27.9355   -4.6518 H         1 GLU         0.1099
     14 H5         -0.3959  -28.3471   -5.2832 H         1 GLU         0.0363
     15 H6         -1.0660  -29.4426   -4.0272 H         1 GLU         0.0363
     16 H7         -1.3139  -26.4099   -3.9772 H         1 GLU         0.0434
     17 H8         -0.0216  -27.3397   -3.1452 H         1 GLU         0.0434
     18 N          -2.2300  -26.4720   -6.5820 N.am      1 ASP        -0.2595
     19 CA         -2.0960  -25.6920   -7.8060 C.3       1 ASP         0.1424
     20 C          -0.6780  -25.1470   -7.9520 C.2       1 ASP         0.2056
     21 O          -0.3060  -24.1760   -7.2940 O.2       1 ASP        -0.3943
     22 CB         -3.1000  -24.5380   -7.8130 C.3       1 ASP         0.0406
     23 CG         -2.9170  -23.6040   -6.6340 C.2       1 ASP         0.0393
     24 OD1        -3.5230  -23.8620   -5.5720 O.co2     1 ASP        -0.5688
     25 OD2        -2.1680  -22.6140   -6.7700 O.co2     1 ASP        -0.5688
     26 H9         -2.1801  -26.0062   -5.6985 H         1 ASP         0.1886
     27 H10        -2.3084  -26.3486   -8.6626 H         1 ASP         0.0819
     28 H11        -4.1173  -24.9550   -7.7783 H         1 ASP         0.0478
     29 H12        -2.9707  -23.9633   -8.7419 H         1 ASP         0.0478
     30 N           0.1070  -25.7790   -8.8180 N.am      1 ILE        -0.2634
     31 CA          1.4830  -25.3580   -9.0500 C.3       1 ILE         0.1335
     32 C           1.6170  -24.6350  -10.3850 C.2       1 ILE         0.2044
     33 O           1.5570  -25.2550  -11.4470 O.2       1 ILE        -0.3944
     34 CB          2.4480  -26.5590   -9.0300 C.3       1 ILE        -0.0037
     35 CG1         2.1890  -27.4300   -7.7990 C.3       1 ILE        -0.0491
     36 CG2         3.8910  -26.0780   -9.0500 C.3       1 ILE        -0.0582
     37 CD1         2.8680  -28.7800   -7.8600 C.3       1 ILE        -0.0648
     38 H13        -0.2551  -26.5626   -9.3229 H         1 ILE         0.1883
     39 H14         1.7698  -24.6652   -8.2452 H         1 ILE         0.0803
     40 H15         2.2699  -27.1656   -9.9302 H         1 ILE         0.0345
     41 H16         1.1045  -27.5898   -7.7078 H         1 ILE         0.0267
     42 H17         2.5569  -26.8954   -6.9108 H         1 ILE         0.0267
     43 H18         4.0573  -25.4545   -9.9408 H         1 ILE         0.0235
     44 H19         4.5664  -26.9457   -9.0785 H         1 ILE         0.0235
     45 H20         4.0927  -25.4858   -8.1452 H         1 ILE         0.0235
     46 H21         2.6381  -29.3477   -6.9463 H         1 ILE         0.0230
     47 H22         3.9561  -28.6399   -7.9405 H         1 ILE         0.0230
     48 H23         2.5037  -29.3344   -8.7375 H         1 ILE         0.0230
     49 N           1.7980  -23.3200  -10.3250 N.am      1 PTR        -0.2607
     50 CA          1.9400  -22.5120  -11.5310 C.3       1 PTR         0.1468
     51 C           3.3800  -22.0400  -11.7050 C.2       1 PTR         0.2075
     52 O           4.1070  -21.8580  -10.7290 O.2       1 PTR        -0.3941
     53 CB          1.0000  -21.3070  -11.4750 C.3       1 PTR         0.0400
     54 CG         -0.4450  -21.6510  -11.7600 C.ar      1 PTR        -0.0004
     55 CD1        -1.4390  -21.3830  -10.8270 C.ar      1 PTR        -0.0239
     56 CD2        -0.8130  -22.2460  -12.9600 C.ar      1 PTR        -0.0239
     57 CE1        -2.7600  -21.6990  -11.0830 C.ar      1 PTR         0.0115
     58 CE2        -2.1320  -22.5640  -13.2230 C.ar      1 PTR         0.0115
     59 CZ         -3.1000  -22.2890  -12.2820 C.ar      1 PTR         0.1728
     60 OH         -4.4380  -22.6100  -12.5440 O.3       1 PTR        -0.2040
     61 P          -5.0340  -23.8800  -11.8600 P.3       1 PTR         0.1348
     62 O1P        -4.2300  -25.0640  -12.4600 O.co2     1 PTR        -0.6653
     63 O2P        -4.6670  -23.7270  -10.3620 O.co2     1 PTR        -0.6653
     64 O3P        -6.5110  -24.0160  -12.0820 O.co2     1 PTR        -0.6653
     65 H24         1.8378  -22.8734   -9.4312 H         1 PTR         0.1886
     66 H25         1.6677  -23.1307  -12.3988 H         1 PTR         0.0840
     67 H26         1.3351  -20.5699  -12.2196 H         1 PTR         0.0584
     68 H27         1.0603  -20.8657  -10.4692 H         1 PTR         0.0584
     69 H28        -1.1744  -20.9189   -9.8838 H         1 PTR         0.0703
     70 H29        -0.0535  -22.4644  -13.7020 H         1 PTR         0.0703
     71 H30        -3.5246  -21.4842  -10.3452 H         1 PTR         0.0736
     72 H31        -2.4035  -23.0273  -14.1646 H         1 PTR         0.0736
     73 N           3.7850  -21.8440  -12.9560 N.am      1 TYR        -0.2619
     74 CA          5.1380  -21.3930  -13.2610 C.3       1 TYR         0.1390
     75 C           5.3150  -21.1840  -14.7610 C.2       1 TYR         0.2057
     76 O           4.6370  -21.8190  -15.5700 O.2       1 TYR        -0.3942
     77 CB          6.1650  -22.4050  -12.7500 C.3       1 TYR         0.0163
     78 CG          5.7970  -23.8430  -13.0390 C.ar      1 TYR        -0.0493
     79 CD1         5.4020  -24.6970  -12.0170 C.ar      1 TYR        -0.0685
     80 CD2         5.8450  -24.3460  -14.3330 C.ar      1 TYR        -0.0685
     81 CE1         5.0650  -26.0130  -12.2760 C.ar      1 TYR        -0.0398
     82 CE2         5.5090  -25.6590  -14.6010 C.ar      1 TYR        -0.0398
     83 CZ          5.1200  -26.4880  -13.5690 C.ar      1 TYR         0.0805
     84 OH          4.7850  -27.7970  -13.8320 O.3       1 TYR        -0.3376
     85 H32         3.1457  -22.0100  -13.7069 H         1 TYR         0.1885
     86 H33         5.3078  -20.4328  -12.7519 H         1 TYR         0.0821
     87 H34         6.2606  -22.2831  -11.6610 H         1 TYR         0.0453
     88 H35         7.1317  -22.1909  -13.2292 H         1 TYR         0.0453
     89 H36         5.3572  -24.3257  -10.9996 H         1 TYR         0.0530
     90 H37         6.1512  -23.6976  -15.1459 H         1 TYR         0.0530
     91 H38         4.7595  -26.6670  -11.4673 H         1 TYR         0.0525
     92 H39         5.5508  -26.0358  -15.6165 H         1 TYR         0.0525
     93 H40         4.5420  -28.2294  -13.0218 H         1 TYR         0.2458
     94 N           6.2290  -20.2920  -15.1260 N.am      1 LEU        -0.2636
     95 CA          6.4950  -20.0000  -16.5300 C.3       1 LEU         0.1312
     96 C           7.9850  -19.7780  -16.7670 C.2       1 LEU         0.2034
     97 O           8.5900  -18.8800  -16.1810 O.2       1 LEU        -0.3944
     98 CB          5.7050  -18.7660  -16.9730 C.3       1 LEU        -0.0101
     99 CG          4.2190  -19.0110  -17.2390 C.3       1 LEU        -0.0425
    100 CD1         3.4820  -17.6910  -17.4010 C.3       1 LEU        -0.0625
    101 CD2         4.0340  -19.8810  -18.4730 C.3       1 LEU        -0.0625
    102 H41         6.7476  -19.8087  -14.4207 H         1 LEU         0.1883
    103 H42         6.1698  -20.8608  -17.1327 H         1 LEU         0.0800
    104 H43         6.1591  -18.3846  -17.8995 H         1 LEU         0.0315
    105 H44         5.7893  -18.0052  -16.1831 H         1 LEU         0.0315
    106 H45         3.7945  -19.5415  -16.3739 H         1 LEU         0.0298
    107 H46         2.4165  -17.8870  -17.5913 H         1 LEU         0.0232
    108 H47         3.9093  -17.1340  -18.2478 H         1 LEU         0.0232
    109 H48         3.5870  -17.0971  -16.4811 H         1 LEU         0.0232
    110 H49         4.5736  -20.8298  -18.3369 H         1 LEU         0.0232
    111 H50         4.4314  -19.3564  -19.3544 H         1 LEU         0.0232
    112 H51         2.9633  -20.0860  -18.6200 H         1 LEU         0.0232
    113 N           8.5700  -20.6010  -17.6290 N.am      1 ASP        -0.2679
    114 CA          9.9910  -20.4950  -17.9450 C.3       1 ASP         0.1057
    115 C          10.2060  -19.6820  -19.2160 C.2       1 ASP         0.0618
    116 O           9.2230  -19.4720  -19.9580 O.co2     1 ASP        -0.5665
    117 CB         10.6040  -21.8860  -18.1060 C.3       1 ASP         0.0351
    118 CG         10.9580  -22.5210  -16.7740 C.2       1 ASP         0.0387
    119 OD1        10.5980  -23.6980  -16.5620 O.co2     1 ASP        -0.5688
    120 OD2        11.5950  -21.8390  -15.9440 O.co2     1 ASP        -0.5688
    121 OXT        11.3570  -19.2600  -19.4600 O.co2     1 ASP        -0.5665
    122 H52         8.0235  -21.3112  -18.0728 H         1 ASP         0.1876
    123 H53        10.4956  -19.9826  -17.1127 H         1 ASP         0.0745
    124 H54        11.5189  -21.8008  -18.7107 H         1 ASP         0.0471
    125 H55         9.8808  -22.5327  -18.6243 H         1 ASP         0.0471
@<TRIPOS>BOND
     1    1    2 1  
     2    1   10 1  
     3    1   11 1  
     4    1   12 1  
     5    2    3 1  
     6    2    5 1  
     7    2   13 1  
     8    3    4 2  
     9    3   18 am 
    10    5    6 1  
    11    5   14 1  
    12    5   15 1  
    13    6    7 1  
    14    6   16 1  
    15    6   17 1  
    16    7    8 ar 
    17    7    9 ar 
    18   18   19 1  
    19   18   26 1  
    20   19   20 1  
    21   19   22 1  
    22   19   27 1  
    23   20   21 2  
    24   20   30 am 
    25   22   23 1  
    26   22   28 1  
    27   22   29 1  
    28   23   24 ar 
    29   23   25 ar 
    30   30   31 1  
    31   30   38 1  
    32   31   32 1  
    33   31   34 1  
    34   31   39 1  
    35   32   33 2  
    36   32   49 am 
    37   34   35 1  
    38   34   36 1  
    39   34   40 1  
    40   35   37 1  
    41   35   41 1  
    42   35   42 1  
    43   36   43 1  
    44   36   44 1  
    45   36   45 1  
    46   37   46 1  
    47   37   47 1  
    48   37   48 1  
    49   49   50 1  
    50   49   65 1  
    51   50   51 1  
    52   50   53 1  
    53   50   66 1  
    54   51   52 2  
    55   51   73 am 
    56   53   54 1  
    57   53   67 1  
    58   53   68 1  
    59   54   55 ar 
    60   54   56 ar 
    61   55   57 ar 
    62   55   69 1  
    63   56   58 ar 
    64   56   70 1  
    65   57   59 ar 
    66   57   71 1  
    67   58   59 ar 
    68   58   72 1  
    69   59   60 1  
    70   60   61 1  
    71   61   62 ar 
    72   61   63 ar 
    73   61   64 ar 
    74   73   74 1  
    75   73   85 1  
    76   74   75 1  
    77   74   77 1  
    78   74   86 1  
    79   75   76 2  
    80   75   94 am 
    81   77   78 1  
    82   77   87 1  
    83   77   88 1  
    84   78   79 ar 
    85   78   80 ar 
    86   79   81 ar 
    87   79   89 1  
    88   80   82 ar 
    89   80   90 1  
    90   81   83 ar 
    91   81   91 1  
    92   82   83 ar 
    93   82   92 1  
    94   83   84 1  
    95   84   93 1  
    96   94   95 1  
    97   94  102 1  
    98   95   96 1  
    99   95   98 1  
   100   95  103 1  
   101   96   97 2  
   102   96  113 am 
   103   98   99 1  
   104   98  104 1  
   105   98  105 1  
   106   99  100 1  
   107   99  101 1  
   108   99  106 1  
   109  100  107 1  
   110  100  108 1  
   111  100  109 1  
   112  101  110 1  
   113  101  111 1  
   114  101  112 1  
   115  113  114 1  
   116  113  122 1  
   117  114  115 1  
   118  114  117 1  
   119  114  123 1  
   120  115  116 ar 
   121  115  121 ar 
   122  117  118 1  
   123  117  124 1  
   124  117  125 1  
   125  118  119 ar 
   126  118  120 ar 
@<TRIPOS>SUBSTRUCTURE
     1 GLU         1

