6orr_ligand
  -I-interpret- 

 65 68  0  0  0  0  0  0  0  0999 V2000
   -3.9430   -2.8230   -9.4840 C   0  0  0  0  0
   -5.9840   -2.6890   -8.6870 C   0  0  0  0  0
   -5.6590   -1.8560  -10.8110 C   0  0  0  0  0
   -4.3460   -2.2060  -10.7090 C   0  0  0  0  0
   -2.1700   -2.6780  -10.7920 C   0  0  0  0  0
   -1.9260   -3.6460   -8.6630 C   0  0  0  0  0
   -1.0190   -4.6940   -9.2070 C   0  0  0  0  0
    0.0900   -4.7720   -8.2490 C   0  0  0  0  0
    0.0690   -3.5040   -7.4610 C   0  0  0  0  0
    1.3790   -2.8010   -7.5890 C   0  0  0  0  0
    2.3700   -3.3580   -6.5670 C   0  0  0  0  0
    1.7090   -3.4460   -5.1910 C   0  0  0  0  0
    2.7900   -3.5720   -4.1170 C   0  0  0  0  0
    2.1560   -3.8330   -2.7520 C   0  0  0  0  0
    3.1380   -3.4050   -1.6650 C   0  0  0  0  0
    3.5780   -2.4280   -6.4910 C   0  0  0  0  0
    4.5020   -1.6890   -6.4340 C   0  0  0  0  0
    5.6750   -0.7160   -6.3750 C   0  0  0  0  0
    6.8320   -1.0500   -5.6900 C   0  0  0  0  0
    7.8910   -0.1560   -5.6460 C   0  0  0  0  0
    7.7910    1.0690   -6.2850 C   0  0  0  0  0
    6.6330    1.4010   -6.9700 C   0  0  0  0  0
    5.5760    0.5090   -7.0140 C   0  0  0  0  0
    6.5160    2.7490   -7.6790 C   0  0  0  0  0
   -2.7000   -3.0280   -9.6830 N   0  0  0  0  0
   -4.7230   -3.0860   -8.4460 N   0  0  0  0  0
   -6.4610   -2.1040   -9.7950 N   0  0  0  0  0
   -6.1680   -1.2230  -12.0130 N   0  0  0  0  0
   -3.1100   -2.1150  -11.5960 N   0  0  0  0  0
    0.9190   -3.0820   -2.6250 N   0  3  0  0  0
    5.2110    3.3330   -7.9230 N   0  0  0  0  0
   -1.0300   -2.6780   -7.9960 O   0  0  0  0  0
   -1.6990   -5.9610   -9.2750 O   0  0  0  0  0
   -0.1160   -5.8880   -7.3610 O   0  0  0  0  0
    2.7210   -2.8250   -0.6280 O   0  0  0  0  0
    4.3690   -3.6340   -1.8110 O   0  0  0  0  0
    7.4920    3.3170   -8.0340 O   0  0  0  0  0
   -6.7039   -2.8631   -7.8873 H   0  0  0  0  0
   -1.1204   -2.8112  -11.0540 H   0  0  0  0  0
   -2.6582   -4.0669   -7.9739 H   0  0  0  0  0
   -0.6806   -4.4557  -10.2154 H   0  0  0  0  0
    1.0426   -4.9055   -8.7617 H   0  0  0  0  0
   -0.0906   -3.7014   -6.4010 H   0  0  0  0  0
    1.2350   -1.7360   -7.4068 H   0  0  0  0  0
    1.7733   -2.9553   -8.5934 H   0  0  0  0  0
    2.6849   -4.3556   -6.8731 H   0  0  0  0  0
    1.0563   -4.3182   -5.1553 H   0  0  0  0  0
    1.1199   -2.5467   -5.0114 H   0  0  0  0  0
    3.3572   -2.6423   -4.0732 H   0  0  0  0  0
    3.4458   -4.4053   -4.3692 H   0  0  0  0  0
    1.9292   -4.8942   -2.6491 H   0  0  0  0  0
    6.9097   -2.0137   -5.1866 H   0  0  0  0  0
    8.8025   -0.4172   -5.1084 H   0  0  0  0  0
    8.6233    1.7719   -6.2490 H   0  0  0  0  0
    4.6648    0.7705   -7.5519 H   0  0  0  0  0
   -5.5408   -1.0348  -12.7950 H   0  0  0  0  0
   -7.1531   -0.9661  -12.0761 H   0  0  0  0  0
    0.5047   -3.2636   -1.7108 H   0  0  0  0  0
    1.1164   -2.0856   -2.7183 H   0  0  0  0  0
    0.2703   -3.3713   -3.3571 H   0  0  0  0  0
    5.1354    4.2316   -8.3997 H   0  0  0  0  0
    4.3688    2.8451   -7.6179 H   0  0  0  0  0
   -2.4224   -5.9014   -9.9033 H   0  0  0  0  0
    0.6108   -5.9364   -6.7357 H   0  0  0  0  0
    4.5134   -4.0787   -2.6494 H   0  0  0  0  0
  1  4  4  0  0  0
 25  1  4  0  0  0
  1 26  4  0  0  0
 26  2  4  0  0  0
  2 27  4  0  0  0
  4  3  4  0  0  0
  3 27  4  0  0  0
  3 28  1  0  0  0
 29  4  4  0  0  0
 25  5  4  0  0  0
  5 29  4  0  0  0
  6  7  1  0  0  0
  6 25  1  0  0  0
  6 32  1  0  0  0
  7  8  1  0  0  0
  7 33  1  0  0  0
  8  9  1  0  0  0
  8 34  1  0  0  0
  9 10  1  0  0  0
  9 32  1  0  0  0
 10 11  1  0  0  0
 11 12  1  0  0  0
 11 16  1  0  0  0
 12 13  1  0  0  0
 13 14  1  0  0  0
 14 15  1  0  0  0
 14 30  1  0  0  0
 15 35  2  0  0  0
 15 36  1  0  0  0
 16 17  3  0  0  0
 17 18  1  0  0  0
 18 19  4  0  0  0
 18 23  4  0  0  0
 19 20  4  0  0  0
 20 21  4  0  0  0
 21 22  4  0  0  0
 22 23  4  0  0  0
 22 24  1  0  0  0
 24 31  1  0  0  0
 24 37  2  0  0  0
  2 38  1  0  0  0
  5 39  1  0  0  0
  6 40  1  0  0  0
  7 41  1  0  0  0
  8 42  1  0  0  0
  9 43  1  0  0  0
 10 44  1  0  0  0
 10 45  1  0  0  0
 11 46  1  0  0  0
 12 47  1  0  0  0
 12 48  1  0  0  0
 13 49  1  0  0  0
 13 50  1  0  0  0
 14 51  1  0  0  0
 19 52  1  0  0  0
 20 53  1  0  0  0
 21 54  1  0  0  0
 23 55  1  0  0  0
 28 56  1  0  0  0
 28 57  1  0  0  0
 30 58  1  0  0  0
 30 59  1  0  0  0
 30 60  1  0  0  0
 31 61  1  0  0  0
 31 62  1  0  0  0
 33 63  1  0  0  0
 34 64  1  0  0  0
 36 65  1  0  0  0
M  END
$$$$
