3hk1_ligand
  -I-interpret- 

 35 36  0  0  0  0  0  0  0  0999 V2000
   10.2870   19.4680   -2.7600 C   0  0  0  0  0
   11.5380   18.6230   -2.7280 C   0  0  0  0  0
   11.9650   18.1150   -4.0930 C   0  0  0  0  0
   10.3950   20.5690   -2.2000 O   0  0  0  0  0
    9.2250   19.0740   -3.3220 O   0  0  0  0  0
   11.3120   20.2010   -5.3400 O   0  0  0  0  0
   12.8070   18.7190   -6.2890 N   0  0  0  0  0
   12.9560   19.3520   -7.4870 C   0  0  0  0  0
   13.9350   18.7420   -8.3870 C   0  0  0  0  0
   13.9610   19.6590   -9.8820 S   0  0  0  0  0
   12.6220   20.6750   -9.3110 C   0  0  0  0  0
   12.1850   20.4130   -8.0030 C   0  0  0  0  0
   14.8620   17.6370   -8.1270 C   0  0  0  0  0
   15.7540   17.2440   -9.1790 O   0  0  0  0  0
   16.6570   16.1790   -8.8820 C   0  0  0  0  0
   14.9240   17.1030   -7.0200 O   0  0  0  0  0
   12.1090   21.7390  -10.2140 C   0  0  0  0  0
   11.1580   22.7110   -9.9010 C   0  0  0  0  0
   10.9470   23.5530  -11.0240 C   0  0  0  0  0
   11.7010   23.2960  -12.1910 C   0  0  0  0  0
   12.6660   21.8290  -11.8870 S   0  0  0  0  0
   12.0340   19.1870   -5.2510 C   0  0  0  0  0
   11.3278   17.7523   -2.1069 H   0  0  0  0  0
   12.3446   19.2486   -2.3457 H   0  0  0  0  0
   11.2096   17.3900   -4.3962 H   0  0  0  0  0
   12.9794   17.7354   -3.9710 H   0  0  0  0  0
    9.3643   18.1976   -3.6882 H   0  0  0  0  0
   13.3025   17.8379   -6.1525 H   0  0  0  0  0
   11.3878   20.9388   -7.4776 H   0  0  0  0  0
   17.2915   16.4656   -8.0433 H   0  0  0  0  0
   16.0898   15.2854   -8.6214 H   0  0  0  0  0
   17.2768   15.9757   -9.7553 H   0  0  0  0  0
   10.6536   22.8088   -8.9397 H   0  0  0  0  0
   10.2272   24.3707  -10.9874 H   0  0  0  0  0
   11.6938   23.8859  -13.1076 H   0  0  0  0  0
  2  1  1  0  0  0
  1  4  2  0  0  0
  1  5  1  0  0  0
  3  2  1  0  0  0
 22  3  1  0  0  0
 22  6  2  0  0  0
  7  8  1  0  0  0
  7 22  1  0  0  0
  8  9  4  0  0  0
  8 12  4  0  0  0
  9 10  4  0  0  0
  9 13  1  0  0  0
 10 11  4  0  0  0
 11 12  4  0  0  0
 11 17  1  0  0  0
 13 14  1  0  0  0
 13 16  2  0  0  0
 14 15  1  0  0  0
 17 18  4  0  0  0
 17 21  4  0  0  0
 18 19  4  0  0  0
 19 20  4  0  0  0
 20 21  4  0  0  0
  2 23  1  0  0  0
  2 24  1  0  0  0
  3 25  1  0  0  0
  3 26  1  0  0  0
  5 27  1  0  0  0
  7 28  1  0  0  0
 12 29  1  0  0  0
 15 30  1  0  0  0
 15 31  1  0  0  0
 15 32  1  0  0  0
 18 33  1  0  0  0
 19 34  1  0  0  0
 20 35  1  0  0  0
M  END
$$$$
