3g2w_ligand
  -I-interpret- 

150149  0  0  0  0  0  0  0  0999 V2000
   -8.4790   -4.6330   -3.9980 N   0  3  0  0  0
   -9.8730   -4.2690   -4.0340 C   0  0  0  0  0
  -10.7610   -5.4700   -4.1630 C   0  0  0  0  0
  -11.8860   -5.4090   -3.7160 O   0  0  0  0  0
  -10.1800   -3.3270   -5.1870 C   0  0  0  0  0
  -11.6250   -3.5430   -5.6380 C   0  0  0  0  0
  -12.4910   -2.3030   -5.4870 C   0  0  0  0  0
  -11.7600   -4.1530   -7.0330 C   0  0  0  0  0
  -10.3260   -6.5710   -4.7730 N   0  0  0  0  0
  -11.3640   -7.5820   -4.9360 C   0  0  0  0  0
  -11.2940   -8.7820   -3.9980 C   0  0  0  0  0
  -11.9860   -8.7800   -2.9830 O   0  0  0  0  0
  -11.5830   -7.9670   -6.4030 C   0  0  0  0  0
  -12.9720   -7.6120   -6.9470 C   0  0  0  0  0
  -13.1510   -8.0380   -8.4020 C   0  0  0  0  0
  -14.0650   -8.1990   -6.0490 C   0  0  0  0  0
  -10.5020   -9.8070   -4.3090 N   0  0  0  0  0
   -9.3700   -9.7210   -5.2260 C   0  0  0  0  0
   -9.4550  -10.7560   -6.3580 C   0  0  0  0  0
  -10.5390  -11.2200   -6.7120 O   0  0  0  0  0
   -8.0530   -9.7570   -4.4280 C   0  0  0  0  0
   -7.2110  -10.9970   -4.6800 C   0  0  0  0  0
   -6.3710  -10.9200   -5.5880 O   0  0  0  0  0
   -7.1760  -11.9240   -3.8420 O   0  0  0  0  0
   -8.3260  -11.0420   -6.9920 N   0  0  0  0  0
   -8.2840  -11.9420   -8.1330 C   0  0  0  0  0
   -8.5490  -13.3880   -7.7220 C   0  0  0  0  0
   -8.6410  -13.7250   -6.5470 O   0  0  0  0  0
   -6.8930  -11.8840   -8.7630 C   0  0  0  0  0
   -6.8280  -11.0170  -10.0110 C   0  0  0  0  0
   -7.4090   -9.9080  -10.0350 O   0  0  0  0  0
   -6.0360  -11.3880  -10.9050 O   0  0  0  0  0
   -8.5910  -14.2670   -8.7090 N   0  0  0  0  0
   -8.5840  -15.6890   -8.4390 C   0  0  0  0  0
   -7.1770  -16.2030   -8.7340 C   0  0  0  0  0
   -6.4600  -15.6420   -9.5620 O   0  0  0  0  0
   -9.6250  -16.3710   -9.3350 C   0  0  0  0  0
  -10.2660  -17.6360   -8.7610 C   0  0  0  0  0
  -11.3020  -17.3550   -7.6720 C   0  0  0  0  0
  -11.5150  -18.2480   -6.8220 O   0  0  0  0  0
  -11.9050  -16.2570   -7.6520 O   0  0  0  0  0
   -6.7620  -17.2350   -8.0070 N   0  0  0  0  0
   -5.5280  -17.9430   -8.3090 C   0  0  0  0  0
   -5.5360  -18.4180   -9.7620 C   0  0  0  0  0
   -6.5110  -19.0260  -10.2280 O   0  0  0  0  0
   -5.4300  -19.1640   -7.3990 C   0  0  0  0  0
   -4.1390  -19.5750   -6.6920 C   0  0  0  0  0
   -4.1790  -21.0660   -6.3950 C   0  0  0  0  0
   -2.8600  -19.1640   -7.3870 C   0  0  0  0  0
   -4.4070  -18.2140  -10.4350 N   0  0  0  0  0
   -3.9950  -19.0300  -11.5730 C   0  0  0  0  0
   -4.1560  -20.5410  -11.4100 C   0  0  0  0  0
   -4.0610  -21.0940  -10.3150 O   0  0  0  0  0
   -2.5400  -18.7300  -11.9210 C   0  0  0  0  0
   -2.3230  -17.3730  -12.5730 C   0  0  0  0  0
   -0.7210  -17.3090  -13.4080 S   0  0  0  0  0
   -1.0870  -16.1240  -14.7040 C   0  0  0  0  0
   -4.3240  -21.2310  -12.5320 N   0  0  0  0  0
   -3.8090  -22.5900  -12.6350 C   0  0  0  0  0
   -2.6020  -22.5070  -13.5510 C   0  0  0  0  0
   -2.7040  -21.9980  -14.6670 O   0  0  0  0  0
   -4.8560  -23.5440  -13.2140 C   0  0  0  0  0
   -6.1640  -23.0040  -13.1170 O   0  0  0  0  0
   -1.4940  -22.9880  -13.0510 N   0  0  0  0  0
   -0.3040  -23.1880  -13.8400 C   0  0  0  0  0
    0.8130  -22.2940  -13.3970 C   0  0  0  0  0
    1.7010  -22.7730  -12.7210 O   0  0  0  0  0
   -0.5870  -23.0720  -15.3400 C   0  0  0  0  0
   -0.0150  -24.1940  -16.2380 C   0  0  0  0  0
    0.3960  -25.4720  -15.4920 C   0  0  0  0  0
   -0.9220  -24.5110  -17.4180 C   0  0  0  0  0
    1.0120  -20.9350  -13.1930 O   0  0  0  0  0
   -8.3136   -5.2635   -3.2134 H   0  0  0  0  0
   -8.2281   -5.0998   -4.8695 H   0  0  0  0  0
   -7.9122   -3.7925   -3.8856 H   0  0  0  0  0
  -10.0729   -3.7675   -3.0871 H   0  0  0  0  0
   -9.5027   -3.5297   -6.0166 H   0  0  0  0  0
  -10.0474   -2.2949   -4.8626 H   0  0  0  0  0
  -12.0093   -4.2903   -4.9438 H   0  0  0  0  0
  -12.1868   -1.5573   -6.2215 H   0  0  0  0  0
  -13.5356   -2.5691   -5.6486 H   0  0  0  0  0
  -12.3694   -1.8965   -4.4830 H   0  0  0  0  0
  -12.7989   -4.4334   -7.2066 H   0  0  0  0  0
  -11.4501   -3.4217   -7.7795 H   0  0  0  0  0
  -11.1269   -5.0374   -7.1043 H   0  0  0  0  0
   -9.3655   -6.6944   -5.0933 H   0  0  0  0  0
  -12.2676   -7.0751   -4.5975 H   0  0  0  0  0
  -11.4793   -9.0500   -6.4696 H   0  0  0  0  0
  -10.8551   -7.4102   -6.9932 H   0  0  0  0  0
  -13.0630   -6.5259   -6.9324 H   0  0  0  0  0
  -12.4072   -7.5357   -9.0205 H   0  0  0  0  0
  -13.0225   -9.1175   -8.4816 H   0  0  0  0  0
  -14.1507   -7.7640   -8.7391 H   0  0  0  0  0
  -13.9631   -9.2837   -6.0165 H   0  0  0  0  0
  -13.9635   -7.7930   -5.0426 H   0  0  0  0  0
  -15.0436   -7.9366   -6.4511 H   0  0  0  0  0
  -10.6995  -10.7103   -3.8784 H   0  0  0  0  0
   -9.4004   -8.7630   -5.7450 H   0  0  0  0  0
   -8.3158   -9.7542   -3.3702 H   0  0  0  0  0
   -7.4621   -8.8960   -4.7404 H   0  0  0  0  0
   -7.9000  -11.8194   -3.2203 H   0  0  0  0  0
   -7.4576  -10.6161   -6.6682 H   0  0  0  0  0
   -9.0566  -11.6251   -8.8336 H   0  0  0  0  0
   -6.6228  -12.8989   -9.0547 H   0  0  0  0  0
   -6.2175  -11.4490   -8.0263 H   0  0  0  0  0
   -7.9682   -9.8241   -9.2592 H   0  0  0  0  0
   -8.6289  -13.9384   -9.6739 H   0  0  0  0  0
   -8.8400  -15.9053   -7.4018 H   0  0  0  0  0
   -9.1014  -16.6740  -10.2417 H   0  0  0  0  0
  -10.4319  -15.6515   -9.4741 H   0  0  0  0  0
   -9.4710  -18.2307   -8.3111 H   0  0  0  0  0
  -10.7792  -18.1428   -9.5782 H   0  0  0  0  0
  -11.6020  -15.7134   -8.3829 H   0  0  0  0  0
   -7.3257  -17.5397   -7.2134 H   0  0  0  0  0
   -4.6818  -17.2741   -8.1520 H   0  0  0  0  0
   -5.6156  -19.9954   -8.0790 H   0  0  0  0  0
   -6.0952  -18.9116   -6.5732 H   0  0  0  0  0
   -4.1063  -19.0110   -5.7598 H   0  0  0  0  0
   -5.0321  -21.2845   -5.7527 H   0  0  0  0  0
   -4.2751  -21.6189   -7.3295 H   0  0  0  0  0
   -3.2583  -21.3595   -5.8907 H   0  0  0  0  0
   -2.8262  -19.6144   -8.3790 H   0  0  0  0  0
   -2.8304  -18.0782   -7.4783 H   0  0  0  0  0
   -2.0050  -19.5042   -6.8027 H   0  0  0  0  0
   -3.7990  -17.4495  -10.1413 H   0  0  0  0  0
   -4.6814  -18.7474  -12.3712 H   0  0  0  0  0
   -2.2176  -19.4863  -12.6366 H   0  0  0  0  0
   -1.9785  -18.7318  -10.9867 H   0  0  0  0  0
   -2.3470  -16.6045  -11.8004 H   0  0  0  0  0
   -3.1095  -17.2076  -13.3094 H   0  0  0  0  0
   -1.8953  -16.5069  -15.3269 H   0  0  0  0  0
   -1.3896  -15.1781  -14.2548 H   0  0  0  0  0
   -0.1977  -15.9695  -15.3150 H   0  0  0  0  0
   -4.8135  -20.8097  -13.3215 H   0  0  0  0  0
   -3.5477  -22.9825  -11.6523 H   0  0  0  0  0
   -4.8246  -24.4748  -12.6477 H   0  0  0  0  0
   -4.6280  -23.7077  -14.2672 H   0  0  0  0  0
   -6.7941  -23.6260  -13.4881 H   0  0  0  0  0
   -1.4704  -23.2321  -12.0609 H   0  0  0  0  0
    0.0295  -24.2113  -13.6675 H   0  0  0  0  0
   -0.1081  -22.1492  -15.6674 H   0  0  0  0  0
   -1.6705  -23.1215  -15.4478 H   0  0  0  0  0
    0.9138  -23.7749  -16.6249 H   0  0  0  0  0
    1.1670  -25.2318  -14.7599 H   0  0  0  0  0
   -0.4728  -25.8893  -14.9829 H   0  0  0  0  0
    0.7844  -26.1987  -16.2055 H   0  0  0  0  0
   -1.8948  -24.8366  -17.0497 H   0  0  0  0  0
   -1.0444  -23.6179  -18.0307 H   0  0  0  0  0
   -0.4742  -25.3048  -18.0159 H   0  0  0  0  0
    0.3556  -20.4388  -13.6876 H   0  0  0  0  0
  1  2  1  0  0  0
  2  3  1  0  0  0
  2  5  1  0  0  0
  3  4  2  0  0  0
  3  9  1  0  0  0
  5  6  1  0  0  0
  6  7  1  0  0  0
  6  8  1  0  0  0
  9 10  1  0  0  0
 10 11  1  0  0  0
 10 13  1  0  0  0
 11 12  2  0  0  0
 11 17  1  0  0  0
 13 14  1  0  0  0
 14 15  1  0  0  0
 14 16  1  0  0  0
 17 18  1  0  0  0
 18 19  1  0  0  0
 18 21  1  0  0  0
 19 20  2  0  0  0
 19 25  1  0  0  0
 21 22  1  0  0  0
 22 23  2  0  0  0
 22 24  1  0  0  0
 25 26  1  0  0  0
 26 27  1  0  0  0
 26 29  1  0  0  0
 27 28  2  0  0  0
 27 33  1  0  0  0
 29 30  1  0  0  0
 30 31  1  0  0  0
 30 32  2  0  0  0
 33 34  1  0  0  0
 34 35  1  0  0  0
 34 37  1  0  0  0
 35 36  2  0  0  0
 35 42  1  0  0  0
 37 38  1  0  0  0
 38 39  1  0  0  0
 39 40  2  0  0  0
 39 41  1  0  0  0
 42 43  1  0  0  0
 43 44  1  0  0  0
 43 46  1  0  0  0
 44 45  2  0  0  0
 44 50  1  0  0  0
 46 47  1  0  0  0
 47 48  1  0  0  0
 47 49  1  0  0  0
 50 51  1  0  0  0
 51 52  1  0  0  0
 51 54  1  0  0  0
 52 53  2  0  0  0
 52 58  1  0  0  0
 54 55  1  0  0  0
 55 56  1  0  0  0
 56 57  1  0  0  0
 58 59  1  0  0  0
 59 60  1  0  0  0
 59 62  1  0  0  0
 60 61  2  0  0  0
 60 64  1  0  0  0
 62 63  1  0  0  0
 64 65  1  0  0  0
 65 66  1  0  0  0
 65 68  1  0  0  0
 66 67  2  0  0  0
 66 72  1  0  0  0
 68 69  1  0  0  0
 69 70  1  0  0  0
 69 71  1  0  0  0
  1 73  1  0  0  0
  1 74  1  0  0  0
  1 75  1  0  0  0
  2 76  1  0  0  0
  5 77  1  0  0  0
  5 78  1  0  0  0
  6 79  1  0  0  0
  7 80  1  0  0  0
  7 81  1  0  0  0
  7 82  1  0  0  0
  8 83  1  0  0  0
  8 84  1  0  0  0
  8 85  1  0  0  0
  9 86  1  0  0  0
 10 87  1  0  0  0
 13 88  1  0  0  0
 13 89  1  0  0  0
 14 90  1  0  0  0
 15 91  1  0  0  0
 15 92  1  0  0  0
 15 93  1  0  0  0
 16 94  1  0  0  0
 16 95  1  0  0  0
 16 96  1  0  0  0
 17 97  1  0  0  0
 18 98  1  0  0  0
 21 99  1  0  0  0
 21100  1  0  0  0
 24101  1  0  0  0
 25102  1  0  0  0
 26103  1  0  0  0
 29104  1  0  0  0
 29105  1  0  0  0
 31106  1  0  0  0
 33107  1  0  0  0
 34108  1  0  0  0
 37109  1  0  0  0
 37110  1  0  0  0
 38111  1  0  0  0
 38112  1  0  0  0
 41113  1  0  0  0
 42114  1  0  0  0
 43115  1  0  0  0
 46116  1  0  0  0
 46117  1  0  0  0
 47118  1  0  0  0
 48119  1  0  0  0
 48120  1  0  0  0
 48121  1  0  0  0
 49122  1  0  0  0
 49123  1  0  0  0
 49124  1  0  0  0
 50125  1  0  0  0
 51126  1  0  0  0
 54127  1  0  0  0
 54128  1  0  0  0
 55129  1  0  0  0
 55130  1  0  0  0
 57131  1  0  0  0
 57132  1  0  0  0
 57133  1  0  0  0
 58134  1  0  0  0
 59135  1  0  0  0
 62136  1  0  0  0
 62137  1  0  0  0
 63138  1  0  0  0
 64139  1  0  0  0
 65140  1  0  0  0
 68141  1  0  0  0
 68142  1  0  0  0
 69143  1  0  0  0
 70144  1  0  0  0
 70145  1  0  0  0
 70146  1  0  0  0
 71147  1  0  0  0
 71148  1  0  0  0
 71149  1  0  0  0
 72150  1  0  0  0
M  END
$$$$
