### 
### Created by X-TOOL on Mon Sep 10 21:13:01 2018
### 

@<TRIPOS>MOLECULE
3g2w_ligand
  146   145     1     0     0
SMALL
GAST_HUCK


@<TRIPOS>ATOM
      1 N          -8.4790   -4.6330   -3.9980 N.4       1 LEU         0.2379
      2 CA         -9.8730   -4.2690   -4.0340 C.3       1 LEU         0.0652
      3 C         -10.7610   -5.4700   -4.1630 C.2       1 LEU         0.2267
      4 O         -11.8860   -5.4090   -3.7160 O.2       1 LEU        -0.3907
      5 CB        -10.1800   -3.3270   -5.1870 C.3       1 LEU         0.0102
      6 CG        -11.6250   -3.5430   -5.6380 C.3       1 LEU        -0.0394
      7 CD1       -12.4910   -2.3030   -5.4870 C.3       1 LEU        -0.0623
      8 CD2       -11.7600   -4.1530   -7.0330 C.3       1 LEU        -0.0623
      9 N         -10.3260   -6.5710   -4.7730 N.am      1 LEU        -0.2610
     10 CA        -11.3640   -7.5820   -4.9360 C.3       1 LEU         0.1313
     11 C         -11.2940   -8.7820   -3.9980 C.2       1 LEU         0.2040
     12 O         -11.9860   -8.7800   -2.9830 O.2       1 LEU        -0.3944
     13 CB        -11.5830   -7.9670   -6.4030 C.3       1 LEU        -0.0101
     14 CG        -12.9720   -7.6120   -6.9470 C.3       1 LEU        -0.0425
     15 CD1       -13.1510   -8.0380   -8.4020 C.3       1 LEU        -0.0625
     16 CD2       -14.0650   -8.1990   -6.0490 C.3       1 LEU        -0.0625
     17 N         -10.5020   -9.8070   -4.3090 N.am      1 ASP        -0.2622
     18 CA         -9.3700   -9.7210   -5.2260 C.3       1 ASP         0.1423
     19 C          -9.4550  -10.7560   -6.3580 C.2       1 ASP         0.2057
     20 O         -10.5390  -11.2200   -6.7120 O.2       1 ASP        -0.3943
     21 CB         -8.0530   -9.7570   -4.4280 C.3       1 ASP         0.0406
     22 CG         -7.2110  -10.9970   -4.6800 C.2       1 ASP         0.0393
     23 OD1        -6.3710  -10.9200   -5.5880 O.co2     1 ASP        -0.5688
     24 OD2        -7.1760  -11.9240   -3.8420 O.co2     1 ASP        -0.5688
     25 N          -8.3260  -11.0420   -6.9920 N.am      1 ASP        -0.2621
     26 CA         -8.2840  -11.9420   -8.1330 C.3       1 ASP         0.1423
     27 C          -8.5490  -13.3880   -7.7220 C.2       1 ASP         0.2056
     28 O          -8.6410  -13.7250   -6.5470 O.2       1 ASP        -0.3943
     29 CB         -6.8930  -11.8840   -8.7630 C.3       1 ASP         0.0406
     30 CG         -6.8280  -11.0170  -10.0110 C.2       1 ASP         0.0393
     31 OD1        -7.4090   -9.9080  -10.0350 O.co2     1 ASP        -0.5688
     32 OD2        -6.0360  -11.3880  -10.9050 O.co2     1 ASP        -0.5688
     33 N          -8.5910  -14.2670   -8.7090 N.am      1 GLU        -0.2635
     34 CA         -8.5840  -15.6890   -8.4390 C.3       1 GLU         0.1325
     35 C          -7.1770  -16.2030   -8.7340 C.2       1 GLU         0.2040
     36 O          -6.4600  -15.6420   -9.5620 O.2       1 GLU        -0.3944
     37 CB         -9.6250  -16.3710   -9.3350 C.3       1 GLU        -0.0008
     38 CG        -10.2660  -17.6360   -8.7610 C.3       1 GLU         0.0044
     39 CD        -11.3020  -17.3550   -7.6720 C.2       1 GLU         0.0350
     40 OE1       -11.5150  -18.2480   -6.8220 O.co2     1 GLU        -0.5690
     41 OE2       -11.9050  -16.2570   -7.6520 O.co2     1 GLU        -0.5690
     42 N          -6.7620  -17.2350   -8.0070 N.am      1 LEU        -0.2637
     43 CA         -5.5280  -17.9430   -8.3090 C.3       1 LEU         0.1312
     44 C          -5.5360  -18.4180   -9.7620 C.2       1 LEU         0.2039
     45 O          -6.5110  -19.0260  -10.2280 O.2       1 LEU        -0.3944
     46 CB         -5.4300  -19.1640   -7.3990 C.3       1 LEU        -0.0101
     47 CG         -4.1390  -19.5750   -6.6920 C.3       1 LEU        -0.0425
     48 CD1        -4.1790  -21.0660   -6.3950 C.3       1 LEU        -0.0625
     49 CD2        -2.8600  -19.1640   -7.3870 C.3       1 LEU        -0.0625
     50 N          -4.4070  -18.2140  -10.4350 N.am      1 MET        -0.2637
     51 CA         -3.9950  -19.0300  -11.5730 C.3       1 MET         0.1317
     52 C          -4.1560  -20.5410  -11.4100 C.2       1 MET         0.2040
     53 O          -4.0610  -21.0940  -10.3150 O.2       1 MET        -0.3944
     54 CB         -2.5400  -18.7300  -11.9210 C.3       1 MET        -0.0034
     55 CG         -2.3230  -17.3730  -12.5730 C.3       1 MET        -0.0024
     56 SD         -0.7210  -17.3090  -13.4080 S.3       1 MET        -0.1639
     57 CE         -1.0870  -16.1240  -14.7040 C.3       1 MET        -0.0181
     58 N          -4.3240  -21.2310  -12.5320 N.am      1 SER        -0.2616
     59 CA         -3.8090  -22.5900  -12.6350 C.3       1 SER         0.1539
     60 C          -2.6020  -22.5070  -13.5510 C.2       1 SER         0.2056
     61 O          -2.7040  -21.9980  -14.6670 O.2       1 SER        -0.3943
     62 CB         -4.8560  -23.5440  -13.2140 C.3       1 SER         0.0843
     63 OG         -6.1640  -23.0040  -13.1170 O.3       1 SER        -0.3903
     64 N          -1.4940  -22.9880  -13.0510 N.am      1 LEU        -0.2694
     65 CA         -0.3040  -23.1880  -13.8400 C.3       1 LEU         0.0946
     66 C           0.8130  -22.2940  -13.3970 C.2       1 LEU         0.0601
     67 O           1.7010  -22.7730  -12.7210 O.co2     1 LEU        -0.5666
     68 CB         -0.5870  -23.0720  -15.3400 C.3       1 LEU        -0.0156
     69 CG         -0.0150  -24.1940  -16.2380 C.3       1 LEU        -0.0431
     70 CD1         0.3960  -25.4720  -15.4920 C.3       1 LEU        -0.0625
     71 CD2        -0.9220  -24.5110  -17.4180 C.3       1 LEU        -0.0625
     72 OXT         1.0120  -20.9350  -13.1930 O.co2     1 LEU        -0.5666
     73 H1         -7.9166   -3.8010   -3.9110 H         1 LEU         0.2015
     74 H2         -8.2356   -5.1156   -4.8489 H         1 LEU         0.2015
     75 H3         -8.3097   -5.2370   -3.2089 H         1 LEU         0.2015
     76 H4        -10.1120   -3.7569   -3.0903 H         1 LEU         0.1098
     77 H5         -9.4978   -3.5351   -6.0244 H         1 LEU         0.0348
     78 H6        -10.0488   -2.2859   -4.8571 H         1 LEU         0.0348
     79 H7        -12.0403   -4.2886   -4.9440 H         1 LEU         0.0299
     80 H8        -13.5130   -2.5258   -5.8275 H         1 LEU         0.0232
     81 H9        -12.0720   -1.4870   -6.0941 H         1 LEU         0.0232
     82 H10       -12.5148   -1.9988   -4.4302 H         1 LEU         0.0232
     83 H11       -11.1215   -5.0457   -7.1062 H         1 LEU         0.0232
     84 H12       -11.4475   -3.4159   -7.7873 H         1 LEU         0.0232
     85 H13       -12.8081   -4.4365   -7.2094 H         1 LEU         0.0232
     86 H14        -9.3843   -6.6919   -5.0870 H         1 LEU         0.1884
     87 H15       -12.2901   -7.0672   -4.6405 H         1 LEU         0.0800
     88 H16       -11.4428   -9.0538   -6.4988 H         1 LEU         0.0315
     89 H17       -10.8305   -7.4451   -7.0124 H         1 LEU         0.0315
     90 H18       -13.0684   -6.5167   -6.9145 H         1 LEU         0.0298
     91 H19       -14.1596   -7.7620   -8.7434 H         1 LEU         0.0232
     92 H20       -13.0216   -9.1273   -8.4837 H         1 LEU         0.0232
     93 H21       -12.4009   -7.5317   -9.0273 H         1 LEU         0.0232
     94 H22       -13.9027   -7.8708   -5.0117 H         1 LEU         0.0232
     95 H23       -14.0277   -9.2973   -6.0961 H         1 LEU         0.0232
     96 H24       -15.0496   -7.8504   -6.3941 H         1 LEU         0.0232
     97 H25       -10.6957  -10.6926   -3.8868 H         1 ASP         0.1884
     98 H26        -9.4195   -8.7341   -5.7092 H         1 ASP         0.0819
     99 H27        -8.2968   -9.7165   -3.3561 H         1 ASP         0.0478
    100 H28        -7.4581   -8.8734   -4.7024 H         1 ASP         0.0478
    101 H29        -7.4746  -10.6245   -6.6745 H         1 ASP         0.1884
    102 H30        -9.0404  -11.6276   -8.8671 H         1 ASP         0.0819
    103 H31        -6.5902  -12.9064   -9.0332 H         1 ASP         0.0478
    104 H32        -6.1909  -11.4779   -8.0200 H         1 ASP         0.0478
    105 H33        -8.6281  -13.9449   -9.6550 H         1 GLU         0.1883
    106 H34        -8.8327  -15.8755   -7.3839 H         1 GLU         0.0801
    107 H35        -9.1324  -16.6408  -10.2808 H         1 GLU         0.0330
    108 H36       -10.4276  -15.6455   -9.5336 H         1 GLU         0.0330
    109 H37        -9.4719  -18.2648   -8.3320 H         1 GLU         0.0433
    110 H38       -10.7606  -18.1782   -9.5804 H         1 GLU         0.0433
    111 H39        -7.3147  -17.5338   -7.2290 H         1 LEU         0.1883
    112 H40        -4.6681  -17.2780   -8.1406 H         1 LEU         0.0800
    113 H41        -5.7250  -20.0258   -8.0157 H         1 LEU         0.0315
    114 H42        -6.1746  -19.0098   -6.6041 H         1 LEU         0.0315
    115 H43        -4.1356  -19.0535   -5.7235 H         1 LEU         0.0298
    116 H44        -3.2503  -21.3635   -5.8860 H         1 LEU         0.0232
    117 H45        -4.2759  -21.6251   -7.3373 H         1 LEU         0.0232
    118 H46        -5.0396  -21.2878   -5.7468 H         1 LEU         0.0232
    119 H47        -2.8790  -18.0811   -7.5795 H         1 LEU         0.0232
    120 H48        -2.7710  -19.7044   -8.3409 H         1 LEU         0.0232
    121 H49        -1.9998  -19.4074   -6.7460 H         1 LEU         0.0232
    122 H50        -3.8109  -17.4645  -10.1471 H         1 MET         0.1883
    123 H51        -4.6231  -18.7291  -12.4245 H         1 MET         0.0800
    124 H52        -2.1835  -19.5066  -12.6136 H         1 MET         0.0320
    125 H53        -1.9489  -18.7660  -10.9940 H         1 MET         0.0320
    126 H54        -2.3576  -16.5918  -11.7994 H         1 MET         0.0378
    127 H55        -3.1205  -17.1953  -13.3094 H         1 MET         0.0378
    128 H56        -0.1902  -15.9672  -15.3214 H         1 MET         0.0340
    129 H57        -1.3925  -15.1689  -14.2519 H         1 MET         0.0340
    130 H58        -1.9027  -16.5093  -15.3335 H         1 MET         0.0340
    131 H59        -4.8039  -20.8180  -13.3061 H         1 SER         0.1884
    132 H60        -3.5057  -22.9519  -11.6415 H         1 SER         0.0823
    133 H61        -4.8196  -24.4933  -12.6595 H         1 SER         0.0606
    134 H62        -4.6237  -23.7289  -14.2732 H         1 SER         0.0606
    135 H63        -6.7875  -23.6195  -13.4843 H         1 SER         0.2097
    136 H64        -1.4709  -23.2273  -12.0803 H         1 LEU         0.1875
    137 H65         0.0275  -24.2213  -13.6601 H         1 LEU         0.0726
    138 H66        -0.1643  -22.1177  -15.6872 H         1 LEU         0.0308
    139 H67        -1.6787  -23.0601  -15.4744 H         1 LEU         0.0308
    140 H68         0.9131  -23.7857  -16.6645 H         1 LEU         0.0297
    141 H69         0.7882  -26.2062  -16.2111 H         1 LEU         0.0232
    142 H70        -0.4800  -25.8942  -14.9778 H         1 LEU         0.0232
    143 H71         1.1742  -25.2310  -14.7529 H         1 LEU         0.0232
    144 H72        -1.1977  -23.5771  -17.9298 H         1 LEU         0.0232
    145 H73        -1.8315  -25.0134  -17.0569 H         1 LEU         0.0232
    146 H74        -0.3925  -25.1715  -18.1204 H         1 LEU         0.0232
@<TRIPOS>BOND
     1    1    2 1  
     2    2    3 1  
     3    2    5 1  
     4    3    4 2  
     5    3    9 am 
     6    5    6 1  
     7    6    7 1  
     8    6    8 1  
     9    9   10 1  
    10   10   11 1  
    11   10   13 1  
    12   11   12 2  
    13   11   17 am 
    14   13   14 1  
    15   14   15 1  
    16   14   16 1  
    17   17   18 1  
    18   18   19 1  
    19   18   21 1  
    20   19   20 2  
    21   19   25 am 
    22   21   22 1  
    23   22   23 ar 
    24   22   24 ar 
    25   25   26 1  
    26   26   27 1  
    27   26   29 1  
    28   27   28 2  
    29   27   33 am 
    30   29   30 1  
    31   30   31 ar 
    32   30   32 ar 
    33   33   34 1  
    34   34   35 1  
    35   34   37 1  
    36   35   36 2  
    37   35   42 am 
    38   37   38 1  
    39   38   39 1  
    40   39   40 ar 
    41   39   41 ar 
    42   42   43 1  
    43   43   44 1  
    44   43   46 1  
    45   44   45 2  
    46   44   50 am 
    47   46   47 1  
    48   47   48 1  
    49   47   49 1  
    50   50   51 1  
    51   51   52 1  
    52   51   54 1  
    53   52   53 2  
    54   52   58 am 
    55   54   55 1  
    56   55   56 1  
    57   56   57 1  
    58   58   59 1  
    59   59   60 1  
    60   59   62 1  
    61   60   61 2  
    62   60   64 am 
    63   62   63 1  
    64   64   65 1  
    65   65   66 1  
    66   65   68 1  
    67   66   67 ar 
    68   66   72 ar 
    69   68   69 1  
    70   69   70 1  
    71   69   71 1  
    72    1   73 1  
    73    1   74 1  
    74    1   75 1  
    75    2   76 1  
    76    5   77 1  
    77    5   78 1  
    78    6   79 1  
    79    7   80 1  
    80    7   81 1  
    81    7   82 1  
    82    8   83 1  
    83    8   84 1  
    84    8   85 1  
    85    9   86 1  
    86   10   87 1  
    87   13   88 1  
    88   13   89 1  
    89   14   90 1  
    90   15   91 1  
    91   15   92 1  
    92   15   93 1  
    93   16   94 1  
    94   16   95 1  
    95   16   96 1  
    96   17   97 1  
    97   18   98 1  
    98   21   99 1  
    99   21  100 1  
   100   25  101 1  
   101   26  102 1  
   102   29  103 1  
   103   29  104 1  
   104   33  105 1  
   105   34  106 1  
   106   37  107 1  
   107   37  108 1  
   108   38  109 1  
   109   38  110 1  
   110   42  111 1  
   111   43  112 1  
   112   46  113 1  
   113   46  114 1  
   114   47  115 1  
   115   48  116 1  
   116   48  117 1  
   117   48  118 1  
   118   49  119 1  
   119   49  120 1  
   120   49  121 1  
   121   50  122 1  
   122   51  123 1  
   123   54  124 1  
   124   54  125 1  
   125   55  126 1  
   126   55  127 1  
   127   57  128 1  
   128   57  129 1  
   129   57  130 1  
   130   58  131 1  
   131   59  132 1  
   132   62  133 1  
   133   62  134 1  
   134   63  135 1  
   135   64  136 1  
   136   65  137 1  
   137   68  138 1  
   138   68  139 1  
   139   69  140 1  
   140   70  141 1  
   141   70  142 1  
   142   70  143 1  
   143   71  144 1  
   144   71  145 1  
   145   71  146 1  
@<TRIPOS>SUBSTRUCTURE
     1 LEU         1

