4pl5_ligand
  -I-interpret- 

 43 45  0  0  0  0  0  0  0  0999 V2000
   87.1760  -13.4260   72.0580 C   0  0  0  0  0
   86.4600  -14.6010   71.8520 C   0  0  0  0  0
   87.8420  -12.7260   70.9230 C   0  0  0  0  0
   88.3780  -12.6630   68.5990 C   0  0  0  0  0
   89.0290  -11.4640   68.8080 C   0  0  0  0  0
   89.0990  -10.8880   70.0600 C   0  0  0  0  0
   90.9290  -11.3430   65.9310 C   0  0  0  0  0
   91.8250  -10.1410   67.7700 C   0  0  0  0  0
   90.4040   -9.6230   67.9600 C   0  0  0  0  0
   85.1000  -16.5440   72.6840 C   0  0  0  0  0
   85.8490  -15.2430   72.9070 C   0  0  0  0  0
   85.9580  -14.6630   74.1640 C   0  0  0  0  0
   85.3530  -15.2840   75.1980 O   0  0  0  0  0
   86.6640  -13.5070   74.3880 C   0  0  0  0  0
   86.7870  -12.9330   75.6150 O   0  0  0  0  0
   88.0450  -12.8760   76.3170 C   0  0  0  0  0
   87.2820  -12.8440   73.3360 C   0  0  0  0  0
   87.7780  -13.2940   69.6690 C   0  0  0  0  0
   88.5060  -11.5090   71.1260 C   0  0  0  0  0
   89.6290  -10.8300   67.7360 N   0  0  0  0  0
   89.4860  -11.4000   66.4170 C   0  0  0  0  0
   91.8340  -11.3630   67.0330 O   0  0  0  0  0
   86.3818  -15.0172   70.8476 H   0  0  0  0  0
   88.3386  -13.1047   67.6033 H   0  0  0  0  0
   89.6240   -9.9430   70.1994 H   0  0  0  0  0
   91.0759  -10.4191   65.3715 H   0  0  0  0  0
   91.1227  -12.2108   65.3005 H   0  0  0  0  0
   92.2633  -10.3230   68.7513 H   0  0  0  0  0
   92.3959   -9.3960   67.2158 H   0  0  0  0  0
   90.1429   -8.8039   67.2900 H   0  0  0  0  0
   90.2309   -9.1655   68.9341 H   0  0  0  0  0
   84.2887  -16.3778   71.9753 H   0  0  0  0  0
   85.7849  -17.2923   72.2853 H   0  0  0  0  0
   84.6903  -16.8930   73.6319 H   0  0  0  0  0
   85.5043  -14.7836   76.0032 H   0  0  0  0  0
   88.4109  -13.8886   76.4872 H   0  0  0  0  0
   88.7687  -12.3225   75.7187 H   0  0  0  0  0
   87.9031  -12.3739   77.2740 H   0  0  0  0  0
   87.8261  -11.9126   73.4927 H   0  0  0  0  0
   87.2548  -14.2390   69.5230 H   0  0  0  0  0
   88.5498  -11.0627   72.1195 H   0  0  0  0  0
   89.0524  -12.4000   66.4086 H   0  0  0  0  0
   88.7794  -10.8710   65.7774 H   0  0  0  0  0
  1  2  4  0  0  0
  3  1  1  0  0  0
  1 17  4  0  0  0
  2 11  4  0  0  0
 18  3  4  0  0  0
 19  3  4  0  0  0
  5  4  4  0  0  0
  4 18  4  0  0  0
  5  6  4  0  0  0
 20  5  1  0  0  0
  6 19  4  0  0  0
  7 21  1  0  0  0
 22  7  1  0  0  0
  9  8  1  0  0  0
  8 22  1  0  0  0
  9 20  1  0  0  0
 11 10  1  0  0  0
 11 12  4  0  0  0
 12 13  1  0  0  0
 12 14  4  0  0  0
 14 15  1  0  0  0
 14 17  4  0  0  0
 15 16  1  0  0  0
 20 21  1  0  0  0
  2 23  1  0  0  0
  4 24  1  0  0  0
  6 25  1  0  0  0
  7 26  1  0  0  0
  7 27  1  0  0  0
  8 28  1  0  0  0
  8 29  1  0  0  0
  9 30  1  0  0  0
  9 31  1  0  0  0
 10 32  1  0  0  0
 10 33  1  0  0  0
 10 34  1  0  0  0
 13 35  1  0  0  0
 16 36  1  0  0  0
 16 37  1  0  0  0
 16 38  1  0  0  0
 17 39  1  0  0  0
 18 40  1  0  0  0
 19 41  1  0  0  0
 21 42  1  0  0  0
 21 43  1  0  0  0
M  END
$$$$
