3lp0_ligand
  -I-interpret- 

 30 31  0  0  0  0  0  0  0  0999 V2000
   -2.0410   70.9810   30.6270 C   0  0  0  0  0
   -3.9600   72.0390   31.6460 N   0  0  0  0  0
    0.3750   73.5500   32.8800 O   0  0  0  0  0
   -3.4130   71.1280   30.8040 C   0  0  0  0  0
   -1.2090   71.8230   31.3620 C   0  0  0  0  0
   -1.7300   72.7750   32.2400 C   0  0  0  0  0
   -3.1240   72.8450   32.3470 C   0  0  0  0  0
   -3.6420   73.7700   33.1990 N   0  0  0  0  0
   -2.9370   74.6440   33.9690 C   0  0  0  0  0
   -1.5390   74.5780   33.8650 C   0  0  0  0  0
   -0.9470   73.6440   33.0030 C   0  0  0  0  0
   -5.0310   73.8160   33.2860 O   0  0  0  0  0
   -3.5150   75.5240   34.7850 O   0  0  0  0  0
   -0.6560   75.4900   34.6700 C   0  0  0  0  0
   -0.8490   76.6890   34.8100 O   0  0  0  0  0
    0.3540   74.7940   35.2070 O   0  0  0  0  0
    0.0630   74.0480   36.4220 C   0  0  0  0  0
    1.1480   72.9870   36.6250 C   0  0  0  0  0
   -1.6337   70.2378   29.9416 H   0  0  0  0  0
    0.5882   72.8589   32.2487 H   0  0  0  0  0
   -4.0810   70.4789   30.2379 H   0  0  0  0  0
   -0.1283   71.7365   31.2490 H   0  0  0  0  0
   -1.2486   74.4239   33.7023 H   0  0  0  0  0
   -5.2890   74.4982   33.9103 H   0  0  0  0  0
   -4.4689   75.4307   34.7305 H   0  0  0  0  0
   -0.9110   73.5666   36.3342 H   0  0  0  0  0
    0.0466   74.7259   37.2754 H   0  0  0  0  0
    1.1575   72.3107   35.7702 H   0  0  0  0  0
    2.1188   73.4745   36.7150 H   0  0  0  0  0
    0.9375   72.4231   37.5338 H   0  0  0  0  0
  1  4  4  0  0  0
  5  1  4  0  0  0
  2  4  4  0  0  0
  7  2  4  0  0  0
 11  3  1  0  0  0
  6  5  4  0  0  0
  6  7  4  0  0  0
  6 11  1  0  0  0
  7  8  1  0  0  0
  8  9  1  0  0  0
  8 12  1  0  0  0
  9 10  2  0  0  0
  9 13  1  0  0  0
 10 11  1  0  0  0
 10 14  1  0  0  0
 14 15  2  0  0  0
 14 16  1  0  0  0
 16 17  1  0  0  0
 17 18  1  0  0  0
  1 19  1  0  0  0
  3 20  1  0  0  0
  4 21  1  0  0  0
  5 22  1  0  0  0
 11 23  1  0  0  0
 12 24  1  0  0  0
 13 25  1  0  0  0
 17 26  1  0  0  0
 17 27  1  0  0  0
 18 28  1  0  0  0
 18 29  1  0  0  0
 18 30  1  0  0  0
M  END
$$$$
