4mww_ligand
  -I-interpret- 

 47 47  0  0  0  0  0  0  0  0999 V2000
  -19.7230   23.6760   64.8630 C   0  0  0  0  0
  -19.6500   22.5010   65.1710 O   0  0  0  0  0
  -20.8740   24.3970   65.0420 O   0  0  0  0  0
  -18.6330   24.3420   64.1170 C   0  0  0  0  0
  -17.1900   23.7250   63.9650 C   0  0  0  0  0
  -16.3820   24.3540   62.8410 C   0  0  0  0  0
  -16.4020   25.8510   62.7170 C   0  0  0  0  0
  -15.6200   26.4230   61.6330 N   0  0  0  0  0
  -14.3220   27.0320   61.8380 C   0  0  0  0  0
  -13.8840   27.2110   62.9700 O   0  0  0  0  0
  -13.6270   27.6120   60.6220 C   0  0  0  0  0
  -17.6560   26.6270   63.0840 C   0  0  0  0  0
  -18.7980   25.9010   63.8540 C   0  0  0  0  0
  -17.5430   28.0330   63.2920 O   0  0  0  0  0
  -18.3450   28.9870   62.6040 C   0  0  0  0  0
  -19.7030   29.2210   63.2520 C   0  0  0  0  0
  -17.5960   30.2860   62.3660 C   0  0  0  0  0
  -16.1360   30.3180   62.7170 C   0  0  0  0  0
  -19.7110   29.6040   64.6970 C   0  0  0  0  0
  -15.1660   23.6840   62.4760 N   0  3  0  0  0
  -20.7358   25.2981   64.7412 H   0  0  0  0  0
  -18.9138   23.8176   63.2036 H   0  0  0  0  0
  -17.3072   22.6663   63.7338 H   0  0  0  0  0
  -16.6545   23.9063   64.8969 H   0  0  0  0  0
  -17.0200   24.1090   61.9918 H   0  0  0  0  0
  -15.8178   26.0481   63.6158 H   0  0  0  0  0
  -16.0019   26.3942   60.6876 H   0  0  0  0  0
  -13.5925   28.6980   60.7083 H   0  0  0  0  0
  -12.6122   27.2185   60.5630 H   0  0  0  0  0
  -14.1783   27.3350   59.7234 H   0  0  0  0  0
  -18.0852   26.6039   62.0823 H   0  0  0  0  0
  -18.8253   26.3630   64.8409 H   0  0  0  0  0
  -19.6833   25.9997   63.2259 H   0  0  0  0  0
  -18.5586   28.5476   61.6296 H   0  0  0  0  0
  -20.2274   28.2671   63.1949 H   0  0  0  0  0
  -20.1448   30.0631   62.7193 H   0  0  0  0  0
  -18.0704   31.0217   63.0154 H   0  0  0  0  0
  -17.6435   30.4596   61.2910 H   0  0  0  0  0
  -16.0141   30.1043   63.7789 H   0  0  0  0  0
  -15.6062   29.5671   62.1308 H   0  0  0  0  0
  -15.7318   31.3057   62.4951 H   0  0  0  0  0
  -19.2389   28.8155   65.2832 H   0  0  0  0  0
  -19.1599   30.5353   64.8278 H   0  0  0  0  0
  -20.7400   29.7395   65.0300 H   0  0  0  0  0
  -15.2815   22.6787   62.6042 H   0  0  0  0  0
  -14.9510   23.8809   61.4986 H   0  0  0  0  0
  -14.4046   24.0181   63.0668 H   0  0  0  0  0
  1  2  2  0  0  0
  1  3  1  0  0  0
  1  4  1  0  0  0
  4  5  1  0  0  0
  4 13  1  0  0  0
  5  6  1  0  0  0
  6  7  1  0  0  0
  6 20  1  0  0  0
  7  8  1  0  0  0
  7 12  1  0  0  0
  8  9  1  0  0  0
  9 10  2  0  0  0
  9 11  1  0  0  0
 12 13  1  0  0  0
 12 14  1  0  0  0
 14 15  1  0  0  0
 15 16  1  0  0  0
 15 17  1  0  0  0
 16 19  1  0  0  0
 17 18  1  0  0  0
  3 21  1  0  0  0
  4 22  1  0  0  0
  5 23  1  0  0  0
  5 24  1  0  0  0
  6 25  1  0  0  0
  7 26  1  0  0  0
  8 27  1  0  0  0
 11 28  1  0  0  0
 11 29  1  0  0  0
 11 30  1  0  0  0
 12 31  1  0  0  0
 13 32  1  0  0  0
 13 33  1  0  0  0
 15 34  1  0  0  0
 16 35  1  0  0  0
 16 36  1  0  0  0
 17 37  1  0  0  0
 17 38  1  0  0  0
 18 39  1  0  0  0
 18 40  1  0  0  0
 18 41  1  0  0  0
 19 42  1  0  0  0
 19 43  1  0  0  0
 19 44  1  0  0  0
 20 45  1  0  0  0
 20 46  1  0  0  0
 20 47  1  0  0  0
M  END
$$$$
