6ezg_ligand
  -I-interpret- 

 56 59  0  0  0  0  0  0  0  0999 V2000
   -4.9750   -2.5110   52.5400 C   0  0  0  0  0
   -4.1760   -3.7030   54.5880 N   0  3  0  0  0
   -3.6290   -4.7100   54.9810 C   0  0  0  0  0
   -1.4940   -3.8130   56.0200 C   0  0  0  0  0
    0.6790   -4.2670   55.1140 C   0  0  0  0  0
   -5.5010   -3.6970   55.0860 C   0  0  0  0  0
   -6.4200   -2.6510   54.4280 C   0  0  0  0  0
   -8.4240    1.2490   52.8030 C   0  0  0  0  0
   -9.7780    4.6850   50.5930 C   0  0  0  0  0
   -7.3450    1.9250   48.5140 C   0  0  0  0  0
   -7.2310    2.8470   49.6330 O   0  0  0  0  0
   -8.0150    2.6080   50.7930 C   0  0  0  0  0
   -7.6920    1.5050   51.6290 C   0  0  0  0  0
   -6.5530    0.6260   51.2570 C   0  0  0  0  0
   -5.4690    1.1460   51.0060 O   0  0  0  0  0
   -6.7080   -0.8840   51.1670 C   0  0  0  0  0
   -7.1910   -1.4670   52.4630 C   0  0  0  0  0
   -6.3290   -2.6550   52.9760 C   0  0  0  0  0
   -4.1290   -3.6430   53.1110 C   0  0  0  0  0
   -2.0570   -4.5390   55.0330 C   0  0  0  0  0
   -0.1130   -3.6590   56.0710 C   0  0  0  0  0
    0.1010   -5.0220   54.1020 C   0  0  0  0  0
   -1.2340   -5.1670   54.0480 C   0  0  0  0  0
   -9.5240    2.0950   53.1600 C   0  0  0  0  0
  -10.4160    1.7530   54.5880 Cl  0  0  0  0  0
   -9.8910    3.2510   52.3170 C   0  0  0  0  0
  -10.8830    4.1890   52.4650 N   0  0  0  0  0
  -10.8110    5.0540   51.4190 C   0  0  0  0  0
   -9.1780    3.5140   51.1790 C   0  0  0  0  0
   -4.5828   -1.5555   52.8881 H   0  0  0  0  0
   -4.9400   -2.5472   51.4512 H   0  0  0  0  0
   -3.6964   -2.8701   54.9295 H   0  0  0  0  0
   -3.8639   -5.5204   54.2909 H   0  0  0  0  0
   -3.9850   -4.9235   55.9889 H   0  0  0  0  0
   -2.1222   -3.3463   56.7787 H   0  0  0  0  0
    1.7623   -4.1530   55.1543 H   0  0  0  0  0
   -5.4441   -3.4523   56.1466 H   0  0  0  0  0
   -5.9278   -4.6774   54.8746 H   0  0  0  0  0
   -6.1107   -1.6666   54.7793 H   0  0  0  0  0
   -7.4479   -2.8921   54.6989 H   0  0  0  0  0
   -8.1543    0.4072   53.4408 H   0  0  0  0  0
   -9.4715    5.1818   49.6725 H   0  0  0  0  0
   -7.0622    0.9239   48.8395 H   0  0  0  0  0
   -8.3747    1.9149   48.1566 H   0  0  0  0  0
   -6.6832    2.2476   47.7102 H   0  0  0  0  0
   -5.7350   -1.3173   50.9355 H   0  0  0  0  0
   -7.4414   -1.1098   50.3929 H   0  0  0  0  0
   -8.1989   -1.8458   52.2936 H   0  0  0  0  0
   -7.1381   -0.6787   53.2139 H   0  0  0  0  0
   -6.6900   -3.6037   52.5789 H   0  0  0  0  0
   -3.0942   -3.4684   52.8163 H   0  0  0  0  0
   -4.5241   -4.5829   52.7255 H   0  0  0  0  0
    0.3429   -3.0623   56.8610 H   0  0  0  0  0
    0.7309   -5.4977   53.3504 H   0  0  0  0  0
   -1.6876   -5.7619   53.2552 H   0  0  0  0  0
  -11.4703    5.9074   51.2606 H   0  0  0  0  0
 18  1  1  0  0  0
  1 19  1  0  0  0
  2  3  1  0  0  0
  6  2  1  0  0  0
 19  2  1  0  0  0
  3 20  1  0  0  0
 20  4  4  0  0  0
  4 21  4  0  0  0
 21  5  4  0  0  0
  5 22  4  0  0  0
  7  6  1  0  0  0
 18  7  1  0  0  0
 13  8  4  0  0  0
  8 24  4  0  0  0
  9 28  4  0  0  0
 29  9  4  0  0  0
 11 10  1  0  0  0
 12 11  1  0  0  0
 13 12  4  0  0  0
 12 29  4  0  0  0
 14 13  1  0  0  0
 14 15  2  0  0  0
 16 14  1  0  0  0
 17 16  1  0  0  0
 17 18  1  0  0  0
 20 23  4  0  0  0
 22 23  4  0  0  0
 24 25  1  0  0  0
 24 26  4  0  0  0
 26 27  4  0  0  0
 26 29  4  0  0  0
 27 28  4  0  0  0
  1 30  1  0  0  0
  1 31  1  0  0  0
  2 32  1  0  0  0
  3 33  1  0  0  0
  3 34  1  0  0  0
  4 35  1  0  0  0
  5 36  1  0  0  0
  6 37  1  0  0  0
  6 38  1  0  0  0
  7 39  1  0  0  0
  7 40  1  0  0  0
  8 41  1  0  0  0
  9 42  1  0  0  0
 10 43  1  0  0  0
 10 44  1  0  0  0
 10 45  1  0  0  0
 16 46  1  0  0  0
 16 47  1  0  0  0
 17 48  1  0  0  0
 17 49  1  0  0  0
 18 50  1  0  0  0
 19 51  1  0  0  0
 19 52  1  0  0  0
 21 53  1  0  0  0
 22 54  1  0  0  0
 23 55  1  0  0  0
 28 56  1  0  0  0
M  END
$$$$
