### 
### Created by X-TOOL on Mon Sep 10 21:13:32 2018
### 

@<TRIPOS>MOLECULE
5ohj_ligand
   81    85     1     0     0
SMALL
GAST_HUCK


@<TRIPOS>ATOM
      1 C         -30.2810  -16.7690   26.4360 C.3       1 9VE         0.3632
      2 O         -29.5890  -16.3390   27.6530 O.3       1 9VE        -0.2657
      3 N         -24.0310  -10.5770   31.6900 N.am      1 9VE        -0.2108
      4 CL        -21.8890  -15.2130   30.2520 Cl        1 9VE         0.0028
      5 CL1       -22.3990  -12.4610   25.5520 Cl        1 9VE         0.0028
      6 C1        -28.3540  -15.7120   27.6160 C.ar      1 9VE         0.1187
      7 N1        -21.7090  -15.7510   35.1610 N.am      1 9VE        -0.2785
      8 O1        -28.8700  -15.3060   29.8670 O.3       1 9VE        -0.3231
      9 C2        -27.9620  -15.1520   28.8450 C.ar      1 9VE         0.1139
     10 N2        -19.6780  -12.4740   28.4070 N.ar      1 9VE        -0.1043
     11 O2        -24.4580  -13.2110   29.3250 O.3       1 9VE        -0.2527
     12 C3        -28.2960  -15.0610   31.1620 C.3       1 9VE         0.0706
     13 O3        -20.3260  -15.0570   33.5580 O.2       1 9VE        -0.3845
     14 C4        -29.2710  -15.3840   32.2370 C.3       1 9VE        -0.0135
     15 O4        -21.7920  -11.1250   30.8510 O.2       1 9VE        -0.1499
     16 C5        -29.1320  -14.6190   33.5130 C.3       1 9VE        -0.0475
     17 O5        -22.1620   -9.0170   32.1430 O.2       1 9VE        -0.1499
     18 C6        -30.2580  -14.3180   32.5780 C.3       1 9VE        -0.0475
     19 O6        -24.5730  -11.0220   28.7910 O.2       1 9VE        -0.3681
     20 C7        -26.7540  -14.4750   28.9550 C.ar      1 9VE        -0.0364
     21 O7        -18.6000  -11.7160   28.6990 O.2       1 9VE        -0.1436
     22 C8        -25.9070  -14.3820   27.8380 C.ar      1 9VE        -0.0220
     23 C9        -24.5650  -13.6920   27.9560 C.3       1 9VE         0.1478
     24 C10       -24.5900  -11.9270   29.6010 C.2       1 9VE         0.2586
     25 C11       -24.6500  -11.7720   31.1240 C.3       1 9VE         0.1408
     26 C12       -22.1210  -11.2930   33.3820 C.ar      1 9VE         0.1140
     27 C13       -21.8790  -12.6550   33.2960 C.ar      1 9VE        -0.0152
     28 C14       -21.6860  -13.3920   34.4630 C.ar      1 9VE         0.0519
     29 C15       -21.1790  -14.7940   34.3920 C.2       1 9VE         0.2070
     30 C16       -21.0960  -17.0680   35.1690 C.3       1 9VE         0.0218
     31 C17       -22.9430  -15.6110   35.9200 C.3       1 9VE         0.0218
     32 C18       -21.7430  -12.7370   35.6970 C.ar      1 9VE        -0.0418
     33 C19       -21.9810  -11.3690   35.7640 C.ar      1 9VE        -0.0543
     34 C20       -22.1700  -10.6360   34.5990 C.ar      1 9VE        -0.0308
     35 C21       -25.0010   -9.6380   32.3080 C.3       1 9VE         0.0328
     36 C22       -26.3360  -10.2300   31.8430 C.3       1 9VE        -0.0317
     37 C23       -26.1060  -11.6990   31.6400 C.3       1 9VE        -0.0128
     38 C24       -23.3450  -14.5670   27.6070 C.3       1 9VE         0.0905
     39 C25       -22.0620  -13.8120   27.8920 C.ar      1 9VE         0.1369
     40 C26       -21.3100  -14.0740   29.0860 C.ar      1 9VE         0.1807
     41 C27       -20.1100  -13.3790   29.3180 C.ar      1 9VE         0.1259
     42 C28       -20.3390  -12.2350   27.2530 C.ar      1 9VE         0.1259
     43 C29       -21.5370  -12.8880   26.9800 C.ar      1 9VE         0.1807
     44 C30       -26.3110  -14.9650   26.6300 C.ar      1 9VE        -0.0767
     45 C31       -27.5210  -15.6140   26.5120 C.ar      1 9VE        -0.0476
     46 F         -29.5540  -17.8140   25.9920 F         1 9VE        -0.1743
     47 F1        -30.3240  -15.7470   25.5880 F         1 9VE        -0.1743
     48 S         -22.4290  -10.3950   31.9130 S.o2      1 9VE         0.0739
     49 H1        -31.3077  -17.0942   26.6599 H         1 9VE         0.1412
     50 H2        -28.0133  -14.0006   31.2373 H         1 9VE         0.0612
     51 H3        -27.4011  -15.6887   31.2853 H         1 9VE         0.0612
     52 H4        -29.5480  -16.4485   32.2274 H         1 9VE         0.0326
     53 H5        -28.3107  -13.8976   33.6354 H         1 9VE         0.0269
     54 H6        -29.3329  -15.1127   34.4752 H         1 9VE         0.0269
     55 H7        -31.2880  -14.5897   32.8523 H         1 9VE         0.0269
     56 H8        -30.2658  -13.3746   32.0124 H         1 9VE         0.0269
     57 H9        -26.4667  -14.0214   29.8967 H         1 9VE         0.0451
     58 H10       -24.5616  -12.8320   27.2702 H         1 9VE         0.0880
     59 H11       -24.1543  -12.6555   31.5525 H         1 9VE         0.0772
     60 H12       -21.8402  -13.1430   32.3289 H         1 9VE         0.0689
     61 H13       -21.6538  -17.7279   35.8497 H         1 9VE         0.0486
     62 H14       -20.0537  -16.9853   35.5108 H         1 9VE         0.0486
     63 H15       -21.1164  -17.4881   34.1526 H         1 9VE         0.0486
     64 H16       -23.3084  -14.5767   35.8383 H         1 9VE         0.0486
     65 H17       -22.7527  -15.8502   36.9767 H         1 9VE         0.0486
     66 H18       -23.7006  -16.3002   35.5187 H         1 9VE         0.0486
     67 H19       -21.6001  -13.3019   36.6111 H         1 9VE         0.0669
     68 H20       -22.0192  -10.8732   36.7272 H         1 9VE         0.0630
     69 H21       -22.3526   -9.5684   34.6425 H         1 9VE         0.0672
     70 H22       -24.8633   -8.6132   31.9329 H         1 9VE         0.0480
     71 H23       -24.9203   -9.6409   33.4050 H         1 9VE         0.0480
     72 H24       -26.6509   -9.7612   30.8991 H         1 9VE         0.0283
     73 H25       -27.1096  -10.0692   32.6083 H         1 9VE         0.0283
     74 H26       -26.2149  -12.2480   32.5870 H         1 9VE         0.0310
     75 H27       -26.8069  -12.1071   30.8969 H         1 9VE         0.0310
     76 H28       -23.3812  -14.8324   26.5401 H         1 9VE         0.0907
     77 H29       -23.3697  -15.4840   28.2141 H         1 9VE         0.0907
     78 H30       -19.5354  -13.5657   30.2180 H         1 9VE         0.1071
     79 H31       -19.9337  -11.5305   26.5358 H         1 9VE         0.1071
     80 H32       -25.6566  -14.9042   25.7679 H         1 9VE         0.0437
     81 H33       -27.8193  -16.0447   25.5630 H         1 9VE         0.0493
@<TRIPOS>BOND
     1    2    1 1  
     2    1   46 1  
     3    1   47 1  
     4    6    2 1  
     5   25    3 1  
     6    3   35 1  
     7    3   48 1  
     8   40    4 1  
     9   43    5 1  
    10    9    6 ar 
    11    6   45 ar 
    12   29    7 am 
    13    7   30 1  
    14    7   31 1  
    15    9    8 1  
    16    8   12 1  
    17   20    9 ar 
    18   10   21 2  
    19   41   10 ar 
    20   10   42 ar 
    21   23   11 1  
    22   11   24 1  
    23   12   14 1  
    24   29   13 2  
    25   14   16 1  
    26   14   18 1  
    27   48   15 2  
    28   18   16 1  
    29   48   17 2  
    30   24   19 2  
    31   22   20 ar 
    32   23   22 1  
    33   22   44 ar 
    34   38   23 1  
    35   24   25 1  
    36   25   37 1  
    37   26   27 ar 
    38   26   34 ar 
    39   48   26 1  
    40   27   28 ar 
    41   28   29 1  
    42   28   32 ar 
    43   33   32 ar 
    44   34   33 ar 
    45   36   35 1  
    46   37   36 1  
    47   39   38 1  
    48   40   39 ar 
    49   39   43 ar 
    50   40   41 ar 
    51   42   43 ar 
    52   44   45 ar 
    53    1   49 1  
    54   12   50 1  
    55   12   51 1  
    56   14   52 1  
    57   16   53 1  
    58   16   54 1  
    59   18   55 1  
    60   18   56 1  
    61   20   57 1  
    62   23   58 1  
    63   25   59 1  
    64   27   60 1  
    65   30   61 1  
    66   30   62 1  
    67   30   63 1  
    68   31   64 1  
    69   31   65 1  
    70   31   66 1  
    71   32   67 1  
    72   33   68 1  
    73   34   69 1  
    74   35   70 1  
    75   35   71 1  
    76   36   72 1  
    77   36   73 1  
    78   37   74 1  
    79   37   75 1  
    80   38   76 1  
    81   38   77 1  
    82   41   78 1  
    83   42   79 1  
    84   44   80 1  
    85   45   81 1  
@<TRIPOS>SUBSTRUCTURE
     1 9VE         1

