5ohj_ligand
  -I-interpret- 

 81 85  0  0  0  0  0  0  0  0999 V2000
  -30.2810  -16.7690   26.4360 C   0  0  0  0  0
  -29.5890  -16.3390   27.6530 O   0  0  0  0  0
  -24.0310  -10.5770   31.6900 N   0  0  0  0  0
  -21.8890  -15.2130   30.2520 Cl  0  0  0  0  0
  -22.3990  -12.4610   25.5520 Cl  0  0  0  0  0
  -28.3540  -15.7120   27.6160 C   0  0  0  0  0
  -21.7090  -15.7510   35.1610 N   0  0  0  0  0
  -28.8700  -15.3060   29.8670 O   0  0  0  0  0
  -27.9620  -15.1520   28.8450 C   0  0  0  0  0
  -19.6780  -12.4740   28.4070 N   0  0  0  0  0
  -24.4580  -13.2110   29.3250 O   0  0  0  0  0
  -28.2960  -15.0610   31.1620 C   0  0  0  0  0
  -20.3260  -15.0570   33.5580 O   0  0  0  0  0
  -29.2710  -15.3840   32.2370 C   0  0  0  0  0
  -21.7920  -11.1250   30.8510 O   0  0  0  0  0
  -29.1320  -14.6190   33.5130 C   0  0  0  0  0
  -22.1620   -9.0170   32.1430 O   0  0  0  0  0
  -30.2580  -14.3180   32.5780 C   0  0  0  0  0
  -24.5730  -11.0220   28.7910 O   0  0  0  0  0
  -26.7540  -14.4750   28.9550 C   0  0  0  0  0
  -18.6000  -11.7160   28.6990 O   0  0  0  0  0
  -25.9070  -14.3820   27.8380 C   0  0  0  0  0
  -24.5650  -13.6920   27.9560 C   0  0  0  0  0
  -24.5900  -11.9270   29.6010 C   0  0  0  0  0
  -24.6500  -11.7720   31.1240 C   0  0  0  0  0
  -22.1210  -11.2930   33.3820 C   0  0  0  0  0
  -21.8790  -12.6550   33.2960 C   0  0  0  0  0
  -21.6860  -13.3920   34.4630 C   0  0  0  0  0
  -21.1790  -14.7940   34.3920 C   0  0  0  0  0
  -21.0960  -17.0680   35.1690 C   0  0  0  0  0
  -22.9430  -15.6110   35.9200 C   0  0  0  0  0
  -21.7430  -12.7370   35.6970 C   0  0  0  0  0
  -21.9810  -11.3690   35.7640 C   0  0  0  0  0
  -22.1700  -10.6360   34.5990 C   0  0  0  0  0
  -25.0010   -9.6380   32.3080 C   0  0  0  0  0
  -26.3360  -10.2300   31.8430 C   0  0  0  0  0
  -26.1060  -11.6990   31.6400 C   0  0  0  0  0
  -23.3450  -14.5670   27.6070 C   0  0  0  0  0
  -22.0620  -13.8120   27.8920 C   0  0  0  0  0
  -21.3100  -14.0740   29.0860 C   0  0  0  0  0
  -20.1100  -13.3790   29.3180 C   0  0  0  0  0
  -20.3390  -12.2350   27.2530 C   0  0  0  0  0
  -21.5370  -12.8880   26.9800 C   0  0  0  0  0
  -26.3110  -14.9650   26.6300 C   0  0  0  0  0
  -27.5210  -15.6140   26.5120 C   0  0  0  0  0
  -29.5540  -17.8140   25.9920 F   0  0  0  0  0
  -30.3240  -15.7470   25.5880 F   0  0  0  0  0
  -22.4290  -10.3950   31.9130 S   0  0  0  0  0
  -31.3176  -17.0735   26.5805 H   0  0  0  0  0
  -28.0265  -14.0074   31.2349 H   0  0  0  0  0
  -27.4155  -15.6921   31.2829 H   0  0  0  0  0
  -29.3349  -16.4399   31.9741 H   0  0  0  0  0
  -28.3609  -14.0816   34.0650 H   0  0  0  0  0
  -28.9803  -14.8179   34.5739 H   0  0  0  0  0
  -31.3395  -14.1878   32.6165 H   0  0  0  0  0
  -30.7188  -13.4500   32.1065 H   0  0  0  0  0
  -26.4651  -14.0189   29.9019 H   0  0  0  0  0
  -24.5400  -12.8895   27.2188 H   0  0  0  0  0
  -24.0966  -12.6565   31.4395 H   0  0  0  0  0
  -21.8399  -13.1457   32.3235 H   0  0  0  0  0
  -21.1168  -17.4832   34.1614 H   0  0  0  0  0
  -20.0633  -16.9846   35.5078 H   0  0  0  0  0
  -21.6495  -17.7209   35.8438 H   0  0  0  0  0
  -22.8394  -14.7918   36.6316 H   0  0  0  0  0
  -23.7659  -15.3991   35.2373 H   0  0  0  0  0
  -23.1446  -16.5376   36.4575 H   0  0  0  0  0
  -21.5993  -13.3050   36.6161 H   0  0  0  0  0
  -22.0194  -10.8704   36.7325 H   0  0  0  0  0
  -22.3536   -9.5625   34.6428 H   0  0  0  0  0
  -24.8555   -8.6000   32.0087 H   0  0  0  0  0
  -24.9091   -9.5656   33.3917 H   0  0  0  0  0
  -26.6711   -9.7572   30.9198 H   0  0  0  0  0
  -27.1174  -10.0569   32.5829 H   0  0  0  0  0
  -26.2533  -12.2740   32.5542 H   0  0  0  0  0
  -26.8179  -12.1396   30.9420 H   0  0  0  0  0
  -23.3807  -14.8237   26.5483 H   0  0  0  0  0
  -23.3692  -15.4720   28.2140 H   0  0  0  0  0
  -19.5322  -13.5667   30.2230 H   0  0  0  0  0
  -19.9314  -11.5266   26.5318 H   0  0  0  0  0
  -25.6530  -14.9039   25.7632 H   0  0  0  0  0
  -27.8209  -16.0471   25.5578 H   0  0  0  0  0
  2  1  1  0  0  0
  1 46  1  0  0  0
  1 47  1  0  0  0
  6  2  1  0  0  0
 25  3  1  0  0  0
  3 35  1  0  0  0
  3 48  1  0  0  0
 40  4  1  0  0  0
 43  5  1  0  0  0
  9  6  4  0  0  0
  6 45  4  0  0  0
 29  7  1  0  0  0
  7 30  1  0  0  0
  7 31  1  0  0  0
  9  8  1  0  0  0
  8 12  1  0  0  0
 20  9  4  0  0  0
 10 21  2  0  0  0
 41 10  4  0  0  0
 10 42  4  0  0  0
 23 11  1  0  0  0
 11 24  1  0  0  0
 12 14  1  0  0  0
 29 13  2  0  0  0
 14 16  1  0  0  0
 14 18  1  0  0  0
 48 15  2  0  0  0
 18 16  1  0  0  0
 48 17  2  0  0  0
 24 19  2  0  0  0
 22 20  4  0  0  0
 23 22  1  0  0  0
 22 44  4  0  0  0
 38 23  1  0  0  0
 24 25  1  0  0  0
 25 37  1  0  0  0
 26 27  4  0  0  0
 26 34  4  0  0  0
 48 26  1  0  0  0
 27 28  4  0  0  0
 28 29  1  0  0  0
 28 32  4  0  0  0
 33 32  4  0  0  0
 34 33  4  0  0  0
 36 35  1  0  0  0
 37 36  1  0  0  0
 39 38  1  0  0  0
 40 39  4  0  0  0
 39 43  4  0  0  0
 40 41  4  0  0  0
 42 43  4  0  0  0
 44 45  4  0  0  0
  1 49  1  0  0  0
 12 50  1  0  0  0
 12 51  1  0  0  0
 14 52  1  0  0  0
 16 53  1  0  0  0
 16 54  1  0  0  0
 18 55  1  0  0  0
 18 56  1  0  0  0
 20 57  1  0  0  0
 23 58  1  0  0  0
 25 59  1  0  0  0
 27 60  1  0  0  0
 30 61  1  0  0  0
 30 62  1  0  0  0
 30 63  1  0  0  0
 31 64  1  0  0  0
 31 65  1  0  0  0
 31 66  1  0  0  0
 32 67  1  0  0  0
 33 68  1  0  0  0
 34 69  1  0  0  0
 35 70  1  0  0  0
 35 71  1  0  0  0
 36 72  1  0  0  0
 36 73  1  0  0  0
 37 74  1  0  0  0
 37 75  1  0  0  0
 38 76  1  0  0  0
 38 77  1  0  0  0
 41 78  1  0  0  0
 42 79  1  0  0  0
 44 80  1  0  0  0
 45 81  1  0  0  0
M  END
$$$$
