2x6j_ligand
  -I-interpret- 

 45 46  0  0  0  0  0  0  0  0999 V2000
   20.6980   32.0750    6.1230 O   0  0  0  0  0
   21.2220   33.3680    6.5630 S   0  0  0  0  0
   21.3360   34.2560    5.3920 O   0  0  0  0  0
   22.7420   33.2050    7.3710 N   0  0  0  0  0
   23.4600   34.4800    7.4270 C   0  0  0  0  0
   24.9010   34.4980    7.9640 C   0  0  0  0  0
   25.6070   35.7100    7.8990 O   0  0  0  0  0
   19.9740   33.9790    7.7240 C   0  0  0  0  0
   19.8240   33.4140    8.9550 C   0  0  0  0  0
   21.0130   32.2130    9.4960 Cl  0  0  0  0  0
   18.8150   33.8830    9.8630 C   0  0  0  0  0
   17.8590   34.8910    9.4000 C   0  0  0  0  0
   19.0240   35.0150    7.2610 C   0  0  0  0  0
   17.9970   35.4070    8.1020 C   0  0  0  0  0
   17.1280   36.4880    7.5040 C   0  0  0  0  0
   15.8990   37.1700    8.2190 C   0  0  0  0  0
   15.4060   36.8140    9.6170 C   0  0  0  0  0
   15.2340   38.2630    7.2700 N   0  3  0  0  0
   17.3430   37.2140    6.0760 S   0  0  0  0  0
   15.9940   38.3110    5.9620 C   0  0  0  0  0
   15.8010   39.1800    4.8120 N   0  0  0  0  0
   16.9450   39.4540    3.9420 C   0  0  0  0  0
   18.0140   38.9850    4.1630 O   0  0  0  0  0
   16.7860   40.3580    2.7170 C   0  0  0  0  0
   23.0944   32.3304    7.7599 H   0  0  0  0  0
   22.8912   35.0933    8.1259 H   0  0  0  0  0
   23.5420   34.8030    6.3892 H   0  0  0  0  0
   25.4558   33.8032    7.3335 H   0  0  0  0  0
   24.8195   34.2647    9.0256 H   0  0  0  0  0
   26.4865   35.5866    8.2634 H   0  0  0  0  0
   18.7617   33.4950   10.8802 H   0  0  0  0  0
   17.0552   35.2342   10.0513 H   0  0  0  0  0
   19.1314   35.4624    6.2729 H   0  0  0  0  0
   17.5492   35.5033    7.7067 H   0  0  0  0  0
   15.5973   37.0121    9.2544 H   0  0  0  0  0
   15.1178   35.7631    9.6426 H   0  0  0  0  0
   16.2039   36.9909   10.3382 H   0  0  0  0  0
   14.5451   37.4343    9.8662 H   0  0  0  0  0
   15.2697   39.1770    7.7215 H   0  0  0  0  0
   14.2603   38.0166    7.0924 H   0  0  0  0  0
   15.2595   38.6469    5.2300 H   0  0  0  0  0
   14.8877   39.5897    4.6161 H   0  0  0  0  0
   17.4538   41.2144    2.8099 H   0  0  0  0  0
   17.0367   39.7960    1.8173 H   0  0  0  0  0
   15.7546   40.7050    2.6545 H   0  0  0  0  0
  1  2  2  0  0  0
  2  3  2  0  0  0
  2  4  1  0  0  0
  2  8  1  0  0  0
  4  5  1  0  0  0
  5  6  1  0  0  0
  6  7  1  0  0  0
  8  9  4  0  0  0
  8 13  4  0  0  0
  9 10  1  0  0  0
  9 11  4  0  0  0
 11 12  4  0  0  0
 12 14  4  0  0  0
 13 14  4  0  0  0
 14 15  1  0  0  0
 15 16  1  0  0  0
 15 19  1  0  0  0
 16 17  1  0  0  0
 16 18  1  0  0  0
 18 20  1  0  0  0
 19 20  1  0  0  0
 20 21  1  0  0  0
 21 22  1  0  0  0
 22 23  2  0  0  0
 22 24  1  0  0  0
  4 25  1  0  0  0
  5 26  1  0  0  0
  5 27  1  0  0  0
  6 28  1  0  0  0
  6 29  1  0  0  0
  7 30  1  0  0  0
 11 31  1  0  0  0
 12 32  1  0  0  0
 13 33  1  0  0  0
 15 34  1  0  0  0
 16 35  1  0  0  0
 17 36  1  0  0  0
 17 37  1  0  0  0
 17 38  1  0  0  0
 18 39  1  0  0  0
 18 40  1  0  0  0
 20 41  1  0  0  0
 21 42  1  0  0  0
 24 43  1  0  0  0
 24 44  1  0  0  0
 24 45  1  0  0  0
M  END
$$$$
