### 
### Created by X-TOOL on Mon Sep 10 21:13:04 2018
### 

@<TRIPOS>MOLECULE
2x6j_ligand
   44    45     1     0     0
SMALL
GAST_HUCK


@<TRIPOS>ATOM
      1 OAM        20.6980   32.0750    6.1230 O.2       1 093        -0.1507
      2 SAN        21.2220   33.3680    6.5630 S.o2      1 093         0.0650
      3 OAO        21.3360   34.2560    5.3920 O.2       1 093        -0.1507
      4 NAU        22.7420   33.2050    7.3710 N.am      1 093        -0.2456
      5 CAV        23.4600   34.4800    7.4270 C.3       1 093         0.0497
      6 CAW        24.9010   34.4980    7.9640 C.3       1 093         0.0610
      7 OAX        25.6070   35.7100    7.8990 O.3       1 093        -0.3934
      8 CAF        19.9740   33.9790    7.7240 C.ar      1 093         0.1060
      9 CAB        19.8240   33.4140    8.9550 C.ar      1 093         0.0496
     10 CL         21.0130   32.2130    9.4960 Cl        1 093        -0.0822
     11 CAC        18.8150   33.8830    9.8630 C.ar      1 093        -0.0624
     12 CAD        17.8590   34.8910    9.4000 C.ar      1 093        -0.0708
     13 CAG        19.0240   35.0150    7.2610 C.ar      1 093        -0.0443
     14 CAH        17.9970   35.4070    8.1020 C.ar      1 093        -0.0198
     15 CAI        17.1280   36.4880    7.5040 C.2       1 093         0.0680
     16 CAJ        15.8990   37.1700    8.2190 C.3       1 093         0.0241
     17 CAE        15.4060   36.8140    9.6170 C.3       1 093        -0.0083
     18 NAK        15.2340   38.2630    7.2700 N.4       1 093         0.2748
     19 SAP        17.3430   37.2140    6.0760 S.3       1 093        -0.0080
     20 CAQ        15.9940   38.3110    5.9620 C.3       1 093         0.1323
     21 NAR        15.8010   39.1800    4.8120 N.am      1 093        -0.2335
     22 CAS        16.9450   39.4540    3.9420 C.2       1 093         0.1778
     23 OAL        18.0140   38.9850    4.1630 O.2       1 093        -0.3972
     24 CAT        16.7860   40.3580    2.7170 C.3       1 093         0.0258
     25 H          23.0944   32.3304    7.7599 H         1 093         0.1673
     26 H          22.8912   35.0933    8.1259 H         1 093         0.0498
     27 H          23.5420   34.8030    6.3892 H         1 093         0.0498
     28 H          25.4558   33.8032    7.3335 H         1 093         0.0573
     29 H          24.8195   34.2647    9.0256 H         1 093         0.0573
     30 H          26.4865   35.5866    8.2634 H         1 093         0.2095
     31 H          18.7617   33.4950   10.8802 H         1 093         0.0574
     32 H          17.0552   35.2342   10.0513 H         1 093         0.0515
     33 H          19.1314   35.4624    6.2729 H         1 093         0.0535
     34 H          15.5973   37.0121    9.2544 H         1 093         0.1072
     35 H          15.1178   35.7631    9.6426 H         1 093         0.0316
     36 H          16.2039   36.9909   10.3382 H         1 093         0.0316
     37 H          14.5451   37.4343    9.8662 H         1 093         0.0316
     38 H          15.2697   39.1770    7.7215 H         1 093         0.2073
     39 H          14.2603   38.0166    7.0924 H         1 093         0.2073
     40 H          15.2595   38.6469    5.2300 H         1 093         0.1311
     41 H          14.8877   39.5897    4.6161 H         1 093         0.1917
     42 H          17.4538   41.2144    2.8099 H         1 093         0.0467
     43 H          17.0367   39.7960    1.8173 H         1 093         0.0467
     44 H          15.7546   40.7050    2.6545 H         1 093         0.0467
@<TRIPOS>BOND
     1    1    2 2  
     2    2    3 2  
     3    2    4 am 
     4    2    8 1  
     5    4    5 1  
     6    5    6 1  
     7    6    7 1  
     8    8    9 ar 
     9    8   13 ar 
    10    9   10 1  
    11    9   11 ar 
    12   11   12 ar 
    13   12   14 ar 
    14   13   14 ar 
    15   14   15 1  
    16   15   16 1  
    17   15   19 1  
    18   16   17 1  
    19   16   18 1  
    20   18   20 1  
    21   19   20 1  
    22   20   21 1  
    23   21   22 am 
    24   22   23 2  
    25   22   24 1  
    26    4   25 1  
    27    5   26 1  
    28    5   27 1  
    29    6   28 1  
    30    6   29 1  
    31    7   30 1  
    32   11   31 1  
    33   12   32 1  
    34   13   33 1  
    35   16   34 1  
    36   17   35 1  
    37   17   36 1  
    38   17   37 1  
    39   18   38 1  
    40   18   39 1  
    41   20   40 1  
    42   21   41 1  
    43   24   42 1  
    44   24   43 1  
    45   24   44 1  
@<TRIPOS>SUBSTRUCTURE
     1 093         1

