4j4o_ligand
  -I-interpret- 

 37 39  0  0  0  0  0  0  0  0999 V2000
  -16.0780   20.5760   -9.4090 O   0  0  0  0  0
  -15.1680   21.0940   -8.7800 C   0  0  0  0  0
  -14.4250   22.0180   -9.3460 N   0  0  0  0  0
  -14.8300   22.4080  -10.6160 C   0  0  0  0  0
  -15.0000   21.5450  -11.6970 C   0  0  0  0  0
  -15.4170   22.0130  -12.9320 C   0  0  0  0  0
  -15.7250   23.3560  -13.0490 C   0  0  0  0  0
  -15.6040   24.2050  -11.9560 C   0  0  0  0  0
  -15.1420   23.7310  -10.7250 C   0  0  0  0  0
  -14.9960   24.6120   -9.4890 C   0  0  0  0  0
  -13.5770   24.9500   -9.0560 C   0  0  0  0  0
  -14.7760   20.6940   -7.3820 C   0  0  0  0  0
  -13.5990   21.8060   -6.6110 S   0  0  0  0  0
  -12.0310   21.1420   -7.0750 C   0  0  0  0  0
  -10.8640   21.7080   -6.7130 N   0  0  0  0  0
   -9.9460   20.8740   -7.2680 C   0  0  0  0  0
   -8.5940   21.0040   -7.1910 N   0  0  0  0  0
   -7.8230   20.0810   -7.8090 C   0  0  0  0  0
   -8.3750   19.0180   -8.5270 C   0  0  0  0  0
   -9.7720   18.8910   -8.6120 C   0  0  0  0  0
  -10.5690   19.8340   -7.9480 C   0  0  0  0  0
  -11.9180   20.0130   -7.8120 N   0  0  0  0  0
  -13.6087   22.4204   -8.8854 H   0  0  0  0  0
  -14.8009   20.4811  -11.5680 H   0  0  0  0  0
  -15.5000   21.3421  -13.7870 H   0  0  0  0  0
  -16.0653   23.7515  -14.0060 H   0  0  0  0  0
  -15.8733   25.2561  -12.0600 H   0  0  0  0  0
  -15.4358   24.0497   -8.6653 H   0  0  0  0  0
  -15.4683   25.5619   -9.7394 H   0  0  0  0  0
  -13.0384   24.0296   -8.8303 H   0  0  0  0  0
  -13.0696   25.4812   -9.8612 H   0  0  0  0  0
  -13.6101   25.5804   -8.1674 H   0  0  0  0  0
  -14.3025   19.7143   -7.4459 H   0  0  0  0  0
  -15.6812   20.7083   -6.7749 H   0  0  0  0  0
   -6.7385   20.1693   -7.7449 H   0  0  0  0  0
   -7.7270   18.2920   -9.0180 H   0  0  0  0  0
  -10.2250   18.0788   -9.1805 H   0  0  0  0  0
  1  2  2  0  0  0
  2  3  1  0  0  0
  2 12  1  0  0  0
  3  4  1  0  0  0
  4  5  4  0  0  0
  4  9  4  0  0  0
  5  6  4  0  0  0
  6  7  4  0  0  0
  7  8  4  0  0  0
  8  9  4  0  0  0
  9 10  1  0  0  0
 10 11  1  0  0  0
 12 13  1  0  0  0
 13 14  1  0  0  0
 14 15  4  0  0  0
 14 22  4  0  0  0
 15 16  4  0  0  0
 16 17  4  0  0  0
 16 21  4  0  0  0
 17 18  4  0  0  0
 18 19  4  0  0  0
 19 20  4  0  0  0
 20 21  4  0  0  0
 21 22  4  0  0  0
  3 23  1  0  0  0
  5 24  1  0  0  0
  6 25  1  0  0  0
  7 26  1  0  0  0
  8 27  1  0  0  0
 10 28  1  0  0  0
 10 29  1  0  0  0
 11 30  1  0  0  0
 11 31  1  0  0  0
 11 32  1  0  0  0
 12 33  1  0  0  0
 12 34  1  0  0  0
 18 35  1  0  0  0
 19 36  1  0  0  0
 20 37  1  0  0  0
M  END
$$$$
