6k2n_ligand
  -I-interpret- 

 78 80  0  0  0  0  0  0  0  0999 V2000
   -1.2420   12.9590   10.6460 C   0  0  0  0  0
   -0.3030   12.7860   11.8530 C   0  0  0  0  0
    0.9230   13.6960   11.7160 C   0  0  0  0  0
    1.5830   13.5170   10.3560 C   0  0  0  0  0
    0.5600   13.6920    9.2410 C   0  0  0  0  0
    1.1470   13.4460    7.8730 C   0  0  0  0  0
   -1.3880   12.1000   13.9420 C   0  0  0  0  0
   -2.1050   12.5590   15.1760 C   0  0  0  0  0
   -1.0040   13.0610   13.0960 N   0  0  0  0  0
    1.8620   13.3710   12.7340 O   0  0  0  0  0
    2.6350   14.4600   10.1760 O   0  0  0  0  0
   -0.4980   12.7430    9.4170 O   0  0  0  0  0
    1.7290   12.1520    7.8020 O   0  0  0  0  0
   -1.1640   10.9130   13.7220 O   0  0  0  0  0
   -5.5240   12.7530   11.1430 O   0  0  0  0  0
   -6.7370   12.0410   11.3780 C   0  0  0  0  0
   -6.4340   10.6910   11.7470 O   0  0  0  0  0
   -7.5820   12.0430   10.1090 C   0  0  0  0  0
   -8.7960   11.2790   10.3200 N   0  0  0  0  0
   -6.8030   11.4700    8.9320 C   0  0  0  0  0
   -7.5330   11.6960    7.7210 O   0  0  0  0  0
   -5.4260   12.1140    8.8220 C   0  0  0  0  0
   -5.5660   13.4640    8.3640 O   0  0  0  0  0
   -4.7100   12.1050   10.1670 C   0  0  0  0  0
   -3.3650   12.8160   10.0740 C   0  0  0  0  0
   -2.3730   12.0520   10.7680 O   0  0  0  0  0
   -9.9850   11.8700   10.3970 C   0  0  0  0  0
  -10.1260   13.0690   10.2270 O   0  0  0  0  0
  -11.1410   10.9650   10.7060 C   0  0  0  0  0
   -7.8890   10.3360    7.4060 C   0  0  0  0  0
   -9.1290   10.4840    6.4980 C   0  0  0  0  0
   -9.5100    9.2150    5.7340 C   0  0  0  0  0
   -8.2950    8.6220    5.0360 C   0  0  0  0  0
   -7.1880    8.4070    6.0610 C   0  0  0  0  0
   -5.8790    7.8870    5.4470 C   0  0  0  0  0
  -10.2770   10.8840    7.2440 O   0  0  0  0  0
  -10.4630    9.5170    4.7130 O   0  0  0  0  0
   -7.8510    9.4810    3.9900 O   0  0  0  0  0
   -6.8340    9.6260    6.7690 O   0  0  0  0  0
   -6.0890    7.3650    4.1360 O   0  0  0  0  0
   -1.6379   13.9743   10.6205 H   0  0  0  0  0
    0.0357   11.7502   11.8742 H   0  0  0  0  0
    0.5989   14.7321   11.8135 H   0  0  0  0  0
    1.9959   12.5090   10.3165 H   0  0  0  0  0
    0.2076   14.7219    9.2977 H   0  0  0  0  0
    1.9194   14.1909    7.6817 H   0  0  0  0  0
    0.3521   13.5162    7.1305 H   0  0  0  0  0
   -3.0998   12.1143   15.2033 H   0  0  0  0  0
   -1.5431   12.2498   16.0573 H   0  0  0  0  0
   -2.1916   13.6455   15.1614 H   0  0  0  0  0
   -1.2123   14.0308   13.3335 H   0  0  0  0  0
    1.4508   13.4822   13.5943 H   0  0  0  0  0
    3.2823   14.3532   10.8768 H   0  0  0  0  0
    2.0961   12.0151    6.9256 H   0  0  0  0  0
   -7.2906   12.5229   12.1839 H   0  0  0  0  0
   -7.2511   10.2125   11.9050 H   0  0  0  0  0
   -7.8425   13.0752    9.8748 H   0  0  0  0  0
   -8.7369   10.2648   10.4115 H   0  0  0  0  0
   -6.6714   10.4002    9.0944 H   0  0  0  0  0
   -4.8318   11.5391    8.1117 H   0  0  0  0  0
   -4.6983   13.8689    8.2950 H   0  0  0  0  0
   -4.5333   11.0693   10.4571 H   0  0  0  0  0
   -3.4444   13.8047   10.5260 H   0  0  0  0  0
   -3.0791   12.9175    9.0271 H   0  0  0  0  0
  -11.6150   11.2869   11.6333 H   0  0  0  0  0
  -11.8643   11.0107    9.8918 H   0  0  0  0  0
  -10.7806    9.9423   10.8166 H   0  0  0  0  0
   -8.0920    9.7451    8.2992 H   0  0  0  0  0
   -8.8330   11.2453    5.7763 H   0  0  0  0  0
   -9.9203    8.5131    6.4600 H   0  0  0  0  0
   -8.5643    7.6647    4.5897 H   0  0  0  0  0
   -7.6144    7.6659    6.7371 H   0  0  0  0  0
   -5.4939    7.0875    6.0799 H   0  0  0  0  0
   -5.1750    8.7165    5.3802 H   0  0  0  0  0
  -11.0286   10.9669    6.6526 H   0  0  0  0  0
  -10.6923    8.7121    4.2427 H   0  0  0  0  0
   -7.0852    9.0919    3.5613 H   0  0  0  0  0
   -5.2548    7.0492    3.7811 H   0  0  0  0  0
  1  2  1  0  0  0
  1 12  1  0  0  0
 26  1  1  0  0  0
  2  3  1  0  0  0
  2  9  1  0  0  0
  3  4  1  0  0  0
  3 10  1  0  0  0
  5  4  1  0  0  0
  4 11  1  0  0  0
  5  6  1  0  0  0
 12  5  1  0  0  0
  6 13  1  0  0  0
  7  8  1  0  0  0
  9  7  1  0  0  0
  7 14  2  0  0  0
 15 16  1  0  0  0
 24 15  1  0  0  0
 16 17  1  0  0  0
 16 18  1  0  0  0
 18 19  1  0  0  0
 20 18  1  0  0  0
 19 27  1  0  0  0
 20 21  1  0  0  0
 22 20  1  0  0  0
 21 30  1  0  0  0
 22 23  1  0  0  0
 24 22  1  0  0  0
 25 24  1  0  0  0
 25 26  1  0  0  0
 27 28  2  0  0  0
 27 29  1  0  0  0
 30 31  1  0  0  0
 30 39  1  0  0  0
 31 32  1  0  0  0
 31 36  1  0  0  0
 32 33  1  0  0  0
 32 37  1  0  0  0
 33 34  1  0  0  0
 33 38  1  0  0  0
 34 35  1  0  0  0
 34 39  1  0  0  0
 35 40  1  0  0  0
  1 41  1  0  0  0
  2 42  1  0  0  0
  3 43  1  0  0  0
  4 44  1  0  0  0
  5 45  1  0  0  0
  6 46  1  0  0  0
  6 47  1  0  0  0
  8 48  1  0  0  0
  8 49  1  0  0  0
  8 50  1  0  0  0
  9 51  1  0  0  0
 10 52  1  0  0  0
 11 53  1  0  0  0
 13 54  1  0  0  0
 16 55  1  0  0  0
 17 56  1  0  0  0
 18 57  1  0  0  0
 19 58  1  0  0  0
 20 59  1  0  0  0
 22 60  1  0  0  0
 23 61  1  0  0  0
 24 62  1  0  0  0
 25 63  1  0  0  0
 25 64  1  0  0  0
 29 65  1  0  0  0
 29 66  1  0  0  0
 29 67  1  0  0  0
 30 68  1  0  0  0
 31 69  1  0  0  0
 32 70  1  0  0  0
 33 71  1  0  0  0
 34 72  1  0  0  0
 35 73  1  0  0  0
 35 74  1  0  0  0
 36 75  1  0  0  0
 37 76  1  0  0  0
 38 77  1  0  0  0
 40 78  1  0  0  0
M  END
$$$$
