4uyf_ligand
  -I-interpret- 

 54 57  0  0  0  0  0  0  0  0999 V2000
   22.0920    7.8530  -10.7900 C   0  0  0  0  0
   21.9220    9.2770  -10.2520 C   0  0  0  0  0
   21.8220   10.2850  -11.4160 C   0  0  0  0  0
   20.8850   11.4330  -11.0920 C   0  0  0  0  0
   20.7390   12.3300  -12.2230 N   0  0  0  0  0
   20.3240   13.6540  -12.1240 C   0  0  0  0  0
   19.9680   14.2530  -10.9130 C   0  0  0  0  0
   19.5480   15.5820  -10.8930 C   0  0  0  0  0
   19.4850   16.2920  -12.0850 C   0  0  0  0  0
   18.9620   17.9510  -12.0980 Cl  0  0  0  0  0
   19.8360   15.7010  -13.2870 C   0  0  0  0  0
   20.2560   14.3790  -13.3090 C   0  0  0  0  0
   19.5650   10.8170  -10.6990 C   0  0  0  0  0
   18.3530   11.2650  -11.2540 C   0  0  0  0  0
   17.1210   10.6760  -10.9250 C   0  0  0  0  0
   17.1140    9.6170  -10.0160 C   0  0  0  0  0
   18.3040    9.1420   -9.4700 C   0  0  0  0  0
   19.5150    9.7450   -9.8120 C   0  0  0  0  0
   20.7710    9.3140   -9.3110 N   0  0  0  0  0
   21.0370    8.9500   -8.0440 C   0  0  0  0  0
   20.0050    9.1380   -6.9680 C   0  0  0  0  0
   22.1400    8.4860   -7.7650 O   0  0  0  0  0
   15.8180   11.1500  -11.5220 C   0  0  0  0  0
   15.8070   11.9420  -12.6810 C   0  0  0  0  0
   14.6090   12.4340  -13.2020 C   0  0  0  0  0
   13.3960   12.1340  -12.5860 C   0  0  0  0  0
   13.3920   11.3320  -11.4500 C   0  0  0  0  0
   14.5880   10.8370  -10.9280 C   0  0  0  0  0
   12.0910   12.6510  -13.1340 C   0  0  0  0  0
   11.0240   12.3330  -12.6330 O   0  0  0  0  0
   12.1850   13.4510  -14.1860 O   0  0  0  0  0
   22.2774    7.1719   -9.9594 H   0  0  0  0  0
   21.1837    7.5524  -11.3122 H   0  0  0  0  0
   22.9355    7.8249  -11.4798 H   0  0  0  0  0
   22.7999    9.5804   -9.6816 H   0  0  0  0  0
   21.4316    9.7614  -12.2887 H   0  0  0  0  0
   22.8150   10.6957  -11.5984 H   0  0  0  0  0
   21.2823   12.0402  -10.2786 H   0  0  0  0  0
   20.9547   11.9661  -13.1511 H   0  0  0  0  0
   20.0186   13.6822   -9.9858 H   0  0  0  0  0
   19.2721   16.0587   -9.9524 H   0  0  0  0  0
   19.7825   16.2729  -14.2134 H   0  0  0  0  0
   20.5322   13.9094  -14.2531 H   0  0  0  0  0
   18.3702   12.0945  -11.9609 H   0  0  0  0  0
   16.1679    9.1571   -9.7306 H   0  0  0  0  0
   18.2894    8.3009   -8.7769 H   0  0  0  0  0
   19.7777    8.1744   -6.5120 H   0  0  0  0  0
   20.3926    9.8180   -6.2094 H   0  0  0  0  0
   19.0987    9.5575   -7.4049 H   0  0  0  0  0
   16.7469   12.1760  -13.1810 H   0  0  0  0  0
   14.6227   13.0568  -14.0964 H   0  0  0  0  0
   12.4476   11.0881  -10.9635 H   0  0  0  0  0
   14.5650   10.1977  -10.0455 H   0  0  0  0  0
   13.1098   13.5694  -14.4150 H   0  0  0  0  0
  1  2  1  0  0  0
  2  3  1  0  0  0
  2 19  1  0  0  0
  3  4  1  0  0  0
  4  5  1  0  0  0
  4 13  1  0  0  0
  5  6  1  0  0  0
  6  7  4  0  0  0
  6 12  4  0  0  0
  7  8  4  0  0  0
  8  9  4  0  0  0
  9 10  1  0  0  0
  9 11  4  0  0  0
 11 12  4  0  0  0
 13 14  4  0  0  0
 13 18  4  0  0  0
 14 15  4  0  0  0
 15 16  4  0  0  0
 15 23  1  0  0  0
 16 17  4  0  0  0
 17 18  4  0  0  0
 18 19  1  0  0  0
 19 20  1  0  0  0
 20 21  1  0  0  0
 20 22  2  0  0  0
 23 24  4  0  0  0
 23 28  4  0  0  0
 24 25  4  0  0  0
 25 26  4  0  0  0
 26 27  4  0  0  0
 26 29  1  0  0  0
 27 28  4  0  0  0
 29 30  2  0  0  0
 29 31  1  0  0  0
  1 32  1  0  0  0
  1 33  1  0  0  0
  1 34  1  0  0  0
  2 35  1  0  0  0
  3 36  1  0  0  0
  3 37  1  0  0  0
  4 38  1  0  0  0
  5 39  1  0  0  0
  7 40  1  0  0  0
  8 41  1  0  0  0
 11 42  1  0  0  0
 12 43  1  0  0  0
 14 44  1  0  0  0
 16 45  1  0  0  0
 17 46  1  0  0  0
 21 47  1  0  0  0
 21 48  1  0  0  0
 21 49  1  0  0  0
 24 50  1  0  0  0
 25 51  1  0  0  0
 27 52  1  0  0  0
 28 53  1  0  0  0
 31 54  1  0  0  0
M  END
$$$$
