4q99_ligand
  -I-interpret- 

 17 17  0  0  0  0  0  0  0  0999 V2000
   14.2140    1.3660   17.9220 O   0  0  0  0  0
   14.6730    2.1440   16.8880 C   0  0  0  0  0
   14.2480    3.4300   16.7120 C   0  0  0  0  0
   14.7470    4.1880   15.6350 C   0  0  0  0  0
   15.6610    3.6250   14.7680 C   0  0  0  0  0
   16.1610    4.3690   13.6980 C   0  0  0  0  0
   16.0900    2.2900   14.9670 C   0  0  0  0  0
   15.5890    1.5620   16.0280 C   0  0  0  0  0
   16.1330   -0.1570   16.2950 S   0  0  0  0  0
   14.6263    0.5002   17.8770 H   0  0  0  0  0
   13.5262    3.8675   17.4017 H   0  0  0  0  0
   14.4127    5.2148   15.4870 H   0  0  0  0  0
   15.3374    4.6723   13.0517 H   0  0  0  0  0
   16.6704    5.2541   14.0791 H   0  0  0  0  0
   16.8644    3.7595   13.1306 H   0  0  0  0  0
   16.8121    1.8395   14.2860 H   0  0  0  0  0
   17.0071   -0.4954   15.3514 H   0  0  0  0  0
  1  2  1  0  0  0
  2  3  4  0  0  0
  2  8  4  0  0  0
  3  4  4  0  0  0
  4  5  4  0  0  0
  5  6  1  0  0  0
  5  7  4  0  0  0
  7  8  4  0  0  0
  8  9  1  0  0  0
  1 10  1  0  0  0
  3 11  1  0  0  0
  4 12  1  0  0  0
  6 13  1  0  0  0
  6 14  1  0  0  0
  6 15  1  0  0  0
  7 16  1  0  0  0
  9 17  1  0  0  0
M  END
$$$$
