4v0i_ligand
  -I-interpret- 

 48 51  0  0  0  0  0  0  0  0999 V2000
    7.9130   -3.4120    9.2940 C   0  0  0  0  0
    7.3130   -2.6720    8.2930 N   0  0  0  0  0
    6.0960   -1.9130    8.5260 C   0  0  0  0  0
    6.1110   -0.6900    7.6370 C   0  0  0  0  0
    6.1910   -1.1210    6.2840 O   0  0  0  0  0
    7.4660   -1.7160    6.0690 C   0  0  0  0  0
    7.5710   -2.9800    6.8950 C   0  0  0  0  0
    8.9280   -4.2820    8.9780 N   0  0  0  0  0
    9.4720   -4.9570    9.9360 C   0  0  0  0  0
    9.1060   -4.8760   11.2490 N   0  0  0  0  0
    8.1070   -4.0290   11.6500 C   0  0  0  0  0
    7.4830   -3.2500   10.5570 C   0  0  0  0  0
    7.7290   -3.8970   12.8040 O   0  0  0  0  0
   10.5720   -5.9240    9.6570 C   0  0  0  0  0
   10.0180   -7.2300    9.1860 C   0  0  0  0  0
    9.2600   -7.8650    9.9050 O   0  0  0  0  0
   10.4220   -7.5880    7.9100 N   0  0  0  0  0
   11.5590   -7.6950    5.8110 C   0  0  0  0  0
   11.4710   -6.9450    7.1320 C   0  0  0  0  0
   10.7400   -8.8970    6.0990 C   0  0  0  0  0
   10.1010   -8.8020    7.3020 C   0  0  0  0  0
    9.2850   -9.8080    7.7690 C   0  0  0  0  0
    9.1290  -10.9270    6.9770 C   0  0  0  0  0
    9.7800  -11.0270    5.7630 C   0  0  0  0  0
   10.5910  -10.0100    5.3050 C   0  0  0  0  0
   12.8120   -7.1090    7.8090 C   0  0  0  0  0
    6.0424   -1.6104    9.5718 H   0  0  0  0  0
    5.2259   -2.5279    8.2959 H   0  0  0  0  0
    6.9681   -0.0620    7.8802 H   0  0  0  0  0
    5.2034   -0.1060    7.7899 H   0  0  0  0  0
    8.2497   -1.0189    6.3657 H   0  0  0  0  0
    7.5831   -1.9585    5.0128 H   0  0  0  0  0
    6.8374   -3.7051    6.5425 H   0  0  0  0  0
    8.5735   -3.3960    6.7948 H   0  0  0  0  0
    9.5831   -5.4542   11.9407 H   0  0  0  0  0
    6.6783   -2.5480   10.7755 H   0  0  0  0  0
   11.1369   -6.0903   10.5742 H   0  0  0  0  0
   11.2152   -5.5123    8.8793 H   0  0  0  0  0
   12.5801   -7.9251    5.5068 H   0  0  0  0  0
   11.2030   -7.1185    4.9572 H   0  0  0  0  0
   11.2428   -5.8855    7.0159 H   0  0  0  0  0
    8.7797   -9.7233    8.7311 H   0  0  0  0  0
    8.4856  -11.7402    7.3128 H   0  0  0  0  0
    9.6507  -11.9240    5.1573 H   0  0  0  0  0
   11.0983  -10.0860    4.3433 H   0  0  0  0  0
   12.7761   -6.6536    8.7987 H   0  0  0  0  0
   13.0422   -8.1702    7.9041 H   0  0  0  0  0
   13.5816   -6.6211    7.2109 H   0  0  0  0  0
  1  2  1  0  0  0
  1  8  1  0  0  0
  1 12  2  0  0  0
  2  3  1  0  0  0
  2  7  1  0  0  0
  3  4  1  0  0  0
  4  5  1  0  0  0
  5  6  1  0  0  0
  6  7  1  0  0  0
  8  9  2  0  0  0
  9 10  1  0  0  0
  9 14  1  0  0  0
 10 11  1  0  0  0
 11 12  1  0  0  0
 11 13  2  0  0  0
 14 15  1  0  0  0
 15 16  2  0  0  0
 15 17  1  0  0  0
 17 19  1  0  0  0
 17 21  1  0  0  0
 19 18  1  0  0  0
 18 20  1  0  0  0
 19 26  1  0  0  0
 20 21  4  0  0  0
 20 25  4  0  0  0
 21 22  4  0  0  0
 22 23  4  0  0  0
 23 24  4  0  0  0
 24 25  4  0  0  0
  3 27  1  0  0  0
  3 28  1  0  0  0
  4 29  1  0  0  0
  4 30  1  0  0  0
  6 31  1  0  0  0
  6 32  1  0  0  0
  7 33  1  0  0  0
  7 34  1  0  0  0
 10 35  1  0  0  0
 12 36  1  0  0  0
 14 37  1  0  0  0
 14 38  1  0  0  0
 18 39  1  0  0  0
 18 40  1  0  0  0
 19 41  1  0  0  0
 22 42  1  0  0  0
 23 43  1  0  0  0
 24 44  1  0  0  0
 25 45  1  0  0  0
 26 46  1  0  0  0
 26 47  1  0  0  0
 26 48  1  0  0  0
M  END
$$$$
