6e6m_ligand
  -I-interpret- 

 41 42  0  0  0  0  0  0  0  0999 V2000
   -6.6210   10.4020    5.1410 O   0  0  0  0  0
   -2.9880    8.7960    2.4950 O   0  0  0  0  0
   -5.7390    7.5550    2.3430 C   0  0  0  0  0
   -5.4350    8.0780    3.7970 C   0  0  0  0  0
   -6.2080    6.1230    2.4560 C   0  0  0  0  0
   -5.0470    5.2610    2.8930 C   0  0  0  0  0
   -4.5780    7.1060    4.5300 C   0  0  0  0  0
   -4.3810    5.8150    4.1510 C   0  0  0  0  0
   -4.8400    9.5120    3.8080 C   0  0  0  0  0
   -6.7830    8.3990    1.6370 C   0  0  0  0  0
   -3.6000    4.8790    5.0300 C   0  0  0  0  0
   -5.3940   10.6530    4.4210 C   0  0  0  0  0
   -3.6650    9.8810    3.1850 C   0  0  0  0  0
   -8.1940    8.5240    2.1590 C   0  0  0  0  0
   -6.4330    9.0900    0.5070 C   0  0  0  0  0
   -4.9040   11.9400    4.4510 C   0  0  0  0  0
   -3.0980   11.1000    3.0990 C   0  0  0  0  0
   -3.6970   12.1680    3.7680 C   0  0  0  0  0
   -3.0490   13.5830    3.7300 C   0  0  0  0  0
   -6.9364   11.2215    5.5290 H   0  0  0  0  0
   -2.1841    9.1286    2.0892 H   0  0  0  0  0
   -4.8314    7.6216    1.7430 H   0  0  0  0  0
   -6.3863    8.1542    4.3235 H   0  0  0  0  0
   -6.5791    5.7795    1.4904 H   0  0  0  0  0
   -7.0130    6.0555    3.1878 H   0  0  0  0  0
   -4.3091    5.2431    2.0910 H   0  0  0  0  0
   -5.4224    4.2615    3.1126 H   0  0  0  0  0
   -4.0740    7.4529    5.4321 H   0  0  0  0  0
   -2.5912    5.2684    5.1674 H   0  0  0  0  0
   -4.0935    4.7952    5.9983 H   0  0  0  0  0
   -3.5508    3.8969    4.5596 H   0  0  0  0  0
   -8.4003    9.5671    2.3987 H   0  0  0  0  0
   -8.8936    8.1796    1.3974 H   0  0  0  0  0
   -8.3033    7.9152    3.0565 H   0  0  0  0  0
   -7.1681    9.7162    0.0015 H   0  0  0  0  0
   -5.4194    9.0136    0.1135 H   0  0  0  0  0
   -5.4252   12.7399    4.9770 H   0  0  0  0  0
   -2.1882   11.2492    2.5176 H   0  0  0  0  0
   -3.7401   14.2853    3.2638 H   0  0  0  0  0
   -2.8295   13.9081    4.7470 H   0  0  0  0  0
   -2.1253   13.5428    3.1527 H   0  0  0  0  0
 12  1  1  0  0  0
 13  2  1  0  0  0
  4  3  1  0  0  0
  3  5  1  0  0  0
  3 10  1  0  0  0
  4  7  1  0  0  0
  9  4  1  0  0  0
  5  6  1  0  0  0
  8  6  1  0  0  0
  7  8  2  0  0  0
  8 11  1  0  0  0
  9 12  4  0  0  0
  9 13  4  0  0  0
 10 14  1  0  0  0
 10 15  2  0  0  0
 12 16  4  0  0  0
 13 17  4  0  0  0
 16 18  4  0  0  0
 17 18  4  0  0  0
 18 19  1  0  0  0
  1 20  1  0  0  0
  2 21  1  0  0  0
  3 22  1  0  0  0
  4 23  1  0  0  0
  5 24  1  0  0  0
  5 25  1  0  0  0
  6 26  1  0  0  0
  6 27  1  0  0  0
  7 28  1  0  0  0
 11 29  1  0  0  0
 11 30  1  0  0  0
 11 31  1  0  0  0
 14 32  1  0  0  0
 14 33  1  0  0  0
 14 34  1  0  0  0
 15 35  1  0  0  0
 15 36  1  0  0  0
 16 37  1  0  0  0
 17 38  1  0  0  0
 19 39  1  0  0  0
 19 40  1  0  0  0
 19 41  1  0  0  0
M  END
$$$$
