5fh6_ligand
  -I-interpret- 

 44 47  0  0  0  0  0  0  0  0999 V2000
   15.6060   30.9060   18.2840 C   0  0  0  0  0
   15.9870   31.5500   16.9610 C   0  0  0  0  0
   15.2140   32.8400   16.7800 C   0  0  0  0  0
   13.7510   32.4830   16.7990 C   0  0  0  0  0
   13.3900   31.8190   18.1390 C   0  0  0  0  0
   14.1670   30.5850   18.3670 N   0  3  0  0  0
   13.8260   30.0240   19.5390 C   0  0  0  0  0
   14.1660   28.7750   19.9190 C   0  0  0  0  0
   15.3290   28.0610   19.7670 C   0  0  0  0  0
   14.6840   26.7270   19.7930 C   0  0  0  0  0
   14.1170   26.9550   21.1340 N   0  3  0  0  0
   13.8130   28.2770   21.1110 C   0  0  0  0  0
   13.1190   28.7980   22.1950 N   0  0  0  0  0
   12.8740   27.9900   23.3060 C   0  0  0  0  0
   12.3250   28.4700   24.2910 O   0  0  0  0  0
   13.2230   26.6470   23.2670 C   0  0  0  0  0
   13.8450   26.1320   22.1350 C   0  0  0  0  0
   14.1970   24.7770   22.1020 C   0  0  0  0  0
   13.9240   23.9470   23.1930 C   0  0  0  0  0
   13.2990   24.4850   24.3130 C   0  0  0  0  0
   12.9490   25.8290   24.3550 C   0  0  0  0  0
   15.8379   31.6135   19.0801 H   0  0  0  0  0
   16.1631   29.9736   18.3754 H   0  0  0  0  0
   15.7480   30.8680   16.1450 H   0  0  0  0  0
   17.0555   31.7656   16.9585 H   0  0  0  0  0
   15.4814   33.3211   15.8392 H   0  0  0  0  0
   15.4492   33.5456   17.5768 H   0  0  0  0  0
   13.5404   31.7884   15.9859 H   0  0  0  0  0
   13.1586   33.3897   16.6765 H   0  0  0  0  0
   12.3319   31.5583   18.1178 H   0  0  0  0  0
   13.6186   32.5206   18.9413 H   0  0  0  0  0
   13.9558   29.8936   17.6474 H   0  0  0  0  0
   12.7407   29.9591   19.4618 H   0  0  0  0  0
   14.3599   30.6428   20.2602 H   0  0  0  0  0
   13.5629   28.7132   19.0132 H   0  0  0  0  0
   16.1160   28.2412   20.4993 H   0  0  0  0  0
   15.9396   28.2952   18.8950 H   0  0  0  0  0
   15.3044   25.8452   19.6327 H   0  0  0  0  0
   14.0086   26.4590   18.9805 H   0  0  0  0  0
   12.7909   29.7637   22.1793 H   0  0  0  0  0
   14.6874   24.3666   21.2192 H   0  0  0  0  0
   14.1973   22.8921   23.1664 H   0  0  0  0  0
   13.0812   23.8448   25.1678 H   0  0  0  0  0
   12.4611   26.2397   25.2389 H   0  0  0  0  0
  1  2  1  0  0  0
  1  6  1  0  0  0
  2  3  1  0  0  0
  3  4  1  0  0  0
  4  5  1  0  0  0
  5  6  1  0  0  0
  6  7  1  0  0  0
  7  8  1  0  0  0
  8  9  1  0  0  0
  8 12  1  0  0  0
  9 10  1  0  0  0
 10 11  1  0  0  0
 11 12  2  0  0  0
 11 17  1  0  0  0
 12 13  1  0  0  0
 13 14  1  0  0  0
 14 15  2  0  0  0
 14 16  1  0  0  0
 16 17  4  0  0  0
 16 21  4  0  0  0
 17 18  4  0  0  0
 18 19  4  0  0  0
 19 20  4  0  0  0
 20 21  4  0  0  0
  1 22  1  0  0  0
  1 23  1  0  0  0
  2 24  1  0  0  0
  2 25  1  0  0  0
  3 26  1  0  0  0
  3 27  1  0  0  0
  4 28  1  0  0  0
  4 29  1  0  0  0
  5 30  1  0  0  0
  5 31  1  0  0  0
  6 32  1  0  0  0
  7 33  1  0  0  0
  7 34  1  0  0  0
  8 35  1  0  0  0
  9 36  1  0  0  0
  9 37  1  0  0  0
 10 38  1  0  0  0
 10 39  1  0  0  0
 13 40  1  0  0  0
 18 41  1  0  0  0
 19 42  1  0  0  0
 20 43  1  0  0  0
 21 44  1  0  0  0
M  END
$$$$
