2w68_ligand
  -I-interpret- 

 82 84  0  0  0  0  0  0  0  0999 V2000
   25.4450  -37.8050   -6.3780 C   0  0  0  0  0
   24.2850  -36.9760   -5.8170 C   0  0  0  0  0
   23.0430  -37.1290   -6.6950 C   0  0  0  0  0
   22.3470  -38.4590   -6.5130 C   0  0  0  0  0
   22.0200  -38.6050   -5.0460 C   0  0  0  0  0
   23.3610  -38.6050   -4.3370 C   0  0  0  0  0
   23.3070  -38.9580   -2.8570 C   0  0  0  0  0
   24.6640  -38.7050   -2.1970 C   0  0  0  0  0
   24.6990  -39.1910   -0.7560 C   0  0  0  0  0
   20.2160  -40.2250   -4.5900 C   0  0  0  0  0
   19.8840  -41.6910   -4.5720 C   0  0  0  0  0
   21.4750  -39.9490   -4.9500 N   0  0  0  0  0
   26.0360  -38.6360   -5.6390 O   0  0  0  0  0
   25.7990  -37.6280   -7.5790 O   0  0  0  0  0
   21.1700  -38.4970   -7.3160 O   0  0  0  0  0
   24.0040  -37.3500   -4.4710 O   0  0  0  0  0
   22.2390  -38.2680   -2.2230 O   0  0  0  0  0
   25.6650  -39.4960   -2.8780 O   0  0  0  0  0
   25.2470  -40.5300   -0.7550 O   0  0  0  0  0
   19.3880  -39.3750   -4.2860 O   0  0  0  0  0
   26.6100  -33.2270   -3.8570 C   0  0  0  0  0
   25.3560  -33.7440   -4.5300 C   0  0  0  0  0
   25.6940  -35.1030   -5.1360 C   0  0  0  0  0
   26.9240  -34.9890   -6.0440 C   0  0  0  0  0
   28.0880  -34.3650   -5.3020 C   0  0  0  0  0
   29.2960  -34.1930   -6.2170 C   0  0  0  0  0
   24.3320  -33.8310   -3.5430 O   0  0  0  0  0
   24.5640  -35.5650   -5.8830 O   0  0  0  0  0
   26.6150  -34.1520   -7.1650 O   0  0  0  0  0
   27.6420  -33.0900   -4.8390 O   0  0  0  0  0
   30.2840  -35.1700   -5.8590 O   0  0  0  0  0
   28.5270  -29.5480   -1.5230 C   0  0  0  0  0
   27.6530  -30.0830   -2.6410 C   0  0  0  0  0
   27.4250  -31.5810   -2.4330 C   0  0  0  0  0
   27.1840  -31.9780   -0.9600 C   0  0  0  0  0
   28.3890  -32.7350   -0.3980 C   0  0  0  0  0
   27.8020  -29.7120   -0.1750 C   0  0  0  0  0
   28.7880  -29.8760    0.8480 O   0  0  0  0  0
   28.8160  -28.1800   -1.7990 O   0  0  0  0  0
   28.2830  -29.8380   -3.8990 O   0  0  0  0  0
   26.3270  -31.9710   -3.2590 O   0  0  0  0  0
   26.8830  -30.8390   -0.1300 O   0  0  0  0  0
   28.1060  -34.1320   -0.3750 O   0  0  0  0  0
   23.3627  -37.0624   -7.7349 H   0  0  0  0  0
   22.3394  -36.3459   -6.4123 H   0  0  0  0  0
   22.9835  -39.2860   -6.8277 H   0  0  0  0  0
   21.3525  -37.8433   -4.6431 H   0  0  0  0  0
   23.9239  -39.3958   -4.8328 H   0  0  0  0  0
   23.1012  -40.0223   -2.7431 H   0  0  0  0  0
   24.8428  -37.6308   -2.2439 H   0  0  0  0  0
   23.6947  -39.1925   -0.3323 H   0  0  0  0  0
   25.3155  -38.5290   -0.1479 H   0  0  0  0  0
   19.5878  -41.9828   -3.5644 H   0  0  0  0  0
   19.0642  -41.8851   -5.2637 H   0  0  0  0  0
   20.7601  -42.2644   -4.8749 H   0  0  0  0  0
   22.0911  -40.7313   -5.1710 H   0  0  0  0  0
   25.2377  -36.9615   -7.9820 H   0  0  0  0  0
   21.4114  -38.4019   -8.2403 H   0  0  0  0  0
   21.4173  -38.4645   -2.6788 H   0  0  0  0  0
   26.5215  -39.3449   -2.4717 H   0  0  0  0  0
   25.2798  -40.8605    0.1457 H   0  0  0  0  0
   26.9431  -33.9217   -3.0859 H   0  0  0  0  0
   25.0004  -33.0885   -5.3249 H   0  0  0  0  0
   25.9250  -35.8137   -4.3425 H   0  0  0  0  0
   27.1958  -35.9929   -6.3703 H   0  0  0  0  0
   28.3993  -35.0052   -4.4766 H   0  0  0  0  0
   29.7076  -33.1901   -6.1038 H   0  0  0  0  0
   28.9972  -34.3308   -7.2561 H   0  0  0  0  0
   23.5254  -34.1575   -3.9483 H   0  0  0  0  0
   27.3861  -34.0816   -7.7325 H   0  0  0  0  0
   31.0505  -35.0719   -6.4286 H   0  0  0  0  0
   29.4632  -30.1029   -1.4619 H   0  0  0  0  0
   26.6876  -29.5770   -2.6324 H   0  0  0  0  0
   28.3363  -32.1088   -2.7142 H   0  0  0  0  0
   26.3130  -32.6331   -0.9476 H   0  0  0  0  0
   28.5939  -32.3897    0.6153 H   0  0  0  0  0
   29.2590  -32.5515   -1.0286 H   0  0  0  0  0
   27.1976  -28.8171   -0.0269 H   0  0  0  0  0
   28.3523  -29.9798    1.6971 H   0  0  0  0  0
   29.3696  -27.8238   -1.1003 H   0  0  0  0  0
   27.7281  -30.1774   -4.6050 H   0  0  0  0  0
   28.8632  -34.6050   -0.0221 H   0  0  0  0  0
  2  1  1  0  0  0
  1 13  2  0  0  0
  1 14  1  0  0  0
  2  3  1  0  0  0
  2 16  1  0  0  0
 28  2  1  0  0  0
  3  4  1  0  0  0
  4  5  1  0  0  0
  4 15  1  0  0  0
  6  5  1  0  0  0
  5 12  1  0  0  0
  6  7  1  0  0  0
 16  6  1  0  0  0
  7  8  1  0  0  0
  7 17  1  0  0  0
  8  9  1  0  0  0
  8 18  1  0  0  0
  9 19  1  0  0  0
 10 11  1  0  0  0
 12 10  1  0  0  0
 10 20  2  0  0  0
 21 22  1  0  0  0
 21 30  1  0  0  0
 41 21  1  0  0  0
 22 23  1  0  0  0
 22 27  1  0  0  0
 23 24  1  0  0  0
 23 28  1  0  0  0
 25 24  1  0  0  0
 24 29  1  0  0  0
 25 26  1  0  0  0
 30 25  1  0  0  0
 26 31  1  0  0  0
 33 32  1  0  0  0
 32 37  1  0  0  0
 32 39  1  0  0  0
 34 33  1  0  0  0
 33 40  1  0  0  0
 34 35  1  0  0  0
 34 41  1  0  0  0
 35 36  1  0  0  0
 35 42  1  0  0  0
 36 43  1  0  0  0
 37 38  1  0  0  0
 37 42  1  0  0  0
  3 44  1  0  0  0
  3 45  1  0  0  0
  4 46  1  0  0  0
  5 47  1  0  0  0
  6 48  1  0  0  0
  7 49  1  0  0  0
  8 50  1  0  0  0
  9 51  1  0  0  0
  9 52  1  0  0  0
 11 53  1  0  0  0
 11 54  1  0  0  0
 11 55  1  0  0  0
 12 56  1  0  0  0
 14 57  1  0  0  0
 15 58  1  0  0  0
 17 59  1  0  0  0
 18 60  1  0  0  0
 19 61  1  0  0  0
 21 62  1  0  0  0
 22 63  1  0  0  0
 23 64  1  0  0  0
 24 65  1  0  0  0
 25 66  1  0  0  0
 26 67  1  0  0  0
 26 68  1  0  0  0
 27 69  1  0  0  0
 29 70  1  0  0  0
 31 71  1  0  0  0
 32 72  1  0  0  0
 33 73  1  0  0  0
 34 74  1  0  0  0
 35 75  1  0  0  0
 36 76  1  0  0  0
 36 77  1  0  0  0
 37 78  1  0  0  0
 38 79  1  0  0  0
 39 80  1  0  0  0
 40 81  1  0  0  0
 43 82  1  0  0  0
M  END
$$$$
