3wqh_ligand
  -I-interpret- 

 54 56  0  0  0  0  0  0  0  0999 V2000
   50.3840   50.3090   36.6630 N   0  0  0  0  0
   47.2120   50.6150   37.8760 N   0  0  0  0  0
   45.4720   52.1400   34.9750 N   0  3  0  0  0
   45.3230   51.1640   31.3750 N   0  0  0  0  0
   43.7290   49.1470   27.2580 N   0  0  0  0  0
   45.9620   48.7400   28.0500 N   0  0  0  0  0
   47.1110   48.0610   27.6630 N   0  0  0  0  0
   47.7620   52.3970   36.5880 O   0  0  0  0  0
   43.1130   51.2730   30.8430 O   0  0  0  0  0
   49.5660   50.3910   37.4750 C   0  0  0  0  0
   48.5120   50.5140   38.4970 C   0  0  0  0  0
   48.3610   49.2870   39.4120 C   0  0  0  0  0
   46.8620   49.1530   39.6460 C   0  0  0  0  0
   46.2400   49.6450   38.3400 C   0  0  0  0  0
   46.9390   51.5510   36.9420 C   0  0  0  0  0
   45.5380   51.5360   36.3230 C   0  0  0  0  0
   45.8960   51.3210   33.8070 C   0  0  0  0  0
   47.4280   51.3780   33.6390 C   0  0  0  0  0
   45.4570   49.8410   33.9370 C   0  0  0  0  0
   45.2180   51.9720   32.5890 C   0  0  0  0  0
   44.2580   50.8850   30.5990 C   0  0  0  0  0
   44.5550   50.0580   29.3700 C   0  0  0  0  0
   45.7910   49.4740   29.1820 C   0  0  0  0  0
   43.5590   49.8580   28.3740 C   0  0  0  0  0
   44.9370   48.5720   27.0830 C   0  0  0  0  0
   45.4740   47.7880   26.1090 C   0  0  0  0  0
   46.7980   47.5030   26.5080 C   0  0  0  0  0
   47.7910   46.6690   25.7570 C   0  0  0  0  0
   46.1248   52.9233   35.0020 H   0  0  0  0  0
   44.4830   52.3347   34.8187 H   0  0  0  0  0
   46.2363   50.7982   31.1058 H   0  0  0  0  0
   48.8176   51.3906   39.0683 H   0  0  0  0  0
   48.9067   49.4106   40.3474 H   0  0  0  0  0
   48.7810   48.3897   38.9576 H   0  0  0  0  0
   46.5247   49.7291   40.5076 H   0  0  0  0  0
   46.5702   48.1300   39.8835 H   0  0  0  0  0
   46.0609   48.8434   37.6235 H   0  0  0  0  0
   45.2445   50.0682   38.4738 H   0  0  0  0  0
   45.2377   50.4927   36.2258 H   0  0  0  0  0
   44.8899   52.1234   36.9735 H   0  0  0  0  0
   47.9047   50.9279   34.5098 H   0  0  0  0  0
   47.7145   50.8290   32.7420 H   0  0  0  0  0
   47.7437   52.4172   33.5469 H   0  0  0  0  0
   45.7492   49.2965   33.0391 H   0  0  0  0  0
   45.9394   49.3953   34.8069 H   0  0  0  0  0
   44.3746   49.7936   34.0561 H   0  0  0  0  0
   44.1590   52.0860   32.8207 H   0  0  0  0  0
   45.7183   52.9216   32.3994 H   0  0  0  0  0
   46.5945   49.5956   29.9084 H   0  0  0  0  0
   42.5848   50.3199   28.5346 H   0  0  0  0  0
   44.9793   47.4471   25.1996 H   0  0  0  0  0
   48.6647   47.2749   25.5169 H   0  0  0  0  0
   48.0927   45.8224   26.3737 H   0  0  0  0  0
   47.3353   46.3052   24.8361 H   0  0  0  0  0
 10  1  3  0  0  0
  2 11  1  0  0  0
  2 14  1  0  0  0
 15  2  1  0  0  0
  3 16  1  0  0  0
 17  3  1  0  0  0
  4 20  1  0  0  0
 21  4  1  0  0  0
  5 24  4  0  0  0
 25  5  4  0  0  0
  6  7  4  0  0  0
 23  6  4  0  0  0
  6 25  4  0  0  0
  7 27  4  0  0  0
 15  8  2  0  0  0
 21  9  2  0  0  0
 11 10  1  0  0  0
 11 12  1  0  0  0
 13 12  1  0  0  0
 14 13  1  0  0  0
 16 15  1  0  0  0
 17 18  1  0  0  0
 17 19  1  0  0  0
 20 17  1  0  0  0
 22 21  1  0  0  0
 22 23  4  0  0  0
 22 24  4  0  0  0
 25 26  4  0  0  0
 26 27  4  0  0  0
 27 28  1  0  0  0
  3 29  1  0  0  0
  3 30  1  0  0  0
  4 31  1  0  0  0
 11 32  1  0  0  0
 12 33  1  0  0  0
 12 34  1  0  0  0
 13 35  1  0  0  0
 13 36  1  0  0  0
 14 37  1  0  0  0
 14 38  1  0  0  0
 16 39  1  0  0  0
 16 40  1  0  0  0
 18 41  1  0  0  0
 18 42  1  0  0  0
 18 43  1  0  0  0
 19 44  1  0  0  0
 19 45  1  0  0  0
 19 46  1  0  0  0
 20 47  1  0  0  0
 20 48  1  0  0  0
 23 49  1  0  0  0
 24 50  1  0  0  0
 26 51  1  0  0  0
 28 52  1  0  0  0
 28 53  1  0  0  0
 28 54  1  0  0  0
M  END
$$$$
