5ugc_ligand
  -I-interpret- 

 54 57  0  0  0  0  0  0  0  0999 V2000
  -15.0620   16.6030  -25.6110 C   0  0  0  0  0
  -13.2960   15.7470  -27.1490 C   0  0  0  0  0
  -13.3240   13.3790  -27.5890 C   0  0  0  0  0
  -11.6800   14.8600  -28.4990 C   0  0  0  0  0
  -10.5940   14.7630  -29.3130 N   0  0  0  0  0
  -10.4560   13.4440  -29.6560 C   0  0  0  0  0
   -9.7480   15.8520  -29.7370 C   0  0  0  0  0
  -15.1190   11.8410  -26.7970 C   0  0  0  0  0
  -15.8820   10.6910  -27.0500 C   0  0  0  0  0
  -18.0140   12.0750  -24.6620 C   0  0  0  0  0
  -14.0800   18.0860  -21.4410 C   0  0  0  0  0
  -15.3170   18.0080  -25.0490 C   0  0  0  0  0
  -14.6970   18.9160  -26.0950 C   0  0  0  0  0
  -13.4440   18.1590  -26.5260 C   0  0  0  0  0
  -13.8990   16.7860  -26.4740 N   0  0  0  0  0
  -13.8470   14.5090  -26.9970 N   0  0  0  0  0
  -12.1660   13.5560  -28.3890 C   0  0  0  0  0
  -12.1910   15.9810  -27.9150 N   0  0  0  0  0
  -11.3900   12.6860  -29.1170 N   0  0  0  0  0
  -13.9450   12.1250  -27.4310 N   0  0  0  0  0
  -15.8440   12.5310  -25.8370 C   0  0  0  0  0
  -16.9490   11.7730  -25.5900 N   0  0  0  0  0
  -17.0040   10.6400  -26.3160 N   0  0  0  0  0
  -15.5240    9.7320  -27.9550 O   0  0  0  0  0
  -16.4200    8.6310  -28.1090 C   0  0  0  0  0
  -15.5660   19.0150  -27.1490 F   0  0  0  0  0
  -14.6050   18.1890  -23.7740 N   0  0  0  0  0
  -15.0610   17.7210  -22.5510 C   0  0  0  0  0
  -14.3550   17.3890  -20.1160 C   0  0  0  0  0
  -16.1100   17.0990  -22.3720 O   0  0  0  0  0
  -15.9228   16.2061  -26.1492 H   0  0  0  0  0
  -14.8885   15.8652  -24.8276 H   0  0  0  0  0
   -9.6638   13.0644  -30.3013 H   0  0  0  0  0
  -10.3447   16.5824  -30.2834 H   0  0  0  0  0
   -9.3025   16.3261  -28.8624 H   0  0  0  0  0
   -8.9599   15.4674  -30.3844 H   0  0  0  0  0
  -17.6045   12.1574  -23.6552 H   0  0  0  0  0
  -18.4827   13.0180  -24.9432 H   0  0  0  0  0
  -18.7556   11.2767  -24.6897 H   0  0  0  0  0
  -14.1732   19.1580  -21.2673 H   0  0  0  0  0
  -13.0890   17.7738  -21.7704 H   0  0  0  0  0
  -16.3729   18.2018  -24.8604 H   0  0  0  0  0
  -14.4785   19.9224  -25.7379 H   0  0  0  0  0
  -12.5786   18.3545  -25.8928 H   0  0  0  0  0
  -13.0718   18.4568  -27.5062 H   0  0  0  0  0
  -13.4559   11.3298  -27.8419 H   0  0  0  0  0
  -15.5835   13.4834  -25.3752 H   0  0  0  0  0
  -16.5263    8.1145  -27.1550 H   0  0  0  0  0
  -17.3929    8.9988  -28.4349 H   0  0  0  0  0
  -16.0223    7.9421  -28.8542 H   0  0  0  0  0
  -13.7177   18.6918  -23.7910 H   0  0  0  0  0
  -15.3517   17.6574  -19.7658 H   0  0  0  0  0
  -14.2960   16.3096  -20.2556 H   0  0  0  0  0
  -13.6136   17.7027  -19.3812 H   0  0  0  0  0
 12  1  1  0  0  0
  1 15  1  0  0  0
 15  2  1  0  0  0
  2 16  4  0  0  0
  2 18  4  0  0  0
 16  3  4  0  0  0
  3 17  4  0  0  0
  3 20  1  0  0  0
  4  5  4  0  0  0
  4 17  4  0  0  0
 18  4  4  0  0  0
  5  6  4  0  0  0
  5  7  1  0  0  0
 19  6  4  0  0  0
  8  9  4  0  0  0
 20  8  1  0  0  0
  8 21  4  0  0  0
  9 23  4  0  0  0
  9 24  1  0  0  0
 22 10  1  0  0  0
 28 11  1  0  0  0
 11 29  1  0  0  0
 12 13  1  0  0  0
 27 12  1  0  0  0
 13 14  1  0  0  0
 13 26  1  0  0  0
 14 15  1  0  0  0
 17 19  4  0  0  0
 21 22  4  0  0  0
 22 23  4  0  0  0
 24 25  1  0  0  0
 27 28  1  0  0  0
 28 30  2  0  0  0
  1 31  1  0  0  0
  1 32  1  0  0  0
  6 33  1  0  0  0
  7 34  1  0  0  0
  7 35  1  0  0  0
  7 36  1  0  0  0
 10 37  1  0  0  0
 10 38  1  0  0  0
 10 39  1  0  0  0
 11 40  1  0  0  0
 11 41  1  0  0  0
 12 42  1  0  0  0
 13 43  1  0  0  0
 14 44  1  0  0  0
 14 45  1  0  0  0
 20 46  1  0  0  0
 21 47  1  0  0  0
 25 48  1  0  0  0
 25 49  1  0  0  0
 25 50  1  0  0  0
 27 51  1  0  0  0
 29 52  1  0  0  0
 29 53  1  0  0  0
 29 54  1  0  0  0
M  END
$$$$
