3sfg_ligand
  -I-interpret- 

 29 30  0  0  0  0  0  0  0  0999 V2000
   45.6260    0.8660   25.8400 N   0  0  0  0  0
   45.3410    2.2300   25.9460 C   0  0  0  0  0
   46.4400    3.3370   25.1870 S   0  0  0  0  0
   44.2350    2.6250   26.6130 N   0  0  0  0  0
   43.4120    1.7070   27.1830 C   0  0  0  0  0
   42.3900    2.0860   27.8100 O   0  0  0  0  0
   43.7000    0.3430   27.0750 C   0  0  0  0  0
   44.8330   -0.0650   26.3820 C   0  0  0  0  0
   46.8290    0.5220   25.0860 C   0  0  0  0  0
   47.5130   -0.7510   25.5630 C   0  0  0  0  0
   48.3410   -0.5030   26.6820 O   0  0  0  0  0
   48.2480   -1.1930   24.2900 C   0  0  0  0  0
   49.4750   -0.4760   24.1710 O   0  0  0  0  0
   47.2960   -0.7540   23.1720 C   0  0  0  0  0
   46.4590    0.2890   23.7400 O   0  0  0  0  0
   46.4120   -1.8440   22.6020 C   0  0  0  0  0
   45.4070   -1.3140   21.7380 O   0  0  0  0  0
   44.0165    3.6184   26.6891 H   0  0  0  0  0
   43.0403   -0.3950   27.5313 H   0  0  0  0  0
   45.0712   -1.1239   26.2818 H   0  0  0  0  0
   47.5200    1.3546   25.2181 H   0  0  0  0  0
   46.8511   -1.5301   25.9412 H   0  0  0  0  0
   48.7572   -1.3227   26.9586 H   0  0  0  0  0
   48.4847   -2.2569   24.2738 H   0  0  0  0  0
   49.9315   -0.7552   23.3739 H   0  0  0  0  0
   47.9057   -0.4277   22.3295 H   0  0  0  0  0
   45.9184   -2.3527   23.4300 H   0  0  0  0  0
   47.0370   -2.5244   22.0236 H   0  0  0  0  0
   44.8684   -2.0319   21.3973 H   0  0  0  0  0
  1  2  1  0  0  0
  1  8  1  0  0  0
  1  9  1  0  0  0
  2  3  2  0  0  0
  2  4  1  0  0  0
  4  5  1  0  0  0
  5  6  2  0  0  0
  5  7  1  0  0  0
  7  8  2  0  0  0
  9 10  1  0  0  0
  9 15  1  0  0  0
 10 11  1  0  0  0
 10 12  1  0  0  0
 12 13  1  0  0  0
 12 14  1  0  0  0
 14 15  1  0  0  0
 14 16  1  0  0  0
 16 17  1  0  0  0
  4 18  1  0  0  0
  7 19  1  0  0  0
  8 20  1  0  0  0
  9 21  1  0  0  0
 10 22  1  0  0  0
 11 23  1  0  0  0
 12 24  1  0  0  0
 13 25  1  0  0  0
 14 26  1  0  0  0
 16 27  1  0  0  0
 16 28  1  0  0  0
 17 29  1  0  0  0
M  END
$$$$
