3u2k_ligand
  -I-interpret- 

 44 46  0  0  0  0  0  0  0  0999 V2000
    5.5680    8.3670   23.6180 C   0  0  0  0  0
   -4.8970   -1.4580   23.0670 Cl  0  0  0  0  0
    4.2700    7.6230   23.5300 C   0  0  0  0  0
    0.9340    6.5700   21.8840 Cl  0  0  0  0  0
    3.3600    7.6780   22.5220 C   0  0  0  0  0
    3.4080    8.6500   21.0550 Cl  0  0  0  0  0
    2.3270    6.7950   22.8750 C   0  0  0  0  0
    2.6280    6.2230   24.1090 C   0  0  0  0  0
    3.8510    6.7420   24.4810 N   0  0  0  0  0
    1.9110    5.2240   24.9150 C   0  0  0  0  0
    2.4290    4.8550   25.9700 O   0  0  0  0  0
    0.7290    4.6880   24.4950 N   0  0  0  0  0
    0.0410    3.6530   25.2790 C   0  0  0  0  0
   -1.4120    3.5290   24.7830 C   0  0  0  0  0
   -2.0840    2.2590   25.3400 C   0  0  0  0  0
   -1.2290    1.0980   25.0350 N   0  0  0  0  0
    0.0920    1.1370   25.6640 C   0  0  0  0  0
    0.8220    2.3410   25.0500 C   0  0  0  0  0
   -1.8290   -0.1550   24.9870 C   0  0  0  0  0
   -1.3170   -1.2490   25.6950 C   0  0  0  0  0
   -1.9510   -2.4930   25.6040 C   0  0  0  0  0
   -3.0830   -2.5820   24.7750 C   0  0  0  0  0
   -3.5120   -1.4450   24.1040 C   0  0  0  0  0
   -2.8870   -0.2930   24.2200 N   0  0  0  0  0
   -1.4400   -3.6650   26.3670 C   0  0  0  0  0
   -0.2420   -3.8480   26.4900 O   0  0  0  0  0
   -2.2900   -4.5440   26.9380 N   0  0  0  0  0
    6.2005    8.0926   22.7738 H   0  0  0  0  0
    5.3731    9.4392   23.5943 H   0  0  0  0  0
    6.0711    8.1084   24.5497 H   0  0  0  0  0
    0.3152    5.0116   23.6207 H   0  0  0  0  0
    0.0084    3.8922   26.3419 H   0  0  0  0  0
   -1.4044    3.4700   23.6946 H   0  0  0  0  0
   -1.9724    4.3985   25.1264 H   0  0  0  0  0
   -3.0638    2.1274   24.8810 H   0  0  0  0  0
   -2.2118    2.3510   26.4186 H   0  0  0  0  0
    0.6401    0.2118   25.4858 H   0  0  0  0  0
    0.0097    1.2369   26.7463 H   0  0  0  0  0
    1.7982    2.4326   25.5263 H   0  0  0  0  0
    0.9152    2.1775   23.9764 H   0  0  0  0  0
   -0.4279   -1.1321   26.3147 H   0  0  0  0  0
   -3.6143   -3.5269   24.6612 H   0  0  0  0  0
   -1.9251   -5.3412   27.4593 H   0  0  0  0  0
   -3.2973   -4.4112   26.8483 H   0  0  0  0  0
  3  1  1  0  0  0
 23  2  1  0  0  0
  3  5  4  0  0  0
  9  3  4  0  0  0
  7  4  1  0  0  0
  5  6  1  0  0  0
  7  5  4  0  0  0
  8  7  4  0  0  0
  8  9  4  0  0  0
 10  8  1  0  0  0
 10 11  2  0  0  0
 12 10  1  0  0  0
 13 12  1  0  0  0
 14 13  1  0  0  0
 18 13  1  0  0  0
 15 14  1  0  0  0
 16 15  1  0  0  0
 16 17  1  0  0  0
 19 16  1  0  0  0
 17 18  1  0  0  0
 20 19  4  0  0  0
 19 24  4  0  0  0
 21 20  4  0  0  0
 22 21  4  0  0  0
 21 25  1  0  0  0
 22 23  4  0  0  0
 23 24  4  0  0  0
 25 26  2  0  0  0
 25 27  1  0  0  0
  1 28  1  0  0  0
  1 29  1  0  0  0
  1 30  1  0  0  0
 12 31  1  0  0  0
 13 32  1  0  0  0
 14 33  1  0  0  0
 14 34  1  0  0  0
 15 35  1  0  0  0
 15 36  1  0  0  0
 17 37  1  0  0  0
 17 38  1  0  0  0
 18 39  1  0  0  0
 18 40  1  0  0  0
 20 41  1  0  0  0
 22 42  1  0  0  0
 27 43  1  0  0  0
 27 44  1  0  0  0
M  END
$$$$
