6rnu_ligand
  -I-interpret- 

 28 29  0  0  0  0  0  0  0  0999 V2000
   35.6180   12.8300  -15.7820 C   0  0  0  0  0
   35.1890   12.0570  -16.8500 C   0  0  0  0  0
   33.8530   12.0260  -17.2040 C   0  0  0  0  0
   29.3930   11.3340  -16.9860 C   0  0  0  0  0
   28.8550   12.3240  -17.7720 C   0  0  0  0  0
   29.5600   13.4210  -18.1740 C   0  0  0  0  0
   30.8690   13.5480  -17.7500 C   0  0  0  0  0
   33.3330   13.5220  -15.4100 C   0  0  0  0  0
   34.6770   13.5500  -15.0520 C   0  0  0  0  0
   27.5710   12.2010  -18.1770 F   0  0  0  0  0
   30.7130   11.4590  -16.5930 C   0  0  0  0  0
   31.4640   12.5860  -16.9340 C   0  0  0  0  0
   32.8790   12.7310  -16.4860 C   0  0  0  0  0
   37.0630   12.8850  -15.4150 C   0  0  0  0  0
   37.3220   13.6270  -14.3770 O   0  0  0  0  0
   37.9220   12.2590  -16.0360 O   0  0  0  0  0
   32.2560   14.5040  -14.3810 S   0  0  0  0  0
   31.0420   14.7970  -15.0650 O   0  0  0  0  0
   33.0080   15.5900  -13.8520 O   0  0  0  0  0
   35.9115   11.4685  -17.4155 H   0  0  0  0  0
   33.5486   11.4351  -18.0679 H   0  0  0  0  0
   28.7964   10.4744  -16.6808 H   0  0  0  0  0
   29.1028   14.1769  -18.8125 H   0  0  0  0  0
   31.4484   14.4178  -18.0596 H   0  0  0  0  0
   34.9956   14.1405  -14.1930 H   0  0  0  0  0
   31.1751   10.6644  -16.0072 H   0  0  0  0  0
   36.5073   14.0188  -14.0538 H   0  0  0  0  0
   31.8187   13.8493  -13.3090 H   0  0  0  0  0
  2  1  4  0  0  0
  9  1  4  0  0  0
  1 14  1  0  0  0
  3  2  4  0  0  0
 13  3  4  0  0  0
  4  5  4  0  0  0
 11  4  4  0  0  0
  6  5  4  0  0  0
  5 10  1  0  0  0
  7  6  4  0  0  0
 12  7  4  0  0  0
  8  9  4  0  0  0
 13  8  4  0  0  0
  8 17  1  0  0  0
 12 11  4  0  0  0
 12 13  1  0  0  0
 14 15  1  0  0  0
 14 16  2  0  0  0
 17 18  2  0  0  0
 17 19  2  0  0  0
  2 20  1  0  0  0
  3 21  1  0  0  0
  4 22  1  0  0  0
  6 23  1  0  0  0
  7 24  1  0  0  0
  9 25  1  0  0  0
 11 26  1  0  0  0
 15 27  1  0  0  0
 17 28  1  0  0  0
M  END
$$$$
