1tps_ligand
  -I-interpret- 

144146  0  0  0  0  0  0  0  0999 V2000
   23.0880    0.0260   33.5880 C   0  0  0  0  0
   23.4920    0.4240   35.0090 C   0  0  0  0  0
   22.3140    0.8040   35.7780 N   0  0  0  0  0
   21.9350    2.0720   35.8740 C   0  0  0  0  0
   20.5560    2.3260   36.4620 C   0  0  0  0  0
   20.3270    1.5240   37.6610 N   0  0  0  0  0
   19.2380    0.7730   37.8350 C   0  0  0  0  0
   18.2040    0.7150   36.6950 C   0  0  0  0  0
   18.4460   -0.3350   35.6820 N   0  0  0  0  0
   18.4760    0.0690   34.3900 C   0  0  0  0  0
   18.6200   -0.9990   33.3170 C   0  0  0  0  0
   19.3800   -0.4500   32.1950 N   0  0  0  0  0
   18.7640   -0.0100   31.1020 C   0  0  0  0  0
   19.6070    0.8360   30.1490 C   0  0  0  0  0
   20.9850    0.3800   30.0940 N   0  0  0  0  0
   21.9300    1.1170   30.6610 C   0  0  0  0  0
   23.3770    0.7190   30.3720 C   0  0  0  0  0
   23.8080   -0.4110   31.3370 C   0  0  0  0  0
   24.0010    0.1170   32.6640 O   0  0  0  0  0
   24.2220    1.8980   30.4860 N   0  0  0  0  0
   24.1200    2.8970   29.6150 C   0  0  0  0  0
   25.0950    4.0480   29.7760 C   0  0  0  0  0
   24.3620    5.3090   29.7150 N   0  0  0  0  0
   24.3270    6.1570   30.7320 C   0  0  0  0  0
   23.4840    7.4050   30.5390 C   0  0  0  0  0
   24.3920    8.6190   30.3360 C   0  0  0  0  0
   21.9420   -0.3600   33.3400 O   0  0  0  0  0
   24.2690   -0.7360   35.6870 C   0  0  0  0  0
   24.4890   -0.4150   37.1520 C   0  0  0  0  0
   23.5300   -2.0490   35.5410 C   0  0  0  0  0
   22.6540    3.0140   35.5330 O   0  0  0  0  0
   19.0310    0.1500   38.8790 O   0  0  0  0  0
   18.3720    1.2570   34.0680 O   0  0  0  0  0
   17.5880   -0.2740   30.8580 O   0  0  0  0  0
   21.6650    2.1150   31.3460 O   0  0  0  0  0
   20.4040    3.8160   36.7810 C   0  0  0  0  0
   18.9780    4.2270   37.0370 C   0  0  0  0  0
   18.3760    4.0160   38.2820 C   0  0  0  0  0
   17.0400    4.3600   38.5000 C   0  0  0  0  0
   16.3030    4.9200   37.4620 C   0  0  0  0  0
   14.9940    5.3040   37.6460 O   0  0  0  0  0
   16.8880    5.1360   36.2250 C   0  0  0  0  0
   18.2150    4.7890   36.0210 C   0  0  0  0  0
   21.3470    1.5860   38.7070 C   0  0  0  0  0
   16.8210    0.3710   37.2680 C   0  0  0  0  0
   15.5360    0.3760   36.4360 C   0  0  0  0  0
   14.3640    0.1840   37.3900 C   0  0  0  0  0
   15.3790    1.6710   35.6820 C   0  0  0  0  0
   19.2820   -2.2590   33.8680 C   0  0  0  0  0
   18.7160   -2.6380   35.2110 C   0  0  0  0  0
   18.9750   -1.5760   36.2820 C   0  0  0  0  0
   20.3930   -1.4680   36.4560 O   0  0  0  0  0
   19.0220    0.8990   28.7360 C   0  0  0  0  0
   19.5990    2.0650   27.9660 C   0  0  0  0  0
   19.2920    2.0710   26.4780 C   0  0  0  0  0
   19.7210    3.3560   25.9240 N   0  0  0  0  0
   19.4860    3.7790   24.6820 C   0  0  0  0  0
   18.8130    3.0220   23.8230 N   0  0  0  0  0
   19.8790    4.9940   24.3190 N   0  0  0  0  0
   25.1070   -1.0790   30.8680 C   0  0  0  0  0
   23.2980    2.9100   28.6980 O   0  0  0  0  0
   26.1320    3.9880   28.6540 C   0  0  0  0  0
   27.2110    5.0660   28.7160 C   0  0  0  0  0
   28.1740    4.7360   29.8360 C   0  0  0  0  0
   27.9420    5.1880   27.3860 C   0  0  0  0  0
   24.9590    5.9770   31.7720 O   0  0  0  0  0
   22.7010    7.2020   29.3670 O   0  0  0  0  0
   25.2710    8.2920   29.2130 O   0  0  0  0  0
   26.4760    9.2450   28.8840 S   0  0  0  0  0
   25.8690   10.5700   28.5560 O   0  0  0  0  0
   27.3810    9.3390   30.0600 O   0  0  0  0  0
   27.2430    8.6810   27.7130 O   0  0  0  0  0
   24.1542    1.2888   34.9676 H   0  0  0  0  0
   21.7708    0.0820   36.2512 H   0  0  0  0  0
   19.8092    2.0313   35.7248 H   0  0  0  0  0
   18.2756    1.6964   36.2261 H   0  0  0  0  0
   17.6281   -1.2903   32.9714 H   0  0  0  0  0
   20.3974   -0.4039   32.2516 H   0  0  0  0  0
   19.5890    1.8450   30.5608 H   0  0  0  0  0
   21.2222   -0.4946   29.6259 H   0  0  0  0  0
   23.4765    0.3317   29.3580 H   0  0  0  0  0
   23.0146   -1.1583   31.3467 H   0  0  0  0  0
   24.9016    1.9588   31.2442 H   0  0  0  0  0
   25.6037    3.9762   30.7373 H   0  0  0  0  0
   23.8593    5.5453   28.8595 H   0  0  0  0  0
   22.8542    7.5846   31.4103 H   0  0  0  0  0
   24.9689    8.8317   31.2361 H   0  0  0  0  0
   23.8074    9.5151   30.1279 H   0  0  0  0  0
   25.2341   -0.8410   35.1914 H   0  0  0  0  0
   23.5248   -0.3387   37.6547 H   0  0  0  0  0
   25.0783   -1.2083   37.6119 H   0  0  0  0  0
   25.0215    0.5321   37.2391 H   0  0  0  0  0
   24.1164   -2.8471   35.9962 H   0  0  0  0  0
   22.5630   -1.9775   36.0390 H   0  0  0  0  0
   23.3803   -2.2645   34.4831 H   0  0  0  0  0
   20.7584    4.3763   35.9158 H   0  0  0  0  0
   20.9735    4.0188   37.6880 H   0  0  0  0  0
   18.9574    3.5772   39.0929 H   0  0  0  0  0
   16.5798    4.1913   39.4736 H   0  0  0  0  0
   14.6498    5.6664   36.8264 H   0  0  0  0  0
   16.3073    5.5771   35.4149 H   0  0  0  0  0
   18.6682    4.9605   35.0446 H   0  0  0  0  0
   20.9025    1.9736   39.6237 H   0  0  0  0  0
   21.7417    0.5861   38.8876 H   0  0  0  0  0
   22.1545    2.2444   38.3867 H   0  0  0  0  0
   16.6490    1.1716   37.9874 H   0  0  0  0  0
   16.9266   -0.6772   37.5476 H   0  0  0  0  0
   15.5736   -0.4270   35.6999 H   0  0  0  0  0
   14.4740   -0.7666   37.9120 H   0  0  0  0  0
   14.3497    0.9983   38.1145 H   0  0  0  0  0
   13.4326    0.1834   36.8238 H   0  0  0  0  0
   15.3387    2.4993   36.3894 H   0  0  0  0  0
   16.2281    1.8049   35.0117 H   0  0  0  0  0
   14.4570    1.6424   35.1013 H   0  0  0  0  0
   20.3483   -2.0657   33.9850 H   0  0  0  0  0
   19.0981   -3.0778   33.1724 H   0  0  0  0  0
   19.2009   -3.5605   35.5303 H   0  0  0  0  0
   17.6370   -2.7462   35.1010 H   0  0  0  0  0
   18.5212   -1.7939   37.2488 H   0  0  0  0  0
   20.7290   -2.2782   36.8463 H   0  0  0  0  0
   17.9419    1.0265   28.8087 H   0  0  0  0  0
   19.2694   -0.0243   28.2122 H   0  0  0  0  0
   20.6827    1.9988   28.0623 H   0  0  0  0  0
   19.1516    2.9677   28.3821 H   0  0  0  0  0
   18.2228    1.9332   26.3168 H   0  0  0  0  0
   19.8214    1.2561   25.9843 H   0  0  0  0  0
   20.2432    3.9796   26.5395 H   0  0  0  0  0
   18.6006    3.3749   22.8899 H   0  0  0  0  0
   18.5085    2.0877   24.0964 H   0  0  0  0  0
   20.3572    5.5967   24.9887 H   0  0  0  0  0
   24.9567   -1.5070   29.8769 H   0  0  0  0  0
   25.9024   -0.3349   30.8270 H   0  0  0  0  0
   25.3816   -1.8680   31.5681 H   0  0  0  0  0
   25.5927    4.1355   27.7183 H   0  0  0  0  0
   26.6401    3.0280   28.7456 H   0  0  0  0  0
   26.7432    6.0302   28.9149 H   0  0  0  0  0
   27.6323    4.7027   30.7813 H   0  0  0  0  0
   28.6333    3.7662   29.6446 H   0  0  0  0  0
   28.9476    5.5023   29.8859 H   0  0  0  0  0
   28.4136    4.2357   27.1434 H   0  0  0  0  0
   27.2297    5.4517   26.6042 H   0  0  0  0  0
   28.7042    5.9636   27.4616 H   0  0  0  0  0
   22.1523    7.9744   29.2123 H   0  0  0  0  0
   27.6188    7.8320   27.9571 H   0  0  0  0  0
  1  2  1  0  0  0
  1 19  1  0  0  0
  1 27  2  0  0  0
  2  3  1  0  0  0
  2 28  1  0  0  0
  3  4  1  0  0  0
  4  5  1  0  0  0
  4 31  2  0  0  0
  5  6  1  0  0  0
  5 36  1  0  0  0
  6  7  1  0  0  0
  6 44  1  0  0  0
  7  8  1  0  0  0
  7 32  2  0  0  0
  8  9  1  0  0  0
  8 45  1  0  0  0
  9 10  1  0  0  0
  9 51  1  0  0  0
 10 11  1  0  0  0
 10 33  2  0  0  0
 11 12  1  0  0  0
 11 49  1  0  0  0
 12 13  1  0  0  0
 13 14  1  0  0  0
 13 34  2  0  0  0
 14 15  1  0  0  0
 14 53  1  0  0  0
 15 16  1  0  0  0
 16 17  1  0  0  0
 16 35  2  0  0  0
 17 18  1  0  0  0
 17 20  1  0  0  0
 18 19  1  0  0  0
 18 60  1  0  0  0
 20 21  1  0  0  0
 21 22  1  0  0  0
 21 61  2  0  0  0
 22 23  1  0  0  0
 22 62  1  0  0  0
 23 24  1  0  0  0
 24 25  1  0  0  0
 24 66  2  0  0  0
 25 26  1  0  0  0
 25 67  1  0  0  0
 26 68  1  0  0  0
 28 29  1  0  0  0
 28 30  1  0  0  0
 36 37  1  0  0  0
 37 38  4  0  0  0
 37 43  4  0  0  0
 38 39  4  0  0  0
 39 40  4  0  0  0
 40 41  1  0  0  0
 40 42  4  0  0  0
 42 43  4  0  0  0
 45 46  1  0  0  0
 46 47  1  0  0  0
 46 48  1  0  0  0
 49 50  1  0  0  0
 50 51  1  0  0  0
 51 52  1  0  0  0
 53 54  1  0  0  0
 54 55  1  0  0  0
 55 56  1  0  0  0
 56 57  1  0  0  0
 57 58  1  0  0  0
 57 59  2  0  0  0
 62 63  1  0  0  0
 63 64  1  0  0  0
 63 65  1  0  0  0
 68 69  1  0  0  0
 69 70  2  0  0  0
 69 71  2  0  0  0
 69 72  1  0  0  0
  2 73  1  0  0  0
  3 74  1  0  0  0
  5 75  1  0  0  0
  8 76  1  0  0  0
 11 77  1  0  0  0
 12 78  1  0  0  0
 14 79  1  0  0  0
 15 80  1  0  0  0
 17 81  1  0  0  0
 18 82  1  0  0  0
 20 83  1  0  0  0
 22 84  1  0  0  0
 23 85  1  0  0  0
 25 86  1  0  0  0
 26 87  1  0  0  0
 26 88  1  0  0  0
 28 89  1  0  0  0
 29 90  1  0  0  0
 29 91  1  0  0  0
 29 92  1  0  0  0
 30 93  1  0  0  0
 30 94  1  0  0  0
 30 95  1  0  0  0
 36 96  1  0  0  0
 36 97  1  0  0  0
 38 98  1  0  0  0
 39 99  1  0  0  0
 41100  1  0  0  0
 42101  1  0  0  0
 43102  1  0  0  0
 44103  1  0  0  0
 44104  1  0  0  0
 44105  1  0  0  0
 45106  1  0  0  0
 45107  1  0  0  0
 46108  1  0  0  0
 47109  1  0  0  0
 47110  1  0  0  0
 47111  1  0  0  0
 48112  1  0  0  0
 48113  1  0  0  0
 48114  1  0  0  0
 49115  1  0  0  0
 49116  1  0  0  0
 50117  1  0  0  0
 50118  1  0  0  0
 51119  1  0  0  0
 52120  1  0  0  0
 53121  1  0  0  0
 53122  1  0  0  0
 54123  1  0  0  0
 54124  1  0  0  0
 55125  1  0  0  0
 55126  1  0  0  0
 56127  1  0  0  0
 58128  1  0  0  0
 58129  1  0  0  0
 59130  1  0  0  0
 60131  1  0  0  0
 60132  1  0  0  0
 60133  1  0  0  0
 62134  1  0  0  0
 62135  1  0  0  0
 63136  1  0  0  0
 64137  1  0  0  0
 64138  1  0  0  0
 64139  1  0  0  0
 65140  1  0  0  0
 65141  1  0  0  0
 65142  1  0  0  0
 67143  1  0  0  0
 72144  1  0  0  0
M  END
$$$$
