### 
### Created by X-TOOL on Mon Sep 10 21:12:45 2018
### 

@<TRIPOS>MOLECULE
1tps_ligand
  145   147     1     0     0
SMALL
GAST_HUCK


@<TRIPOS>ATOM
      1 C1         23.0880    0.0260   33.5880 C.2       1 VAL         0.2603
      2 C2         23.4920    0.4240   35.0090 C.3       1 VAL         0.1445
      3 N3         22.3140    0.8040   35.7780 N.am      1 VAL        -0.2620
      4 C4         21.9350    2.0720   35.8740 C.2       1 YNM         0.2060
      5 C5         20.5560    2.3260   36.4620 C.3       1 YNM         0.1414
      6 N6         20.3270    1.5240   37.6610 N.am      1 YNM        -0.2513
      7 C7         19.2380    0.7730   37.8350 C.2       1 LEU         0.2066
      8 C8         18.2040    0.7150   36.6950 C.3       1 LEU         0.1367
      9 N9         18.4460   -0.3350   35.6820 N.am      1 LEU        -0.2232
     10 C10        18.4760    0.0690   34.3900 C.2       1 GLU         0.2084
     11 C11        18.6200   -0.9990   33.3170 C.3       1 GLU         0.1314
     12 N12        19.3800   -0.4500   32.1950 N.am      1 GLU        -0.2637
     13 C13        18.7640   -0.0100   31.1020 C.2       1 ARG         0.2039
     14 C14        19.6070    0.8360   30.1490 C.3       1 ARG         0.1311
     15 N15        20.9850    0.3800   30.0940 N.am      1 ARG        -0.2636
     16 C16        21.9300    1.1170   30.6610 C.2       1 THR         0.2068
     17 C17        23.3770    0.7190   30.3720 C.3       1 THR         0.1612
     18 C18        23.8080   -0.4110   31.3370 C.3       1 THR         0.1247
     19 O19        24.0010    0.1170   32.6640 O.3       1 THR        -0.2673
     20 N20        24.2220    1.8980   30.4860 N.am      1 THR        -0.2610
     21 C21        24.1200    2.8970   29.6150 C.2       1 DLE         0.2040
     22 C22        25.0950    4.0480   29.7760 C.3       1 DLE         0.1312
     23 N23        24.3620    5.3090   29.7150 N.am      1 DLE        -0.2634
     24 C24        24.3270    6.1570   30.7320 C.2       1 OSL         0.2095
     25 C25        23.4840    7.4050   30.5390 C.3       1 OSL         0.1691
     26 C26        24.3920    8.6190   30.3360 C.3       1 OSL         0.1218
     27 O27        21.9420   -0.3600   33.3400 O.2       1 VAL        -0.3678
     28 C28        24.2690   -0.7360   35.6870 C.3       1 VAL        -0.0049
     29 C29        24.4890   -0.4150   37.1520 C.3       1 VAL        -0.0583
     30 C30        23.5300   -2.0490   35.5410 C.3       1 VAL        -0.0583
     31 O31        22.6540    3.0140   35.5330 O.2       1 YNM        -0.3942
     32 O32        19.0310    0.1500   38.8790 O.2       1 LEU        -0.3942
     33 O33        18.3720    1.2570   34.0680 O.2       1 GLU        -0.3941
     34 O34        17.5880   -0.2740   30.8580 O.2       1 ARG        -0.3944
     35 O35        21.6650    2.1150   31.3460 O.2       1 THR        -0.3943
     36 C36        20.4040    3.8160   36.7810 C.3       1 YNM         0.0165
     37 C37        18.9780    4.2270   37.0370 C.ar      1 YNM        -0.0492
     38 C38        18.3760    4.0160   38.2820 C.ar      1 YNM        -0.0685
     39 C39        17.0400    4.3600   38.5000 C.ar      1 YNM        -0.0398
     40 C40        16.3030    4.9200   37.4620 C.ar      1 YNM         0.0805
     41 O41        14.9940    5.3040   37.6460 O.3       1 YNM        -0.3376
     42 C42        16.8880    5.1360   36.2250 C.ar      1 YNM        -0.0398
     43 C43        18.2150    4.7890   36.0210 C.ar      1 YNM        -0.0685
     44 C44        21.3470    1.5860   38.7070 C.3       1 YNM         0.0256
     45 C45        16.8210    0.3710   37.2680 C.3       1 LEU        -0.0098
     46 C46        15.5360    0.3760   36.4360 C.3       1 LEU        -0.0425
     47 C47        14.3640    0.1840   37.3900 C.3       1 LEU        -0.0625
     48 C48        15.3790    1.6710   35.6820 C.3       1 LEU        -0.0625
     49 C49        19.2820   -2.2590   33.8680 C.3       1 GLU        -0.0081
     50 C50        18.7160   -2.6380   35.2110 C.3       1 GLU        -0.0006
     51 C51        18.9750   -1.5760   36.2820 C.3       1 GLU         0.1451
     52 O52        20.3930   -1.4680   36.4560 O.3       1 GLU        -0.3697
     53 C53        19.0220    0.8990   28.7360 C.3       1 ARG        -0.0092
     54 C54        19.5990    2.0650   27.9660 C.3       1 ARG        -0.0156
     55 C55        19.2920    2.0710   26.4780 C.3       1 ARG         0.0627
     56 N56        19.7210    3.3560   25.9240 N.pl3     1 ARG        -0.2723
     57 C57        19.4860    3.7790   24.6820 C.cat     1 ARG         0.2882
     58 N58        18.8130    3.0220   23.8230 N.pl3     1 ARG        -0.2849
     59 N59        19.8790    4.9940   24.3190 N.pl3     1 ARG        -0.2849
     60 C60        25.1070   -1.0790   30.8680 C.3       1 THR        -0.0298
     61 O61        23.2980    2.9100   28.6980 O.2       1 DLE        -0.3944
     62 C62        26.1320    3.9880   28.6540 C.3       1 DLE        -0.0101
     63 C63        27.2110    5.0660   28.7160 C.3       1 DLE        -0.0425
     64 C64        28.1740    4.7360   29.8360 C.3       1 DLE        -0.0625
     65 C65        27.9420    5.1880   27.3860 C.3       1 DLE        -0.0625
     66 O66        24.9590    5.9770   31.7720 O.2       1 OSL        -0.3940
     67 O67        22.7010    7.2020   29.3670 O.3       1 OSL        -0.3690
     68 O68        25.2710    8.2920   29.2130 O.3       1 OSL        -0.2108
     69 S69        26.4760    9.2450   28.8840 S.o2      1 OSL         0.2077
     70 O70        25.8690   10.5700   28.5560 O.2       1 OSL        -0.1181
     71 O71        27.3810    9.3390   30.0600 O.2       1 OSL        -0.1181
     72 O72        27.2430    8.6810   27.7130 O.3       1 OSL        -0.2311
     73 H1         24.1596    1.2963   34.9505 H         1 VAL         0.0819
     74 H2         21.7814    0.0961   36.2419 H         1 VAL         0.1885
     75 H3         19.8013    2.0476   35.7118 H         1 YNM         0.0823
     76 H4         18.1809    1.6977   36.2013 H         1 LEU         0.0803
     77 H5         17.6160   -1.2706   32.9591 H         1 GLU         0.0800
     78 H6         20.3774   -0.4048   32.2505 H         1 GLU         0.1883
     79 H7         19.6123    1.8609   30.5483 H         1 ARG         0.0800
     80 H8         21.2176   -0.4775   29.6351 H         1 ARG         0.1883
     81 H9         23.4457    0.3393   29.3419 H         1 THR         0.0830
     82 H10        23.0114   -1.1690   31.3660 H         1 THR         0.0696
     83 H11        24.8882    1.9576   31.2294 H         1 THR         0.1884
     84 H12        25.6034    3.9675   30.7481 H         1 DLE         0.0800
     85 H13        23.8692    5.5407   28.8763 H         1 DLE         0.1883
     86 H14        22.8342    7.5659   31.4119 H         1 OSL         0.0862
     87 H15        24.9862    8.8059   31.2426 H         1 OSL         0.0636
     88 H16        23.7903    9.5096   30.1018 H         1 OSL         0.0636
     89 H17        25.2489   -0.8334   35.1967 H         1 VAL         0.0344
     90 H18        25.0398   -1.2390   37.6292 H         1 VAL         0.0235
     91 H19        23.5163   -0.2876   37.6496 H         1 VAL         0.0235
     92 H20        25.0707    0.5144   37.2404 H         1 VAL         0.0235
     93 H21        23.3783   -2.2676   34.4737 H         1 VAL         0.0235
     94 H22        22.5539   -1.9782   36.0431 H         1 VAL         0.0235
     95 H23        24.1208   -2.8553   36.0000 H         1 VAL         0.0235
     96 H24        20.7872    4.3965   35.9289 H         1 YNM         0.0453
     97 H25        20.9994    4.0439   37.6774 H         1 YNM         0.0453
     98 H26        18.9542    3.5796   39.0884 H         1 YNM         0.0530
     99 H27        16.5823    4.1922   39.4682 H         1 YNM         0.0525
    100 H28        14.6533    5.6626   36.8349 H         1 YNM         0.2458
    101 H29        16.3105    5.5747   35.4194 H         1 YNM         0.0525
    102 H30        18.6657    4.9595   35.0500 H         1 YNM         0.0530
    103 H31        21.0510    0.9398   39.5465 H         1 YNM         0.0488
    104 H32        21.4475    2.6229   39.0602 H         1 YNM         0.0488
    105 H33        22.3098    1.2419   38.3012 H         1 YNM         0.0488
    106 H34        16.6502    1.0831   38.0888 H         1 LEU         0.0315
    107 H35        16.9099   -0.6461   37.6774 H         1 LEU         0.0315
    108 H36        15.5652   -0.4546   35.7155 H         1 LEU         0.0298
    109 H37        13.4234    0.1832   36.8197 H         1 LEU         0.0232
    110 H38        14.3484    1.0052   38.1217 H         1 LEU         0.0232
    111 H39        14.4738   -0.7750   37.9174 H         1 LEU         0.0232
    112 H40        16.2290    1.8013   34.9961 H         1 LEU         0.0232
    113 H41        15.3508    2.5089   36.3941 H         1 LEU         0.0232
    114 H42        14.4426    1.6483   35.1052 H         1 LEU         0.0232
    115 H43        20.3619   -2.0784   33.9734 H         1 GLU         0.0314
    116 H44        19.1158   -3.0873   33.1635 H         1 GLU         0.0314
    117 H45        19.1776   -3.5829   35.5335 H         1 GLU         0.0313
    118 H46        17.6296   -2.7768   35.1086 H         1 GLU         0.0313
    119 H47        18.4777   -1.8141   37.2338 H         1 GLU         0.0869
    120 H48        20.7255   -2.2698   36.8422 H         1 GLU         0.2122
    121 H49        17.9303    1.0162   28.8028 H         1 ARG         0.0313
    122 H50        19.2587   -0.0353   28.2060 H         1 ARG         0.0313
    123 H51        20.6920    2.0464   28.0881 H         1 ARG         0.0301
    124 H52        19.1972    2.9923   28.4004 H         1 ARG         0.0301
    125 H53        18.2111    1.9409   26.3209 H         1 ARG         0.0689
    126 H54        19.8356    1.2528   25.9830 H         1 ARG         0.0689
    127 H55        20.2483    3.9858   26.5455 H         1 ARG         0.2642
    128 H56        18.6379    3.3601   22.8660 H         1 ARG         0.2615
    129 H57        18.4662    2.0968   24.1138 H         1 ARG         0.2615
    130 H58        20.4013    5.5856   24.9810 H         1 ARG         0.2615
    131 H59        19.6617    5.3451   23.3754 H         1 ARG         0.2615
    132 H60        25.3852   -1.8756   31.5738 H         1 THR         0.0260
    133 H61        25.9106   -0.3291   30.8262 H         1 THR         0.0260
    134 H62        24.9566   -1.5114   29.8678 H         1 THR         0.0260
    135 H63        25.6033    4.0889   27.6947 H         1 DLE         0.0315
    136 H64        26.6269    3.0066   28.6985 H         1 DLE         0.0315
    137 H65        26.7319    6.0314   28.9360 H         1 DLE         0.0298
    138 H66        28.9552    5.5087   29.8874 H         1 DLE         0.0232
    139 H67        28.6382    3.7574   29.6440 H         1 DLE         0.0232
    140 H68        27.6285    4.7022   30.7906 H         1 DLE         0.0232
    141 H69        27.2200    5.4277   26.5915 H         1 DLE         0.0232
    142 H70        28.4408    4.2357   27.1530 H         1 DLE         0.0232
    143 H71        28.6932    5.9888   27.4525 H         1 DLE         0.0232
    144 H72        22.1705    7.9731   29.2045 H         1 OSL         0.2134
    145 H73        26.6679    8.6191   26.9595 H         1 OSL         0.2469
@<TRIPOS>BOND
     1    1    2 1  
     2    1   19 1  
     3    1   27 2  
     4    2    3 1  
     5    2   28 1  
     6    3    4 am 
     7    4    5 1  
     8    4   31 2  
     9    5    6 1  
    10    5   36 1  
    11    6    7 am 
    12    6   44 1  
    13    7    8 1  
    14    7   32 2  
    15    8    9 1  
    16    8   45 1  
    17    9   10 am 
    18    9   51 1  
    19   10   11 1  
    20   10   33 2  
    21   11   12 1  
    22   11   49 1  
    23   12   13 am 
    24   13   14 1  
    25   13   34 2  
    26   14   15 1  
    27   14   53 1  
    28   15   16 am 
    29   16   17 1  
    30   16   35 2  
    31   17   18 1  
    32   17   20 1  
    33   18   19 1  
    34   18   60 1  
    35   20   21 am 
    36   21   22 1  
    37   21   61 2  
    38   22   23 1  
    39   22   62 1  
    40   23   24 am 
    41   24   25 1  
    42   24   66 2  
    43   25   26 1  
    44   25   67 1  
    45   26   68 1  
    46   28   29 1  
    47   28   30 1  
    48   36   37 1  
    49   37   38 ar 
    50   37   43 ar 
    51   38   39 ar 
    52   39   40 ar 
    53   40   41 1  
    54   40   42 ar 
    55   42   43 ar 
    56   45   46 1  
    57   46   47 1  
    58   46   48 1  
    59   49   50 1  
    60   50   51 1  
    61   51   52 1  
    62   53   54 1  
    63   54   55 1  
    64   55   56 1  
    65   56   57 ar 
    66   57   58 ar 
    67   57   59 ar 
    68   62   63 1  
    69   63   64 1  
    70   63   65 1  
    71   68   69 1  
    72   69   70 2  
    73   69   71 2  
    74   69   72 1  
    75    2   73 1  
    76    3   74 1  
    77    5   75 1  
    78    8   76 1  
    79   11   77 1  
    80   12   78 1  
    81   14   79 1  
    82   15   80 1  
    83   17   81 1  
    84   18   82 1  
    85   20   83 1  
    86   22   84 1  
    87   23   85 1  
    88   25   86 1  
    89   26   87 1  
    90   26   88 1  
    91   28   89 1  
    92   29   90 1  
    93   29   91 1  
    94   29   92 1  
    95   30   93 1  
    96   30   94 1  
    97   30   95 1  
    98   36   96 1  
    99   36   97 1  
   100   38   98 1  
   101   39   99 1  
   102   41  100 1  
   103   42  101 1  
   104   43  102 1  
   105   44  103 1  
   106   44  104 1  
   107   44  105 1  
   108   45  106 1  
   109   45  107 1  
   110   46  108 1  
   111   47  109 1  
   112   47  110 1  
   113   47  111 1  
   114   48  112 1  
   115   48  113 1  
   116   48  114 1  
   117   49  115 1  
   118   49  116 1  
   119   50  117 1  
   120   50  118 1  
   121   51  119 1  
   122   52  120 1  
   123   53  121 1  
   124   53  122 1  
   125   54  123 1  
   126   54  124 1  
   127   55  125 1  
   128   55  126 1  
   129   56  127 1  
   130   58  128 1  
   131   58  129 1  
   132   59  130 1  
   133   59  131 1  
   134   60  132 1  
   135   60  133 1  
   136   60  134 1  
   137   62  135 1  
   138   62  136 1  
   139   63  137 1  
   140   64  138 1  
   141   64  139 1  
   142   64  140 1  
   143   65  141 1  
   144   65  142 1  
   145   65  143 1  
   146   67  144 1  
   147   72  145 1  
@<TRIPOS>SUBSTRUCTURE
     1 VAL         1

