2axi_ligand
  -I-interpret- 

 29 29  0  0  0  0  0  0  0  0999 V2000
   12.1600   -1.6760    8.0270 S   0  0  0  0  0
   13.6000   -1.9860    7.9940 O   0  0  0  0  0
   11.5960   -1.7730    9.4150 O   0  0  0  0  0
   12.4490   -4.2800    1.2060 O   0  0  0  0  0
   13.1450   -3.2960    3.7400 N   0  3  0  0  0
   11.2940   -2.9410    7.0090 C   0  0  0  0  0
   11.9150   -0.3410    7.4610 O   0  0  0  0  0
   11.5660   -2.5730    5.5400 C   0  0  0  0  0
   12.9640   -2.9840    5.2100 C   0  0  0  0  0
   12.2720   -2.4730    2.8080 C   0  0  0  0  0
   12.6760   -2.9110    1.4050 C   0  0  0  0  0
   13.1620   -5.1340    2.1060 C   0  0  0  0  0
   12.7530   -4.7400    3.5160 C   0  0  0  0  0
   10.6591   -1.5645    9.3938 H   0  0  0  0  0
   14.1196   -3.0848    3.5256 H   0  0  0  0  0
   10.2246   -2.9489    7.2197 H   0  0  0  0  0
   11.6578   -3.9431    7.2360 H   0  0  0  0  0
   11.4452   -1.4997    5.3929 H   0  0  0  0  0
   10.8596   -3.0857    4.8872 H   0  0  0  0  0
   13.6263   -2.1557    5.4619 H   0  0  0  0  0
   13.1913   -3.8874    5.7759 H   0  0  0  0  0
   12.4177   -1.4030    2.9560 H   0  0  0  0  0
   11.2110   -2.6393    2.9946 H   0  0  0  0  0
   12.0766   -2.3544    0.6846 H   0  0  0  0  0
   13.7408   -2.7164    1.2769 H   0  0  0  0  0
   14.2378   -5.0211    1.9721 H   0  0  0  0  0
   12.9226   -6.1800    1.9144 H   0  0  0  0  0
   11.6764   -4.8580    3.6392 H   0  0  0  0  0
   13.2539   -5.3798    4.2425 H   0  0  0  0  0
  1  2  2  0  0  0
  1  3  1  0  0  0
  6  1  1  0  0  0
  1  7  2  0  0  0
 11  4  1  0  0  0
  4 12  1  0  0  0
  5  9  1  0  0  0
 10  5  1  0  0  0
  5 13  1  0  0  0
  8  6  1  0  0  0
  9  8  1  0  0  0
 10 11  1  0  0  0
 12 13  1  0  0  0
  3 14  1  0  0  0
  5 15  1  0  0  0
  6 16  1  0  0  0
  6 17  1  0  0  0
  8 18  1  0  0  0
  8 19  1  0  0  0
  9 20  1  0  0  0
  9 21  1  0  0  0
 10 22  1  0  0  0
 10 23  1  0  0  0
 11 24  1  0  0  0
 11 25  1  0  0  0
 12 26  1  0  0  0
 12 27  1  0  0  0
 13 28  1  0  0  0
 13 29  1  0  0  0
M  END
$$$$
