3wb5_ligand
  -I-interpret- 

 38 40  0  0  0  0  0  0  0  0999 V2000
   18.1760   40.7490   -9.5500 O   0  0  0  0  0
   17.7680   39.8640   -8.8190 C   0  0  0  0  0
   17.2590   40.1190   -7.6050 N   0  0  0  0  0
   16.9560   41.4830   -7.1870 C   0  0  0  0  0
   17.0540   39.0920   -6.7740 C   0  0  0  0  0
   16.2080   39.2320   -5.7550 N   0  0  0  0  0
   17.6810   38.0020   -6.9000 N   0  0  0  0  0
   17.8640   38.4370   -9.2900 C   0  0  0  0  0
   18.3300   37.5790   -8.1310 C   0  0  0  0  0
   18.0070   36.1220   -8.4250 C   0  0  0  0  0
   19.8460   37.7220   -8.0230 C   0  0  0  0  0
   20.4200   37.0000   -6.8080 C   0  0  0  0  0
   20.2380   38.5120   -6.7780 C   0  0  0  0  0
   21.4960   39.2280   -7.0720 C   0  0  0  0  0
   21.5330   40.6130   -6.9740 C   0  0  0  0  0
   22.7100   41.2970   -7.2500 C   0  0  0  0  0
   23.8470   40.5950   -7.6250 C   0  0  0  0  0
   23.8080   39.2100   -7.7240 C   0  0  0  0  0
   22.6320   38.5240   -7.4520 C   0  0  0  0  0
   15.8974   41.5588   -6.9385 H   0  0  0  0  0
   17.5549   41.7350   -6.3119 H   0  0  0  0  0
   17.1900   42.1710   -7.9994 H   0  0  0  0  0
   15.7223   40.1177   -5.6134 H   0  0  0  0  0
   17.7351   37.3828   -6.0913 H   0  0  0  0  0
   18.5722   38.3642  -10.1154 H   0  0  0  0  0
   16.8901   38.0939   -9.6392 H   0  0  0  0  0
   18.3615   35.4996   -7.6033 H   0  0  0  0  0
   16.9287   36.0047   -8.5323 H   0  0  0  0  0
   18.5002   35.8212   -9.3493 H   0  0  0  0  0
   20.0936   37.7558   -9.0840 H   0  0  0  0  0
   21.1938   36.2656   -6.5842 H   0  0  0  0  0
   20.1866   36.1365   -6.1851 H   0  0  0  0  0
   19.7582   39.2010   -6.0829 H   0  0  0  0  0
   20.6388   41.1629   -6.6806 H   0  0  0  0  0
   22.7406   42.3838   -7.1722 H   0  0  0  0  0
   24.7711   41.1308   -7.8420 H   0  0  0  0  0
   24.7029   38.6604   -8.0160 H   0  0  0  0  0
   22.6000   37.4377   -7.5362 H   0  0  0  0  0
  1  2  2  0  0  0
  2  3  1  0  0  0
  2  8  1  0  0  0
  3  4  1  0  0  0
  3  5  4  0  0  0
  5  6  2  0  0  0
  5  7  1  0  0  0
  7  9  1  0  0  0
  8  9  1  0  0  0
  9 10  1  0  0  0
  9 11  1  0  0  0
 11 12  1  0  0  0
 11 13  1  0  0  0
 12 13  1  0  0  0
 13 14  1  0  0  0
 14 15  4  0  0  0
 14 19  4  0  0  0
 15 16  4  0  0  0
 16 17  4  0  0  0
 17 18  4  0  0  0
 18 19  4  0  0  0
  4 20  1  0  0  0
  4 21  1  0  0  0
  4 22  1  0  0  0
  6 23  1  0  0  0
  7 24  1  0  0  0
  8 25  1  0  0  0
  8 26  1  0  0  0
 10 27  1  0  0  0
 10 28  1  0  0  0
 10 29  1  0  0  0
 11 30  1  0  0  0
 12 31  1  0  0  0
 12 32  1  0  0  0
 13 33  1  0  0  0
 15 34  1  0  0  0
 16 35  1  0  0  0
 17 36  1  0  0  0
 18 37  1  0  0  0
 19 38  1  0  0  0
M  END
$$$$
