6h4q_ligand
  -I-interpret- 

 42 45  0  0  0  0  0  0  0  0999 V2000
  -24.3140  -13.9320  -16.2360 C   0  0  0  0  0
  -25.4790  -18.4850  -16.4380 N   0  0  0  0  0
  -23.3220  -15.2830  -17.7700 C   0  0  0  0  0
  -23.7800  -17.6830  -17.8160 N   0  0  0  0  0
  -24.0380  -16.4290  -17.3580 C   0  0  0  0  0
  -22.6240  -15.2840  -18.9940 N   0  0  0  0  0
  -25.0110  -16.1840  -16.3830 C   0  0  0  0  0
  -21.7910  -14.2490  -19.2830 N   0  0  0  0  0
  -25.8160  -17.3020  -15.9220 C   0  0  0  0  0
  -24.4970  -18.6360  -17.3300 C   0  0  0  0  0
  -21.4380  -14.4590  -20.5350 C   0  0  0  0  0
  -22.0160  -15.6070  -21.0670 C   0  0  0  0  0
  -22.7630  -16.1180  -20.0360 C   0  0  0  0  0
  -21.8430  -16.0950  -22.4750 C   0  0  0  0  0
  -22.4640  -15.1550  -23.5010 C   0  0  0  0  0
  -26.7920  -17.1800  -15.2100 O   0  0  0  0  0
  -25.1610  -14.9260  -15.8200 C   0  0  0  0  0
  -23.4050  -14.0750  -17.2030 N   0  0  0  0  0
  -20.3760  -16.3130  -22.8250 C   0  0  0  0  0
  -20.2690  -16.8460  -24.2430 C   0  0  0  0  0
  -20.8530  -15.9140  -25.2010 N   0  3  0  0  0
  -20.6750  -16.3980  -26.5640 C   0  0  0  0  0
  -22.2690  -15.7310  -24.8990 C   0  0  0  0  0
  -24.3874  -12.9615  -15.7452 H   0  0  0  0  0
  -25.9950  -19.3119  -16.1375 H   0  0  0  0  0
  -24.2850  -19.6480  -17.6748 H   0  0  0  0  0
  -20.7671  -13.8053  -21.0923 H   0  0  0  0  0
  -23.3582  -17.0309  -20.0590 H   0  0  0  0  0
  -22.3682  -17.0492  -22.5174 H   0  0  0  0  0
  -21.9823  -14.1792  -23.4390 H   0  0  0  0  0
  -23.5293  -15.0466  -23.2974 H   0  0  0  0  0
  -25.9283  -14.7335  -15.0702 H   0  0  0  0  0
  -19.9397  -17.0324  -22.1321 H   0  0  0  0  0
  -19.8398  -15.3670  -22.7505 H   0  0  0  0  0
  -20.8098  -17.7905  -24.3019 H   0  0  0  0  0
  -19.2150  -16.9805  -24.4860 H   0  0  0  0  0
  -20.3771  -15.0151  -25.1249 H   0  0  0  0  0
  -19.6107  -16.5010  -26.7755 H   0  0  0  0  0
  -21.1634  -17.3665  -26.6710 H   0  0  0  0  0
  -21.1182  -15.6871  -27.2614 H   0  0  0  0  0
  -22.6926  -15.0360  -25.6240 H   0  0  0  0  0
  -22.7636  -16.7011  -24.9479 H   0  0  0  0  0
  1 17  4  0  0  0
 18  1  4  0  0  0
  2  9  1  0  0  0
 10  2  1  0  0  0
  5  3  4  0  0  0
  3  6  1  0  0  0
  3 18  4  0  0  0
  4  5  1  0  0  0
  4 10  2  0  0  0
  5  7  4  0  0  0
  6  8  4  0  0  0
  6 13  4  0  0  0
  7  9  1  0  0  0
  7 17  4  0  0  0
  8 11  4  0  0  0
  9 16  2  0  0  0
 11 12  4  0  0  0
 12 13  4  0  0  0
 12 14  1  0  0  0
 14 15  1  0  0  0
 14 19  1  0  0  0
 15 23  1  0  0  0
 19 20  1  0  0  0
 20 21  1  0  0  0
 21 22  1  0  0  0
 21 23  1  0  0  0
  1 24  1  0  0  0
  2 25  1  0  0  0
 10 26  1  0  0  0
 11 27  1  0  0  0
 13 28  1  0  0  0
 14 29  1  0  0  0
 15 30  1  0  0  0
 15 31  1  0  0  0
 17 32  1  0  0  0
 19 33  1  0  0  0
 19 34  1  0  0  0
 20 35  1  0  0  0
 20 36  1  0  0  0
 21 37  1  0  0  0
 22 38  1  0  0  0
 22 39  1  0  0  0
 22 40  1  0  0  0
 23 41  1  0  0  0
 23 42  1  0  0  0
M  END
$$$$
