4b0g_ligand
  -I-interpret- 

 50 54  0  0  0  0  0  0  0  0999 V2000
  -22.1310   -6.2510  -15.1940 C   0  0  0  0  0
  -22.3150   -7.5290  -14.3330 C   0  0  0  0  0
  -21.4680   -8.7010  -14.3080 C   0  0  0  0  0
  -22.0780   -9.6650  -13.3310 C   0  0  0  0  0
  -21.5800  -11.0920  -13.0040 C   0  0  0  0  0
  -22.3330  -11.9630  -13.8890 N   0  3  0  0  0
  -23.1520  -12.9770  -13.1960 C   0  0  0  0  0
  -24.2660  -13.5150  -14.0870 C   0  0  0  0  0
  -23.8690  -13.7010  -15.4840 N   0  0  0  0  0
  -24.5800  -14.6880  -16.3660 C   0  0  0  0  0
  -24.5170  -14.5700  -17.7430 C   0  0  0  0  0
  -23.7670  -12.9990  -18.5960 Br  0  0  0  0  0
  -25.1170  -15.5640  -18.6350 C   0  0  0  0  0
  -25.7680  -16.6910  -18.0900 N   0  0  0  0  0
  -25.8310  -16.8480  -16.6820 C   0  0  0  0  0
  -26.3900  -17.8420  -15.9210 N   0  0  0  0  0
  -26.1730  -17.5140  -14.5550 C   0  0  0  0  0
  -26.6720  -18.2620  -13.4760 C   0  0  0  0  0
  -27.6630  -19.2870  -13.6230 C   0  0  0  0  0
  -27.9560  -19.7440  -12.3710 N   0  0  0  0  0
  -27.1900  -19.0370  -11.4460 C   0  0  0  0  0
  -26.3930  -18.1130  -12.1490 N   0  0  0  0  0
  -25.4390  -17.1760  -11.5340 C   0  0  0  0  0
  -25.4870  -16.3130  -14.5020 N   0  0  0  0  0
  -25.2560  -15.8790  -15.8100 C   0  0  0  0  0
  -22.3830  -13.6950  -15.7170 C   0  0  0  0  0
  -21.6580  -12.4510  -15.0950 C   0  0  0  0  0
  -23.2560   -9.0870  -12.7990 N   0  0  0  0  0
  -23.4160   -7.7420  -13.4070 O   0  0  0  0  0
  -21.1744   -5.7870  -14.9535 H   0  0  0  0  0
  -22.1504   -6.5200  -16.2501 H   0  0  0  0  0
  -22.9393   -5.5515  -14.9810 H   0  0  0  0  0
  -20.5586   -8.8556  -14.8886 H   0  0  0  0  0
  -21.7384  -11.3455  -11.9558 H   0  0  0  0  0
  -20.5054  -11.1906  -13.1574 H   0  0  0  0  0
  -22.9992  -11.3034  -14.2910 H   0  0  0  0  0
  -23.6083  -12.5093  -12.3236 H   0  0  0  0  0
  -22.5040  -13.8087  -12.9197 H   0  0  0  0  0
  -25.0741  -12.7836  -14.0738 H   0  0  0  0  0
  -24.5499  -14.4926  -13.6973 H   0  0  0  0  0
  -25.0610  -15.4339  -19.7158 H   0  0  0  0  0
  -28.1002  -19.6358  -14.5586 H   0  0  0  0  0
  -27.2052  -19.1753  -10.3649 H   0  0  0  0  0
  -24.4376  -17.3769  -11.9148 H   0  0  0  0  0
  -25.7249  -16.1537  -11.7815 H   0  0  0  0  0
  -25.4504  -17.3060  -10.4518 H   0  0  0  0  0
  -22.2202  -13.6646  -16.7943 H   0  0  0  0  0
  -21.9728  -14.5855  -15.2408 H   0  0  0  0  0
  -20.6465  -12.7502  -14.8201 H   0  0  0  0  0
  -21.6636  -11.6502  -15.8345 H   0  0  0  0  0
  1  2  1  0  0  0
  2  3  4  0  0  0
  2 29  4  0  0  0
  3  4  4  0  0  0
  4  5  1  0  0  0
  4 28  4  0  0  0
  5  6  1  0  0  0
  6  7  1  0  0  0
  6 27  1  0  0  0
  7  8  1  0  0  0
  8  9  1  0  0  0
  9 10  1  0  0  0
  9 26  1  0  0  0
 10 11  4  0  0  0
 10 25  4  0  0  0
 11 12  1  0  0  0
 11 13  4  0  0  0
 13 14  4  0  0  0
 14 15  4  0  0  0
 15 16  4  0  0  0
 15 25  4  0  0  0
 16 17  4  0  0  0
 17 18  1  0  0  0
 17 24  4  0  0  0
 18 19  4  0  0  0
 18 22  4  0  0  0
 19 20  4  0  0  0
 20 21  4  0  0  0
 21 22  4  0  0  0
 22 23  1  0  0  0
 24 25  4  0  0  0
 26 27  1  0  0  0
 28 29  4  0  0  0
  1 30  1  0  0  0
  1 31  1  0  0  0
  1 32  1  0  0  0
  3 33  1  0  0  0
  5 34  1  0  0  0
  5 35  1  0  0  0
  6 36  1  0  0  0
  7 37  1  0  0  0
  7 38  1  0  0  0
  8 39  1  0  0  0
  8 40  1  0  0  0
 13 41  1  0  0  0
 19 42  1  0  0  0
 21 43  1  0  0  0
 23 44  1  0  0  0
 23 45  1  0  0  0
 23 46  1  0  0  0
 26 47  1  0  0  0
 26 48  1  0  0  0
 27 49  1  0  0  0
 27 50  1  0  0  0
M  END
$$$$
