3ce3_ligand
  -I-interpret- 

 49 53  0  0  0  0  0  0  0  0999 V2000
   20.1290   13.9630   56.6070 C   0  0  0  0  0
   20.9900   19.2030   54.1050 C   0  0  0  0  0
   20.6500   17.8170   54.4190 C   0  0  0  0  0
   21.1940   20.2600   55.1650 C   0  0  0  0  0
   21.5690   21.9420   53.3500 C   0  0  0  0  0
   21.3710   20.9230   52.3980 C   0  0  0  0  0
   21.0970   19.5900   52.7750 C   0  0  0  0  0
   20.2820   16.3960   56.4620 C   0  0  0  0  0
   20.3220   15.1680   55.8210 C   0  0  0  0  0
   20.6950   23.6230   55.6090 C   0  0  0  0  0
   19.2290   10.7480   61.0600 C   0  0  0  0  0
   20.8330   24.6500   56.5850 C   0  0  0  0  0
   20.4990   11.3330   60.5740 C   0  0  0  0  0
   21.5490   10.8710   61.3510 C   0  0  0  0  0
   22.8200   11.2670   61.1320 N   0  0  0  0  0
   23.2390   12.1540   60.1260 C   0  0  0  0  0
   22.2400   12.6710   59.2710 C   0  0  0  0  0
   20.8620   12.2850   59.4790 C   0  0  0  0  0
   19.7230   12.7650   58.6810 O   0  0  0  0  0
   19.8800   14.0030   57.9990 C   0  0  0  0  0
   19.8310   15.3190   58.6040 C   0  0  0  0  0
   20.0310   16.5250   57.8520 C   0  0  0  0  0
   20.1860   12.6880   56.0620 F   0  0  0  0  0
   20.4830   17.5510   55.7970 N   0  0  0  0  0
   20.5080   17.0310   53.4880 O   0  0  0  0  0
   21.4960   21.6110   54.6410 N   0  0  0  0  0
   21.1200   20.0560   56.4290 O   0  0  0  0  0
   21.6840   22.5980   55.5700 C   0  0  0  0  0
   19.6860    9.9130   62.1750 C   0  0  0  0  0
   21.1120   10.0280   62.3290 N   0  0  0  0  0
   22.8050   22.5980   56.5220 C   0  0  0  0  0
   22.9820   23.6210   57.5240 C   0  0  0  0  0
   21.9480   24.6060   57.4700 C   0  0  0  0  0
   22.1450   25.4620   58.3510 F   0  0  0  0  0
   21.7751   22.9672   53.0425 H   0  0  0  0  0
   21.4311   21.1708   51.3383 H   0  0  0  0  0
   20.9650   18.8391   51.9960 H   0  0  0  0  0
   20.4952   15.1081   54.7465 H   0  0  0  0  0
   19.8572   23.6208   54.9118 H   0  0  0  0  0
   18.2164   10.8990   60.6858 H   0  0  0  0  0
   20.1001   25.4539   56.6536 H   0  0  0  0  0
   24.2870   12.4306   60.0105 H   0  0  0  0  0
   22.5051   13.3534   58.4634 H   0  0  0  0  0
   19.6343   15.3960   59.6733 H   0  0  0  0  0
   19.9915   17.5033   58.3311 H   0  0  0  0  0
   20.5213   18.3781   56.3927 H   0  0  0  0  0
   19.0392    9.2946   62.7973 H   0  0  0  0  0
   23.5342   21.7896   56.4683 H   0  0  0  0  0
   23.8061   23.6402   58.2371 H   0  0  0  0  0
  9  1  4  0  0  0
  1 20  4  0  0  0
  1 23  1  0  0  0
  2  3  1  0  0  0
  4  2  1  0  0  0
  2  7  2  0  0  0
  3 24  1  0  0  0
  3 25  2  0  0  0
 26  4  1  0  0  0
  4 27  2  0  0  0
  5  6  2  0  0  0
 26  5  1  0  0  0
  6  7  1  0  0  0
  8  9  4  0  0  0
  8 22  4  0  0  0
 24  8  1  0  0  0
 10 12  4  0  0  0
 28 10  4  0  0  0
 13 11  4  0  0  0
 11 29  4  0  0  0
 12 33  4  0  0  0
 13 14  4  0  0  0
 18 13  4  0  0  0
 14 15  4  0  0  0
 14 30  4  0  0  0
 16 15  4  0  0  0
 17 16  4  0  0  0
 18 17  4  0  0  0
 19 18  1  0  0  0
 20 19  1  0  0  0
 21 20  4  0  0  0
 22 21  4  0  0  0
 26 28  1  0  0  0
 28 31  4  0  0  0
 29 30  4  0  0  0
 31 32  4  0  0  0
 32 33  4  0  0  0
 33 34  1  0  0  0
  5 35  1  0  0  0
  6 36  1  0  0  0
  7 37  1  0  0  0
  9 38  1  0  0  0
 10 39  1  0  0  0
 11 40  1  0  0  0
 12 41  1  0  0  0
 16 42  1  0  0  0
 17 43  1  0  0  0
 21 44  1  0  0  0
 22 45  1  0  0  0
 24 46  1  0  0  0
 29 47  1  0  0  0
 31 48  1  0  0  0
 32 49  1  0  0  0
M  END
$$$$
