1nhv_ligand
  -I-interpret- 

 58 62  0  0  0  0  0  0  0  0999 V2000
    6.5680   34.6840   75.2740 N   0  0  0  0  0
    6.5680   34.1080   73.8690 C   0  0  0  0  0
    5.1370   34.1580   73.3280 C   0  0  0  0  0
    4.9100   33.7840   72.1540 O   0  0  0  0  0
    4.2650   34.5920   74.1100 O   0  0  0  0  0
    6.5730   36.0950   75.4920 C   0  0  0  0  0
    6.1380   36.5960   76.5120 O   0  0  0  0  0
    7.1520   37.0740   74.4740 C   0  0  0  0  0
    6.2340   37.7810   73.6470 C   0  0  0  0  0
    6.7020   38.7110   72.6900 C   0  0  0  0  0
    8.1010   38.9410   72.5530 C   0  0  0  0  0
    9.0240   38.2410   73.3690 C   0  0  0  0  0
    8.5540   37.3070   74.3280 C   0  0  0  0  0
    8.6820   40.0780   71.3990 Cl  0  0  0  0  0
    9.7000   36.4940   75.2910 Cl  0  0  0  0  0
    7.1980   32.6590   73.7530 C   0  0  0  0  0
    8.7380   32.5110   73.7890 C   0  0  0  0  0
    9.3270   31.2430   74.1180 C   0  0  0  0  0
   10.7480   31.0690   74.1650 C   0  0  0  0  0
   11.6160   32.1580   73.8760 C   0  0  0  0  0
   11.0610   33.4230   73.5470 C   0  0  0  0  0
    9.6380   33.5990   73.4990 C   0  0  0  0  0
    6.4790   33.6730   76.4170 C   0  0  0  0  0
    7.5400   33.7610   77.5460 C   0  0  0  0  0
    8.1520   34.8940   78.0430 C   0  0  0  0  0
    9.0830   34.6550   79.0670 C   0  0  0  0  0
    9.1980   33.3380   79.3800 C   0  0  0  0  0
    8.1450   32.3680   78.3950 S   0  0  0  0  0
   10.0820   32.8600   80.4440 C   0  0  0  0  0
    9.8830   31.7740   81.2790 C   0  0  0  0  0
   11.0410   31.7380   82.1690 C   0  0  0  0  0
   11.4480   30.8490   83.2330 C   0  0  0  0  0
   12.6870   31.1150   83.8900 C   0  0  0  0  0
   13.5260   32.2280   83.4820 C   0  0  0  0  0
   13.1250   33.1090   82.4300 C   0  0  0  0  0
   11.8750   32.8260   81.7620 C   0  0  0  0  0
   11.2780   33.5180   80.7310 O   0  0  0  0  0
    7.2269   34.7244   73.2575 H   0  0  0  0  0
    5.7297   33.4924   71.7481 H   0  0  0  0  0
    5.1636   37.6044   73.7521 H   0  0  0  0  0
    5.9947   39.2499   72.0595 H   0  0  0  0  0
   10.0937   38.4198   73.2601 H   0  0  0  0  0
    6.9026   32.3006   72.7669 H   0  0  0  0  0
    6.8421   32.1248   74.6339 H   0  0  0  0  0
    8.6785   30.3946   74.3367 H   0  0  0  0  0
   11.1665   30.0964   74.4237 H   0  0  0  0  0
   12.6972   32.0228   73.9068 H   0  0  0  0  0
   11.7192   34.2642   73.3299 H   0  0  0  0  0
    9.2292   34.5751   73.2380 H   0  0  0  0  0
    6.6273   32.6973   75.9542 H   0  0  0  0  0
    5.5220   33.8659   76.9018 H   0  0  0  0  0
    7.9305   35.8941   77.6705 H   0  0  0  0  0
    9.6532   35.4431   79.5588 H   0  0  0  0  0
    9.0366   31.0872   81.2736 H   0  0  0  0  0
   10.8280   30.0014   83.5249 H   0  0  0  0  0
   13.0083   30.4731   84.7103 H   0  0  0  0  0
   14.4778   32.3945   83.9865 H   0  0  0  0  0
   13.7391   33.9624   82.1424 H   0  0  0  0  0
  1  2  1  0  0  0
  1  6  1  0  0  0
  1 23  1  0  0  0
  2  3  1  0  0  0
  2 16  1  0  0  0
  3  4  1  0  0  0
  3  5  2  0  0  0
  6  7  2  0  0  0
  6  8  1  0  0  0
  8  9  4  0  0  0
  8 13  4  0  0  0
  9 10  4  0  0  0
 10 11  4  0  0  0
 11 12  4  0  0  0
 11 14  1  0  0  0
 12 13  4  0  0  0
 13 15  1  0  0  0
 16 17  1  0  0  0
 17 18  4  0  0  0
 17 22  4  0  0  0
 18 19  4  0  0  0
 19 20  4  0  0  0
 20 21  4  0  0  0
 21 22  4  0  0  0
 23 24  1  0  0  0
 24 25  4  0  0  0
 24 28  4  0  0  0
 25 26  4  0  0  0
 26 27  4  0  0  0
 27 28  4  0  0  0
 27 29  1  0  0  0
 29 30  4  0  0  0
 29 37  4  0  0  0
 30 31  4  0  0  0
 31 32  4  0  0  0
 31 36  4  0  0  0
 32 33  4  0  0  0
 33 34  4  0  0  0
 34 35  4  0  0  0
 35 36  4  0  0  0
 36 37  4  0  0  0
  2 38  1  0  0  0
  4 39  1  0  0  0
  9 40  1  0  0  0
 10 41  1  0  0  0
 12 42  1  0  0  0
 16 43  1  0  0  0
 16 44  1  0  0  0
 18 45  1  0  0  0
 19 46  1  0  0  0
 20 47  1  0  0  0
 21 48  1  0  0  0
 22 49  1  0  0  0
 23 50  1  0  0  0
 23 51  1  0  0  0
 25 52  1  0  0  0
 26 53  1  0  0  0
 30 54  1  0  0  0
 32 55  1  0  0  0
 33 56  1  0  0  0
 34 57  1  0  0  0
 35 58  1  0  0  0
M  END
$$$$
