6huu_ligand
  -I-interpret- 

 94 96  0  0  0  0  0  0  0  0999 V2000
   55.1230 -133.1870   33.3310 C   0  0  0  0  0
   58.5970 -134.8060   33.9270 C   0  0  0  0  0
   59.8160 -134.9690   34.4540 C   0  0  0  0  0
   61.3450 -133.9720   37.0740 C   0  0  0  0  0
   62.8400 -135.3020   39.9130 C   0  0  0  0  0
   63.8220 -134.9680   42.1600 C   0  0  0  0  0
   64.4870 -132.5740   42.2000 C   0  0  0  0  0
   65.7600 -130.3900   40.9450 C   0  0  0  0  0
   66.4140 -129.3370   40.2970 C   0  0  0  0  0
   65.2500 -132.7460   41.0310 C   0  0  0  0  0
   62.2600 -136.3240   43.6520 C   0  0  0  0  0
   62.3840 -139.2610   42.5920 C   0  0  0  0  0
   56.4150 -133.9990   33.4100 C   0  0  0  0  0
   57.6120 -133.5070   34.3440 S   0  0  0  0  0
   56.7210 -135.1490   32.7630 N   0  0  0  0  0
   57.9540 -135.6120   33.0610 C   0  0  0  0  0
   60.2970 -136.0940   34.6030 O   0  0  0  0  0
   60.4070 -133.8430   34.8920 N   0  0  0  0  0
   61.6870 -133.9060   35.5860 C   0  0  0  0  0
   62.5290 -132.6590   35.2950 C   0  0  0  0  0
   63.9770 -133.0990   34.9530 C   0  0  0  0  0
   64.1070 -133.3760   33.4400 C   0  0  0  0  0
   64.9910 -132.0190   35.3620 C   0  0  0  0  0
   60.6650 -133.0810   37.5900 O   0  0  0  0  0
   61.7880 -135.0580   37.7240 N   0  0  0  0  0
   61.5310 -135.2540   39.1590 C   0  0  0  0  0
   60.8710 -136.5990   39.4550 C   0  0  0  0  0
   59.5830 -136.8370   38.6760 C   0  0  0  0  0
   59.0560 -138.1690   39.1610 C   0  0  0  0  0
   57.8240 -138.5500   38.2940 C   0  0  0  0  0
   56.7360 -137.5060   38.5030 C   0  0  0  0  0
   57.3110 -136.1770   38.0970 C   0  0  0  0  0
   58.5170 -135.7890   38.9170 C   0  0  0  0  0
   63.8700 -135.7120   39.3810 O   0  0  0  0  0
   62.7100 -134.9480   41.1900 N   0  0  0  0  0
   63.7010 -136.1910   43.1040 C   0  0  0  0  0
   61.5170 -137.9870   43.5150 S   0  0  0  0  0
   61.3250 -138.4530   44.9480 O   0  0  0  0  0
   60.1670 -137.8150   42.8190 O   0  0  0  0  0
   63.8290 -133.6090   42.8990 C   0  0  0  0  0
   65.8710 -131.6700   40.4150 C   0  0  0  0  0
   65.5730 -128.1460   40.1480 N   0  3  0  0  0
   65.0130 -130.2040   42.1180 C   0  0  0  0  0
   64.3810 -131.2870   42.7330 C   0  0  0  0  0
   54.6746 -133.1226   34.3224 H   0  0  0  0  0
   55.3471 -132.1845   32.9664 H   0  0  0  0  0
   54.4288 -133.6766   32.6480 H   0  0  0  0  0
   64.7835 -135.0876   41.6606 H   0  0  0  0  0
   66.6854 -129.6790   39.2983 H   0  0  0  0  0
   67.2777 -129.0602   40.9016 H   0  0  0  0  0
   65.3550 -133.7424   40.6018 H   0  0  0  0  0
   61.6383 -135.6562   43.0557 H   0  0  0  0  0
   62.3101 -136.0931   44.7161 H   0  0  0  0  0
   63.3554 -139.4434   43.0516 H   0  0  0  0  0
   61.7969 -140.1793   42.6035 H   0  0  0  0  0
   62.5239 -138.9306   41.5628 H   0  0  0  0  0
   58.3779 -136.5282   32.6499 H   0  0  0  0  0
   59.9572 -132.9406   34.7377 H   0  0  0  0  0
   62.2715 -134.7666   35.2607 H   0  0  0  0  0
   62.5384 -132.0084   36.1695 H   0  0  0  0  0
   62.1012 -132.1136   34.4538 H   0  0  0  0  0
   64.1909 -134.0107   35.5107 H   0  0  0  0  0
   63.4160 -134.1699   33.1566 H   0  0  0  0  0
   63.8684 -132.4693   32.8841 H   0  0  0  0  0
   65.1281 -133.6837   33.2147 H   0  0  0  0  0
   64.7703 -131.0945   34.8284 H   0  0  0  0  0
   64.9218 -131.8455   36.4359 H   0  0  0  0  0
   65.9975 -132.3537   35.1108 H   0  0  0  0  0
   62.3155 -135.7647   37.2114 H   0  0  0  0  0
   60.8859 -134.4281   39.4588 H   0  0  0  0  0
   60.6165 -136.6099   40.5148 H   0  0  0  0  0
   61.5757 -137.3779   39.1636 H   0  0  0  0  0
   59.8061 -136.8021   37.6096 H   0  0  0  0  0
   58.7680 -138.0981   40.2099 H   0  0  0  0  0
   59.8284 -138.9327   39.0698 H   0  0  0  0  0
   57.4548 -139.5325   38.5880 H   0  0  0  0  0
   58.1081 -138.5823   37.2422 H   0  0  0  0  0
   56.4196 -137.4849   39.5458 H   0  0  0  0  0
   55.8566 -137.7428   37.9041 H   0  0  0  0  0
   56.5432 -135.4189   38.2517 H   0  0  0  0  0
   57.6245 -136.2521   37.0557 H   0  0  0  0  0
   58.8772 -134.8027   38.6245 H   0  0  0  0  0
   58.2605 -135.7406   39.9753 H   0  0  0  0  0
   61.7916 -134.6465   41.5156 H   0  0  0  0  0
   64.3842 -136.0559   43.9425 H   0  0  0  0  0
   63.9478 -137.0926   42.5434 H   0  0  0  0  0
   64.3651 -133.7554   43.8367 H   0  0  0  0  0
   62.7897 -133.3042   43.0218 H   0  0  0  0  0
   66.4517 -131.8296   39.5065 H   0  0  0  0  0
   66.1015 -127.4156   39.6709 H   0  0  0  0  0
   64.7457 -128.3818   39.6000 H   0  0  0  0  0
   65.2886 -127.8146   41.0698 H   0  0  0  0  0
   64.9254 -129.2080   42.5520 H   0  0  0  0  0
   63.7980 -131.1261   43.6398 H   0  0  0  0  0
 13  1  1  0  0  0
  3  2  1  0  0  0
  2 14  4  0  0  0
  2 16  4  0  0  0
  3 17  2  0  0  0
 18  3  1  0  0  0
  4 19  1  0  0  0
  4 24  2  0  0  0
 25  4  1  0  0  0
 26  5  1  0  0  0
  5 34  2  0  0  0
  5 35  1  0  0  0
 35  6  1  0  0  0
  6 36  1  0  0  0
  6 40  1  0  0  0
  7 10  4  0  0  0
 40  7  1  0  0  0
  7 44  4  0  0  0
  8  9  1  0  0  0
 41  8  4  0  0  0
  8 43  4  0  0  0
  9 42  1  0  0  0
 10 41  4  0  0  0
 36 11  1  0  0  0
 11 37  1  0  0  0
 37 12  1  0  0  0
 14 13  4  0  0  0
 15 13  4  0  0  0
 16 15  4  0  0  0
 19 18  1  0  0  0
 19 20  1  0  0  0
 20 21  1  0  0  0
 21 22  1  0  0  0
 21 23  1  0  0  0
 25 26  1  0  0  0
 26 27  1  0  0  0
 27 28  1  0  0  0
 28 29  1  0  0  0
 28 33  1  0  0  0
 29 30  1  0  0  0
 30 31  1  0  0  0
 31 32  1  0  0  0
 32 33  1  0  0  0
 37 38  2  0  0  0
 37 39  2  0  0  0
 43 44  4  0  0  0
  1 45  1  0  0  0
  1 46  1  0  0  0
  1 47  1  0  0  0
  6 48  1  0  0  0
  9 49  1  0  0  0
  9 50  1  0  0  0
 10 51  1  0  0  0
 11 52  1  0  0  0
 11 53  1  0  0  0
 12 54  1  0  0  0
 12 55  1  0  0  0
 12 56  1  0  0  0
 16 57  1  0  0  0
 18 58  1  0  0  0
 19 59  1  0  0  0
 20 60  1  0  0  0
 20 61  1  0  0  0
 21 62  1  0  0  0
 22 63  1  0  0  0
 22 64  1  0  0  0
 22 65  1  0  0  0
 23 66  1  0  0  0
 23 67  1  0  0  0
 23 68  1  0  0  0
 25 69  1  0  0  0
 26 70  1  0  0  0
 27 71  1  0  0  0
 27 72  1  0  0  0
 28 73  1  0  0  0
 29 74  1  0  0  0
 29 75  1  0  0  0
 30 76  1  0  0  0
 30 77  1  0  0  0
 31 78  1  0  0  0
 31 79  1  0  0  0
 32 80  1  0  0  0
 32 81  1  0  0  0
 33 82  1  0  0  0
 33 83  1  0  0  0
 35 84  1  0  0  0
 36 85  1  0  0  0
 36 86  1  0  0  0
 40 87  1  0  0  0
 40 88  1  0  0  0
 41 89  1  0  0  0
 42 90  1  0  0  0
 42 91  1  0  0  0
 42 92  1  0  0  0
 43 93  1  0  0  0
 44 94  1  0  0  0
M  END
$$$$
