3c84_ligand
  -I-interpret- 

 25 26  0  0  0  0  0  0  0  0999 V2000
  -12.5870   20.4270   59.5610 C   0  0  0  0  0
  -11.6010   20.4210   58.5510 C   0  0  0  0  0
  -10.3650   19.7710   58.7150 C   0  0  0  0  0
   -9.2760   19.7750   57.5600 Cl  0  0  0  0  0
  -10.1750   19.1750   59.9190 N   0  0  0  0  0
  -11.0350   19.1800   60.9180 C   0  0  0  0  0
  -12.3060   19.8100   60.7720 C   0  0  0  0  0
  -13.3820   19.8170   61.8830 C   0  0  0  0  0
  -12.7950   19.7210   63.2340 N   0  0  0  0  0
  -12.8390   18.4490   64.0110 C   0  0  0  0  0
  -12.6380   18.8190   65.4870 C   0  0  0  0  0
  -11.5690   20.3000   65.3880 S   0  0  0  0  0
  -12.1630   20.7600   63.8390 C   0  0  0  0  0
  -12.0430   21.9480   63.2520 N   0  0  0  0  0
  -11.4510   22.9790   63.8050 C   0  0  0  0  0
  -10.9630   23.9160   64.2370 N   0  0  0  0  0
  -13.5510   20.9072   59.3930 H   0  0  0  0  0
  -11.8045   20.9373   57.6129 H   0  0  0  0  0
  -10.7732   18.6999   61.8609 H   0  0  0  0  0
  -14.0277   18.9517   61.7331 H   0  0  0  0  0
  -13.9281   20.7581   61.8182 H   0  0  0  0  0
  -12.0603   17.7643   63.6751 H   0  0  0  0  0
  -13.7926   17.9412   63.8667 H   0  0  0  0  0
  -12.1944   18.0126   66.0710 H   0  0  0  0  0
  -13.5758   19.0056   66.0102 H   0  0  0  0  0
  1  2  4  0  0  0
  1  7  4  0  0  0
  2  3  4  0  0  0
  3  4  1  0  0  0
  3  5  4  0  0  0
  5  6  4  0  0  0
  6  7  4  0  0  0
  7  8  1  0  0  0
  8  9  1  0  0  0
  9 10  1  0  0  0
  9 13  1  0  0  0
 10 11  1  0  0  0
 11 12  1  0  0  0
 12 13  1  0  0  0
 13 14  2  0  0  0
 14 15  1  0  0  0
 15 16  3  0  0  0
  1 17  1  0  0  0
  2 18  1  0  0  0
  6 19  1  0  0  0
  8 20  1  0  0  0
  8 21  1  0  0  0
 10 22  1  0  0  0
 10 23  1  0  0  0
 11 24  1  0  0  0
 11 25  1  0  0  0
M  END
$$$$
