4hwt_ligand
  -I-interpret- 

 44 46  0  0  0  0  0  0  0  0999 V2000
    7.0520  -28.5890  -13.1320 O   0  0  0  0  0
    7.0910  -27.4910  -12.6120 C   0  0  0  0  0
    8.0620  -27.2530  -11.4900 C   0  0  0  0  0
    9.5310  -27.2730  -11.8740 C   0  0  0  0  0
    9.9420  -26.0440  -12.6620 C   0  0  0  0  0
   10.2500  -27.3960  -10.6150 O   0  0  0  0  0
    7.9710  -28.3600  -10.5600 N   0  3  0  0  0
    6.2940  -26.4610  -12.9480 N   0  0  0  0  0
    4.7840  -26.5340  -13.5690 S   0  0  0  0  0
    3.8120  -25.9100  -12.7090 O   0  0  0  0  0
    4.3600  -27.8860  -13.7810 O   0  0  0  0  0
    4.7090  -25.7460  -14.9560 C   0  0  0  0  0
    5.5680  -26.0890  -16.0130 C   0  0  0  0  0
    5.4730  -25.3860  -17.2180 C   0  0  0  0  0
    4.5280  -24.3540  -17.3620 C   0  0  0  0  0
    3.6740  -24.0030  -16.3080 C   0  0  0  0  0
    3.7710  -24.7090  -15.1090 C   0  0  0  0  0
    2.6660  -22.9000  -16.4730 C   0  0  0  0  0
    2.9730  -21.7790  -17.2690 C   0  0  0  0  0
    2.0260  -20.7610  -17.4370 C   0  0  0  0  0
    2.1160  -19.5380  -18.1810 C   0  0  0  0  0
    0.9050  -18.9460  -17.9750 N   0  0  0  0  0
    0.0750  -19.7450  -17.1360 N   0  0  0  0  0
    0.7150  -20.8740  -16.7710 C   0  0  0  0  0
    0.4270  -21.9950  -15.9840 C   0  0  0  0  0
    1.4020  -22.9960  -15.8490 C   0  0  0  0  0
    7.7897  -26.2671  -11.1133 H   0  0  0  0  0
    9.7578  -28.1015  -12.5451 H   0  0  0  0  0
    9.7394  -25.1507  -12.0712 H   0  0  0  0  0
   11.0070  -26.0981  -12.8877 H   0  0  0  0  0
    9.3739  -26.0031  -13.5914 H   0  0  0  0  0
    9.9556  -28.1858  -10.1555 H   0  0  0  0  0
    7.0103  -28.4456  -10.2282 H   0  0  0  0  0
    8.2474  -29.2216  -11.0308 H   0  0  0  0  0
    8.5914  -28.1895   -9.7686 H   0  0  0  0  0
    6.6758  -25.5271  -12.7980 H   0  0  0  0  0
    6.2972  -26.8906  -15.8958 H   0  0  0  0  0
    6.1330  -25.6383  -18.0480 H   0  0  0  0  0
    4.4589  -23.8186  -18.3089 H   0  0  0  0  0
    3.1113  -24.4538  -14.2797 H   0  0  0  0  0
    3.9465  -21.7040  -17.7536 H   0  0  0  0  0
    2.9545  -19.1689  -18.7716 H   0  0  0  0  0
   -0.5373  -22.0892  -15.4847 H   0  0  0  0  0
    1.1769  -23.8744  -15.2441 H   0  0  0  0  0
  1  2  2  0  0  0
  2  3  1  0  0  0
  2  8  1  0  0  0
  3  4  1  0  0  0
  3  7  1  0  0  0
  4  5  1  0  0  0
  4  6  1  0  0  0
  8  9  1  0  0  0
  9 10  2  0  0  0
  9 11  2  0  0  0
  9 12  1  0  0  0
 12 13  4  0  0  0
 12 17  4  0  0  0
 13 14  4  0  0  0
 14 15  4  0  0  0
 15 16  4  0  0  0
 16 17  4  0  0  0
 16 18  1  0  0  0
 18 19  4  0  0  0
 18 26  4  0  0  0
 19 20  4  0  0  0
 20 21  4  0  0  0
 20 24  4  0  0  0
 21 22  4  0  0  0
 22 23  4  0  0  0
 23 24  4  0  0  0
 24 25  4  0  0  0
 25 26  4  0  0  0
  3 27  1  0  0  0
  4 28  1  0  0  0
  5 29  1  0  0  0
  5 30  1  0  0  0
  5 31  1  0  0  0
  6 32  1  0  0  0
  7 33  1  0  0  0
  7 34  1  0  0  0
  7 35  1  0  0  0
  8 36  1  0  0  0
 13 37  1  0  0  0
 14 38  1  0  0  0
 15 39  1  0  0  0
 17 40  1  0  0  0
 19 41  1  0  0  0
 21 42  1  0  0  0
 25 43  1  0  0  0
 26 44  1  0  0  0
M  END
$$$$
