1m5f_ligand
  -I-interpret- 

 26 26  0  0  0  0  0  0  0  0999 V2000
   61.7370   66.3490   48.1020 O   0  0  0  0  0
   62.2960   66.6200   49.2060 C   0  0  0  0  0
   61.9050   66.1690   50.3560 O   0  0  0  0  0
   63.5120   67.5050   49.1900 C   0  0  0  0  0
   64.0350   68.0000   48.0520 N   0  0  0  0  0
   65.1250   68.7590   48.4210 O   0  0  0  0  0
   65.2720   68.7340   49.7670 C   0  0  0  0  0
   64.2790   67.9490   50.3400 C   0  0  0  0  0
   64.0810   67.6630   51.8050 C   0  0  0  0  0
   63.0640   68.5700   52.5170 C   0  0  0  0  0
   63.4570   70.0130   52.3740 N   0  3  0  0  0
   62.9190   68.1760   54.0220 C   0  0  0  0  0
   63.1590   69.1450   54.8210 O   0  0  0  0  0
   62.5920   66.9980   54.2540 O   0  0  0  0  0
   66.4020   69.5160   50.2960 C   0  0  0  0  0
   62.4810   66.5093   51.0445 H   0  0  0  0  0
   65.0429   67.8305   52.2895 H   0  0  0  0  0
   63.6967   66.6455   51.8762 H   0  0  0  0  0
   62.0923   68.4314   52.0430 H   0  0  0  0  0
   62.7725   70.5995   52.8514 H   0  0  0  0  0
   64.3776   70.1561   52.7891 H   0  0  0  0  0
   63.4867   70.2596   51.3847 H   0  0  0  0  0
   63.3866   69.9276   54.3138 H   0  0  0  0  0
   67.3335   69.1351   49.8772 H   0  0  0  0  0
   66.2790   70.5630   50.0189 H   0  0  0  0  0
   66.4271   69.4268   51.3821 H   0  0  0  0  0
  2  1  2  0  0  0
  2  4  1  0  0  0
  2  3  1  0  0  0
  4  8  4  0  0  0
  4  5  4  0  0  0
  5  6  4  0  0  0
  6  7  4  0  0  0
  7 15  1  0  0  0
  8  7  4  0  0  0
  8  9  1  0  0  0
  9 10  1  0  0  0
 10 12  1  0  0  0
 10 11  1  0  0  0
 12 14  2  0  0  0
 12 13  1  0  0  0
  3 16  1  0  0  0
  9 17  1  0  0  0
  9 18  1  0  0  0
 10 19  1  0  0  0
 11 20  1  0  0  0
 11 21  1  0  0  0
 11 22  1  0  0  0
 13 23  1  0  0  0
 15 24  1  0  0  0
 15 25  1  0  0  0
 15 26  1  0  0  0
M  END
$$$$
