6fhu_ligand
  -I-interpret- 

 42 41  0  0  0  0  0  0  0  0999 V2000
   21.4220   39.3340   16.8500 N   0  3  0  0  0
   20.7160   38.0180   16.7560 C   0  0  0  0  0
   20.2380   37.7350   15.3300 C   0  0  0  0  0
   19.9540   38.6590   14.5630 O   0  0  0  0  0
   19.5410   37.9670   17.7290 C   0  0  0  0  0
   20.1380   36.4490   15.0020 N   0  0  0  0  0
   19.8090   35.9860   13.6470 C   0  0  0  0  0
   18.2920   35.7430   13.4940 C   0  0  0  0  0
   17.6050   35.4790   14.4880 O   0  0  0  0  0
   20.6050   34.7060   13.3350 C   0  0  0  0  0
   22.0990   34.8130   13.6060 C   0  0  0  0  0
   17.7850   35.8430   12.2580 N   0  0  0  0  0
   16.3460   35.6960   11.9630 C   0  0  0  0  0
   16.0410   34.7350   10.8100 C   0  0  0  0  0
   16.8660   34.5560    9.9160 O   0  0  0  0  0
   15.6460   37.0370   11.6920 C   0  0  0  0  0
   16.4690   37.8440   10.8500 O   0  0  0  0  0
   15.3020   37.7750   12.9670 C   0  0  0  0  0
   14.8600   34.1330   10.8310 N   0  0  0  0  0
   22.2023   39.3476   16.1932 H   0  0  0  0  0
   20.7706   40.0850   16.6216 H   0  0  0  0  0
   21.7727   39.4633   17.7991 H   0  0  0  0  0
   21.4320   37.2424   17.0276 H   0  0  0  0  0
   18.8030   38.7173   17.4451 H   0  0  0  0  0
   19.0860   36.9771   17.6956 H   0  0  0  0  0
   19.8979   38.1704   18.7386 H   0  0  0  0  0
   20.2977   35.7500   15.7275 H   0  0  0  0  0
   20.0869   36.7613   12.9331 H   0  0  0  0  0
   20.4865   34.5072   12.2698 H   0  0  0  0  0
   20.2173   33.9217   13.9852 H   0  0  0  0  0
   22.5221   35.6087   12.9929 H   0  0  0  0  0
   22.2605   35.0397   14.6599 H   0  0  0  0  0
   22.5805   33.8669   13.3586 H   0  0  0  0  0
   18.4232   36.0295   11.4845 H   0  0  0  0  0
   15.9439   35.2630   12.8790 H   0  0  0  0  0
   14.7026   36.8253   11.1887 H   0  0  0  0  0
   16.0297   38.6809   10.6822 H   0  0  0  0  0
   14.6338   37.1615   13.5714 H   0  0  0  0  0
   16.2157   37.9780   13.5256 H   0  0  0  0  0
   14.8095   38.7153   12.7194 H   0  0  0  0  0
   14.6026   33.4888   10.0832 H   0  0  0  0  0
   14.2088   34.3140   11.5949 H   0  0  0  0  0
  1  2  1  0  0  0
  2  3  1  0  0  0
  2  5  1  0  0  0
  3  4  2  0  0  0
  3  6  1  0  0  0
  6  7  1  0  0  0
  7  8  1  0  0  0
  7 10  1  0  0  0
  8  9  2  0  0  0
  8 12  1  0  0  0
 10 11  1  0  0  0
 12 13  1  0  0  0
 13 14  1  0  0  0
 13 16  1  0  0  0
 14 15  2  0  0  0
 14 19  1  0  0  0
 16 17  1  0  0  0
 16 18  1  0  0  0
  1 20  1  0  0  0
  1 21  1  0  0  0
  1 22  1  0  0  0
  2 23  1  0  0  0
  5 24  1  0  0  0
  5 25  1  0  0  0
  5 26  1  0  0  0
  6 27  1  0  0  0
  7 28  1  0  0  0
 10 29  1  0  0  0
 10 30  1  0  0  0
 11 31  1  0  0  0
 11 32  1  0  0  0
 11 33  1  0  0  0
 12 34  1  0  0  0
 13 35  1  0  0  0
 16 36  1  0  0  0
 17 37  1  0  0  0
 18 38  1  0  0  0
 18 39  1  0  0  0
 18 40  1  0  0  0
 19 41  1  0  0  0
 19 42  1  0  0  0
M  END
$$$$
