5mwh_ligand
  -I-interpret- 

 64 67  0  0  0  0  0  0  0  0999 V2000
   24.3730    4.8620   10.8130 C   0  0  0  0  0
   25.2240    5.2720   13.1170 C   0  0  0  0  0
   20.7740   -2.6410   11.8000 C   0  0  0  0  0
   18.2190    0.7490    8.0150 C   0  0  0  0  0
   26.1200    2.0440    9.7640 C   0  0  0  0  0
   25.5950    1.1160   11.9240 C   0  0  0  0  0
   25.8970    0.8100    9.1690 C   0  0  0  0  0
   25.3590   -0.1190   11.3250 C   0  0  0  0  0
   22.1330   -1.7350    9.4960 C   0  0  0  0  0
   20.8610   -0.0800    7.6650 C   0  0  0  0  0
   23.2970   -0.0040    3.8850 C   0  0  0  0  0
   24.4380    1.4930    5.1860 C   0  0  0  0  0
   22.3740   -0.4760    5.0130 C   0  0  0  0  0
   23.6080    1.2350    6.4490 C   0  0  0  0  0
   26.2220    3.4490   11.7370 C   0  0  0  0  0
   25.9720    2.2060   11.1400 C   0  0  0  0  0
   22.8160   -1.2810    8.3680 C   0  0  0  0  0
   25.5140   -0.2720    9.9550 C   0  0  0  0  0
   22.1760   -0.4620    7.4430 C   0  0  0  0  0
   18.8390   -1.3750   10.9910 C   0  0  0  0  0
   18.2180   -0.5440   10.0650 C   0  0  0  0  0
   20.8060   -1.3440    9.7160 C   0  0  0  0  0
   20.1740   -0.5160    8.7940 C   0  0  0  0  0
   24.9300    4.1940   12.0730 C   0  0  0  0  0
   24.0750   -1.6100    8.0560 N   0  0  0  0  0
   22.7830    0.0190    6.3360 N   0  0  0  0  0
   20.1190   -1.7570   10.8040 N   0  0  0  0  0
   18.8960   -0.1300    8.9900 N   0  0  0  0  0
   18.2170   -1.7580   11.9850 O   0  0  0  0  0
   17.0450   -0.1760   10.2040 O   0  0  0  0  0
   26.5210   -2.2560    8.5390 O   0  0  0  0  0
   24.8400   -2.8080   10.2960 O   0  0  0  0  0
   23.6000    1.3920    4.0420 O   0  0  0  0  0
   25.2370   -1.7890    9.2260 S   0  0  0  0  0
   25.1060    5.5685   10.4236 H   0  0  0  0  0
   24.1653    4.1006   10.0612 H   0  0  0  0  0
   23.4525    5.3908   11.0603 H   0  0  0  0  0
   25.6210    4.8046   14.0181 H   0  0  0  0  0
   25.9564    5.9732   12.7170 H   0  0  0  0  0
   24.3034    5.8039   13.3574 H   0  0  0  0  0
   20.7809   -2.1483   12.7723 H   0  0  0  0  0
   20.2223   -3.5784   11.8702 H   0  0  0  0  0
   21.7981   -2.8433   11.4865 H   0  0  0  0  0
   17.3467    0.2361    7.6098 H   0  0  0  0  0
   17.9042    1.6665    8.5122 H   0  0  0  0  0
   18.9082    0.9908    7.2060 H   0  0  0  0  0
   26.4137    2.8946    9.1489 H   0  0  0  0  0
   25.4854    1.2303   13.0024 H   0  0  0  0  0
   26.0212    0.6895    8.0928 H   0  0  0  0  0
   25.0514   -0.9684   11.9349 H   0  0  0  0  0
   22.6318   -2.3941   10.2065 H   0  0  0  0  0
   20.3600    0.5692    6.9468 H   0  0  0  0  0
   22.7968   -0.1548    2.9284 H   0  0  0  0  0
   24.2241   -0.5762    3.9200 H   0  0  0  0  0
   25.2371    0.7548    5.1183 H   0  0  0  0  0
   24.8714    2.4920    5.2329 H   0  0  0  0  0
   22.4126   -1.5650    5.0396 H   0  0  0  0  0
   21.3755   -0.0897    4.8083 H   0  0  0  0  0
   22.9408    2.0845    6.5951 H   0  0  0  0  0
   24.2953    1.1015    7.2844 H   0  0  0  0  0
   26.7922    4.0561   11.0338 H   0  0  0  0  0
   26.7675    3.2776   12.6650 H   0  0  0  0  0
   24.1998    3.4851   12.4633 H   0  0  0  0  0
   24.3255   -1.7538    7.0777 H   0  0  0  0  0
 24  1  1  0  0  0
 24  2  1  0  0  0
 27  3  1  0  0  0
 28  4  1  0  0  0
  7  5  4  0  0  0
  5 16  4  0  0  0
  8  6  4  0  0  0
  6 16  4  0  0  0
 18  7  4  0  0  0
 18  8  4  0  0  0
 17  9  4  0  0  0
  9 22  4  0  0  0
 19 10  4  0  0  0
 10 23  4  0  0  0
 13 11  1  0  0  0
 11 33  1  0  0  0
 14 12  1  0  0  0
 12 33  1  0  0  0
 26 13  1  0  0  0
 26 14  1  0  0  0
 16 15  1  0  0  0
 15 24  1  0  0  0
 17 19  4  0  0  0
 25 17  1  0  0  0
 34 18  1  0  0  0
 19 26  1  0  0  0
 20 21  1  0  0  0
 27 20  1  0  0  0
 20 29  2  0  0  0
 28 21  1  0  0  0
 21 30  2  0  0  0
 22 23  4  0  0  0
 22 27  1  0  0  0
 23 28  1  0  0  0
 25 34  1  0  0  0
 34 31  2  0  0  0
 34 32  2  0  0  0
  1 35  1  0  0  0
  1 36  1  0  0  0
  1 37  1  0  0  0
  2 38  1  0  0  0
  2 39  1  0  0  0
  2 40  1  0  0  0
  3 41  1  0  0  0
  3 42  1  0  0  0
  3 43  1  0  0  0
  4 44  1  0  0  0
  4 45  1  0  0  0
  4 46  1  0  0  0
  5 47  1  0  0  0
  6 48  1  0  0  0
  7 49  1  0  0  0
  8 50  1  0  0  0
  9 51  1  0  0  0
 10 52  1  0  0  0
 11 53  1  0  0  0
 11 54  1  0  0  0
 12 55  1  0  0  0
 12 56  1  0  0  0
 13 57  1  0  0  0
 13 58  1  0  0  0
 14 59  1  0  0  0
 14 60  1  0  0  0
 15 61  1  0  0  0
 15 62  1  0  0  0
 24 63  1  0  0  0
 25 64  1  0  0  0
M  END
$$$$
