1zyj_ligand
  -I-interpret- 

 39 41  0  0  0  0  0  0  0  0999 V2000
   52.1890   39.0500  -29.0190 N   0  0  0  0  0
   51.4280   39.3130  -27.8570 C   0  0  0  0  0
   51.5410   40.5620  -27.1210 C   0  0  0  0  0
   52.4830   41.5460  -27.6310 C   0  0  0  0  0
   53.2660   41.2700  -28.8260 C   0  0  0  0  0
   53.1060   40.0040  -29.5240 C   0  0  0  0  0
   50.4550   38.2620  -27.3840 C   0  0  0  0  0
   50.9350   37.5410  -26.1920 N   0  0  0  0  0
   51.7020   36.4750  -26.4120 C   0  0  0  0  0
   52.5370   35.8980  -25.2800 C   0  0  0  0  0
   53.1130   34.5750  -25.4480 C   0  0  0  0  0
   53.8350   34.0380  -24.3090 C   0  0  0  0  0
   53.9510   34.8090  -23.0780 C   0  0  0  0  0
   53.3840   36.1400  -22.9310 C   0  0  0  0  0
   52.6630   36.6890  -24.0650 C   0  0  0  0  0
   54.5380   34.3110  -21.9800 O   0  0  0  0  0
   55.0350   33.0720  -22.0180 C   0  0  0  0  0
   54.1810   32.0170  -21.5010 C   0  0  0  0  0
   54.7240   30.6680  -21.4840 C   0  0  0  0  0
   56.0710   30.4200  -21.9780 C   0  0  0  0  0
   56.9160   31.4820  -22.5070 C   0  0  0  0  0
   56.3790   32.8360  -22.5280 C   0  0  0  0  0
   51.7410   35.9630  -27.5340 O   0  0  0  0  0
   50.9466   40.7523  -26.2274 H   0  0  0  0  0
   52.6033   42.4979  -27.1138 H   0  0  0  0  0
   53.9725   42.0120  -29.1981 H   0  0  0  0  0
   53.6840   39.7923  -30.4236 H   0  0  0  0  0
   50.3289   37.5359  -28.1871 H   0  0  0  0  0
   49.5229   38.7620  -27.1209 H   0  0  0  0  0
   50.6926   37.8425  -25.2482 H   0  0  0  0  0
   53.0088   34.0163  -26.3781 H   0  0  0  0  0
   54.2935   33.0513  -24.3750 H   0  0  0  0  0
   53.4961   36.7038  -22.0049 H   0  0  0  0  0
   52.2205   37.6835  -24.0071 H   0  0  0  0  0
   53.1742   32.2278  -21.1405 H   0  0  0  0  0
   54.1229   29.8430  -21.1016 H   0  0  0  0  0
   56.4613   29.4026  -21.9510 H   0  0  0  0  0
   57.9195   31.2701  -22.8759 H   0  0  0  0  0
   56.9743   33.6608  -22.9197 H   0  0  0  0  0
  2  1  4  0  0  0
  1  6  4  0  0  0
  2  3  4  0  0  0
  7  2  1  0  0  0
  3  4  4  0  0  0
  4  5  4  0  0  0
  6  5  4  0  0  0
  8  7  1  0  0  0
  9  8  1  0  0  0
 10  9  1  0  0  0
  9 23  2  0  0  0
 11 10  4  0  0  0
 15 10  4  0  0  0
 12 11  4  0  0  0
 13 12  4  0  0  0
 13 14  4  0  0  0
 16 13  1  0  0  0
 14 15  4  0  0  0
 17 16  1  0  0  0
 18 17  4  0  0  0
 17 22  4  0  0  0
 19 18  4  0  0  0
 20 19  4  0  0  0
 20 21  4  0  0  0
 21 22  4  0  0  0
  3 24  1  0  0  0
  4 25  1  0  0  0
  5 26  1  0  0  0
  6 27  1  0  0  0
  7 28  1  0  0  0
  7 29  1  0  0  0
  8 30  1  0  0  0
 11 31  1  0  0  0
 12 32  1  0  0  0
 14 33  1  0  0  0
 15 34  1  0  0  0
 18 35  1  0  0  0
 19 36  1  0  0  0
 20 37  1  0  0  0
 21 38  1  0  0  0
 22 39  1  0  0  0
M  END
$$$$
