4ie0_ligand
  -I-interpret- 

 17 17  0  0  0  0  0  0  0  0999 V2000
   34.8170   -8.5910  -21.8080 O   0  0  0  0  0
   34.2170   -7.6060  -21.3050 C   0  0  0  0  0
   34.6220   -7.1570  -20.1920 O   0  0  0  0  0
   33.0400   -6.9910  -22.0030 C   0  0  0  0  0
   32.5530   -5.8030  -21.4930 C   0  0  0  0  0
   31.4750   -5.1720  -22.0900 C   0  0  0  0  0
   32.4210   -7.5540  -23.1100 C   0  0  0  0  0
   31.3330   -6.8610  -23.6560 C   0  0  0  0  0
   30.8820   -5.7010  -23.1520 N   0  0  0  0  0
   30.5980   -7.4160  -24.8200 C   0  0  0  0  0
   29.5540   -6.8390  -25.2470 O   0  0  0  0  0
   31.0090   -8.4860  -25.3360 O   0  0  0  0  0
   34.0761   -6.4117  -19.9311 H   0  0  0  0  0
   33.0209   -5.3593  -20.6142 H   0  0  0  0  0
   31.1093   -4.2295  -21.6826 H   0  0  0  0  0
   32.7667   -8.4956  -23.5366 H   0  0  0  0  0
   29.3977   -6.0424  -24.7345 H   0  0  0  0  0
  1  2  2  0  0  0
  2  3  1  0  0  0
  2  4  1  0  0  0
  4  5  4  0  0  0
  4  7  4  0  0  0
  5  6  4  0  0  0
  6  9  4  0  0  0
  7  8  4  0  0  0
  8  9  4  0  0  0
  8 10  1  0  0  0
 10 11  1  0  0  0
 10 12  2  0  0  0
  3 13  1  0  0  0
  5 14  1  0  0  0
  6 15  1  0  0  0
  7 16  1  0  0  0
 11 17  1  0  0  0
M  END
$$$$
