4nau_ligand
  -I-interpret- 

 63 66  0  0  0  0  0  0  0  0999 V2000
  -11.4890  -44.0250   31.9080 C   0  0  0  0  0
  -12.5700  -44.0770   30.7950 C   0  0  0  0  0
  -13.8800  -43.3960   31.1410 C   0  0  0  0  0
  -16.1810  -42.2380   31.9080 N   0  0  0  0  0
  -15.4170  -42.8690   32.7980 C   0  0  0  0  0
  -15.8260  -42.9490   34.2820 C   0  0  0  0  0
  -15.3260  -41.7050   35.0550 C   0  0  0  0  0
  -15.8240  -41.6760   36.5130 C   0  0  0  0  0
  -17.3450  -41.9010   36.6750 C   0  0  0  0  0
  -17.7540  -43.2020   35.9720 C   0  0  0  0  0
  -17.3620  -43.0310   34.4910 C   0  0  0  0  0
  -19.8090  -44.6590   32.1440 C   0  0  0  0  0
  -19.0380  -45.2600   30.9940 C   0  0  0  0  0
  -18.0510  -44.6080   30.2270 C   0  0  0  0  0
  -17.8380  -46.6320   28.9370 C   0  0  0  0  0
  -17.3130  -39.6690   28.0960 C   0  0  0  0  0
  -18.7280  -39.9130   28.2340 C   0  0  0  0  0
  -19.1060  -40.9350   29.1530 C   0  0  0  0  0
  -14.6540  -42.7470   30.1530 C   0  0  0  0  0
  -15.8670  -42.1500   30.5860 C   0  0  0  0  0
  -14.2760  -43.4260   32.4150 N   0  0  0  0  0
  -18.0280  -44.1220   33.7010 C   0  0  0  0  0
  -17.6480  -45.2840   33.7650 O   0  0  0  0  0
  -19.0550  -43.7080   32.9380 N   0  0  0  0  0
  -17.4230  -45.2980   29.1720 C   0  0  0  0  0
  -18.7900  -47.2440   29.7130 C   0  0  0  0  0
  -19.4040  -46.5700   30.7410 C   0  0  0  0  0
  -19.1400  -48.9070   29.3240 Cl  0  0  0  0  0
  -17.2870  -47.7400   27.7140 Cl  0  0  0  0  0
  -16.8450  -41.3920   29.7110 C   0  0  0  0  0
  -16.4190  -40.4200   28.8390 N   0  0  0  0  0
  -16.8790  -38.7910   27.3220 O   0  0  0  0  0
  -18.1570  -41.6140   29.8490 N   0  0  0  0  0
  -20.4240  -41.2300   29.3580 O   0  0  0  0  0
  -19.7510  -39.1420   27.4460 C   0  0  0  0  0
  -19.8970  -37.9250   27.6570 O   0  0  0  0  0
  -20.5390  -39.7440   26.4810 N   0  0  0  0  0
  -11.2511  -42.9854   32.1333 H   0  0  0  0  0
  -11.8687  -44.5147   32.8047 H   0  0  0  0  0
  -10.5909  -44.5385   31.5647 H   0  0  0  0  0
  -12.7976  -45.1296   30.6265 H   0  0  0  0  0
  -12.1598  -43.5504   29.9333 H   0  0  0  0  0
  -15.3686  -43.8647   34.6568 H   0  0  0  0  0
  -15.7110  -40.8187   34.5506 H   0  0  0  0  0
  -14.2366  -41.7356   35.0725 H   0  0  0  0  0
  -15.6046  -40.6831   36.9055 H   0  0  0  0  0
  -15.3233  -42.4898   37.0376 H   0  0  0  0  0
  -17.8832  -41.0648   36.2285 H   0  0  0  0  0
  -17.5886  -41.9715   37.7351 H   0  0  0  0  0
  -18.8231  -43.3865   36.0771 H   0  0  0  0  0
  -17.2526  -44.0627   36.4147 H   0  0  0  0  0
  -17.7200  -42.0696   34.1227 H   0  0  0  0  0
  -20.0875  -45.4790   32.8059 H   0  0  0  0  0
  -20.6540  -44.1197   31.7158 H   0  0  0  0  0
  -17.7758  -43.5769   30.4490 H   0  0  0  0  0
  -14.3359  -42.7068   29.1112 H   0  0  0  0  0
  -19.3052  -42.7194   32.9176 H   0  0  0  0  0
  -16.6516  -44.8264   28.5631 H   0  0  0  0  0
  -20.1666  -47.0592   31.3470 H   0  0  0  0  0
  -15.4189  -40.2474   28.7365 H   0  0  0  0  0
  -20.4959  -41.9371   30.0033 H   0  0  0  0  0
  -21.2206  -39.1910   25.9613 H   0  0  0  0  0
  -20.4383  -40.7408   26.2893 H   0  0  0  0  0
  2  1  1  0  0  0
  3  2  1  0  0  0
 19  3  4  0  0  0
  3 21  4  0  0  0
  4  5  4  0  0  0
 20  4  4  0  0  0
  5  6  1  0  0  0
  5 21  4  0  0  0
  6  7  1  0  0  0
  6 11  1  0  0  0
  7  8  1  0  0  0
  8  9  1  0  0  0
 10  9  1  0  0  0
 11 10  1  0  0  0
 11 22  1  0  0  0
 12 13  1  0  0  0
 24 12  1  0  0  0
 13 14  4  0  0  0
 13 27  4  0  0  0
 14 25  4  0  0  0
 25 15  4  0  0  0
 26 15  4  0  0  0
 15 29  1  0  0  0
 16 17  1  0  0  0
 31 16  1  0  0  0
 16 32  2  0  0  0
 17 18  2  0  0  0
 17 35  1  0  0  0
 18 33  1  0  0  0
 18 34  1  0  0  0
 20 19  4  0  0  0
 30 20  1  0  0  0
 22 23  2  0  0  0
 22 24  1  0  0  0
 27 26  4  0  0  0
 26 28  1  0  0  0
 30 31  1  0  0  0
 30 33  2  0  0  0
 35 36  2  0  0  0
 35 37  1  0  0  0
  1 38  1  0  0  0
  1 39  1  0  0  0
  1 40  1  0  0  0
  2 41  1  0  0  0
  2 42  1  0  0  0
  6 43  1  0  0  0
  7 44  1  0  0  0
  7 45  1  0  0  0
  8 46  1  0  0  0
  8 47  1  0  0  0
  9 48  1  0  0  0
  9 49  1  0  0  0
 10 50  1  0  0  0
 10 51  1  0  0  0
 11 52  1  0  0  0
 12 53  1  0  0  0
 12 54  1  0  0  0
 14 55  1  0  0  0
 19 56  1  0  0  0
 24 57  1  0  0  0
 25 58  1  0  0  0
 27 59  1  0  0  0
 31 60  1  0  0  0
 34 61  1  0  0  0
 37 62  1  0  0  0
 37 63  1  0  0  0
M  END
$$$$
