2vuk_ligand
  -I-interpret- 

 37 39  0  0  0  0  0  0  0  0999 V2000
  125.2080  105.1940  -40.9940 C   0  0  0  0  0
  125.0670  106.6170  -40.9240 C   0  0  0  0  0
  124.7230  107.3860  -42.0870 C   0  0  0  0  0
  124.5170  106.7290  -43.3250 C   0  0  0  0  0
  124.6530  105.2950  -43.4270 C   0  0  0  0  0
  124.5150  104.3730  -44.5110 C   0  0  0  0  0
  124.1840  104.5310  -45.9020 C   0  0  0  0  0
  124.1290  103.3890  -46.7440 C   0  0  0  0  0
  124.4010  102.0950  -46.2260 C   0  0  0  0  0
  124.7320  101.9150  -44.8550 C   0  0  0  0  0
  124.7830  103.0700  -44.0110 C   0  0  0  0  0
  125.0730  103.2080  -42.6510 N   0  0  0  0  0
  125.0000  104.5460  -42.2620 C   0  0  0  0  0
  125.4180  102.0860  -41.7660 C   0  0  0  0  0
  126.9350  101.9290  -41.6430 C   0  0  0  0  0
  124.6090  108.8950  -41.9140 C   0  0  0  0  0
  123.2310  109.3010  -41.6100 N   0  3  0  0  0
  123.1400  110.7510  -41.3370 C   0  0  0  0  0
  125.4669  104.6149  -40.1076 H   0  0  0  0  0
  125.2233  107.1250  -39.9724 H   0  0  0  0  0
  124.2536  107.3109  -44.2082 H   0  0  0  0  0
  123.9767  105.5214  -46.3072 H   0  0  0  0  0
  123.8757  103.5066  -47.7976 H   0  0  0  0  0
  124.3555  101.2296  -46.8872 H   0  0  0  0  0
  124.9417  100.9223  -44.4566 H   0  0  0  0  0
  125.0051  101.1694  -42.1872 H   0  0  0  0  0
  125.0060  102.2826  -40.7762 H   0  0  0  0  0
  127.3606  101.7405  -42.6286 H   0  0  0  0  0
  127.3614  102.8435  -41.2306 H   0  0  0  0  0
  127.1600  101.0916  -40.9825 H   0  0  0  0  0
  124.9113  109.3725  -42.8460 H   0  0  0  0  0
  125.2480  109.1960  -41.0838 H   0  0  0  0  0
  122.9216  108.7962  -40.7794 H   0  0  0  0  0
  122.6460  109.0873  -42.4178 H   0  0  0  0  0
  123.7694  110.9987  -40.4822 H   0  0  0  0  0
  123.4784  111.3061  -42.2119 H   0  0  0  0  0
  122.1054  111.0136  -41.1163 H   0  0  0  0  0
  1  2  4  0  0  0
  1 13  4  0  0  0
  2  3  4  0  0  0
  3  4  4  0  0  0
  3 16  1  0  0  0
  4  5  4  0  0  0
  5  6  4  0  0  0
  5 13  4  0  0  0
  6  7  4  0  0  0
  6 11  4  0  0  0
  7  8  4  0  0  0
  8  9  4  0  0  0
  9 10  4  0  0  0
 10 11  4  0  0  0
 11 12  4  0  0  0
 12 13  4  0  0  0
 12 14  1  0  0  0
 14 15  1  0  0  0
 16 17  1  0  0  0
 17 18  1  0  0  0
  1 19  1  0  0  0
  2 20  1  0  0  0
  4 21  1  0  0  0
  7 22  1  0  0  0
  8 23  1  0  0  0
  9 24  1  0  0  0
 10 25  1  0  0  0
 14 26  1  0  0  0
 14 27  1  0  0  0
 15 28  1  0  0  0
 15 29  1  0  0  0
 15 30  1  0  0  0
 16 31  1  0  0  0
 16 32  1  0  0  0
 17 33  1  0  0  0
 17 34  1  0  0  0
 18 35  1  0  0  0
 18 36  1  0  0  0
 18 37  1  0  0  0
M  END
$$$$
