2iyf_ligand
  -I-interpret- 

119121  0  0  0  0  0  0  0  0999 V2000
  -15.3870  -11.7730  -20.6710 C   0  0  0  0  0
  -13.9060  -12.1220  -20.4830 C   0  0  0  0  0
  -13.2580  -13.1130  -21.4950 C   0  0  0  0  0
  -11.7240  -13.0220  -21.4010 C   0  0  0  0  0
  -11.3490  -11.8120  -22.0760 O   0  0  0  0  0
  -10.4280   -9.5930  -22.1720 C   0  0  0  0  0
  -11.1360   -8.4020  -21.5100 C   0  0  0  0  0
  -12.5240   -8.1410  -22.1190 C   0  0  0  0  0
  -13.3580   -7.2070  -21.1770 C   0  0  0  0  0
  -14.3460   -7.9820  -20.2860 C   0  0  0  0  0
  -15.4500   -8.6090  -21.1600 C   0  0  0  0  0
  -16.4620   -9.4210  -20.3300 C   0  0  0  0  0
  -15.8760  -10.6790  -19.7350 C   0  0  0  0  0
  -15.8430  -10.8620  -18.5140 O   0  0  0  0  0
  -10.6580  -10.8080  -21.3500 C   0  0  0  0  0
  -10.3260  -10.9580  -20.1830 O   0  0  0  0  0
  -10.3290   -7.2180  -21.5970 O   0  0  0  0  0
  -14.0770   -6.3260  -21.9990 O   0  0  0  0  0
  -16.3400  -12.9470  -20.4440 C   0  0  0  0  0
  -17.6880   -9.7660  -21.1750 C   0  0  0  0  0
  -13.7420  -12.8480  -22.9160 C   0  0  0  0  0
  -13.7320  -12.5860  -19.1300 O   0  0  0  0  0
  -13.7300  -14.4310  -21.2120 O   0  0  0  0  0
  -10.9850  -14.1510  -22.1240 C   0  0  0  0  0
   -8.8970   -9.5300  -22.3720 C   0  0  0  0  0
  -14.8810   -7.1310  -19.1210 C   0  0  0  0  0
  -13.6330   -9.0610  -19.7130 O   0  0  0  0  0
  -13.7310   -4.9390  -21.8830 C   0  0  0  0  0
  -14.3830   -4.1530  -23.0290 C   0  0  0  0  0
  -14.1840   -2.6530  -22.8040 C   0  0  0  0  0
  -14.6280   -2.2510  -21.3780 C   0  0  0  0  0
  -13.9390   -3.1190  -20.3130 C   0  0  0  0  0
  -14.1960   -4.4990  -20.6140 O   0  0  0  0  0
  -15.0240   -1.8380  -23.7160 N   0  3  0  0  0
  -14.5450   -2.8660  -18.9430 C   0  0  0  0  0
  -13.7450   -4.4850  -24.2670 O   0  0  0  0  0
  -14.5630   -0.4810  -23.9950 C   0  0  0  0  0
   -9.4530   -7.0170  -20.4650 C   0  0  0  0  0
   -8.2750   -6.1280  -20.8890 C   0  0  0  0  0
   -8.6430   -4.6390  -21.0200 C   0  0  0  0  0
   -9.2900   -4.1600  -19.7090 C   0  0  0  0  0
  -10.4810   -5.0690  -19.3970 C   0  0  0  0  0
  -10.1340   -6.4680  -19.3320 O   0  0  0  0  0
   -9.5980   -4.4240  -22.0710 O   0  0  0  0  0
   -9.7920   -2.8280  -19.9150 O   0  0  0  0  0
   -9.3780   -4.6560  -23.4840 C   0  0  0  0  0
  -16.3490   -2.2570  -24.1580 C   0  0  0  0  0
  -11.0930   -4.7510  -18.0260 C   0  0  0  0  0
   -9.5070  -14.1270  -21.7920 C   0  0  0  0  0
  -12.3480   -7.5820  -23.5390 C   0  0  0  0  0
   -7.3980   -3.7730  -21.2890 C   0  0  0  0  0
  -15.4118  -11.4492  -21.7115 H   0  0  0  0  0
  -13.3643  -11.1998  -20.6934 H   0  0  0  0  0
  -11.4584  -13.0708  -20.3450 H   0  0  0  0  0
  -10.8655   -9.5908  -23.1703 H   0  0  0  0  0
  -11.2788   -8.6607  -20.4608 H   0  0  0  0  0
  -13.0922   -9.0673  -22.2043 H   0  0  0  0  0
  -12.6730   -6.6876  -20.5069 H   0  0  0  0  0
  -14.9753   -9.2856  -21.8707 H   0  0  0  0  0
  -15.9892   -7.8012  -21.6548 H   0  0  0  0  0
  -16.7530   -8.7843  -19.4945 H   0  0  0  0  0
  -16.2890  -13.2582  -19.4006 H   0  0  0  0  0
  -17.3577  -12.6386  -20.6832 H   0  0  0  0  0
  -16.0502  -13.7781  -21.0870 H   0  0  0  0  0
  -18.1636   -8.8462  -21.5154 H   0  0  0  0  0
  -17.3789  -10.3573  -22.0370 H   0  0  0  0  0
  -18.3928  -10.3397  -20.5731 H   0  0  0  0  0
  -13.3149  -13.5919  -23.5886 H   0  0  0  0  0
  -14.8298  -12.9114  -22.9457 H   0  0  0  0  0
  -13.4262  -11.8519  -23.2262 H   0  0  0  0  0
  -14.1380  -11.9617  -18.5241 H   0  0  0  0  0
  -13.4652  -14.6807  -20.3237 H   0  0  0  0  0
  -11.1056  -14.0176  -23.1991 H   0  0  0  0  0
  -11.4016  -15.1056  -21.8026 H   0  0  0  0  0
   -8.6490   -8.6758  -23.0021 H   0  0  0  0  0
   -8.4094   -9.4221  -21.4031 H   0  0  0  0  0
   -8.5564  -10.4478  -22.8514 H   0  0  0  0  0
  -14.0481   -6.8072  -18.4969 H   0  0  0  0  0
  -15.3997   -6.2585  -19.5183 H   0  0  0  0  0
  -15.5729   -7.7266  -18.5255 H   0  0  0  0  0
  -14.2212   -9.5680  -19.1487 H   0  0  0  0  0
  -12.6548   -4.7814  -21.9538 H   0  0  0  0  0
  -15.4433   -4.4038  -23.0597 H   0  0  0  0  0
  -13.1238   -2.4682  -22.9768 H   0  0  0  0  0
  -15.7057   -2.3930  -21.2972 H   0  0  0  0  0
  -14.3518   -1.2102  -21.2091 H   0  0  0  0  0
  -12.8754   -2.8806  -20.3122 H   0  0  0  0  0
  -14.8473   -2.4511  -24.5118 H   0  0  0  0  0
  -14.4185   -1.8159  -18.6795 H   0  0  0  0  0
  -15.6069   -3.1108  -18.9660 H   0  0  0  0  0
  -14.0428   -3.4904  -18.2041 H   0  0  0  0  0
  -14.1562   -3.9911  -24.9801 H   0  0  0  0  0
  -14.5061    0.0809  -23.0627 H   0  0  0  0  0
  -13.5766   -0.5215  -24.4571 H   0  0  0  0  0
  -15.2634    0.0071  -24.6727 H   0  0  0  0  0
   -9.0807   -7.9912  -20.1482 H   0  0  0  0  0
   -7.9434   -6.4703  -21.8693 H   0  0  0  0  0
   -7.5098   -6.2090  -20.1169 H   0  0  0  0  0
   -8.5642   -4.1813  -18.8961 H   0  0  0  0  0
  -11.1735   -4.8809  -20.2175 H   0  0  0  0  0
  -10.2001   -2.5123  -19.1054 H   0  0  0  0  0
   -8.5534   -4.0324  -23.8292 H   0  0  0  0  0
   -9.1332   -5.7059  -23.6447 H   0  0  0  0  0
  -10.2825   -4.4037  -24.0375 H   0  0  0  0  0
  -16.2696   -3.2029  -24.6938 H   0  0  0  0  0
  -16.9971   -2.3825  -23.2906 H   0  0  0  0  0
  -16.7672   -1.4976  -24.8188 H   0  0  0  0  0
  -10.3395   -4.8933  -17.2514 H   0  0  0  0  0
  -11.4372   -3.7168  -18.0142 H   0  0  0  0  0
  -11.9354   -5.4178  -17.8421 H   0  0  0  0  0
   -9.0816  -13.1728  -22.1027 H   0  0  0  0  0
   -9.3753  -14.2522  -20.7173 H   0  0  0  0  0
   -9.0045  -14.9388  -22.3180 H   0  0  0  0  0
  -11.7839   -6.6504  -23.4940 H   0  0  0  0  0
  -11.8079   -8.3062  -24.1488 H   0  0  0  0  0
  -13.3278   -7.3941  -23.9781 H   0  0  0  0  0
   -6.6944   -3.8844  -20.4640 H   0  0  0  0  0
   -6.9260   -4.0959  -22.2169 H   0  0  0  0  0
   -7.6957   -2.7280  -21.3757 H   0  0  0  0  0
  2  1  1  0  0  0
  1 13  1  0  0  0
  1 19  1  0  0  0
  3  2  1  0  0  0
  2 22  1  0  0  0
  4  3  1  0  0  0
  3 21  1  0  0  0
  3 23  1  0  0  0
  5  4  1  0  0  0
  4 24  1  0  0  0
 15  5  1  0  0  0
  6  7  1  0  0  0
  6 15  1  0  0  0
  6 25  1  0  0  0
  7  8  1  0  0  0
  7 17  1  0  0  0
  8  9  1  0  0  0
  8 50  1  0  0  0
  9 10  1  0  0  0
  9 18  1  0  0  0
 10 11  1  0  0  0
 10 26  1  0  0  0
 10 27  1  0  0  0
 11 12  1  0  0  0
 12 13  1  0  0  0
 12 20  1  0  0  0
 13 14  2  0  0  0
 15 16  2  0  0  0
 17 38  1  0  0  0
 18 28  1  0  0  0
 24 49  1  0  0  0
 28 29  1  0  0  0
 28 33  1  0  0  0
 29 30  1  0  0  0
 29 36  1  0  0  0
 30 31  1  0  0  0
 30 34  1  0  0  0
 31 32  1  0  0  0
 32 33  1  0  0  0
 32 35  1  0  0  0
 34 37  1  0  0  0
 34 47  1  0  0  0
 38 39  1  0  0  0
 38 43  1  0  0  0
 39 40  1  0  0  0
 40 41  1  0  0  0
 40 44  1  0  0  0
 40 51  1  0  0  0
 41 42  1  0  0  0
 41 45  1  0  0  0
 42 43  1  0  0  0
 42 48  1  0  0  0
 44 46  1  0  0  0
  1 52  1  0  0  0
  2 53  1  0  0  0
  4 54  1  0  0  0
  6 55  1  0  0  0
  7 56  1  0  0  0
  8 57  1  0  0  0
  9 58  1  0  0  0
 11 59  1  0  0  0
 11 60  1  0  0  0
 12 61  1  0  0  0
 19 62  1  0  0  0
 19 63  1  0  0  0
 19 64  1  0  0  0
 20 65  1  0  0  0
 20 66  1  0  0  0
 20 67  1  0  0  0
 21 68  1  0  0  0
 21 69  1  0  0  0
 21 70  1  0  0  0
 22 71  1  0  0  0
 23 72  1  0  0  0
 24 73  1  0  0  0
 24 74  1  0  0  0
 25 75  1  0  0  0
 25 76  1  0  0  0
 25 77  1  0  0  0
 26 78  1  0  0  0
 26 79  1  0  0  0
 26 80  1  0  0  0
 27 81  1  0  0  0
 28 82  1  0  0  0
 29 83  1  0  0  0
 30 84  1  0  0  0
 31 85  1  0  0  0
 31 86  1  0  0  0
 32 87  1  0  0  0
 34 88  1  0  0  0
 35 89  1  0  0  0
 35 90  1  0  0  0
 35 91  1  0  0  0
 36 92  1  0  0  0
 37 93  1  0  0  0
 37 94  1  0  0  0
 37 95  1  0  0  0
 38 96  1  0  0  0
 39 97  1  0  0  0
 39 98  1  0  0  0
 41 99  1  0  0  0
 42100  1  0  0  0
 45101  1  0  0  0
 46102  1  0  0  0
 46103  1  0  0  0
 46104  1  0  0  0
 47105  1  0  0  0
 47106  1  0  0  0
 47107  1  0  0  0
 48108  1  0  0  0
 48109  1  0  0  0
 48110  1  0  0  0
 49111  1  0  0  0
 49112  1  0  0  0
 49113  1  0  0  0
 50114  1  0  0  0
 50115  1  0  0  0
 50116  1  0  0  0
 51117  1  0  0  0
 51118  1  0  0  0
 51119  1  0  0  0
M  END
$$$$
