1xo2_ligand
  -I-interpret- 

 31 33  0  0  0  0  0  0  0  0999 V2000
   -3.3430   37.3090  140.4710 C   0  0  0  0  0
   -2.2480   36.9270  141.3070 C   0  0  0  0  0
   -0.8130   36.9320  140.8240 C   0  0  0  0  0
   -0.6730   37.3920  139.4240 C   0  0  0  0  0
   -1.7940   37.7850  138.5820 C   0  0  0  0  0
   -3.1420   37.7120  139.1040 C   0  0  0  0  0
    0.3860   36.5050  141.5920 C   0  0  0  0  0
    1.7430   36.5530  140.8980 C   0  0  0  0  0
    1.8710   37.0080  139.5440 C   0  0  0  0  0
    3.0270   37.1880  138.6610 C   0  0  0  0  0
    4.3630   37.0660  139.1300 C   0  0  0  0  0
    5.4560   37.2550  138.2600 C   0  0  0  0  0
    5.2320   37.5670  136.8960 C   0  0  0  0  0
    3.9340   37.6800  136.3640 C   0  0  0  0  0
    2.8290   37.5000  137.2090 C   0  0  0  0  0
    0.6840   37.4160  138.8670 O   0  0  0  0  0
    0.3500   36.0890  142.8010 O   0  0  0  0  0
    3.8500   38.0040  134.9950 O   0  0  0  0  0
    6.3100   37.7360  136.1160 O   0  0  0  0  0
    2.8920   36.1430  141.6130 O   0  0  0  0  0
   -4.2200   38.0240  138.2600 O   0  0  0  0  0
   -4.3539   37.2947  140.8785 H   0  0  0  0  0
   -2.4543   36.6201  142.3324 H   0  0  0  0  0
   -1.6189   38.1324  137.5638 H   0  0  0  0  0
    4.5451   36.8229  140.1768 H   0  0  0  0  0
    6.4744   37.1610  138.6369 H   0  0  0  0  0
    1.8198   37.5877  136.8067 H   0  0  0  0  0
    2.9272   38.0561  134.7357 H   0  0  0  0  0
    6.0275   37.9416  135.2218 H   0  0  0  0  0
    2.6367   35.8698  142.4972 H   0  0  0  0  0
   -3.8863   38.2685  137.3937 H   0  0  0  0  0
  1  2  4  0  0  0
  1  6  4  0  0  0
  2  3  4  0  0  0
  3  4  4  0  0  0
  3  7  1  0  0  0
  4  5  4  0  0  0
  4 16  1  0  0  0
  5  6  4  0  0  0
  6 21  1  0  0  0
  7  8  1  0  0  0
  7 17  2  0  0  0
  8  9  2  0  0  0
  8 20  1  0  0  0
  9 10  1  0  0  0
  9 16  1  0  0  0
 10 11  4  0  0  0
 10 15  4  0  0  0
 11 12  4  0  0  0
 12 13  4  0  0  0
 13 14  4  0  0  0
 13 19  1  0  0  0
 14 15  4  0  0  0
 14 18  1  0  0  0
  1 22  1  0  0  0
  2 23  1  0  0  0
  5 24  1  0  0  0
 11 25  1  0  0  0
 12 26  1  0  0  0
 15 27  1  0  0  0
 18 28  1  0  0  0
 19 29  1  0  0  0
 20 30  1  0  0  0
 21 31  1  0  0  0
M  END
$$$$
