### 
### Created by X-TOOL on Mon Sep 10 21:13:20 2018
### 

@<TRIPOS>MOLECULE
4qy8_ligand
  225   225     1     0     0
SMALL
GAST_HUCK


@<TRIPOS>ATOM
      1 C          32.3150    9.1270   41.1860 C.2       1 ACE         0.1752
      2 O          33.2970    9.7530   41.5930 O.2       1 ACE        -0.3972
      3 CH3        31.8830    9.2430   39.7610 C.3       1 ACE         0.0258
      4 N          31.5910    8.3610   42.0060 N.am      1 ASN        -0.2637
      5 CA         30.3750    7.5950   41.7270 C.3       1 ASN         0.1475
      6 C          29.1100    8.4440   41.9440 C.2       1 ASN         0.2062
      7 O          28.6890    8.6840   43.0710 O.2       1 ASN        -0.3942
      8 CB         30.3550    6.3620   42.6320 C.3       1 ASN         0.0773
      9 CG         29.1430    5.4860   42.4100 C.2       1 ASN         0.1780
     10 OD1        28.2870    5.7870   41.5670 O.2       1 ASN        -0.3970
     11 ND2        29.0720    4.3740   43.1530 N.am      1 ASN        -0.3007
     12 N          28.4990    8.8720   40.8490 N.am      1 ALA        -0.2639
     13 CA         27.3590    9.7880   40.8770 C.3       1 ALA         0.1282
     14 C          25.9920    9.0990   41.0040 C.2       1 ALA         0.2037
     15 O          24.9660    9.7690   41.0890 O.2       1 ALA        -0.3944
     16 CB         27.3790   10.6040   39.6080 C.3       1 ALA        -0.0244
     17 N          25.9690    7.7750   40.9910 N.am      1 TYR        -0.2621
     18 CA         24.7050    7.0480   41.0180 C.3       1 TYR         0.1390
     19 C          23.8840    7.3830   42.2470 C.2       1 TYR         0.2059
     20 O          22.6910    7.6300   42.1530 O.2       1 TYR        -0.3942
     21 CB         24.9670    5.5540   40.9960 C.3       1 TYR         0.0163
     22 CG         23.7250    4.6910   41.0480 C.ar      1 TYR        -0.0493
     23 CD1        23.2120    4.1290   39.8950 C.ar      1 TYR        -0.0685
     24 CD2        23.0680    4.4490   42.2410 C.ar      1 TYR        -0.0685
     25 CE1        22.0980    3.3370   39.9260 C.ar      1 TYR        -0.0398
     26 CE2        21.9400    3.6370   42.2870 C.ar      1 TYR        -0.0398
     27 CZ         21.4540    3.1090   41.1200 C.ar      1 TYR         0.0805
     28 OH         20.3450    2.2940   41.1510 O.3       1 TYR        -0.3376
     29 N          24.5240    7.3850   43.4060 N.am      1 ASN        -0.2615
     30 CA         23.8010    7.4690   44.6630 C.3       1 ASN         0.1476
     31 C          23.2860    8.8630   44.9760 C.2       1 ASN         0.2063
     32 O          22.1980    9.0010   45.5350 O.2       1 ASN        -0.3942
     33 CB         24.6870    6.9470   45.7860 C.3       1 ASN         0.0773
     34 CG         25.0780    5.5010   45.5690 C.2       1 ASN         0.1780
     35 OD1        24.2200    4.6380   45.3930 O.2       1 ASN        -0.3970
     36 ND2        26.3770    5.2290   45.5420 N.am      1 ASN        -0.3007
     37 N          24.0420    9.8890   44.5970 N.am      1 MET        -0.2636
     38 CA         23.7530   11.2320   45.0830 C.3       1 MET         0.1317
     39 C          23.5450   12.2840   44.0070 C.2       1 MET         0.2040
     40 O          23.2870   13.4360   44.3460 O.2       1 MET        -0.3944
     41 CB         24.8430   11.6840   46.0480 C.3       1 MET        -0.0034
     42 CG         24.7840   10.9380   47.3800 C.3       1 MET        -0.0024
     43 SD         25.6790   11.8150   48.6690 S.3       1 MET        -0.1639
     44 CE         27.3550   11.6490   48.0560 C.3       1 MET        -0.0181
     45 N          23.6190   11.9290   42.7250 N.am      1 SER        -0.2616
     46 CA         23.2680   12.9260   41.7120 C.3       1 SER         0.1539
     47 C          21.7540   13.1300   41.6220 C.2       1 SER         0.2062
     48 O          21.2950   14.0990   41.0110 O.2       1 SER        -0.3943
     49 CB         23.8940   12.6420   40.3430 C.3       1 SER         0.0843
     50 OG         23.3910   11.4660   39.7590 O.3       1 SER        -0.3903
     51 N          20.9920   12.2220   42.2270 N.am      1 ILE        -0.2634
     52 CA         19.5790   12.4710   42.5400 C.3       1 ILE         0.1335
     53 C          19.3550   12.1290   44.0110 C.2       1 ILE         0.2042
     54 O          20.1240   11.3710   44.5920 O.2       1 ILE        -0.3944
     55 CB         18.6000   11.6600   41.6540 C.3       1 ILE        -0.0037
     56 CG1        18.6960   10.1580   41.9400 C.3       1 ILE        -0.0491
     57 CG2        18.8590   11.9320   40.1890 C.3       1 ILE        -0.0582
     58 CD1        17.5680    9.3360   41.3190 C.3       1 ILE        -0.0648
     59 N          18.3100   12.6870   44.6190 N.am      1 ARG        -0.2637
     60 CA         17.9230   12.3050   45.9740 C.3       1 ARG         0.1311
     61 C          17.0920   11.0240   45.9160 C.2       1 ARG         0.2039
     62 O          16.0620   10.9860   45.2470 O.2       1 ARG        -0.3944
     63 CB         17.1240   13.4260   46.6430 C.3       1 ARG        -0.0092
     64 CG         16.6090   13.0870   48.0350 C.3       1 ARG        -0.0156
     65 CD         15.8600   14.2660   48.6490 C.3       1 ARG         0.0627
     66 NE         14.8230   13.8390   49.5830 N.pl3     1 ARG        -0.2723
     67 CZ         13.9810   14.6650   50.1940 C.cat     1 ARG         0.2882
     68 NH1        14.0470   15.9720   49.9760 N.pl3     1 ARG        -0.2849
     69 NH2        13.0680   14.1840   51.0270 N.pl3     1 ARG        -0.2849
     70 N          17.5580    9.9770   46.5960 N.am      1 ARG        -0.2637
     71 CA         16.9020    8.6710   46.5700 C.3       1 ARG         0.1311
     72 C          16.1880    8.3020   47.8680 C.2       1 ARG         0.2040
     73 O          15.7590    7.1620   48.0320 O.2       1 ARG        -0.3944
     74 CB         17.9320    7.5780   46.2650 C.3       1 ARG        -0.0092
     75 CG         18.5470    7.6920   44.8980 C.3       1 ARG        -0.0156
     76 CD         19.4950    6.5350   44.5970 C.3       1 ARG         0.0627
     77 NE         20.1360    6.7060   43.2940 N.pl3     1 ARG        -0.2723
     78 CZ         19.6680    6.2350   42.1400 C.cat     1 ARG         0.2882
     79 NH1        18.5460    5.5300   42.0920 N.pl3     1 ARG        -0.2849
     80 NH2        20.3320    6.4700   41.0210 N.pl3     1 ARG        -0.2849
     81 N          16.0600    9.2420   48.7940 N.am      1 SER        -0.2616
     82 CA         15.4300    8.9190   50.0730 C.3       1 SER         0.1539
     83 C          13.9710    8.4830   49.9130 C.2       1 SER         0.2062
     84 O          13.4820    7.6370   50.6640 O.2       1 SER        -0.3943
     85 CB         15.5490   10.0810   51.0590 C.3       1 SER         0.0843
     86 OG         14.9800   11.2570   50.5230 O.3       1 SER        -0.3903
     87 N          13.2810    9.0500   48.9290 N.am      1 MET        -0.2636
     88 CA         11.8890    8.6870   48.6710 C.3       1 MET         0.1317
     89 C          11.4880    9.0330   47.2380 C.2       1 MET         0.2039
     90 O          10.5510    9.7960   47.0060 O.2       1 MET        -0.3944
     91 CB         10.9600    9.3780   49.6760 C.3       1 MET        -0.0034
     92 CG         11.0060   10.9010   49.6330 C.3       1 MET        -0.0024
     93 SD         10.5440   11.6590   51.2020 S.3       1 MET        -0.1639
     94 CE         11.9920   11.2780   52.1840 C.3       1 MET        -0.0181
     95 N          12.1980    8.4510   46.2780 N.am      1 ALA        -0.2640
     96 CA         12.0280    8.8180   44.8750 C.3       1 ALA         0.1282
     97 C          10.8300    8.1480   44.2020 C.2       1 ALA         0.2036
     98 O          10.6130    8.3290   43.0030 O.2       1 ALA        -0.3944
     99 CB         13.3080    8.5350   44.0910 C.3       1 ALA        -0.0244
    100 N          10.0620    7.3750   44.9680 N.am      1 GLU        -0.2636
    101 CA          8.8390    6.7660   44.4410 C.3       1 GLU         0.1324
    102 C           7.6640    6.9100   45.3960 C.2       1 GLU         0.2035
    103 O           6.7690    6.0690   45.4200 O.2       1 GLU        -0.3944
    104 CB          9.0700    5.2930   44.0840 C.3       1 GLU        -0.0008
    105 CG         10.2250    5.1160   43.1140 C.3       1 GLU         0.0044
    106 CD         10.2680    3.7570   42.4280 C.2       1 GLU         0.0350
    107 OE1         9.3110    2.9700   42.5410 O.co2     1 GLU        -0.5690
    108 OE2        11.2820    3.4910   41.7590 O.co2     1 GLU        -0.5690
    109 N           7.6690    7.9860   46.1770 N.am      1 SER        -0.2672
    110 CA          6.5840    8.2560   47.1110 C.3       1 SER         0.1173
    111 C           5.4040    8.9050   46.3960 C.2       1 SER         0.0623
    112 O           4.9580    8.4230   45.3540 O.co2     1 SER        -0.5665
    113 CB          7.0680    9.1540   48.2500 C.3       1 SER         0.0789
    114 OG          7.5250   10.4000   47.7550 O.3       1 SER        -0.3910
    115 OXT         4.8770    9.9220   46.8480 O.co2     1 SER        -0.5665
    116 H1         30.9959    8.6143   39.5945 H         1 ACE         0.0467
    117 H2         32.6981    8.9087   39.1023 H         1 ACE         0.0467
    118 H3         31.6367   10.2913   39.5367 H         1 ACE         0.0467
    119 H4         31.9279    8.3022   42.9457 H         1 ASN         0.1884
    120 H5         30.3968    7.2672   40.6772 H         1 ASN         0.0826
    121 H6         30.3587    6.6962   43.6800 H         1 ASN         0.0551
    122 H7         31.2586    5.7669   42.4337 H         1 ASN         0.0551
    123 H8         28.2941    3.7538   43.0518 H         1 ASN         0.1814
    124 H9         29.7969    4.1638   43.8090 H         1 ASN         0.1814
    125 H10        28.8329    8.5538   39.9617 H         1 ALA         0.1883
    126 H11        27.4816   10.4588   41.7401 H         1 ALA         0.0797
    127 H12        26.5285   11.3016   39.6072 H         1 ALA         0.0277
    128 H13        27.3038    9.9332   38.7395 H         1 ALA         0.0277
    129 H14        28.3192   11.1722   39.5522 H         1 ALA         0.0277
    130 H15        26.8298    7.2669   40.9623 H         1 TYR         0.1885
    131 H16        24.1268    7.3237   40.1238 H         1 TYR         0.0821
    132 H17        25.5941    5.3037   41.8644 H         1 TYR         0.0453
    133 H18        25.5108    5.3155   40.0700 H         1 TYR         0.0453
    134 H19        23.7023    4.3197   38.9472 H         1 TYR         0.0530
    135 H20        23.4384    4.8996   43.1547 H         1 TYR         0.0530
    136 H21        21.7233    2.8900   39.0123 H         1 TYR         0.0525
    137 H22        21.4527    3.4251   43.2318 H         1 TYR         0.0525
    138 H23        20.1360    2.0118   40.2683 H         1 TYR         0.2458
    139 H24        25.5223    7.3277   43.4162 H         1 ASN         0.1885
    140 H25        22.9245    6.8088   44.5860 H         1 ASN         0.0826
    141 H26        24.1410    7.0290   46.7374 H         1 ASN         0.0551
    142 H27        25.5997    7.5592   45.8330 H         1 ASN         0.0551
    143 H28        26.6882    4.2891   45.4016 H         1 ASN         0.1814
    144 H29        27.0444    5.9640   45.6621 H         1 ASN         0.1814
    145 H30        24.8115    9.7385   43.9763 H         1 MET         0.1883
    146 H31        22.8111   11.1672   45.6475 H         1 MET         0.0800
    147 H32        24.7216   12.7603   46.2398 H         1 MET         0.0320
    148 H33        25.8237   11.5025   45.5841 H         1 MET         0.0320
    149 H34        25.2300    9.9408   47.2509 H         1 MET         0.0378
    150 H35        23.7321   10.8327   47.6841 H         1 MET         0.0378
    151 H36        28.0498   12.1460   48.7490 H         1 MET         0.0340
    152 H37        27.4303   12.1166   47.0632 H         1 MET         0.0340
    153 H38        27.6136   10.5826   47.9797 H         1 MET         0.0340
    154 H39        23.9061   11.0079   42.4622 H         1 SER         0.1884
    155 H40        23.6943   13.8804   42.0546 H         1 SER         0.0823
    156 H41        24.9821   12.5380   40.4664 H         1 SER         0.0606
    157 H42        23.6801   13.4885   39.6739 H         1 SER         0.0606
    158 H43        23.5768   10.7273   40.3267 H         1 SER         0.2097
    159 H44        21.3948   11.3414   42.4766 H         1 ILE         0.1883
    160 H45        19.3724   13.5401   42.3839 H         1 ILE         0.0803
    161 H46        17.5767   11.9876   41.8897 H         1 ILE         0.0345
    162 H47        18.6722   10.0108   43.0298 H         1 ILE         0.0267
    163 H48        19.6527    9.7900   41.5410 H         1 ILE         0.0267
    164 H49        18.7869   13.0130   39.9985 H         1 ILE         0.0235
    165 H50        18.1121   11.4018   39.5799 H         1 ILE         0.0235
    166 H51        19.8664   11.5792   39.9230 H         1 ILE         0.0235
    167 H52        17.7080    8.2739   41.5687 H         1 ILE         0.0230
    168 H53        17.5822    9.4606   40.2262 H         1 ILE         0.0230
    169 H54        16.6016    9.6815   41.7150 H         1 ILE         0.0230
    170 H55        17.7784   13.3833   44.1368 H         1 ARG         0.1883
    171 H56        18.8312   12.1169   46.5655 H         1 ARG         0.0800
    172 H57        16.2598   13.6609   46.0043 H         1 ARG         0.0313
    173 H58        17.7727   14.3108   46.7223 H         1 ARG         0.0313
    174 H59        17.4618   12.8287   48.6800 H         1 ARG         0.0301
    175 H60        15.9277   12.2262   47.9657 H         1 ARG         0.0301
    176 H61        15.3907   14.8463   47.8409 H         1 ARG         0.0689
    177 H62        16.5798   14.9011   49.1862 H         1 ARG         0.0689
    178 H63        14.7385   12.8318   49.7813 H         1 ARG         0.2642
    179 H64        13.3913   16.6074   50.4528 H         1 ARG         0.2615
    180 H65        14.7539   16.3513   49.3300 H         1 ARG         0.2615
    181 H66        13.0120   13.1702   51.2002 H         1 ARG         0.2615
    182 H67        12.4149   14.8242   51.5008 H         1 ARG         0.2615
    183 H68        18.3869   10.0889   47.1442 H         1 ARG         0.1883
    184 H69        16.1536    8.6895   45.7641 H         1 ARG         0.0800
    185 H70        17.4338    6.6003   46.3412 H         1 ARG         0.0313
    186 H71        18.7356    7.6394   47.0136 H         1 ARG         0.0313
    187 H72        19.1093    8.6356   44.8395 H         1 ARG         0.0301
    188 H73        17.7435    7.6968   44.1468 H         1 ARG         0.0301
    189 H74        18.9250    5.5942   44.5964 H         1 ARG         0.0689
    190 H75        20.2703    6.4936   45.3762 H         1 ARG         0.0689
    191 H76        21.0205    7.2331   43.2667 H         1 ARG         0.2642
    192 H77        18.1997    5.1739   41.1897 H         1 ARG         0.2615
    193 H78        18.0207    5.3384   42.9570 H         1 ARG         0.2615
    194 H79        21.2048    7.0163   41.0451 H         1 ARG         0.2615
    195 H80        19.9764    6.1067   40.1252 H         1 ARG         0.2615
    196 H81        16.3931   10.1684   48.6183 H         1 SER         0.1884
    197 H82        15.9796    8.0669   50.4995 H         1 SER         0.0823
    198 H83        16.6121   10.2619   51.2759 H         1 SER         0.0606
    199 H84        15.0243    9.8189   51.9896 H         1 SER         0.0606
    200 H85        15.0655   11.9639   51.1519 H         1 SER         0.2097
    201 H86        13.7228    9.7385   48.3538 H         1 MET         0.1883
    202 H87        11.7885    7.5994   48.8011 H         1 MET         0.0800
    203 H88        11.2456    9.0538   50.6876 H         1 MET         0.0320
    204 H89         9.9284    9.0591   49.4663 H         1 MET         0.0320
    205 H90        10.3115   11.2517   48.8554 H         1 MET         0.0378
    206 H91        12.0293   11.2146   49.3792 H         1 MET         0.0378
    207 H92        11.8643   11.6839   53.1984 H         1 MET         0.0340
    208 H93        12.8803   11.7291   51.7178 H         1 MET         0.0340
    209 H94        12.1209   10.1870   52.2392 H         1 MET         0.0340
    210 H95        12.8638    7.7458   46.5216 H         1 ALA         0.1883
    211 H96        11.8498    9.9030   44.8447 H         1 ALA         0.0797
    212 H97        13.1627    8.8168   43.0377 H         1 ALA         0.0277
    213 H98        13.5473    7.4632   44.1541 H         1 ALA         0.0277
    214 H99        14.1358    9.1212   44.5165 H         1 ALA         0.0277
    215 H100       10.3248    7.2078   45.9183 H         1 GLU         0.1883
    216 H101        8.5787    7.2986   43.5144 H         1 GLU         0.0801
    217 H102        8.1552    4.8917   43.6235 H         1 GLU         0.0330
    218 H103        9.2919    4.7350   45.0056 H         1 GLU         0.0330
    219 H104       11.1647    5.2507   43.6697 H         1 GLU         0.0433
    220 H105       10.1439    5.8909   42.3375 H         1 GLU         0.0433
    221 H106        8.4360    8.6253   46.1220 H         1 SER         0.1876
    222 H107        6.2487    7.2997   47.5389 H         1 SER         0.0749
    223 H108        7.8925    8.6525   48.7780 H         1 SER         0.0599
    224 H109        6.2367    9.3278   48.9491 H         1 SER         0.0599
    225 H110        6.8151   10.8388   47.3011 H         1 SER         0.2096
@<TRIPOS>BOND
     1    1    2 2  
     2    1    3 1  
     3    1    4 am 
     4    4    5 1  
     5    5    6 1  
     6    5    8 1  
     7    6    7 2  
     8    6   12 am 
     9    8    9 1  
    10    9   10 2  
    11    9   11 am 
    12   12   13 1  
    13   13   14 1  
    14   13   16 1  
    15   14   15 2  
    16   14   17 am 
    17   17   18 1  
    18   18   19 1  
    19   18   21 1  
    20   19   20 2  
    21   19   29 am 
    22   21   22 1  
    23   22   23 ar 
    24   22   24 ar 
    25   23   25 ar 
    26   24   26 ar 
    27   25   27 ar 
    28   26   27 ar 
    29   27   28 1  
    30   29   30 1  
    31   30   31 1  
    32   30   33 1  
    33   31   32 2  
    34   31   37 am 
    35   33   34 1  
    36   34   35 2  
    37   34   36 am 
    38   37   38 1  
    39   38   39 1  
    40   38   41 1  
    41   39   40 2  
    42   39   45 am 
    43   41   42 1  
    44   42   43 1  
    45   43   44 1  
    46   45   46 1  
    47   46   47 1  
    48   46   49 1  
    49   47   48 2  
    50   47   51 am 
    51   49   50 1  
    52   51   52 1  
    53   52   53 1  
    54   52   55 1  
    55   53   54 2  
    56   53   59 am 
    57   55   56 1  
    58   55   57 1  
    59   56   58 1  
    60   59   60 1  
    61   60   61 1  
    62   60   63 1  
    63   61   62 2  
    64   61   70 am 
    65   63   64 1  
    66   64   65 1  
    67   65   66 1  
    68   66   67 ar 
    69   67   68 ar 
    70   67   69 ar 
    71   70   71 1  
    72   71   72 1  
    73   71   74 1  
    74   72   73 2  
    75   72   81 am 
    76   74   75 1  
    77   75   76 1  
    78   76   77 1  
    79   77   78 ar 
    80   78   79 ar 
    81   78   80 ar 
    82   81   82 1  
    83   82   83 1  
    84   82   85 1  
    85   83   84 2  
    86   83   87 am 
    87   85   86 1  
    88   87   88 1  
    89   88   89 1  
    90   88   91 1  
    91   89   90 2  
    92   89   95 am 
    93   91   92 1  
    94   92   93 1  
    95   93   94 1  
    96   95   96 1  
    97   96   97 1  
    98   96   99 1  
    99   97   98 2  
   100   97  100 am 
   101  100  101 1  
   102  101  102 1  
   103  101  104 1  
   104  102  103 2  
   105  102  109 am 
   106  104  105 1  
   107  105  106 1  
   108  106  107 ar 
   109  106  108 ar 
   110  109  110 1  
   111  110  111 1  
   112  110  113 1  
   113  111  112 ar 
   114  111  115 ar 
   115  113  114 1  
   116    3  116 1  
   117    3  117 1  
   118    3  118 1  
   119    4  119 1  
   120    5  120 1  
   121    8  121 1  
   122    8  122 1  
   123   11  123 1  
   124   11  124 1  
   125   12  125 1  
   126   13  126 1  
   127   16  127 1  
   128   16  128 1  
   129   16  129 1  
   130   17  130 1  
   131   18  131 1  
   132   21  132 1  
   133   21  133 1  
   134   23  134 1  
   135   24  135 1  
   136   25  136 1  
   137   26  137 1  
   138   28  138 1  
   139   29  139 1  
   140   30  140 1  
   141   33  141 1  
   142   33  142 1  
   143   36  143 1  
   144   36  144 1  
   145   37  145 1  
   146   38  146 1  
   147   41  147 1  
   148   41  148 1  
   149   42  149 1  
   150   42  150 1  
   151   44  151 1  
   152   44  152 1  
   153   44  153 1  
   154   45  154 1  
   155   46  155 1  
   156   49  156 1  
   157   49  157 1  
   158   50  158 1  
   159   51  159 1  
   160   52  160 1  
   161   55  161 1  
   162   56  162 1  
   163   56  163 1  
   164   57  164 1  
   165   57  165 1  
   166   57  166 1  
   167   58  167 1  
   168   58  168 1  
   169   58  169 1  
   170   59  170 1  
   171   60  171 1  
   172   63  172 1  
   173   63  173 1  
   174   64  174 1  
   175   64  175 1  
   176   65  176 1  
   177   65  177 1  
   178   66  178 1  
   179   68  179 1  
   180   68  180 1  
   181   69  181 1  
   182   69  182 1  
   183   70  183 1  
   184   71  184 1  
   185   74  185 1  
   186   74  186 1  
   187   75  187 1  
   188   75  188 1  
   189   76  189 1  
   190   76  190 1  
   191   77  191 1  
   192   79  192 1  
   193   79  193 1  
   194   80  194 1  
   195   80  195 1  
   196   81  196 1  
   197   82  197 1  
   198   85  198 1  
   199   85  199 1  
   200   86  200 1  
   201   87  201 1  
   202   88  202 1  
   203   91  203 1  
   204   91  204 1  
   205   92  205 1  
   206   92  206 1  
   207   94  207 1  
   208   94  208 1  
   209   94  209 1  
   210   95  210 1  
   211   96  211 1  
   212   99  212 1  
   213   99  213 1  
   214   99  214 1  
   215  100  215 1  
   216  101  216 1  
   217  104  217 1  
   218  104  218 1  
   219  105  219 1  
   220  105  220 1  
   221  109  221 1  
   222  110  222 1  
   223  113  223 1  
   224  113  224 1  
   225  114  225 1  
@<TRIPOS>SUBSTRUCTURE
     1 ACE         1

