4qy8_ligand
  -I-interpret- 

225225  0  0  0  0  0  0  0  0999 V2000
   32.3150    9.1270   41.1860 C   0  0  0  0  0
   33.2970    9.7530   41.5930 O   0  0  0  0  0
   31.8830    9.2430   39.7610 C   0  0  0  0  0
   31.5910    8.3610   42.0060 N   0  0  0  0  0
   30.3750    7.5950   41.7270 C   0  0  0  0  0
   29.1100    8.4440   41.9440 C   0  0  0  0  0
   28.6890    8.6840   43.0710 O   0  0  0  0  0
   30.3550    6.3620   42.6320 C   0  0  0  0  0
   29.1430    5.4860   42.4100 C   0  0  0  0  0
   28.2870    5.7870   41.5670 O   0  0  0  0  0
   29.0720    4.3740   43.1530 N   0  0  0  0  0
   28.4990    8.8720   40.8490 N   0  0  0  0  0
   27.3590    9.7880   40.8770 C   0  0  0  0  0
   25.9920    9.0990   41.0040 C   0  0  0  0  0
   24.9660    9.7690   41.0890 O   0  0  0  0  0
   27.3790   10.6040   39.6080 C   0  0  0  0  0
   25.9690    7.7750   40.9910 N   0  0  0  0  0
   24.7050    7.0480   41.0180 C   0  0  0  0  0
   23.8840    7.3830   42.2470 C   0  0  0  0  0
   22.6910    7.6300   42.1530 O   0  0  0  0  0
   24.9670    5.5540   40.9960 C   0  0  0  0  0
   23.7250    4.6910   41.0480 C   0  0  0  0  0
   23.2120    4.1290   39.8950 C   0  0  0  0  0
   23.0680    4.4490   42.2410 C   0  0  0  0  0
   22.0980    3.3370   39.9260 C   0  0  0  0  0
   21.9400    3.6370   42.2870 C   0  0  0  0  0
   21.4540    3.1090   41.1200 C   0  0  0  0  0
   20.3450    2.2940   41.1510 O   0  0  0  0  0
   24.5240    7.3850   43.4060 N   0  0  0  0  0
   23.8010    7.4690   44.6630 C   0  0  0  0  0
   23.2860    8.8630   44.9760 C   0  0  0  0  0
   22.1980    9.0010   45.5350 O   0  0  0  0  0
   24.6870    6.9470   45.7860 C   0  0  0  0  0
   25.0780    5.5010   45.5690 C   0  0  0  0  0
   24.2200    4.6380   45.3930 O   0  0  0  0  0
   26.3770    5.2290   45.5420 N   0  0  0  0  0
   24.0420    9.8890   44.5970 N   0  0  0  0  0
   23.7530   11.2320   45.0830 C   0  0  0  0  0
   23.5450   12.2840   44.0070 C   0  0  0  0  0
   23.2870   13.4360   44.3460 O   0  0  0  0  0
   24.8430   11.6840   46.0480 C   0  0  0  0  0
   24.7840   10.9380   47.3800 C   0  0  0  0  0
   25.6790   11.8150   48.6690 S   0  0  0  0  0
   27.3550   11.6490   48.0560 C   0  0  0  0  0
   23.6190   11.9290   42.7250 N   0  0  0  0  0
   23.2680   12.9260   41.7120 C   0  0  0  0  0
   21.7540   13.1300   41.6220 C   0  0  0  0  0
   21.2950   14.0990   41.0110 O   0  0  0  0  0
   23.8940   12.6420   40.3430 C   0  0  0  0  0
   23.3910   11.4660   39.7590 O   0  0  0  0  0
   20.9920   12.2220   42.2270 N   0  0  0  0  0
   19.5790   12.4710   42.5400 C   0  0  0  0  0
   19.3550   12.1290   44.0110 C   0  0  0  0  0
   20.1240   11.3710   44.5920 O   0  0  0  0  0
   18.6000   11.6600   41.6540 C   0  0  0  0  0
   18.6960   10.1580   41.9400 C   0  0  0  0  0
   18.8590   11.9320   40.1890 C   0  0  0  0  0
   17.5680    9.3360   41.3190 C   0  0  0  0  0
   18.3100   12.6870   44.6190 N   0  0  0  0  0
   17.9230   12.3050   45.9740 C   0  0  0  0  0
   17.0920   11.0240   45.9160 C   0  0  0  0  0
   16.0620   10.9860   45.2470 O   0  0  0  0  0
   17.1240   13.4260   46.6430 C   0  0  0  0  0
   16.6090   13.0870   48.0350 C   0  0  0  0  0
   15.8600   14.2660   48.6490 C   0  0  0  0  0
   14.8230   13.8390   49.5830 N   0  0  0  0  0
   13.9810   14.6650   50.1940 C   0  0  0  0  0
   14.0470   15.9720   49.9760 N   0  0  0  0  0
   13.0680   14.1840   51.0270 N   0  0  0  0  0
   17.5580    9.9770   46.5960 N   0  0  0  0  0
   16.9020    8.6710   46.5700 C   0  0  0  0  0
   16.1880    8.3020   47.8680 C   0  0  0  0  0
   15.7590    7.1620   48.0320 O   0  0  0  0  0
   17.9320    7.5780   46.2650 C   0  0  0  0  0
   18.5470    7.6920   44.8980 C   0  0  0  0  0
   19.4950    6.5350   44.5970 C   0  0  0  0  0
   20.1360    6.7060   43.2940 N   0  0  0  0  0
   19.6680    6.2350   42.1400 C   0  0  0  0  0
   18.5460    5.5300   42.0920 N   0  0  0  0  0
   20.3320    6.4700   41.0210 N   0  0  0  0  0
   16.0600    9.2420   48.7940 N   0  0  0  0  0
   15.4300    8.9190   50.0730 C   0  0  0  0  0
   13.9710    8.4830   49.9130 C   0  0  0  0  0
   13.4820    7.6370   50.6640 O   0  0  0  0  0
   15.5490   10.0810   51.0590 C   0  0  0  0  0
   14.9800   11.2570   50.5230 O   0  0  0  0  0
   13.2810    9.0500   48.9290 N   0  0  0  0  0
   11.8890    8.6870   48.6710 C   0  0  0  0  0
   11.4880    9.0330   47.2380 C   0  0  0  0  0
   10.5510    9.7960   47.0060 O   0  0  0  0  0
   10.9600    9.3780   49.6760 C   0  0  0  0  0
   11.0060   10.9010   49.6330 C   0  0  0  0  0
   10.5440   11.6590   51.2020 S   0  0  0  0  0
   11.9920   11.2780   52.1840 C   0  0  0  0  0
   12.1980    8.4510   46.2780 N   0  0  0  0  0
   12.0280    8.8180   44.8750 C   0  0  0  0  0
   10.8300    8.1480   44.2020 C   0  0  0  0  0
   10.6130    8.3290   43.0030 O   0  0  0  0  0
   13.3080    8.5350   44.0910 C   0  0  0  0  0
   10.0620    7.3750   44.9680 N   0  0  0  0  0
    8.8390    6.7660   44.4410 C   0  0  0  0  0
    7.6640    6.9100   45.3960 C   0  0  0  0  0
    6.7690    6.0690   45.4200 O   0  0  0  0  0
    9.0700    5.2930   44.0840 C   0  0  0  0  0
   10.2250    5.1160   43.1140 C   0  0  0  0  0
   10.2680    3.7570   42.4280 C   0  0  0  0  0
    9.3110    2.9700   42.5410 O   0  0  0  0  0
   11.2820    3.4910   41.7590 O   0  0  0  0  0
    7.6690    7.9860   46.1770 N   0  0  0  0  0
    6.5840    8.2560   47.1110 C   0  0  0  0  0
    5.4040    8.9050   46.3960 C   0  0  0  0  0
    4.9580    8.4230   45.3540 O   0  0  0  0  0
    7.0680    9.1540   48.2500 C   0  0  0  0  0
    7.5250   10.4000   47.7550 O   0  0  0  0  0
    4.8770    9.9220   46.8480 O   0  0  0  0  0
   31.6393   10.2822   39.5400 H   0  0  0  0  0
   32.6915    8.9116   39.1094 H   0  0  0  0  0
   31.0040    8.6196   39.5973 H   0  0  0  0  0
   31.9346    8.3010   42.9645 H   0  0  0  0  0
   30.3801    7.2903   40.6805 H   0  0  0  0  0
   30.3294    6.7087   43.6651 H   0  0  0  0  0
   31.2402    5.7682   42.4039 H   0  0  0  0  0
   28.2878    3.7322   43.0368 H   0  0  0  0  0
   29.8021    4.1689   43.8351 H   0  0  0  0  0
   28.8396    8.5475   39.9440 H   0  0  0  0  0
   27.4708   10.4018   41.7708 H   0  0  0  0  0
   28.3111   11.1664   39.5539 H   0  0  0  0  0
   27.3044    9.9382   38.7482 H   0  0  0  0  0
   26.5358   11.2948   39.6084 H   0  0  0  0  0
   26.8470    7.2567   40.9617 H   0  0  0  0  0
   24.1404    7.3490   40.1355 H   0  0  0  0  0
   25.5510    5.3220   41.8866 H   0  0  0  0  0
   25.4658    5.3341   40.0521 H   0  0  0  0  0
   23.7050    4.3207   38.9420 H   0  0  0  0  0
   23.4404    4.9020   43.1598 H   0  0  0  0  0
   21.7212    2.8875   39.0073 H   0  0  0  0  0
   21.4500    3.4239   43.2370 H   0  0  0  0  0
   20.0157    2.2378   42.0510 H   0  0  0  0  0
   25.5423    7.3265   43.4164 H   0  0  0  0  0
   22.9107    6.8471   44.5690 H   0  0  0  0  0
   24.1302    7.0144   46.7206 H   0  0  0  0  0
   25.5965    7.5473   45.8115 H   0  0  0  0  0
   26.6949    4.2751   45.3704 H   0  0  0  0  0
   27.0573    5.9739   45.6928 H   0  0  0  0  0
   24.8269    9.7355   43.9639 H   0  0  0  0  0
   22.7913   11.1485   45.5893 H   0  0  0  0  0
   24.6983   12.7456   46.2483 H   0  0  0  0  0
   25.8092   11.4778   45.5874 H   0  0  0  0  0
   25.2432    9.9585   47.2470 H   0  0  0  0  0
   23.7400   10.8536   47.6817 H   0  0  0  0  0
   27.6100   10.5919   47.9808 H   0  0  0  0  0
   27.4283   12.1126   47.0723 H   0  0  0  0  0
   28.0424   12.1418   48.7435 H   0  0  0  0  0
   23.9118   10.9894   42.4569 H   0  0  0  0  0
   23.7055   13.8667   42.0463 H   0  0  0  0  0
   24.9680   12.5177   40.4818 H   0  0  0  0  0
   23.6554   13.4759   39.6828 H   0  0  0  0  0
   23.8101   11.3290   38.9062 H   0  0  0  0  0
   21.4028   11.3238   42.4816 H   0  0  0  0  0
   19.3687   13.5208   42.3356 H   0  0  0  0  0
   17.5886   11.9838   41.8996 H   0  0  0  0  0
   18.6338   10.0292   43.0206 H   0  0  0  0  0
   19.6313    9.8046   41.5060 H   0  0  0  0  0
   18.7210   12.9944   39.9881 H   0  0  0  0  0
   19.8810   11.6440   39.9424 H   0  0  0  0  0
   18.1611   11.3529   39.5843 H   0  0  0  0  0
   16.6111    9.6793   41.7121 H   0  0  0  0  0
   17.5831    9.4604   40.2362 H   0  0  0  0  0
   17.7078    8.2839   41.5671 H   0  0  0  0  0
   17.7677   13.3972   44.1271 H   0  0  0  0  0
   18.8208   12.1304   46.5670 H   0  0  0  0  0
   16.2522   13.6151   46.0167 H   0  0  0  0  0
   17.7955   14.2780   46.7491 H   0  0  0  0  0
   17.4603   12.8462   48.6717 H   0  0  0  0  0
   15.9240   12.2428   47.9563 H   0  0  0  0  0
   15.3803   14.8189   47.8414 H   0  0  0  0  0
   16.5791   14.8742   49.1977 H   0  0  0  0  0
   14.7394   12.8416   49.7793 H   0  0  0  0  0
   13.3976   16.6012   50.4480 H   0  0  0  0  0
   14.7471   16.3476   49.3364 H   0  0  0  0  0
   13.0125   13.1800   51.1984 H   0  0  0  0  0
   18.4034   10.0911   47.1551 H   0  0  0  0  0
   16.1421    8.7425   45.7918 H   0  0  0  0  0
   17.4140    6.6200   46.3106 H   0  0  0  0  0
   18.7367    7.6759   46.9937 H   0  0  0  0  0
   19.1188    8.6192   44.8586 H   0  0  0  0  0
   17.7439    7.6741   44.1612 H   0  0  0  0  0
   18.9217    5.6080   44.5850 H   0  0  0  0  0
   20.2677    6.5079   45.3653 H   0  0  0  0  0
   21.0119    7.2280   43.2670 H   0  0  0  0  0
   18.2041    5.1757   41.1987 H   0  0  0  0  0
   18.0248    5.3420   42.9484 H   0  0  0  0  0
   21.1974    7.0093   41.0452 H   0  0  0  0  0
   16.3998   10.1869   48.6148 H   0  0  0  0  0
   15.9732    8.0671   50.4820 H   0  0  0  0  0
   16.6046   10.2628   51.2607 H   0  0  0  0  0
   15.0174    9.8200   51.9741 H   0  0  0  0  0
   15.0664   11.9713   51.1585 H   0  0  0  0  0
   13.7316    9.7522   48.3423 H   0  0  0  0  0
   11.7911    7.6084   48.7945 H   0  0  0  0  0
   11.2853    9.0764   50.6717 H   0  0  0  0  0
    9.9413    9.0818   49.4256 H   0  0  0  0  0
   10.2938   11.2351   48.8785 H   0  0  0  0  0
   12.0305   11.1976   49.4080 H   0  0  0  0  0
   12.1187   10.1967   52.2379 H   0  0  0  0  0
   12.8715   11.7255   51.7210 H   0  0  0  0  0
   11.8642   11.6807   53.1888 H   0  0  0  0  0
   12.8771    7.7317   46.5265 H   0  0  0  0  0
   11.8192    9.8878   44.8660 H   0  0  0  0  0
   14.1274    9.1164   44.5136 H   0  0  0  0  0
   13.5440    7.4727   44.1544 H   0  0  0  0  0
   13.1628    8.8146   43.0475 H   0  0  0  0  0
   10.3301    7.2045   45.9373 H   0  0  0  0  0
    8.5819    7.3086   43.5312 H   0  0  0  0  0
    8.1656    4.9118   43.6098 H   0  0  0  0  0
    9.3096    4.7541   45.0006 H   0  0  0  0  0
   11.1448    5.2123   43.6909 H   0  0  0  0  0
   10.1035    5.8654   42.3318 H   0  0  0  0  0
    8.6357    3.3667   43.0962 H   0  0  0  0  0
    8.4513    8.6381   46.1209 H   0  0  0  0  0
    6.2540    7.3056   47.5303 H   0  0  0  0  0
    5.4627    7.6396   45.1234 H   0  0  0  0  0
    7.8927    8.6570   48.7608 H   0  0  0  0  0
    6.2367    9.3324   48.9320 H   0  0  0  0  0
    7.8227   10.9443   48.4876 H   0  0  0  0  0
  1  2  2  0  0  0
  1  3  1  0  0  0
  1  4  1  0  0  0
  4  5  1  0  0  0
  5  6  1  0  0  0
  5  8  1  0  0  0
  6  7  2  0  0  0
  6 12  1  0  0  0
  8  9  1  0  0  0
  9 10  2  0  0  0
  9 11  1  0  0  0
 12 13  1  0  0  0
 13 14  1  0  0  0
 13 16  1  0  0  0
 14 15  2  0  0  0
 14 17  1  0  0  0
 17 18  1  0  0  0
 18 19  1  0  0  0
 18 21  1  0  0  0
 19 20  2  0  0  0
 19 29  1  0  0  0
 21 22  1  0  0  0
 22 23  4  0  0  0
 22 24  4  0  0  0
 23 25  4  0  0  0
 24 26  4  0  0  0
 25 27  4  0  0  0
 26 27  4  0  0  0
 27 28  1  0  0  0
 29 30  1  0  0  0
 30 31  1  0  0  0
 30 33  1  0  0  0
 31 32  2  0  0  0
 31 37  1  0  0  0
 33 34  1  0  0  0
 34 35  2  0  0  0
 34 36  1  0  0  0
 37 38  1  0  0  0
 38 39  1  0  0  0
 38 41  1  0  0  0
 39 40  2  0  0  0
 39 45  1  0  0  0
 41 42  1  0  0  0
 42 43  1  0  0  0
 43 44  1  0  0  0
 45 46  1  0  0  0
 46 47  1  0  0  0
 46 49  1  0  0  0
 47 48  2  0  0  0
 47 51  1  0  0  0
 49 50  1  0  0  0
 51 52  1  0  0  0
 52 53  1  0  0  0
 52 55  1  0  0  0
 53 54  2  0  0  0
 53 59  1  0  0  0
 55 56  1  0  0  0
 55 57  1  0  0  0
 56 58  1  0  0  0
 59 60  1  0  0  0
 60 61  1  0  0  0
 60 63  1  0  0  0
 61 62  2  0  0  0
 61 70  1  0  0  0
 63 64  1  0  0  0
 64 65  1  0  0  0
 65 66  1  0  0  0
 66 67  1  0  0  0
 67 68  1  0  0  0
 67 69  2  0  0  0
 70 71  1  0  0  0
 71 72  1  0  0  0
 71 74  1  0  0  0
 72 73  2  0  0  0
 72 81  1  0  0  0
 74 75  1  0  0  0
 75 76  1  0  0  0
 76 77  1  0  0  0
 77 78  1  0  0  0
 78 79  1  0  0  0
 78 80  2  0  0  0
 81 82  1  0  0  0
 82 83  1  0  0  0
 82 85  1  0  0  0
 83 84  2  0  0  0
 83 87  1  0  0  0
 85 86  1  0  0  0
 87 88  1  0  0  0
 88 89  1  0  0  0
 88 91  1  0  0  0
 89 90  2  0  0  0
 89 95  1  0  0  0
 91 92  1  0  0  0
 92 93  1  0  0  0
 93 94  1  0  0  0
 95 96  1  0  0  0
 96 97  1  0  0  0
 96 99  1  0  0  0
 97 98  2  0  0  0
 97100  1  0  0  0
100101  1  0  0  0
101102  1  0  0  0
101104  1  0  0  0
102103  2  0  0  0
102109  1  0  0  0
104105  1  0  0  0
105106  1  0  0  0
106107  1  0  0  0
106108  2  0  0  0
109110  1  0  0  0
110111  1  0  0  0
110113  1  0  0  0
111112  1  0  0  0
111115  2  0  0  0
113114  1  0  0  0
  3116  1  0  0  0
  3117  1  0  0  0
  3118  1  0  0  0
  4119  1  0  0  0
  5120  1  0  0  0
  8121  1  0  0  0
  8122  1  0  0  0
 11123  1  0  0  0
 11124  1  0  0  0
 12125  1  0  0  0
 13126  1  0  0  0
 16127  1  0  0  0
 16128  1  0  0  0
 16129  1  0  0  0
 17130  1  0  0  0
 18131  1  0  0  0
 21132  1  0  0  0
 21133  1  0  0  0
 23134  1  0  0  0
 24135  1  0  0  0
 25136  1  0  0  0
 26137  1  0  0  0
 28138  1  0  0  0
 29139  1  0  0  0
 30140  1  0  0  0
 33141  1  0  0  0
 33142  1  0  0  0
 36143  1  0  0  0
 36144  1  0  0  0
 37145  1  0  0  0
 38146  1  0  0  0
 41147  1  0  0  0
 41148  1  0  0  0
 42149  1  0  0  0
 42150  1  0  0  0
 44151  1  0  0  0
 44152  1  0  0  0
 44153  1  0  0  0
 45154  1  0  0  0
 46155  1  0  0  0
 49156  1  0  0  0
 49157  1  0  0  0
 50158  1  0  0  0
 51159  1  0  0  0
 52160  1  0  0  0
 55161  1  0  0  0
 56162  1  0  0  0
 56163  1  0  0  0
 57164  1  0  0  0
 57165  1  0  0  0
 57166  1  0  0  0
 58167  1  0  0  0
 58168  1  0  0  0
 58169  1  0  0  0
 59170  1  0  0  0
 60171  1  0  0  0
 63172  1  0  0  0
 63173  1  0  0  0
 64174  1  0  0  0
 64175  1  0  0  0
 65176  1  0  0  0
 65177  1  0  0  0
 66178  1  0  0  0
 68179  1  0  0  0
 68180  1  0  0  0
 69181  1  0  0  0
 70182  1  0  0  0
 71183  1  0  0  0
 74184  1  0  0  0
 74185  1  0  0  0
 75186  1  0  0  0
 75187  1  0  0  0
 76188  1  0  0  0
 76189  1  0  0  0
 77190  1  0  0  0
 79191  1  0  0  0
 79192  1  0  0  0
 80193  1  0  0  0
 81194  1  0  0  0
 82195  1  0  0  0
 85196  1  0  0  0
 85197  1  0  0  0
 86198  1  0  0  0
 87199  1  0  0  0
 88200  1  0  0  0
 91201  1  0  0  0
 91202  1  0  0  0
 92203  1  0  0  0
 92204  1  0  0  0
 94205  1  0  0  0
 94206  1  0  0  0
 94207  1  0  0  0
 95208  1  0  0  0
 96209  1  0  0  0
 99210  1  0  0  0
 99211  1  0  0  0
 99212  1  0  0  0
100213  1  0  0  0
101214  1  0  0  0
104215  1  0  0  0
104216  1  0  0  0
105217  1  0  0  0
105218  1  0  0  0
107219  1  0  0  0
109220  1  0  0  0
110221  1  0  0  0
112222  1  0  0  0
113223  1  0  0  0
113224  1  0  0  0
114225  1  0  0  0
M  END
$$$$
