3eys_ligand
  -I-interpret- 

 88 90  0  0  0  0  0  0  0  0999 V2000
   21.0060   -7.3640  -20.9180 N   0  0  0  0  0
   21.7430   -8.5790  -20.5410 C   0  0  0  0  0
   23.2410   -8.2520  -20.5140 C   0  0  0  0  0
   23.3860   -7.2510  -21.6500 C   0  0  0  0  0
   21.9530   -6.8340  -21.9040 C   0  0  0  0  0
   21.6370   -6.1200  -22.8550 O   0  0  0  0  0
   21.2220   -9.3440  -19.3110 C   0  0  0  0  0
   22.0080   -9.9700  -18.5840 O   0  0  0  0  0
   19.9070   -9.2850  -19.0890 N   0  0  0  0  0
   19.2200  -10.3360  -18.3390 C   0  0  0  0  0
   19.0790  -11.5020  -19.3160 C   0  0  0  0  0
   19.0260  -11.2880  -20.5390 O   0  0  0  0  0
   17.8440   -9.8850  -17.8550 C   0  0  0  0  0
   17.1720  -10.8610  -16.9100 C   0  0  0  0  0
   17.6430  -11.0340  -15.6050 C   0  0  0  0  0
   16.0580  -11.5960  -17.3220 C   0  0  0  0  0
   17.0190  -11.9190  -14.7270 C   0  0  0  0  0
   15.4230  -12.4850  -16.4530 C   0  0  0  0  0
   15.9050  -12.6480  -15.1520 C   0  0  0  0  0
   19.0200  -12.7210  -18.7860 N   0  0  0  0  0
   19.0970  -13.9210  -19.6180 C   0  0  0  0  0
   17.8410  -14.1620  -20.4540 C   0  0  0  0  0
   16.7280  -14.2610  -19.9190 O   0  0  0  0  0
   19.4040  -15.1390  -18.7600 C   0  0  0  0  0
   19.9290  -16.3170  -19.5380 C   0  0  0  0  0
   20.6660  -17.2330  -18.6060 C   0  0  0  0  0
   21.0050  -18.4930  -19.2460 N   0  0  0  0  0
   21.3220  -19.6020  -18.5880 C   0  0  0  0  0
   21.3370  -19.6100  -17.2580 N   0  0  0  0  0
   21.6170  -20.7060  -19.2640 N   0  0  0  0  0
   18.0460  -14.2490  -21.7680 N   0  0  0  0  0
   16.9950  -14.5260  -22.7440 C   0  0  0  0  0
   17.6560  -15.1000  -23.9900 C   0  0  0  0  0
   18.5370  -14.4600  -24.5680 O   0  0  0  0  0
   16.2680  -13.2390  -23.1520 C   0  0  0  0  0
   15.6070  -12.5150  -22.0210 C   0  0  0  0  0
   14.4470  -12.9630  -21.4240 N   0  0  0  0  0
   15.9320  -11.3620  -21.3910 C   0  0  0  0  0
   14.0910  -12.1240  -20.4660 C   0  0  0  0  0
   14.9750  -11.1430  -20.4280 N   0  0  0  0  0
   17.2450  -16.3000  -24.3990 N   0  0  0  0  0
   17.7060  -16.8700  -25.6650 C   0  0  0  0  0
   16.9940  -16.1980  -26.8450 C   0  0  0  0  0
   15.7633  -16.3731  -27.0505 O   0  0  0  0  0
   17.4890  -18.3930  -25.7040 C   0  0  0  0  0
   18.2630  -19.1410  -24.6140 C   0  0  0  0  0
   19.1110  -18.5290  -23.9200 O   0  0  0  0  0
   18.0120  -20.3570  -24.4500 O   0  0  0  0  0
   17.6516  -15.4571  -27.6235 O   0  0  0  0  0
   20.1100   -7.0008  -20.5930 H   0  0  0  0  0
   21.5543   -9.3259  -21.3121 H   0  0  0  0  0
   23.8705   -9.1327  -20.6408 H   0  0  0  0  0
   23.5723   -7.8562  -19.5540 H   0  0  0  0  0
   23.8709   -7.6719  -22.5308 H   0  0  0  0  0
   24.0368   -6.4130  -21.4004 H   0  0  0  0  0
   19.3726   -8.4940  -19.4483 H   0  0  0  0  0
   19.7812  -10.6047  -17.4440 H   0  0  0  0  0
   17.2058   -9.7948  -18.7340 H   0  0  0  0  0
   17.9831   -8.9513  -17.3101 H   0  0  0  0  0
   18.5118  -10.4680  -15.2688 H   0  0  0  0  0
   15.6790  -11.4737  -18.3367 H   0  0  0  0  0
   17.3986  -12.0419  -13.7127 H   0  0  0  0  0
   14.5536  -13.0503  -16.7886 H   0  0  0  0  0
   15.4135  -13.3420  -14.4701 H   0  0  0  0  0
   18.9187  -12.8207  -17.7760 H   0  0  0  0  0
   19.9094  -13.7546  -20.3254 H   0  0  0  0  0
   18.4698  -15.4498  -18.2923 H   0  0  0  0  0
   20.1782  -14.8485  -18.0499 H   0  0  0  0  0
   20.6045  -15.9684  -20.3192 H   0  0  0  0  0
   19.0980  -16.8526  -19.9970 H   0  0  0  0  0
   20.0223  -17.4441  -17.7521 H   0  0  0  0  0
   21.5909  -16.7424  -18.3028 H   0  0  0  0  0
   20.9991  -18.5277  -20.2654 H   0  0  0  0  0
   21.5754  -20.4652  -16.7558 H   0  0  0  0  0
   21.1101  -18.7609  -16.7403 H   0  0  0  0  0
   21.5995  -20.6996  -20.2838 H   0  0  0  0  0
   18.9960  -14.1137  -22.1137 H   0  0  0  0  0
   16.2757  -15.2163  -22.3034 H   0  0  0  0  0
   15.4820  -13.5243  -23.8512 H   0  0  0  0  0
   17.0186  -12.5661  -23.5665 H   0  0  0  0  0
   16.7909  -10.7264  -21.6065 H   0  0  0  0  0
   13.2191  -12.2244  -19.8196 H   0  0  0  0  0
   16.5964  -16.8313  -23.8181 H   0  0  0  0  0
   18.7765  -16.6819  -25.7469 H   0  0  0  0  0
   15.4076  -16.9577  -26.3772 H   0  0  0  0  0
   17.8462  -18.7529  -26.6689 H   0  0  0  0  0
   16.4273  -18.5796  -25.5424 H   0  0  0  0  0
   19.1526  -17.6124  -24.2024 H   0  0  0  0  0
  1  2  1  0  0  0
  1  5  1  0  0  0
  2  3  1  0  0  0
  2  7  1  0  0  0
  3  4  1  0  0  0
  4  5  1  0  0  0
  5  6  2  0  0  0
  7  8  2  0  0  0
  7  9  1  0  0  0
  9 10  1  0  0  0
 10 11  1  0  0  0
 10 13  1  0  0  0
 11 12  2  0  0  0
 11 20  1  0  0  0
 13 14  1  0  0  0
 14 15  4  0  0  0
 14 16  4  0  0  0
 15 17  4  0  0  0
 16 18  4  0  0  0
 17 19  4  0  0  0
 18 19  4  0  0  0
 20 21  1  0  0  0
 21 22  1  0  0  0
 21 24  1  0  0  0
 22 23  2  0  0  0
 22 31  1  0  0  0
 24 25  1  0  0  0
 25 26  1  0  0  0
 26 27  1  0  0  0
 27 28  1  0  0  0
 28 29  1  0  0  0
 28 30  2  0  0  0
 31 32  1  0  0  0
 32 33  1  0  0  0
 32 35  1  0  0  0
 33 34  2  0  0  0
 33 41  1  0  0  0
 35 36  1  0  0  0
 36 37  4  0  0  0
 36 38  4  0  0  0
 37 39  4  0  0  0
 38 40  4  0  0  0
 39 40  4  0  0  0
 41 42  1  0  0  0
 42 43  1  0  0  0
 42 45  1  0  0  0
 43 44  1  0  0  0
 45 46  1  0  0  0
 46 47  1  0  0  0
 46 48  2  0  0  0
 43 49  2  0  0  0
  1 50  1  0  0  0
  2 51  1  0  0  0
  3 52  1  0  0  0
  3 53  1  0  0  0
  4 54  1  0  0  0
  4 55  1  0  0  0
  9 56  1  0  0  0
 10 57  1  0  0  0
 13 58  1  0  0  0
 13 59  1  0  0  0
 15 60  1  0  0  0
 16 61  1  0  0  0
 17 62  1  0  0  0
 18 63  1  0  0  0
 19 64  1  0  0  0
 20 65  1  0  0  0
 21 66  1  0  0  0
 24 67  1  0  0  0
 24 68  1  0  0  0
 25 69  1  0  0  0
 25 70  1  0  0  0
 26 71  1  0  0  0
 26 72  1  0  0  0
 27 73  1  0  0  0
 29 74  1  0  0  0
 29 75  1  0  0  0
 30 76  1  0  0  0
 31 77  1  0  0  0
 32 78  1  0  0  0
 35 79  1  0  0  0
 35 80  1  0  0  0
 38 81  1  0  0  0
 39 82  1  0  0  0
 41 83  1  0  0  0
 42 84  1  0  0  0
 44 85  1  0  0  0
 45 86  1  0  0  0
 45 87  1  0  0  0
 47 88  1  0  0  0
M  END
$$$$
