5u4d_ligand
  -I-interpret- 

 30 31  0  0  0  0  0  0  0  0999 V2000
  -19.7880    1.5320  -29.7140 C   0  0  0  0  0
  -19.2390    1.9380  -28.5080 C   0  0  0  0  0
  -19.7350    1.4290  -27.3210 C   0  0  0  0  0
  -20.7700    0.5130  -27.3390 C   0  0  0  0  0
  -21.3120    0.0980  -28.5440 C   0  0  0  0  0
  -20.8240    0.6150  -29.7320 C   0  0  0  0  0
  -21.4140    0.1780  -31.0570 C   0  0  0  0  0
  -21.2850   -0.0630  -26.0430 C   0  0  0  0  0
  -20.7810    0.1650  -24.8200 C   0  0  0  0  0
  -21.3160   -0.4840  -23.5650 C   0  0  0  0  0
  -21.4900   -1.8680  -23.6030 C   0  0  0  0  0
  -21.9730   -2.5390  -22.5010 C   0  0  0  0  0
  -22.2630   -1.8240  -21.3510 C   0  0  0  0  0
  -22.0830   -0.4480  -21.3030 C   0  0  0  0  0
  -21.6050    0.2380  -22.4160 C   0  0  0  0  0
  -22.5360   -0.3960  -31.0970 O   0  0  0  0  0
  -20.7750    0.3910  -32.1220 O   0  0  0  0  0
  -22.7620   -2.5130  -20.2300 O   0  0  0  0  0
  -21.3810    1.9740  -22.3250 Cl  0  0  0  0  0
  -19.4029    1.9359  -30.6503 H   0  0  0  0  0
  -18.4190    2.6561  -28.4947 H   0  0  0  0  0
  -19.3091    1.7507  -26.3706 H   0  0  0  0  0
  -22.1202   -0.6333  -28.5570 H   0  0  0  0  0
  -22.1474   -0.7267  -26.1058 H   0  0  0  0  0
  -19.9418    0.8545  -24.7275 H   0  0  0  0  0
  -21.2425   -2.4210  -24.5091 H   0  0  0  0  0
  -22.1248   -3.6179  -22.5338 H   0  0  0  0  0
  -22.3172    0.0979  -20.3891 H   0  0  0  0  0
  -22.8836   -0.4792  -30.2060 H   0  0  0  0  0
  -22.9145   -1.8907  -19.5151 H   0  0  0  0  0
  1  2  4  0  0  0
  1  6  4  0  0  0
  2  3  4  0  0  0
  3  4  4  0  0  0
  4  5  4  0  0  0
  4  8  1  0  0  0
  5  6  4  0  0  0
  6  7  1  0  0  0
  7 16  1  0  0  0
  7 17  2  0  0  0
  8  9  2  0  0  0
  9 10  1  0  0  0
 10 11  4  0  0  0
 10 15  4  0  0  0
 11 12  4  0  0  0
 12 13  4  0  0  0
 13 14  4  0  0  0
 13 18  1  0  0  0
 14 15  4  0  0  0
 15 19  1  0  0  0
  1 20  1  0  0  0
  2 21  1  0  0  0
  3 22  1  0  0  0
  5 23  1  0  0  0
  8 24  1  0  0  0
  9 25  1  0  0  0
 11 26  1  0  0  0
 12 27  1  0  0  0
 14 28  1  0  0  0
 16 29  1  0  0  0
 18 30  1  0  0  0
M  END
$$$$
