2nv7_ligand
  -I-interpret- 

 33 35  0  0  0  0  0  0  0  0999 V2000
   31.0300   39.4930   36.7750 C   0  0  0  0  0
   29.8190   39.6440   37.4490 C   0  0  0  0  0
   29.3950   38.6500   38.3290 C   0  0  0  0  0
   30.1720   37.4270   38.5940 C   0  0  0  0  0
   31.4610   37.2830   37.8730 C   0  0  0  0  0
   31.8240   38.3530   36.9790 C   0  0  0  0  0
   32.2760   36.0860   38.1070 C   0  0  0  0  0
   31.8290   35.0790   39.0110 C   0  0  0  0  0
   30.5950   35.2080   39.6850 C   0  0  0  0  0
   29.7340   36.3480   39.5150 C   0  0  0  0  0
   28.4380   36.3050   40.3220 C   0  0  0  0  0
   28.4910   36.1420   41.7510 C   0  0  0  0  0
   27.3050   36.0800   42.5170 C   0  0  0  0  0
   26.0450   36.1800   41.8780 C   0  0  0  0  0
   25.9460   36.3420   40.4780 C   0  0  0  0  0
   27.1200   36.3940   39.7030 C   0  0  0  0  0
   24.8930   36.1110   42.5910 O   0  0  0  0  0
   33.5920   35.8110   37.4300 C   0  0  0  0  0
   34.4010   36.7320   36.9950 N   0  0  0  0  0
   35.5230   36.1340   36.4080 O   0  0  0  0  0
   31.3634   40.2668   36.0835 H   0  0  0  0  0
   29.2085   40.5327   37.2889 H   0  0  0  0  0
   28.4443   38.7838   38.8451 H   0  0  0  0  0
   32.7638   38.2734   36.4326 H   0  0  0  0  0
   32.4474   34.1983   39.1843 H   0  0  0  0  0
   30.2823   34.4122   40.3610 H   0  0  0  0  0
   29.4578   36.0654   42.2486 H   0  0  0  0  0
   27.3599   35.9553   43.5985 H   0  0  0  0  0
   24.9690   36.4260   40.0021 H   0  0  0  0  0
   27.0429   36.5027   38.6212 H   0  0  0  0  0
   24.1443   36.1970   41.9963 H   0  0  0  0  0
   33.8868   34.7703   37.2953 H   0  0  0  0  0
   36.1175   36.8166   36.0883 H   0  0  0  0  0
  1  2  4  0  0  0
  1  6  4  0  0  0
  2  3  4  0  0  0
  3  4  4  0  0  0
  4  5  4  0  0  0
  4 10  4  0  0  0
  5  6  4  0  0  0
  5  7  4  0  0  0
  7  8  4  0  0  0
  7 18  1  0  0  0
  8  9  4  0  0  0
  9 10  4  0  0  0
 10 11  1  0  0  0
 11 12  4  0  0  0
 11 16  4  0  0  0
 12 13  4  0  0  0
 13 14  4  0  0  0
 14 15  4  0  0  0
 14 17  1  0  0  0
 15 16  4  0  0  0
 18 19  2  0  0  0
 19 20  1  0  0  0
  1 21  1  0  0  0
  2 22  1  0  0  0
  3 23  1  0  0  0
  6 24  1  0  0  0
  8 25  1  0  0  0
  9 26  1  0  0  0
 12 27  1  0  0  0
 13 28  1  0  0  0
 15 29  1  0  0  0
 16 30  1  0  0  0
 17 31  1  0  0  0
 18 32  1  0  0  0
 20 33  1  0  0  0
M  END
$$$$
