4b74_ligand
  -I-interpret- 

 57 58  0  0  0  0  0  0  0  0999 V2000
    0.6250   15.0930  -43.9980 C   0  0  0  0  0
    0.6720   13.9110  -43.0580 C   0  0  0  0  0
    0.5230   14.2910  -41.5940 C   0  0  0  0  0
    0.3180   13.0290  -40.7840 N   0  3  0  0  0
   -1.0690   12.4440  -40.6880 C   0  0  0  0  0
   -1.0120   11.0810  -40.0140 C   0  0  0  0  0
   -2.0150   13.4090  -39.9670 C   0  0  0  0  0
   -1.6630   13.6930  -38.5260 C   0  0  0  0  0
   -0.5270   14.0170  -38.1870 O   0  0  0  0  0
   -2.6690   13.5670  -37.6630 N   0  0  0  0  0
   -2.4760   13.7190  -36.2320 C   0  0  0  0  0
   -3.6190   14.4660  -35.5810 C   0  0  0  0  0
   -3.7090   15.8510  -36.1020 N   0  3  0  0  0
    1.7030   15.0960  -41.0670 C   0  0  0  0  0
    1.5490   16.4250  -40.6860 C   0  0  0  0  0
    2.6330   17.1410  -40.2090 C   0  0  0  0  0
    3.8810   16.5450  -40.1040 C   0  0  0  0  0
    5.1890   17.5050  -39.4980 Cl  0  0  0  0  0
    4.0830   15.2180  -40.4730 C   0  0  0  0  0
    5.3080   14.5580  -40.3940 O   0  0  0  0  0
    5.8700   14.2600  -39.1690 C   0  0  0  0  0
    5.2640   14.3870  -37.9300 C   0  0  0  0  0
    5.9630   14.0450  -36.7850 C   0  0  0  0  0
    7.2550   13.5800  -36.8780 C   0  0  0  0  0
    7.8580   13.4530  -38.1100 C   0  0  0  0  0
    7.1670   13.7920  -39.2580 C   0  0  0  0  0
    2.9870   14.5200  -40.9480 C   0  0  0  0  0
    3.1470   13.2370  -41.3120 F   0  0  0  0  0
   -0.3317   15.6040  -43.8896 H   0  0  0  0  0
    1.4352   15.7807  -43.7557 H   0  0  0  0  0
    0.7377   14.7440  -45.0244 H   0  0  0  0  0
    1.6474   13.4389  -43.1753 H   0  0  0  0  0
   -0.1627   13.2578  -43.3125 H   0  0  0  0  0
   -0.3445   14.9439  -41.4976 H   0  0  0  0  0
    0.5631   13.2861  -39.8278 H   0  0  0  0  0
    0.8727   12.3170  -41.2592 H   0  0  0  0  0
   -1.4696   12.2999  -41.6914 H   0  0  0  0  0
   -0.6594   11.1983  -38.9893 H   0  0  0  0  0
   -2.0079   10.6379  -40.0085 H   0  0  0  0  0
   -0.3280   10.4339  -40.5631 H   0  0  0  0  0
   -2.9990   12.9402  -39.9635 H   0  0  0  0  0
   -1.9582   14.3595  -40.4974 H   0  0  0  0  0
   -3.6023   13.3576  -38.0174 H   0  0  0  0  0
   -1.5610   14.2890  -36.0706 H   0  0  0  0  0
   -2.4225   12.7249  -35.7882 H   0  0  0  0  0
   -3.4449   14.5061  -34.5057 H   0  0  0  0  0
   -4.5505   13.9458  -35.8041 H   0  0  0  0  0
   -4.4852   16.3335  -35.6492 H   0  0  0  0  0
   -2.8385   16.3446  -35.9043 H   0  0  0  0  0
   -3.8649   15.8245  -37.1097 H   0  0  0  0  0
    0.5726   16.9034  -40.7633 H   0  0  0  0  0
    2.5049   18.1823  -39.9133 H   0  0  0  0  0
    4.2406   14.7548  -37.8567 H   0  0  0  0  0
    5.4894   14.1442  -35.8083 H   0  0  0  0  0
    7.8025   13.3115  -35.9745 H   0  0  0  0  0
    8.8815   13.0846  -38.1796 H   0  0  0  0  0
    7.6447   13.6903  -40.2325 H   0  0  0  0  0
  1  2  1  0  0  0
  2  3  1  0  0  0
  3  4  1  0  0  0
  3 14  1  0  0  0
  4  5  1  0  0  0
  5  6  1  0  0  0
  5  7  1  0  0  0
  7  8  1  0  0  0
  8  9  2  0  0  0
  8 10  1  0  0  0
 10 11  1  0  0  0
 11 12  1  0  0  0
 12 13  1  0  0  0
 14 15  4  0  0  0
 14 27  4  0  0  0
 15 16  4  0  0  0
 16 17  4  0  0  0
 17 18  1  0  0  0
 17 19  4  0  0  0
 19 20  1  0  0  0
 19 27  4  0  0  0
 20 21  1  0  0  0
 21 22  4  0  0  0
 21 26  4  0  0  0
 22 23  4  0  0  0
 23 24  4  0  0  0
 24 25  4  0  0  0
 25 26  4  0  0  0
 27 28  1  0  0  0
  1 29  1  0  0  0
  1 30  1  0  0  0
  1 31  1  0  0  0
  2 32  1  0  0  0
  2 33  1  0  0  0
  3 34  1  0  0  0
  4 35  1  0  0  0
  4 36  1  0  0  0
  5 37  1  0  0  0
  6 38  1  0  0  0
  6 39  1  0  0  0
  6 40  1  0  0  0
  7 41  1  0  0  0
  7 42  1  0  0  0
 10 43  1  0  0  0
 11 44  1  0  0  0
 11 45  1  0  0  0
 12 46  1  0  0  0
 12 47  1  0  0  0
 13 48  1  0  0  0
 13 49  1  0  0  0
 13 50  1  0  0  0
 15 51  1  0  0  0
 16 52  1  0  0  0
 22 53  1  0  0  0
 23 54  1  0  0  0
 24 55  1  0  0  0
 25 56  1  0  0  0
 26 57  1  0  0  0
M  END
$$$$
