5wa8_ligand
  -I-interpret- 

 50 52  0  0  0  0  0  0  0  0999 V2000
  -30.9260    3.7320  -22.6380 O   0  0  0  0  0
  -31.5930    3.8410  -23.9780 P   0  0  0  0  0
  -32.3750    2.6690  -24.5160 O   0  0  0  0  0
  -30.4050    4.2000  -24.9910 O   0  0  0  0  0
  -30.5690    3.9830  -26.3880 C   0  0  0  0  0
  -29.5890    4.8930  -27.1080 C   0  0  0  0  0
  -30.0230    6.3640  -27.1410 C   0  0  0  0  0
  -29.0420    7.1780  -26.4750 O   0  0  0  0  0
  -30.1380    6.6680  -28.6330 C   0  0  0  0  0
  -29.6900    7.9680  -29.0240 O   0  0  0  0  0
  -29.2410    5.5960  -29.2290 C   0  0  0  0  0
  -29.5080    4.4400  -28.4600 O   0  0  0  0  0
  -29.5520    5.2530  -30.6230 N   0  0  0  0  0
  -28.6210    5.0650  -31.5460 C   0  0  0  0  0
  -29.3520    4.7200  -32.7520 C   0  0  0  0  0
  -30.6600    4.7280  -32.4520 N   0  0  0  0  0
  -30.7750    5.0370  -31.1380 C   0  0  0  0  0
  -27.2730    5.1450  -31.5380 N   0  0  0  0  0
  -26.5990    4.8980  -32.6710 C   0  0  0  0  0
  -27.2040    4.5760  -33.8310 N   0  0  0  0  0
  -28.5440    4.4750  -33.9450 C   0  0  0  0  0
  -29.1460    4.1620  -35.1210 N   0  0  0  0  0
  -32.6940    5.1640  -24.0000 N   0  0  0  0  0
  -32.4320    6.3500  -23.2120 C   0  0  0  0  0
  -33.4230    7.3800  -23.6080 C   0  0  0  0  0
  -31.0380    6.9350  -23.4140 C   0  0  0  0  0
  -34.0630    7.3340  -24.6400 O   0  0  0  0  0
  -33.6190    8.4670  -22.7070 O   0  0  0  0  0
  -34.4790    9.5340  -23.1120 C   0  0  0  0  0
  -32.7370    2.8950  -25.3759 H   0  0  0  0  0
  -31.5916    4.2070  -26.6916 H   0  0  0  0  0
  -30.3753    2.9398  -26.6376 H   0  0  0  0  0
  -28.6417    4.8467  -26.5708 H   0  0  0  0  0
  -30.9598    6.5681  -26.6224 H   0  0  0  0  0
  -29.0129    6.9448  -25.5442 H   0  0  0  0  0
  -31.1767    6.6629  -28.9633 H   0  0  0  0  0
  -29.7985    8.0708  -29.9723 H   0  0  0  0  0
  -28.2119    5.9550  -29.2156 H   0  0  0  0  0
  -31.7121    5.1005  -30.5850 H   0  0  0  0  0
  -25.5110    4.9607  -32.6524 H   0  0  0  0  0
  -30.1627    4.0977  -35.1722 H   0  0  0  0  0
  -28.5816    3.9911  -35.9532 H   0  0  0  0  0
  -33.5368    5.1121  -24.5721 H   0  0  0  0  0
  -32.5041    6.0623  -22.1631 H   0  0  0  0  0
  -30.2900    6.1924  -23.1364 H   0  0  0  0  0
  -30.9086    7.2091  -24.4610 H   0  0  0  0  0
  -30.9227    7.8201  -22.7884 H   0  0  0  0  0
  -34.0874    9.9893  -24.0217 H   0  0  0  0  0
  -35.4781    9.1417  -23.3016 H   0  0  0  0  0
  -34.5252   10.2821  -22.3206 H   0  0  0  0  0
  1  2  2  0  0  0
  2  3  1  0  0  0
  2  4  1  0  0  0
  2 23  1  0  0  0
  4  5  1  0  0  0
  5  6  1  0  0  0
  6  7  1  0  0  0
  6 12  1  0  0  0
  7  8  1  0  0  0
  7  9  1  0  0  0
  9 10  1  0  0  0
  9 11  1  0  0  0
 11 12  1  0  0  0
 11 13  1  0  0  0
 13 14  4  0  0  0
 13 17  4  0  0  0
 14 15  4  0  0  0
 14 18  4  0  0  0
 15 16  4  0  0  0
 15 21  4  0  0  0
 16 17  4  0  0  0
 18 19  4  0  0  0
 19 20  4  0  0  0
 20 21  4  0  0  0
 21 22  1  0  0  0
 23 24  1  0  0  0
 24 25  1  0  0  0
 24 26  1  0  0  0
 25 27  2  0  0  0
 25 28  1  0  0  0
 28 29  1  0  0  0
  3 30  1  0  0  0
  5 31  1  0  0  0
  5 32  1  0  0  0
  6 33  1  0  0  0
  7 34  1  0  0  0
  8 35  1  0  0  0
  9 36  1  0  0  0
 10 37  1  0  0  0
 11 38  1  0  0  0
 17 39  1  0  0  0
 19 40  1  0  0  0
 22 41  1  0  0  0
 22 42  1  0  0  0
 23 43  1  0  0  0
 24 44  1  0  0  0
 26 45  1  0  0  0
 26 46  1  0  0  0
 26 47  1  0  0  0
 29 48  1  0  0  0
 29 49  1  0  0  0
 29 50  1  0  0  0
M  END
$$$$
