### 
### Created by X-TOOL on Mon Sep 10 21:13:30 2018
### 

@<TRIPOS>MOLECULE
5wa8_ligand
   49    51     1     0     0
SMALL
GAST_HUCK


@<TRIPOS>ATOM
      1 O3P       -30.9260    3.7320  -22.6380 O.co2     1 9ZA        -0.6076
      2 P         -31.5930    3.8410  -23.9780 P.3       1 9ZA         0.2039
      3 O2P       -32.3750    2.6690  -24.5160 O.co2     1 9ZA        -0.6076
      4 O5'       -30.4050    4.2000  -24.9910 O.3       1 9ZA        -0.2585
      5 C5'       -30.5690    3.9830  -26.3880 C.3       1 9ZA         0.1127
      6 C4'       -29.5890    4.8930  -27.1080 C.3       1 9ZA         0.1191
      7 C3'       -30.0230    6.3640  -27.1410 C.3       1 9ZA         0.1150
      8 O3'       -29.0420    7.1780  -26.4750 O.3       1 9ZA        -0.3864
      9 C2'       -30.1380    6.6680  -28.6330 C.3       1 9ZA         0.1385
     10 O2'       -29.6900    7.9680  -29.0240 O.3       1 9ZA        -0.3836
     11 C1'       -29.2410    5.5960  -29.2290 C.3       1 9ZA         0.2010
     12 O4'       -29.5080    4.4400  -28.4600 O.3       1 9ZA        -0.3364
     13 N9        -29.5520    5.2530  -30.6230 N.pl3     1 9ZA        -0.1919
     14 C4        -28.6210    5.0650  -31.5460 C.ar      1 9ZA         0.1613
     15 C5        -29.3520    4.7200  -32.7520 C.ar      1 9ZA         0.1045
     16 N7        -30.6600    4.7280  -32.4520 N.2       1 9ZA        -0.2958
     17 C8        -30.7750    5.0370  -31.1380 C.2       1 9ZA         0.1123
     18 N3        -27.2730    5.1450  -31.5380 N.ar      1 9ZA        -0.2714
     19 C2        -26.5990    4.8980  -32.6710 C.ar      1 9ZA         0.0533
     20 N1        -27.2040    4.5760  -33.8310 N.ar      1 9ZA        -0.2698
     21 C6        -28.5440    4.4750  -33.9450 C.ar      1 9ZA         0.1298
     22 N6        -29.1460    4.1620  -35.1210 N.pl3     1 9ZA        -0.3152
     23 N2        -32.6940    5.1640  -24.0000 N.am      1 9ZA        -0.2536
     24 C3        -32.4320    6.3500  -23.2120 C.3       1 9ZA         0.1328
     25 C7        -33.4230    7.3800  -23.6080 C.2       1 9ZA         0.2551
     26 C9        -31.0380    6.9350  -23.4140 C.3       1 9ZA        -0.0266
     27 O10       -34.0630    7.3340  -24.6400 O.2       1 9ZA        -0.3683
     28 O11       -33.6190    8.4670  -22.7070 O.3       1 9ZA        -0.2788
     29 C12       -34.4790    9.5340  -23.1120 C.3       1 9ZA         0.0658
     30 H1        -31.5987    4.2274  -26.6880 H         1 9ZA         0.0650
     31 H2        -30.3554    2.9321  -26.6327 H         1 9ZA         0.0650
     32 H3        -28.6057    4.8200  -26.6205 H         1 9ZA         0.0651
     33 H4        -30.9969    6.4986  -26.6476 H         1 9ZA         0.0648
     34 H5        -28.2051    7.0874  -26.9155 H         1 9ZA         0.2100
     35 H6        -31.1791    6.5443  -28.9658 H         1 9ZA         0.0676
     36 H7        -28.7731    8.0674  -28.7964 H         1 9ZA         0.2101
     37 H8        -28.1870    5.9006  -29.1500 H         1 9ZA         0.0996
     38 H9        -31.7113    5.1005  -30.5855 H         1 9ZA         0.1349
     39 H10       -25.5169    4.9604  -32.6525 H         1 9ZA         0.0996
     40 H11       -28.5760    3.9894  -35.9614 H         1 9ZA         0.1820
     41 H12       -30.1727    4.0971  -35.1728 H         1 9ZA         0.1820
     42 H13       -33.5203    5.1131  -24.5609 H         1 9ZA         0.1687
     43 H14       -32.5566    6.1003  -22.1480 H         1 9ZA         0.0767
     44 H15       -30.9204    7.8284  -22.7832 H         1 9ZA         0.0274
     45 H16       -30.9061    7.2121  -24.4703 H         1 9ZA         0.0274
     46 H17       -30.2821    6.1865  -23.1341 H         1 9ZA         0.0274
     47 H18       -34.5264   10.2897  -22.3141 H         1 9ZA         0.0577
     48 H19       -35.4877    9.1394  -23.3036 H         1 9ZA         0.0577
     49 H20       -34.0848    9.9944  -24.0300 H         1 9ZA         0.0577
@<TRIPOS>BOND
     1    1    2 ar 
     2    2    3 ar 
     3    2    4 1  
     4    2   23 am 
     5    4    5 1  
     6    5    6 1  
     7    6    7 1  
     8    6   12 1  
     9    7    8 1  
    10    7    9 1  
    11    9   10 1  
    12    9   11 1  
    13   11   12 1  
    14   11   13 1  
    15   13   14 1  
    16   13   17 1  
    17   14   15 ar 
    18   14   18 ar 
    19   15   16 1  
    20   15   21 ar 
    21   16   17 2  
    22   18   19 ar 
    23   19   20 ar 
    24   20   21 ar 
    25   21   22 1  
    26   23   24 1  
    27   24   25 1  
    28   24   26 1  
    29   25   27 2  
    30   25   28 1  
    31   28   29 1  
    32    5   30 1  
    33    5   31 1  
    34    6   32 1  
    35    7   33 1  
    36    8   34 1  
    37    9   35 1  
    38   10   36 1  
    39   11   37 1  
    40   17   38 1  
    41   19   39 1  
    42   22   40 1  
    43   22   41 1  
    44   23   42 1  
    45   24   43 1  
    46   26   44 1  
    47   26   45 1  
    48   26   46 1  
    49   29   47 1  
    50   29   48 1  
    51   29   49 1  
@<TRIPOS>SUBSTRUCTURE
     1 9ZA         1

