5u5k_ligand
  -I-interpret- 

 35 36  0  0  0  0  0  0  0  0999 V2000
   22.1740   -4.9290   10.5780 C   0  0  0  0  0
   22.1070   -3.7860   11.3900 C   0  0  0  0  0
   20.9300   -3.0220   11.4030 C   0  0  0  0  0
   19.3390    0.9410    7.6420 C   0  0  0  0  0
   19.2250    0.0250   10.0030 C   0  0  0  0  0
   20.0100   -6.9980    8.2150 C   0  0  0  0  0
   19.8190   -3.3940   10.6090 C   0  0  0  0  0
   19.9230   -4.5200    9.7750 C   0  0  0  0  0
   21.0810   -5.3120    9.7580 C   0  0  0  0  0
   18.5860   -2.4770   10.4910 C   0  0  0  0  0
   19.0310   -1.4120    9.4350 C   0  0  0  0  0
   18.1800   -1.3150    8.1400 C   0  0  0  0  0
   18.9200   -0.4490    7.0710 C   0  0  0  0  0
   19.9540    0.8670    9.0070 N   0  3  0  0  0
   21.1420   -6.4450    8.9060 O   0  0  0  0  0
   23.0814   -5.5329   10.5773 H   0  0  0  0  0
   22.9597   -3.4951   12.0036 H   0  0  0  0  0
   20.8708   -2.1330   12.0310 H   0  0  0  0  0
   18.4368    1.5474    7.7220 H   0  0  0  0  0
   20.0868    1.3596    6.9684 H   0  0  0  0  0
   19.8042   -0.0264   10.9250 H   0  0  0  0  0
   18.2498    0.4679   10.2052 H   0  0  0  0  0
   19.2581   -7.3070    8.9411 H   0  0  0  0  0
   19.5874   -6.2439    7.5510 H   0  0  0  0  0
   20.3288   -7.8610    7.6305 H   0  0  0  0  0
   19.0866   -4.7837    9.1277 H   0  0  0  0  0
   18.3018   -2.0305   11.4439 H   0  0  0  0  0
   17.6881   -3.0170   10.1904 H   0  0  0  0  0
   19.9985   -1.8280    9.1539 H   0  0  0  0  0
   17.2233   -0.8492    8.3761 H   0  0  0  0  0
   18.0230   -2.3170    7.7406 H   0  0  0  0  0
   19.8213   -0.9795    6.7640 H   0  0  0  0  0
   18.2422   -0.2854    6.2331 H   0  0  0  0  0
   19.9514    1.8178    9.3763 H   0  0  0  0  0
   20.8728    0.4407    8.8866 H   0  0  0  0  0
  2  1  4  0  0  0
  9  1  4  0  0  0
  3  2  4  0  0  0
  7  3  4  0  0  0
  4 13  1  0  0  0
 14  4  1  0  0  0
 11  5  1  0  0  0
  5 14  1  0  0  0
 15  6  1  0  0  0
  7  8  4  0  0  0
 10  7  1  0  0  0
  8  9  4  0  0  0
  9 15  1  0  0  0
 10 11  1  0  0  0
 11 12  1  0  0  0
 12 13  1  0  0  0
  1 16  1  0  0  0
  2 17  1  0  0  0
  3 18  1  0  0  0
  4 19  1  0  0  0
  4 20  1  0  0  0
  5 21  1  0  0  0
  5 22  1  0  0  0
  6 23  1  0  0  0
  6 24  1  0  0  0
  6 25  1  0  0  0
  8 26  1  0  0  0
 10 27  1  0  0  0
 10 28  1  0  0  0
 11 29  1  0  0  0
 12 30  1  0  0  0
 12 31  1  0  0  0
 13 32  1  0  0  0
 13 33  1  0  0  0
 14 34  1  0  0  0
 14 35  1  0  0  0
M  END
$$$$
