5g3w_ligand
  -I-interpret- 

 31 32  0  0  0  0  0  0  0  0999 V2000
   33.0450   36.6300   53.8560 C   0  0  0  0  0
   33.8460   36.5770   52.7130 C   0  0  0  0  0
   33.8150   35.4030   51.9970 C   0  0  0  0  0
   33.0100   34.3360   52.4330 C   0  0  0  0  0
   32.1460   34.3190   53.5650 C   0  0  0  0  0
   32.2450   35.5310   54.2890 C   0  0  0  0  0
   31.3510   33.0950   53.8940 N   0  0  0  0  0
   30.3280   32.7260   54.6450 N   0  0  0  0  0
   29.5290   31.5000   55.0380 C   0  0  0  0  0
   29.9120   30.2150   55.5880 C   0  0  0  0  0
   29.0490   29.1740   55.9670 C   0  0  0  0  0
   27.6980   29.3690   55.8750 C   0  0  0  0  0
   27.2640   30.5960   55.4260 C   0  0  0  0  0
   28.1350   31.5870   55.0150 C   0  0  0  0  0
   26.7810   28.3310   56.2390 C   0  0  0  0  0
   25.4730   28.3030   55.9150 C   0  0  0  0  0
   24.7870   27.0630   56.3170 C   0  0  0  0  0
   25.0130   26.7690   57.5440 N   0  0  0  0  0
   24.1190   26.2640   55.7120 O   0  0  0  0  0
   24.0800   26.0480   58.0940 O   0  0  0  0  0
   33.0305   37.5493   54.4415 H   0  0  0  0  0
   34.4629   37.4211   52.4048 H   0  0  0  0  0
   34.4141   35.3000   51.0923 H   0  0  0  0  0
   33.0517   33.4223   51.8401 H   0  0  0  0  0
   31.6850   35.6292   55.2190 H   0  0  0  0  0
   30.9793   30.0385   55.7211 H   0  0  0  0  0
   29.4488   28.2266   56.3284 H   0  0  0  0  0
   26.1925   30.7933   55.3935 H   0  0  0  0  0
   27.6981   32.5133   54.6420 H   0  0  0  0  0
   27.1715   27.4983   56.8240 H   0  0  0  0  0
   24.9692   29.1226   55.4026 H   0  0  0  0  0
  1  2  4  0  0  0
  1  6  4  0  0  0
  2  3  4  0  0  0
  3  4  4  0  0  0
  4  5  4  0  0  0
  5  6  4  0  0  0
  5  7  1  0  0  0
  7  8  2  0  0  0
  8  9  1  0  0  0
  9 10  4  0  0  0
  9 14  4  0  0  0
 10 11  4  0  0  0
 11 12  4  0  0  0
 12 13  4  0  0  0
 12 15  1  0  0  0
 13 14  4  0  0  0
 15 16  2  0  0  0
 16 17  1  0  0  0
 17 18  1  0  0  0
 17 19  2  0  0  0
 18 20  2  0  0  0
  1 21  1  0  0  0
  2 22  1  0  0  0
  3 23  1  0  0  0
  4 24  1  0  0  0
  6 25  1  0  0  0
 10 26  1  0  0  0
 11 27  1  0  0  0
 13 28  1  0  0  0
 14 29  1  0  0  0
 15 30  1  0  0  0
 16 31  1  0  0  0
M  END
$$$$
