4hze_ligand

Created by X-TOOL on Fri Nov 18 17:26:38 2016
 53 53  0  0  0  0  0  0  0  0999 V2000
   34.7950   88.8210   72.2030  O 0  0  0  1  0  1
   33.7680   88.5070   71.5630  C 0  5  0  1  0  3
   32.9080   89.3530   71.2250  O 0  0  0  1  0  1
   33.5340   87.0610   71.2000  C 0  0  0  1  0  4
   32.1300   86.8870   70.7990  N 0  3  0  4  0  4
   34.3250   86.6650   69.9410  C 0  0  0  3  0  4
   35.8420   86.6840   70.0110  C 0  0  0  3  0  4
   36.4420   86.0730   68.7430  C 0  0  0  3  0  4
   36.6540   87.1220   67.6360  C 0  0  0  4  0  5
   37.1380   86.5110   66.2660  B 0  0  0  1  0  4
   38.3060   85.5460   66.6180  O 0  0  0  2  0  2
   37.7330   87.4580   65.2740  O 0  0  0  3  0  3
   36.2000   85.5920   65.5670  O 0  0  0  3  0  3
   33.8020   86.1690   72.4220  C 0  0  0  3  0  4
   32.7640   86.3620   73.5290  C 0  0  0  3  0  4
   32.9350   85.4010   74.6400  N 0  3  0  2  0  4
   32.6940   84.0430   74.1380  C 0  0  0  3  0  4
   32.9600   83.0250   75.2400  C 0  0  0  3  0  4
   32.0520   83.2840   76.4340  C 0  0  0  3  0  4
   32.2060   84.7330   76.8890  C 0  0  0  3  0  4
   31.9800   85.6940   75.7200  C 0  0  0  3  0  4
   31.9673   85.9226   70.5552  H 0  0  0  1  0  1
   31.9329   87.4727   70.0027  H 0  0  0  1  0  1
   31.5274   87.1463   71.5643  H 0  0  0  1  0  1
   34.0269   87.3552   69.1380  H 0  0  0  1  0  1
   34.0236   85.6411   69.6751  H 0  0  0  1  0  1
   36.1719   86.1026   70.8846  H 0  0  0  1  0  1
   36.1873   87.7236   70.1108  H 0  0  0  1  0  1
   35.7607   85.2951   68.3680  H 0  0  0  1  0  1
   37.4130   85.6206   68.9930  H 0  0  0  1  0  1
   37.4791   86.8033   66.9821  H 0  0  0  1  0  1
   36.9015   88.0918   68.0924  H 0  0  0  1  0  1
   35.7329   87.2203   67.0428  H 0  0  0  1  0  1
   38.9393   84.9308   66.1484  H 0  0  0  1  0  1
   37.0399   87.9618   64.8637  H 0  0  0  1  0  1
   37.0400   87.9618   64.8637  H 0  0  0  1  0  1
   35.5093   86.0986   65.1563  H 0  0  0  1  0  1
   35.5092   86.0987   65.1562  H 0  0  0  1  0  1
   34.7962   86.4124   72.8248  H 0  0  0  1  0  1
   33.7837   85.1170   72.1013  H 0  0  0  1  0  1
   31.7605   86.2286   73.0987  H 0  0  0  1  0  1
   32.8593   87.3827   73.9278  H 0  0  0  1  0  1
   33.8748   85.4674   74.9983  H 0  0  0  1  0  1
   33.3645   83.8442   73.2890  H 0  0  0  1  0  1
   31.6484   83.9571   73.8075  H 0  0  0  1  0  1
   34.0096   83.1031   75.5596  H 0  0  0  1  0  1
   32.7690   82.0134   74.8525  H 0  0  0  1  0  1
   32.3293   82.6101   77.2580  H 0  0  0  1  0  1
   31.0065   83.0999   76.1458  H 0  0  0  1  0  1
   33.2209   84.8807   77.2867  H 0  0  0  1  0  1
   31.4688   84.9441   77.6776  H 0  0  0  1  0  1
   30.9539   85.5740   75.3422  H 0  0  0  1  0  1
   32.1252   86.7284   76.0648  H 0  0  0  1  0  1
  1  2  2  0  0  2
  2  3  2  0  0  2
  2  4  1  0  0  2
  4  5  1  0  0  2
  4  6  1  0  0  2
  4 14  1  0  0  2
  6  7  1  0  0  2
  7  8  1  0  0  2
  8  9  1  0  0  2
  9 10  1  0  0  2
 10 12  1  0  0  2
 10 13  1  0  0  2
 14 15  1  0  0  2
 15 16  1  0  0  2
 16 17  1  0  0  1
 16 21  1  0  0  1
 17 18  1  0  0  1
 18 19  1  0  0  1
 19 20  1  0  0  1
 20 21  1  0  0  1
 10 11  2  0  0  2
  5 22  1  0  0  2
  5 23  1  0  0  2
  5 24  1  0  0  2
  6 25  1  0  0  2
  6 26  1  0  0  2
  7 27  1  0  0  2
  7 28  1  0  0  2
  8 29  1  0  0  2
  8 30  1  0  0  2
  9 31  1  0  0  2
  9 32  1  0  0  2
  9 33  1  0  0  2
 11 34  1  0  0  2
 12 35  1  0  0  2
 12 36  1  0  0  2
 13 37  1  0  0  2
 13 38  1  0  0  2
 14 39  1  0  0  2
 14 40  1  0  0  2
 15 41  1  0  0  2
 15 42  1  0  0  2
 16 43  1  0  0  2
 17 44  1  0  0  2
 17 45  1  0  0  2
 18 46  1  0  0  2
 18 47  1  0  0  2
 19 48  1  0  0  2
 19 49  1  0  0  2
 20 50  1  0  0  2
 20 51  1  0  0  2
 21 52  1  0  0  2
 21 53  1  0  0  2
M  END
> <MOLECULAR_FORMULA>
C13H32N2O5B

> <MOLECULAR_WEIGHT>
307.0

> <NUM_HB_ATOMS>
6  

> <NUM_ROTOR>
8  

> <XLOGP2>
-2.32

$$$$
