#	Name:			4hze_ligand
#	Creating user name:	wangrx
#	Creation time:		Wed Aug  4 17:11:55 2021

#	Modifying user name:	wangrx
#	Modification time:	Wed Aug  4 17:12:31 2021

@<TRIPOS>MOLECULE
4hze_ligand
   52    52     1     0     0
SMALL
GAST_HUCK


@<TRIPOS>ATOM
      1 O20        34.7950   88.8210   72.2030 O.co2     1 X7A        -0.5422 
      2 C18        33.7680   88.5070   71.5630 C.2       1 X7A         0.0962 
      3 O21        32.9080   89.3530   71.2250 O.co2     1 X7A        -0.5422 
      4 C1         33.5340   87.0610   71.2000 C.3       1 X7A         0.0372 
      5 N2         32.1300   86.8870   70.7990 N.4       1 X7A         0.2231 
      6 C3         34.3250   86.6650   69.9410 C.3       1 X7A        -0.0038 
      7 C4         35.8420   86.6840   70.0110 C.3       1 X7A        -0.0754 
      8 C5         36.4420   86.0730   68.7430 C.3       1 X7A        -0.1826 
      9 C6         36.6540   87.1220   67.6360 C.3       1 X7A        -0.3457 
     10 B7         37.1380   86.5110   66.2660 B         1 X7A         3.0000 
     11 O8         38.3060   85.5460   66.6180 O.3       1 X7A        -0.8710 
     12 O9         37.7330   87.4580   65.2740 O.3       1 X7A        -0.4105 
     13 O19        36.2000   85.5920   65.5670 O.3       1 X7A        -0.4105 
     14 C10        33.8020   86.1690   72.4220 C.3       1 X7A         0.0384 
     15 C11        32.7640   86.3620   73.5290 C.3       1 X7A        -0.0269 
     16 N12        32.9350   85.4010   74.6400 N.4       1 X7A         0.2353 
     17 C13        32.6940   84.0430   74.1380 C.3       1 X7A        -0.0319 
     18 C14        32.9600   83.0250   75.2400 C.3       1 X7A        -0.0123 
     19 C15        32.0520   83.2840   76.4340 C.3       1 X7A        -0.0434 
     20 C16        32.2060   84.7330   76.8890 C.3       1 X7A        -0.0123 
     21 C17        31.9800   85.6940   75.7200 C.3       1 X7A        -0.0319 
     22 H1         31.9673   85.9226   70.5552 H         1 X7A         0.1999 
     23 H2         31.9329   87.4727   70.0027 H         1 X7A         0.1999 
     24 H3         31.5274   87.1463   71.5643 H         1 X7A         0.1999 
     25 H4         34.0269   87.3552   69.1380 H         1 X7A         0.0315 
     26 H5         34.0236   85.6411   69.6751 H         1 X7A         0.0315 
     27 H6         36.1719   86.1026   70.8846 H         1 X7A         0.0242 
     28 H7         36.1873   87.7236   70.1108 H         1 X7A         0.0242 
     29 H8         35.7607   85.2951   68.3680 H         1 X7A        -0.0084 
     30 H9         37.4130   85.6206   68.9930 H         1 X7A        -0.0084 
     31 H11        36.9015   88.0918   68.0924 H         1 X7A        -0.2101 
     32 H12        35.7329   87.2203   67.0428 H         1 X7A        -0.2101 
     33 H13        38.9393   84.9308   66.1484 H         1 X7A        -0.1290 
     34 H14        37.0399   87.9618   64.8637 H         1 X7A         0.2052 
     35 H15        37.0400   87.9618   64.8637 H         1 X7A         0.2052 
     36 H16        35.5093   86.0986   65.1563 H         1 X7A         0.2052 
     37 H17        35.5092   86.0987   65.1562 H         1 X7A         0.2052 
     38 H18        34.7962   86.4124   72.8248 H         1 X7A         0.0368 
     39 H19        33.7837   85.1170   72.1013 H         1 X7A         0.0368 
     40 H20        31.7605   86.2286   73.0987 H         1 X7A         0.0815 
     41 H21        32.8593   87.3827   73.9278 H         1 X7A         0.0815 
     42 H22        33.8748   85.4674   74.9983 H         1 X7A         0.2033 
     43 H23        33.3645   83.8442   73.2890 H         1 X7A         0.0814 
     44 H24        31.6484   83.9571   73.8075 H         1 X7A         0.0814 
     45 H25        34.0096   83.1031   75.5596 H         1 X7A         0.0317 
     46 H26        32.7690   82.0134   74.8525 H         1 X7A         0.0317 
     47 H27        32.3293   82.6101   77.2580 H         1 X7A         0.0269 
     48 H28        31.0065   83.0999   76.1458 H         1 X7A         0.0269 
     49 H29        33.2209   84.8807   77.2867 H         1 X7A         0.0317 
     50 H30        31.4688   84.9441   77.6776 H         1 X7A         0.0317 
     51 H31        30.9539   85.5740   75.3422 H         1 X7A         0.0814 
     52 H32        32.1252   86.7284   76.0648 H         1 X7A         0.0814 
@<TRIPOS>BOND
     1    1    2 ar   
     2    2    3 ar   
     3    2    4 1    
     4    4    5 1    
     5    4    6 1    
     6    4   14 1    
     7    6    7 1    
     8    7    8 1    
     9    8    9 1    
    10    9   10 1    
    11   10   12 1    
    12   10   13 1    
    13   14   15 1    
    14   15   16 1    
    15   16   17 1    
    16   16   21 1    
    17   17   18 1    
    18   18   19 1    
    19   19   20 1    
    20   20   21 1    
    21   10   11 du   
    22    5   22 1    
    23    5   23 1    
    24    5   24 1    
    25    6   25 1    
    26    6   26 1    
    27    7   27 1    
    28    7   28 1    
    29    8   29 1    
    30    8   30 1    
    31    9   31 1    
    32    9   32 1    
    33   11   33 1    
    34   12   34 1    
    35   12   35 1    
    36   13   36 1    
    37   13   37 1    
    38   14   38 1    
    39   14   39 1    
    40   15   40 1    
    41   15   41 1    
    42   16   42 1    
    43   17   43 1    
    44   17   44 1    
    45   18   45 1    
    46   18   46 1    
    47   19   47 1    
    48   19   48 1    
    49   20   49 1    
    50   20   50 1    
    51   21   51 1    
    52   21   52 1    
@<TRIPOS>SUBSTRUCTURE
     1 X7A         1 PERM              0 ****  ****    0 ROOT 
