4xaq_ligand
  -I-interpret- 

 25 26  0  0  0  0  0  0  0  0999 V2000
   -5.5750   35.7600   26.9370 O   0  0  0  0  0
   -8.1450   37.0440   27.8960 C   0  0  0  0  0
   -9.2460   32.3630   29.3640 O   0  0  0  0  0
   -7.7210   36.5030   29.3140 C   0  0  0  0  0
   -8.0470   35.8370   26.9130 C   0  0  0  0  0
   -7.9940   35.0120   29.2480 C   0  0  0  0  0
  -10.0660   33.3980   29.0580 C   0  0  0  0  0
   -9.3880   34.6630   28.7190 C   0  0  0  0  0
   -8.2120   34.6260   27.7880 C   0  0  0  0  0
  -11.2780   33.2560   29.0670 O   0  0  0  0  0
   -9.0700   35.8490   25.8450 N   0  3  0  0  0
   -6.6190   35.7900   26.3010 C   0  0  0  0  0
   -6.5010   35.8060   24.9570 O   0  0  0  0  0
   -7.4942   37.8589   27.5790 H   0  0  0  0  0
   -9.1576   37.4468   27.9191 H   0  0  0  0  0
   -8.3324   32.6523   29.3069 H   0  0  0  0  0
   -8.2765   36.9851   30.1184 H   0  0  0  0  0
   -6.6761   36.7178   29.5379 H   0  0  0  0  0
   -7.4036   34.6727   30.0991 H   0  0  0  0  0
  -10.3505   35.1734   28.7542 H   0  0  0  0  0
   -7.8418   33.8710   27.0944 H   0  0  0  0  0
   -8.9421   36.6766   25.2626 H   0  0  0  0  0
   -8.9720   35.0105   25.2725 H   0  0  0  0  0
   -9.9989   35.8681   26.2658 H   0  0  0  0  0
   -7.3749   35.8293   24.5604 H   0  0  0  0  0
 12  1  2  0  0  0
  4  2  1  0  0  0
  5  2  1  0  0  0
  7  3  1  0  0  0
  6  4  1  0  0  0
  9  5  1  0  0  0
  5 11  1  0  0  0
  5 12  1  0  0  0
  8  6  1  0  0  0
  6  9  1  0  0  0
  7  8  1  0  0  0
  7 10  2  0  0  0
  8  9  1  0  0  0
 12 13  1  0  0  0
  2 14  1  0  0  0
  2 15  1  0  0  0
  3 16  1  0  0  0
  4 17  1  0  0  0
  4 18  1  0  0  0
  6 19  1  0  0  0
  8 20  1  0  0  0
  9 21  1  0  0  0
 11 22  1  0  0  0
 11 23  1  0  0  0
 11 24  1  0  0  0
 13 25  1  0  0  0
M  END
$$$$
