### 
### Created by X-TOOL on Mon Sep 10 21:13:12 2018
### 

@<TRIPOS>MOLECULE
4jje_ligand
   97    97     1     0     0
SMALL
GAST_HUCK


@<TRIPOS>ATOM
      1 C          41.0090   16.4700   77.5930 C.2       1 ACE         0.1753
      2 O          42.1160   16.2230   78.0500 O.2       1 ACE        -0.3972
      3 CH3        40.3840   17.8210   77.8370 C.3       1 ACE         0.0258
      4 N          40.2650   15.4820   77.0940 N.am      1 1MH        -0.2639
      5 CA         41.2390   14.6200   76.3840 C.3       1 1MH         0.1415
      6 C          40.7960   14.4500   74.9670 C.2       1 1MH         0.2062
      7 O          39.6050   14.4220   74.7030 O.2       1 1MH        -0.3942
      8 CB         41.2670   13.2020   76.9470 C.3       1 1MH         0.0277
      9 C6         41.6170   13.1820   78.4220 C.ar      1 1MH        -0.0106
     10 C7         42.8740   12.7500   78.8390 C.ar      1 1MH         0.0127
     11 N8         43.1770   12.7360   80.1510 N.ar      1 1MH        -0.3044
     12 C9         42.2930   13.1180   81.0880 C.ar      1 1MH         0.0042
     13 C10        41.0270   13.5520   80.7240 C.ar      1 1MH        -0.0404
     14 C11        40.6840   13.5800   79.3780 C.ar      1 1MH        -0.0402
     15 N          41.7480   14.3540   74.0480 N.am      1 ASP        -0.2620
     16 CA         41.4180   13.7850   72.7600 C.3       1 ASP         0.1422
     17 C          41.2970   12.3180   73.1990 C.2       1 ASP         0.2037
     18 O          41.9310   11.9210   74.1770 O.2       1 ASP        -0.3944
     19 CB         42.5430   13.9740   71.7090 C.3       1 ASP         0.0406
     20 CG         43.0250   15.4290   71.5430 C.2       1 ASP         0.0393
     21 OD1        42.2250   16.4040   71.4300 O.co2     1 ASP        -0.5688
     22 OD2        44.2680   15.5900   71.4770 O.co2     1 ASP        -0.5688
     23 O          39.3970   11.9080   69.1290 O.2       1 B3L        -0.3968
     24 C          38.8300   10.9170   69.5950 C.2       1 B3L         0.1804
     25 CA         38.8750   10.7140   71.1030 C.3       1 B3L         0.0603
     26 CB         40.3180   11.0290   71.4430 C.3       1 B3L         0.0590
     27 N          40.2930   11.5650   72.7630 N.am      1 B3L        -0.2796
     28 CG         41.1750    9.7790   71.1310 C.3       1 B3L        -0.0254
     29 CD         42.5730    9.5760   71.7650 C.3       1 B3L        -0.0445
     30 CE2        43.2480    8.3530   71.1650 C.3       1 B3L        -0.0626
     31 CE1        43.5630   10.7270   71.5700 C.3       1 B3L        -0.0626
     32 N          38.1940    9.8910   69.0950 N.am      1 HLX        -0.2656
     33 CA         38.0330    9.9750   67.6480 C.3       1 HLX         0.1309
     34 C          36.7210    9.3010   67.3180 C.2       1 HLX         0.2040
     35 O          36.1780    8.4740   68.0600 O.2       1 HLX        -0.3944
     36 CB         39.2090    9.3530   66.8940 C.3       1 HLX        -0.0122
     37 CG         39.4380    7.9290   67.4080 C.3       1 HLX        -0.0465
     38 C7         40.4060    7.1800   66.5120 C.3       1 HLX        -0.0465
     39 C8         40.8270    5.8490   67.1170 C.3       1 HLX        -0.0627
     40 C9         41.6050    8.0670   66.1960 C.3       1 HLX        -0.0627
     41 N          36.1620    9.6870   66.1570 N.am      1 1U8        -0.2633
     42 CA         34.8230    9.2450   65.7380 C.3       1 1U8         0.1259
     43 C          34.8660    8.2040   64.6330 C.2       1 1U8         0.1289
     44 O          33.8780    8.0390   63.8910 O.2       1 1U8        -0.3893
     45 CB         34.0470   10.4900   65.2620 C.3       1 1U8         0.0395
     46 CG         33.6070   11.2610   66.4710 C.2       1 1U8         0.0393
     47 OD1        33.3750   12.4880   66.4300 O.co2     1 1U8        -0.5688
     48 OD2        33.4270   10.6660   67.5530 O.co2     1 1U8        -0.5688
     49 C9         36.0870    7.3540   64.4970 C.3       1 1U8         0.0119
     50 H1         39.3963   17.8606   77.3544 H         1 ACE         0.0467
     51 H2         41.0298   18.6053   77.4154 H         1 ACE         0.0467
     52 H3         40.2700   17.9822   78.9191 H         1 ACE         0.0467
     53 H4         39.2771   15.3527   77.1794 H         1 1MH         0.1884
     54 H5         42.2395   15.0743   76.4349 H         1 1MH         0.0825
     55 H6         42.0176   12.6162   76.3962 H         1 1MH         0.0489
     56 H7         40.2749   12.7467   76.8115 H         1 1MH         0.0489
     57 H8         43.6067   12.4258   78.1089 H         1 1MH         0.0765
     58 H9         42.5711   13.0868   82.1353 H         1 1MH         0.0767
     59 H10        40.3151   13.8650   81.4792 H         1 1MH         0.0693
     60 H11        39.6972   13.9092   79.0732 H         1 1MH         0.0678
     61 H12        42.6769   14.6693   74.2423 H         1 ASP         0.1884
     62 H13        40.4731   14.1829   72.3614 H         1 ASP         0.0819
     63 H14        42.1670   13.6236   70.7365 H         1 ASP         0.0478
     64 H15        43.4035   13.3596   72.0125 H         1 ASP         0.0478
     65 H16        38.6224    9.6774   71.3707 H         1 B3L         0.0525
     66 H17        38.1879   11.4030   71.6160 H         1 B3L         0.0525
     67 H18        40.6816   11.8281   70.7803 H         1 B3L         0.0581
     68 H19        39.5167   11.3736   73.3636 H         1 B3L         0.1856
     69 H20        41.3245    9.7697   70.0413 H         1 B3L         0.0291
     70 H21        40.5715    8.9079   71.4258 H         1 B3L         0.0291
     71 H22        42.4274    9.4228   72.8445 H         1 B3L         0.0296
     72 H23        44.2392    8.2196   71.6230 H         1 B3L         0.0232
     73 H24        43.3613    8.4921   70.0797 H         1 B3L         0.0232
     74 H25        42.6320    7.4624   71.3582 H         1 B3L         0.0232
     75 H26        43.1361   11.6520   71.9847 H         1 B3L         0.0232
     76 H27        43.7600   10.8633   70.4964 H         1 B3L         0.0232
     77 H28        44.5043   10.4929   72.0888 H         1 B3L         0.0232
     78 H29        37.8538    9.1290   69.6460 H         1 HLX         0.1883
     79 H30        37.9716   11.0344   67.3583 H         1 HLX         0.0800
     80 H31        40.1141    9.9551   67.0622 H         1 HLX         0.0312
     81 H32        38.9826    9.3240   65.8180 H         1 HLX         0.0312
     82 H33        38.4771    7.3939   67.4270 H         1 HLX         0.0270
     83 H34        39.8520    7.9756   68.4261 H         1 HLX         0.0270
     84 H35        39.8894    6.9622   65.5656 H         1 HLX         0.0296
     85 H36        41.5264    5.3417   66.4362 H         1 HLX         0.0232
     86 H37        39.9390    5.2175   67.2678 H         1 HLX         0.0232
     87 H38        41.3200    6.0255   68.0843 H         1 HLX         0.0232
     88 H39        41.2552    9.0153   65.7620 H         1 HLX         0.0232
     89 H40        42.2609    7.5545   65.4768 H         1 HLX         0.0232
     90 H41        42.1640    8.2713   67.1211 H         1 HLX         0.0232
     91 H42        36.6766   10.2981   65.5555 H         1 1U8         0.1885
     92 H43        34.3084    8.8059   66.6054 H         1 1U8         0.0810
     93 H44        33.1677   10.1797   64.6784 H         1 1U8         0.0479
     94 H45        34.6988   11.1182   64.6371 H         1 1U8         0.0479
     95 H46        35.9571    6.6577   63.6554 H         1 1U8         0.0459
     96 H47        36.2416    6.7832   65.4245 H         1 1U8         0.0459
     97 H48        36.9612    7.9951   64.3109 H         1 1U8         0.0459
@<TRIPOS>BOND
     1    1    2 2  
     2    1    3 1  
     3    4    1 am 
     4    5    4 1  
     5    6    5 1  
     6    5    8 1  
     7    6    7 2  
     8   15    6 am 
     9    8    9 1  
    10    9   10 ar 
    11    9   14 ar 
    12   10   11 ar 
    13   11   12 ar 
    14   13   12 ar 
    15   14   13 ar 
    16   16   15 1  
    17   17   16 1  
    18   16   19 1  
    19   17   18 2  
    20   27   17 am 
    21   19   20 1  
    22   20   21 ar 
    23   20   22 ar 
    24   24   23 2  
    25   25   24 1  
    26   24   32 am 
    27   26   25 1  
    28   26   27 1  
    29   26   28 1  
    30   28   29 1  
    31   29   30 1  
    32   29   31 1  
    33   32   33 1  
    34   33   34 1  
    35   33   36 1  
    36   34   35 2  
    37   34   41 am 
    38   36   37 1  
    39   37   38 1  
    40   38   39 1  
    41   38   40 1  
    42   41   42 1  
    43   42   43 1  
    44   42   45 1  
    45   43   44 2  
    46   43   49 1  
    47   45   46 1  
    48   46   47 ar 
    49   46   48 ar 
    50    3   50 1  
    51    3   51 1  
    52    3   52 1  
    53    4   53 1  
    54    5   54 1  
    55    8   55 1  
    56    8   56 1  
    57   10   57 1  
    58   12   58 1  
    59   13   59 1  
    60   14   60 1  
    61   15   61 1  
    62   16   62 1  
    63   19   63 1  
    64   19   64 1  
    65   25   65 1  
    66   25   66 1  
    67   26   67 1  
    68   27   68 1  
    69   28   69 1  
    70   28   70 1  
    71   29   71 1  
    72   30   72 1  
    73   30   73 1  
    74   30   74 1  
    75   31   75 1  
    76   31   76 1  
    77   31   77 1  
    78   32   78 1  
    79   33   79 1  
    80   36   80 1  
    81   36   81 1  
    82   37   82 1  
    83   37   83 1  
    84   38   84 1  
    85   39   85 1  
    86   39   86 1  
    87   39   87 1  
    88   40   88 1  
    89   40   89 1  
    90   40   90 1  
    91   41   91 1  
    92   42   92 1  
    93   45   93 1  
    94   45   94 1  
    95   49   95 1  
    96   49   96 1  
    97   49   97 1  
@<TRIPOS>SUBSTRUCTURE
     1 ACE         1

