4jje_ligand
  -I-interpret- 

 99 99  0  0  0  0  0  0  0  0999 V2000
   41.0090   16.4700   77.5930 C   0  0  0  0  0
   42.1160   16.2230   78.0500 O   0  0  0  0  0
   40.3840   17.8210   77.8370 C   0  0  0  0  0
   40.2650   15.4820   77.0940 N   0  0  0  0  0
   41.2390   14.6200   76.3840 C   0  0  0  0  0
   40.7960   14.4500   74.9670 C   0  0  0  0  0
   39.6050   14.4220   74.7030 O   0  0  0  0  0
   41.2670   13.2020   76.9470 C   0  0  0  0  0
   41.6170   13.1820   78.4220 C   0  0  0  0  0
   42.8740   12.7500   78.8390 C   0  0  0  0  0
   43.1770   12.7360   80.1510 N   0  0  0  0  0
   42.2930   13.1180   81.0880 C   0  0  0  0  0
   41.0270   13.5520   80.7240 C   0  0  0  0  0
   40.6840   13.5800   79.3780 C   0  0  0  0  0
   41.7480   14.3540   74.0480 N   0  0  0  0  0
   41.4180   13.7850   72.7600 C   0  0  0  0  0
   41.2970   12.3180   73.1990 C   0  0  0  0  0
   41.9310   11.9210   74.1770 O   0  0  0  0  0
   42.5430   13.9740   71.7090 C   0  0  0  0  0
   43.0250   15.4290   71.5430 C   0  0  0  0  0
   42.2250   16.4040   71.4300 O   0  0  0  0  0
   44.2680   15.5900   71.4770 O   0  0  0  0  0
   39.3970   11.9080   69.1290 O   0  0  0  0  0
   38.8300   10.9170   69.5950 C   0  0  0  0  0
   38.8750   10.7140   71.1030 C   0  0  0  0  0
   40.3180   11.0290   71.4430 C   0  0  0  0  0
   40.2930   11.5650   72.7630 N   0  0  0  0  0
   41.1750    9.7790   71.1310 C   0  0  0  0  0
   42.5730    9.5760   71.7650 C   0  0  0  0  0
   43.2480    8.3530   71.1650 C   0  0  0  0  0
   43.5630   10.7270   71.5700 C   0  0  0  0  0
   38.1940    9.8910   69.0950 N   0  0  0  0  0
   38.0330    9.9750   67.6480 C   0  0  0  0  0
   36.7210    9.3010   67.3180 C   0  0  0  0  0
   36.1780    8.4740   68.0600 O   0  0  0  0  0
   39.2090    9.3530   66.8940 C   0  0  0  0  0
   39.4380    7.9290   67.4080 C   0  0  0  0  0
   40.4060    7.1800   66.5120 C   0  0  0  0  0
   40.8270    5.8490   67.1170 C   0  0  0  0  0
   41.6050    8.0670   66.1960 C   0  0  0  0  0
   36.1620    9.6870   66.1570 N   0  0  0  0  0
   34.8230    9.2450   65.7380 C   0  0  0  0  0
   34.8660    8.2040   64.6330 C   0  0  0  0  0
   33.8780    8.0390   63.8910 O   0  0  0  0  0
   34.0470   10.4900   65.2620 C   0  0  0  0  0
   33.6070   11.2610   66.4710 C   0  0  0  0  0
   33.3750   12.4880   66.4300 O   0  0  0  0  0
   33.4270   10.6660   67.5530 O   0  0  0  0  0
   36.0870    7.3540   64.4970 C   0  0  0  0  0
   40.2716   17.9796   78.9095 H   0  0  0  0  0
   41.0249   18.5972   77.4188 H   0  0  0  0  0
   39.4055   17.8590   77.3583 H   0  0  0  0  0
   39.2573   15.3501   77.1811 H   0  0  0  0  0
   42.2121   15.0999   76.4882 H   0  0  0  0  0
   42.0282   12.6371   76.4089 H   0  0  0  0  0
   40.2742   12.7684   76.8268 H   0  0  0  0  0
   43.6108   12.4240   78.1048 H   0  0  0  0  0
   42.5726   13.0866   82.1411 H   0  0  0  0  0
   40.3112   13.8667   81.4834 H   0  0  0  0  0
   39.6917   13.9111   79.0716 H   0  0  0  0  0
   42.6954   14.6756   74.2462 H   0  0  0  0  0
   40.5503   14.2213   72.2652 H   0  0  0  0  0
   42.1369   13.6608   70.7472 H   0  0  0  0  0
   43.3989   13.3913   72.0496 H   0  0  0  0  0
   41.3223   16.0864   71.5069 H   0  0  0  0  0
   38.5784    9.7093   71.4043 H   0  0  0  0  0
   38.1661   11.3468   71.6370 H   0  0  0  0  0
   40.8148   11.7931   70.8451 H   0  0  0  0  0
   39.5012   11.3698   73.3756 H   0  0  0  0  0
   41.3836    9.8666   70.0647 H   0  0  0  0  0
   40.5860    8.9538   71.5312 H   0  0  0  0  0
   42.3582    9.4861   72.8298 H   0  0  0  0  0
   42.6366    7.4713   71.3571 H   0  0  0  0  0
   43.3596    8.4921   70.0897 H   0  0  0  0  0
   44.2300    8.2219   71.6196 H   0  0  0  0  0
   43.7297   10.8846   70.5044 H   0  0  0  0  0
   43.1544   11.6351   72.0133 H   0  0  0  0  0
   44.5075   10.4781   72.0539 H   0  0  0  0  0
   37.8469    9.1138   69.6571 H   0  0  0  0  0
   38.0199   11.0165   67.3267 H   0  0  0  0  0
   40.1061    9.9502   67.0575 H   0  0  0  0  0
   38.9872    9.3262   65.8271 H   0  0  0  0  0
   38.4847    7.4006   67.4136 H   0  0  0  0  0
   39.8587    7.9819   68.4121 H   0  0  0  0  0
   39.8978    6.9399   65.5781 H   0  0  0  0  0
   41.3153    6.0252   68.0754 H   0  0  0  0  0
   39.9463    5.2243   67.2659 H   0  0  0  0  0
   41.5199    5.3473   66.4415 H   0  0  0  0  0
   41.2642    8.9686   65.6869 H   0  0  0  0  0
   42.1078    8.3401   67.1237 H   0  0  0  0  0
   42.2972    7.5243   65.5522 H   0  0  0  0  0
   36.6869   10.3103   65.5435 H   0  0  0  0  0
   34.3315    8.7684   66.5861 H   0  0  0  0  0
   33.1797   10.1882   64.6748 H   0  0  0  0  0
   34.6857   11.1114   64.6342 H   0  0  0  0  0
   33.5533   12.8169   65.5459 H   0  0  0  0  0
   35.8211    6.3096   64.6600 H   0  0  0  0  0
   36.5012    7.4728   63.4958 H   0  0  0  0  0
   36.8265    7.6616   65.2363 H   0  0  0  0  0
  1  2  2  0  0  0
  1  3  1  0  0  0
  4  1  1  0  0  0
  5  4  1  0  0  0
  6  5  1  0  0  0
  5  8  1  0  0  0
  6  7  2  0  0  0
 15  6  1  0  0  0
  8  9  1  0  0  0
  9 10  4  0  0  0
  9 14  4  0  0  0
 10 11  4  0  0  0
 11 12  4  0  0  0
 13 12  4  0  0  0
 14 13  4  0  0  0
 16 15  1  0  0  0
 17 16  1  0  0  0
 16 19  1  0  0  0
 17 18  2  0  0  0
 27 17  1  0  0  0
 19 20  1  0  0  0
 20 21  1  0  0  0
 20 22  2  0  0  0
 24 23  2  0  0  0
 25 24  1  0  0  0
 24 32  1  0  0  0
 26 25  1  0  0  0
 26 27  1  0  0  0
 26 28  1  0  0  0
 28 29  1  0  0  0
 29 30  1  0  0  0
 29 31  1  0  0  0
 32 33  1  0  0  0
 33 34  1  0  0  0
 33 36  1  0  0  0
 34 35  2  0  0  0
 34 41  1  0  0  0
 36 37  1  0  0  0
 37 38  1  0  0  0
 38 39  1  0  0  0
 38 40  1  0  0  0
 41 42  1  0  0  0
 42 43  1  0  0  0
 42 45  1  0  0  0
 43 44  2  0  0  0
 43 49  1  0  0  0
 45 46  1  0  0  0
 46 47  1  0  0  0
 46 48  2  0  0  0
  3 50  1  0  0  0
  3 51  1  0  0  0
  3 52  1  0  0  0
  4 53  1  0  0  0
  5 54  1  0  0  0
  8 55  1  0  0  0
  8 56  1  0  0  0
 10 57  1  0  0  0
 12 58  1  0  0  0
 13 59  1  0  0  0
 14 60  1  0  0  0
 15 61  1  0  0  0
 16 62  1  0  0  0
 19 63  1  0  0  0
 19 64  1  0  0  0
 21 65  1  0  0  0
 25 66  1  0  0  0
 25 67  1  0  0  0
 26 68  1  0  0  0
 27 69  1  0  0  0
 28 70  1  0  0  0
 28 71  1  0  0  0
 29 72  1  0  0  0
 30 73  1  0  0  0
 30 74  1  0  0  0
 30 75  1  0  0  0
 31 76  1  0  0  0
 31 77  1  0  0  0
 31 78  1  0  0  0
 32 79  1  0  0  0
 33 80  1  0  0  0
 36 81  1  0  0  0
 36 82  1  0  0  0
 37 83  1  0  0  0
 37 84  1  0  0  0
 38 85  1  0  0  0
 39 86  1  0  0  0
 39 87  1  0  0  0
 39 88  1  0  0  0
 40 89  1  0  0  0
 40 90  1  0  0  0
 40 91  1  0  0  0
 41 92  1  0  0  0
 42 93  1  0  0  0
 45 94  1  0  0  0
 45 95  1  0  0  0
 47 96  1  0  0  0
 49 97  1  0  0  0
 49 98  1  0  0  0
 49 99  1  0  0  0
M  END
$$$$
