4zyw_ligand
  -I-interpret- 

 51 53  0  0  0  0  0  0  0  0999 V2000
   11.8600   76.1270  127.3810 N   0  0  0  0  0
   12.8890   76.2540  126.5560 C   0  0  0  0  0
   13.5450   77.4220  126.4110 N   0  0  0  0  0
   13.1960   78.5150  127.1100 C   0  0  0  0  0
   10.4420   77.2680  129.0020 N   0  0  0  0  0
   10.3930   78.5030  129.5020 C   0  0  0  0  0
   11.4150   79.2960  128.9150 C   0  0  0  0  0
   12.0950   78.4210  128.0110 C   0  0  0  0  0
   11.4340   77.1670  128.1250 C   0  0  0  0  0
   13.9370   79.7340  126.9310 O   0  0  0  0  0
   13.3150   75.1550  125.7950 N   0  0  0  0  0
   10.6110   76.3830  134.3050 S   0  0  0  0  0
   11.7390   75.9240  135.5130 C   0  0  0  0  0
   12.9300   76.6320  135.1860 C   0  0  0  0  0
   12.8460   77.4760  134.0220 C   0  0  0  0  0
   11.5740   77.4450  133.3990 C   0  0  0  0  0
   11.7100   74.9860  136.7690 C   0  0  0  0  0
   12.7790   74.9060  137.4090 O   0  0  0  0  0
   10.6390   74.1980  137.3490 N   0  0  0  0  0
    9.2830   74.0150  136.9220 C   0  0  0  0  0
    9.1080   72.5620  136.6630 C   0  0  0  0  0
    8.8400   72.2320  135.2030 C   0  0  0  0  0
   10.0930   72.1040  134.2970 C   0  0  0  0  0
   10.0060   71.4840  133.1700 O   0  0  0  0  0
   11.2340   72.6270  134.6720 O   0  0  0  0  0
    8.3260   74.3990  138.0660 C   0  0  0  0  0
    8.0250   75.6490  138.3060 O   0  0  0  0  0
    7.8200   73.4700  138.7940 O   0  0  0  0  0
    9.3620   78.9810  130.5630 C   0  0  0  0  0
    9.7320   78.4940  132.0080 C   0  0  0  0  0
   11.2300   78.2350  132.1610 C   0  0  0  0  0
   14.3245   77.4776  125.7555 H   0  0  0  0  0
   11.6338   80.3456  129.1113 H   0  0  0  0  0
   12.8327   74.2600  125.8773 H   0  0  0  0  0
   14.1070   75.2510  125.1594 H   0  0  0  0  0
   13.8422   76.5416  135.7757 H   0  0  0  0  0
   13.6779   78.0783  133.6569 H   0  0  0  0  0
   10.8918   73.6924  138.1980 H   0  0  0  0  0
    9.0731   74.6244  136.0430 H   0  0  0  0  0
    8.2434   72.2294  137.2373 H   0  0  0  0  0
   10.0364   72.0655  136.9452 H   0  0  0  0  0
    8.2550   73.0603  134.8031 H   0  0  0  0  0
    8.3526   71.2571  135.1928 H   0  0  0  0  0
   11.1258   73.0482  135.5279 H   0  0  0  0  0
    8.4820   76.2133  137.6780 H   0  0  0  0  0
    8.3889   78.5644  130.3029 H   0  0  0  0  0
    9.3552   80.0710  130.5632 H   0  0  0  0  0
    9.2042   77.5593  132.1974 H   0  0  0  0  0
    9.4482   79.2752  132.7132 H   0  0  0  0  0
   11.5542   77.6536  131.2979 H   0  0  0  0  0
   11.7259   79.2026  132.2386 H   0  0  0  0  0
  1  2  2  0  0  0
  9  1  1  0  0  0
  3  2  1  0  0  0
  2 11  1  0  0  0
  4  3  1  0  0  0
  8  4  1  0  0  0
  4 10  2  0  0  0
  6  5  4  0  0  0
  5  9  4  0  0  0
  6  7  4  0  0  0
 29  6  1  0  0  0
  7  8  4  0  0  0
  8  9  4  0  0  0
 12 13  4  0  0  0
 16 12  4  0  0  0
 14 13  4  0  0  0
 13 17  1  0  0  0
 15 14  4  0  0  0
 16 15  4  0  0  0
 31 16  1  0  0  0
 17 18  2  0  0  0
 17 19  1  0  0  0
 19 20  1  0  0  0
 20 21  1  0  0  0
 20 26  1  0  0  0
 21 22  1  0  0  0
 22 23  1  0  0  0
 23 24  2  0  0  0
 23 25  1  0  0  0
 26 27  1  0  0  0
 26 28  2  0  0  0
 30 29  1  0  0  0
 30 31  1  0  0  0
  3 32  1  0  0  0
  7 33  1  0  0  0
 11 34  1  0  0  0
 11 35  1  0  0  0
 14 36  1  0  0  0
 15 37  1  0  0  0
 19 38  1  0  0  0
 20 39  1  0  0  0
 21 40  1  0  0  0
 21 41  1  0  0  0
 22 42  1  0  0  0
 22 43  1  0  0  0
 25 44  1  0  0  0
 27 45  1  0  0  0
 29 46  1  0  0  0
 29 47  1  0  0  0
 30 48  1  0  0  0
 30 49  1  0  0  0
 31 50  1  0  0  0
 31 51  1  0  0  0
M  END
$$$$
