2yem_ligand
  -I-interpret- 

 53 57  0  0  0  0  0  0  0  0999 V2000
   -9.9170   -7.9800  -19.4890 C   0  0  0  0  0
   -7.1790  -11.0610  -15.3580 C   0  0  0  0  0
   -8.8870   -8.8530  -19.2260 C   0  0  0  0  0
   -9.6850   -6.6200  -19.5140 C   0  0  0  0  0
   -6.5170   -3.9520  -16.0670 C   0  0  0  0  0
   -6.1380  -10.4700  -14.6800 C   0  0  0  0  0
   -7.0110  -11.4760  -16.6580 C   0  0  0  0  0
   -5.5590   -3.0150  -16.3680 C   0  0  0  0  0
   -7.6250   -8.3530  -18.9880 C   0  0  0  0  0
   -8.4230   -6.1250  -19.2780 C   0  0  0  0  0
   -6.6570   -5.0800  -16.8430 C   0  0  0  0  0
   -4.9290  -10.2910  -15.3090 C   0  0  0  0  0
   -5.7950  -11.2970  -17.2740 C   0  0  0  0  0
   -4.7410   -3.1790  -17.4590 C   0  0  0  0  0
   -7.3880   -6.9930  -19.0110 C   0  0  0  0  0
   -5.8290   -5.2700  -17.9470 C   0  0  0  0  0
   -4.7440  -10.7030  -16.6110 C   0  0  0  0  0
   -4.8640   -4.3040  -18.2640 C   0  0  0  0  0
   -3.3280   -5.5550  -19.7750 C   0  0  0  0  0
   -3.5370   -3.4300  -20.2610 C   0  0  0  0  0
   -6.0020   -6.5060  -18.7610 C   0  0  0  0  0
   -2.7010   -9.0820  -19.0490 C   0  0  0  0  0
   -3.6650   -6.8330  -19.0350 C   0  0  0  0  0
   -4.0020   -2.0270  -20.2470 C   0  0  0  0  0
   -3.4290  -10.5110  -17.2970 C   0  0  0  0  0
   -2.4810   -5.2730  -20.7370 N   0  0  0  0  0
   -2.6110   -3.9290  -21.0410 N   0  0  0  0  0
   -5.0610   -7.2110  -19.2660 N   0  0  0  0  0
   -4.0240   -4.4050  -19.4250 N   0  0  0  0  0
   -2.8350   -7.8670  -19.6180 N   0  0  0  0  0
   -2.0180   -9.9840  -19.5170 O   0  0  0  0  0
   -3.3980   -9.1890  -17.9050 O   0  0  0  0  0
  -10.9195   -8.3637  -19.6782 H   0  0  0  0  0
   -8.1400  -11.2007  -14.8630 H   0  0  0  0  0
   -9.0669   -9.9279  -19.2061 H   0  0  0  0  0
  -10.5061   -5.9339  -19.7219 H   0  0  0  0  0
   -7.1707   -3.8013  -15.2079 H   0  0  0  0  0
   -6.2714  -10.1450  -13.6482 H   0  0  0  0  0
   -7.8357  -11.9434  -17.1961 H   0  0  0  0  0
   -5.4470   -2.1341  -15.7359 H   0  0  0  0  0
   -6.8043   -9.0393  -18.7792 H   0  0  0  0  0
   -8.2434   -5.0502  -19.3023 H   0  0  0  0  0
   -7.4144   -5.8233  -16.5942 H   0  0  0  0  0
   -4.1071   -9.8177  -14.7718 H   0  0  0  0  0
   -5.6606  -11.6303  -18.3030 H   0  0  0  0  0
   -3.9920   -2.4229  -17.6941 H   0  0  0  0  0
   -3.5041   -6.7021  -17.9649 H   0  0  0  0  0
   -3.1645   -1.3703  -20.0113 H   0  0  0  0  0
   -4.4032   -1.7688  -21.2270 H   0  0  0  0  0
   -4.7799   -1.9109  -19.4924 H   0  0  0  0  0
   -3.3024  -11.2720  -18.0671 H   0  0  0  0  0
   -2.6204  -10.6002  -16.5716 H   0  0  0  0  0
   -2.3365   -7.6699  -20.4858 H   0  0  0  0  0
  3  1  4  0  0  0
  4  1  4  0  0  0
  6  2  4  0  0  0
  7  2  4  0  0  0
  9  3  4  0  0  0
 10  4  4  0  0  0
  5  8  4  0  0  0
 11  5  4  0  0  0
 12  6  4  0  0  0
 13  7  4  0  0  0
 14  8  4  0  0  0
 15  9  4  0  0  0
 15 10  4  0  0  0
 16 11  4  0  0  0
 17 12  4  0  0  0
 17 13  4  0  0  0
 18 14  4  0  0  0
 21 15  1  0  0  0
 16 18  4  0  0  0
 21 16  1  0  0  0
 25 17  1  0  0  0
 29 18  1  0  0  0
 23 19  1  0  0  0
 19 26  4  0  0  0
 19 29  4  0  0  0
 20 24  1  0  0  0
 20 27  4  0  0  0
 29 20  4  0  0  0
 28 21  2  0  0  0
 22 30  1  0  0  0
 22 31  2  0  0  0
 32 22  1  0  0  0
 23 28  1  0  0  0
 30 23  1  0  0  0
 25 32  1  0  0  0
 26 27  4  0  0  0
  1 33  1  0  0  0
  2 34  1  0  0  0
  3 35  1  0  0  0
  4 36  1  0  0  0
  5 37  1  0  0  0
  6 38  1  0  0  0
  7 39  1  0  0  0
  8 40  1  0  0  0
  9 41  1  0  0  0
 10 42  1  0  0  0
 11 43  1  0  0  0
 12 44  1  0  0  0
 13 45  1  0  0  0
 14 46  1  0  0  0
 23 47  1  0  0  0
 24 48  1  0  0  0
 24 49  1  0  0  0
 24 50  1  0  0  0
 25 51  1  0  0  0
 25 52  1  0  0  0
 30 53  1  0  0  0
M  END
$$$$
