5ytu_ligand
  -I-interpret- 

 18 18  0  0  0  0  0  0  0  0999 V2000
  -75.5740    3.6710   -2.4740 C   0  0  0  0  0
  -75.0880    2.8770   -3.5730 O   0  0  0  0  0
  -75.8470    5.0930   -2.8690 C   0  0  0  0  0
  -77.1520    5.5320   -3.0960 C   0  0  0  0  0
  -74.7880    5.9850   -2.9960 C   0  0  0  0  0
  -75.0250    7.3060   -3.3530 C   0  0  0  0  0
  -76.3220    7.7470   -3.5600 C   0  0  0  0  0
  -76.5630    9.0250   -3.8990 O   0  0  0  0  0
  -77.4000    6.8770   -3.4340 C   0  0  0  0  0
  -78.6740    7.3550   -3.6720 O   0  0  0  0  0
  -74.8071    3.6784   -1.6994 H   0  0  0  0  0
  -76.5104    3.2318   -2.1300 H   0  0  0  0  0
  -74.9287    1.9794   -3.2720 H   0  0  0  0  0
  -77.9828    4.8315   -3.0115 H   0  0  0  0  0
  -73.7680    5.6462   -2.8147 H   0  0  0  0  0
  -74.1898    7.9965   -3.4705 H   0  0  0  0  0
  -77.5086    9.1548   -4.0017 H   0  0  0  0  0
  -78.6291    8.2899   -3.8853 H   0  0  0  0  0
  1  2  1  0  0  0
  1  3  1  0  0  0
  3  4  4  0  0  0
  3  5  4  0  0  0
  4  9  4  0  0  0
  5  6  4  0  0  0
  6  7  4  0  0  0
  7  8  1  0  0  0
  7  9  4  0  0  0
  9 10  1  0  0  0
  1 11  1  0  0  0
  1 12  1  0  0  0
  2 13  1  0  0  0
  4 14  1  0  0  0
  5 15  1  0  0  0
  6 16  1  0  0  0
  8 17  1  0  0  0
 10 18  1  0  0  0
M  END
$$$$
