2xas_ligand
  -I-interpret- 

144152  0  0  0  0  0  0  0  0999 V2000
   -6.7200   67.7450   88.7910 P   0  0  0  0  0
   -5.7870   68.2580   87.6990 O   0  0  0  0  0
   -8.0980   67.1570   88.4750 O   0  0  0  0  0
   -7.0940   69.0460   89.6830 O   0  0  0  0  0
   -6.2210   70.1860   89.7270 C   0  0  0  0  0
   -6.9910   71.4910   89.6210 C   0  0  0  0  0
   -6.0590   72.5390   89.8050 O   0  0  0  0  0
   -7.5610   71.6990   88.2300 C   0  0  0  0  0
   -8.9380   72.1100   88.3420 O   0  0  0  0  0
   -6.6710   72.7700   87.6110 C   0  0  0  0  0
   -7.3590   73.5920   86.6830 O   0  0  0  0  0
   -6.3160   73.5480   88.8360 C   0  0  0  0  0
   -5.1250   74.4050   88.7470 N   0  0  0  0  0
   -3.9360   74.1690   88.1700 C   0  0  0  0  0
   -3.1040   75.2320   88.3960 N   0  0  0  0  0
   -3.8010   76.1330   89.1380 C   0  0  0  0  0
   -3.4810   77.3880   89.6560 C   0  0  0  0  0
   -2.2780   77.9310   89.4290 N   0  0  0  0  0
   -4.3850   78.0780   90.3750 N   0  0  0  0  0
   -5.7520   77.5760   90.6480 C   0  0  0  0  0
   -6.0280   76.2660   90.0670 N   0  0  0  0  0
   -5.0790   75.5960   89.3550 C   0  0  0  0  0
   -8.1500   58.1310   85.8470 N   0  0  0  0  0
   -9.1360   57.1970   85.9990 C   0  0  0  0  0
   -9.4900   56.7590   87.2380 O   0  0  0  0  0
   -9.7920   56.6740   84.9390 N   0  0  0  0  0
   -9.5030   57.0610   83.6840 C   0  0  0  0  0
  -10.1600   56.5420   82.6100 O   0  0  0  0  0
   -8.5180   57.9930   83.4720 C   0  0  0  0  0
   -8.2570   58.3960   82.1580 N   0  0  0  0  0
   -7.5520   59.6110   82.0200 C   0  0  0  0  0
   -7.6260   60.2270   80.7760 C   0  0  0  0  0
   -7.0110   61.4410   80.5400 C   0  0  0  0  0
   -7.0900   62.0580   79.1680 C   0  0  0  0  0
   -6.3180   62.0660   81.5660 C   0  0  0  0  0
   -5.6420   63.3910   81.2940 C   0  0  0  0  0
   -6.2580   61.4480   82.8310 C   0  0  0  0  0
   -6.9020   60.2270   83.0870 C   0  0  0  0  0
   -6.8050   59.5620   84.3560 N   0  0  0  0  0
   -7.8230   58.6010   84.6190 C   0  0  0  0  0
   -6.2870   60.3420   85.5080 C   0  0  0  0  0
   -7.2920   61.1480   86.3060 C   0  0  0  0  0
   -8.0380   61.9560   85.4060 O   0  0  0  0  0
   -6.5520   62.0660   87.2620 C   0  0  0  0  0
   -5.6760   61.2700   88.0480 O   0  0  0  0  0
   -7.4850   62.8250   88.1930 C   0  0  0  0  0
   -8.6310   63.2800   87.4450 O   0  0  0  0  0
   -6.6820   63.9520   88.8800 C   0  0  0  0  0
   -7.4200   64.7090   89.8710 O   0  0  0  0  0
   -6.6010   65.7130   90.8370 P   0  0  0  0  0
   -5.4800   65.0170   91.5800 O   0  0  0  0  0
   -7.6750   66.3650   91.6880 O   0  0  0  0  0
   -5.9010   66.8010   89.8390 O   0  0  0  0  0
   -7.8880   57.2900   81.2760 C   0  0  0  0  0
   -8.4650   57.2550   80.1840 O   0  0  0  0  0
   -6.9230   56.2040   81.7000 C   0  0  0  0  0
   -6.0480   56.6430   82.8560 C   0  0  0  0  0
   -6.0620   55.5310   83.8730 C   0  0  0  0  0
   -7.2660   54.9230   84.2140 C   0  0  0  0  0
   -7.2890   53.8880   85.1450 C   0  0  0  0  0
   -4.8670   55.0950   84.4560 C   0  0  0  0  0
   -4.8890   54.0580   85.3850 C   0  0  0  0  0
   -6.1090   53.4490   85.7530 C   0  0  0  0  0
   -6.1730   52.3650   86.6810 N   0  0  0  0  0
   -5.0730   51.8640   87.2780 C   0  0  0  0  0
   -3.9410   52.3340   87.0870 O   0  0  0  0  0
   -5.2220   50.6760   88.2050 C   0  0  0  0  0
   -3.8020   50.0870   88.3220 C   0  0  0  0  0
   -3.6150   48.6620   88.8070 C   0  0  0  0  0
   -3.1620   47.6860   87.9130 C   0  0  0  0  0
   -2.9640   46.3740   88.3490 C   0  0  0  0  0
   -3.1950   46.0520   89.6850 C   0  0  0  0  0
   -3.6270   47.0280   90.5780 C   0  0  0  0  0
   -3.8370   48.3330   90.1440 C   0  0  0  0  0
   -6.0900   49.6260   87.6710 N   0  0  0  0  0
   -5.9080   48.9310   86.5150 C   0  0  0  0  0
   -6.7380   48.0670   86.2130 O   0  0  0  0  0
   -4.7370   49.1590   85.6100 O   0  0  0  0  0
   -4.6880   48.8700   84.1900 C   0  0  0  0  0
   -5.3230   49.9300   83.2800 C   0  0  0  0  0
   -6.6600   49.7940   82.8540 C   0  0  0  0  0
   -7.2620   50.7450   82.0190 C   0  0  0  0  0
   -6.5090   51.8480   81.6070 C   0  0  0  0  0
   -5.1740   51.9940   82.0160 C   0  0  0  0  0
   -4.5790   51.0410   82.8480 C   0  0  0  0  0
   -8.5272   66.8933   89.2922 H   0  0  0  0  0
   -5.5341   70.1241   88.8829 H   0  0  0  0  0
   -5.6930   70.1764   90.6805 H   0  0  0  0  0
   -7.7983   71.4718   90.3532 H   0  0  0  0  0
   -7.5655   70.8023   87.6103 H   0  0  0  0  0
   -9.4513   71.4010   88.7363 H   0  0  0  0  0
   -5.8353   72.3703   87.0366 H   0  0  0  0  0
   -6.7534   74.2457   86.3258 H   0  0  0  0  0
   -7.1266   74.2444   89.0504 H   0  0  0  0  0
   -3.6743   73.2716   87.6095 H   0  0  0  0  0
   -1.5873   77.4263   88.8735 H   0  0  0  0  0
   -2.0525   78.8492   89.8116 H   0  0  0  0  0
   -6.4851   78.1345   91.2300 H   0  0  0  0  0
  -10.1926   56.1098   87.1580 H   0  0  0  0  0
   -9.8178   56.9377   81.8051 H   0  0  0  0  0
   -8.1798   59.7428   79.9717 H   0  0  0  0  0
   -6.6399   61.3823   78.4407 H   0  0  0  0  0
   -8.1344   62.2303   78.9081 H   0  0  0  0  0
   -6.5526   63.0063   79.1660 H   0  0  0  0  0
   -4.9038   63.2650   80.5020 H   0  0  0  0  0
   -6.3890   64.1215   80.9834 H   0  0  0  0  0
   -5.1477   63.7382   82.2013 H   0  0  0  0  0
   -5.6971   61.9304   83.6315 H   0  0  0  0  0
   -5.5931   61.0687   85.0855 H   0  0  0  0  0
   -5.8777   59.6082   86.2023 H   0  0  0  0  0
   -7.9471   60.4764   86.8610 H   0  0  0  0  0
   -8.6797   62.4730   85.8985 H   0  0  0  0  0
   -6.0145   62.8050   86.6678 H   0  0  0  0  0
   -5.1972   61.8329   88.6608 H   0  0  0  0  0
   -7.8776   62.1919   88.9887 H   0  0  0  0  0
   -9.2229   63.7598   88.0289 H   0  0  0  0  0
   -6.3911   64.6540   88.0986 H   0  0  0  0  0
   -5.8513   63.4757   89.4007 H   0  0  0  0  0
   -8.3301   66.7731   91.1172 H   0  0  0  0  0
   -6.2777   55.9714   80.8529 H   0  0  0  0  0
   -7.5029   55.3386   82.0206 H   0  0  0  0  0
   -6.4249   57.5676   83.2931 H   0  0  0  0  0
   -5.0313   56.8386   82.5151 H   0  0  0  0  0
   -8.1941   55.2580   83.7509 H   0  0  0  0  0
   -8.2367   53.4151   85.4025 H   0  0  0  0  0
   -3.9222   55.5655   84.1839 H   0  0  0  0  0
   -3.9566   53.7133   85.8321 H   0  0  0  0  0
   -7.0816   51.9562   86.8993 H   0  0  0  0  0
   -5.6663   51.0044   89.1446 H   0  0  0  0  0
   -3.3120   50.7006   89.0780 H   0  0  0  0  0
   -3.4225   50.0810   87.3002 H   0  0  0  0  0
   -2.9632   47.9499   86.8743 H   0  0  0  0  0
   -2.6312   45.6074   87.6493 H   0  0  0  0  0
   -3.0366   45.0310   90.0322 H   0  0  0  0  0
   -3.8016   46.7688   91.6222 H   0  0  0  0  0
   -4.1738   49.0955   90.8463 H   0  0  0  0  0
   -6.9159   49.3909   88.2214 H   0  0  0  0  0
   -5.2547   47.9511   84.0398 H   0  0  0  0  0
   -3.6334   48.8187   83.9191 H   0  0  0  0  0
   -7.2383   48.9300   83.1813 H   0  0  0  0  0
   -8.2967   50.6268   81.6973 H   0  0  0  0  0
   -6.9622   52.6013   80.9626 H   0  0  0  0  0
   -4.5972   52.8566   81.6825 H   0  0  0  0  0
   -3.5415   51.1594   83.1605 H   0  0  0  0  0
  1  2  2  0  0  0
  1  3  1  0  0  0
  1  4  1  0  0  0
 53  1  1  0  0  0
  4  5  1  0  0  0
  5  6  1  0  0  0
  6  7  1  0  0  0
  6  8  1  0  0  0
  7 12  1  0  0  0
  8  9  1  0  0  0
  8 10  1  0  0  0
 10 11  1  0  0  0
 10 12  1  0  0  0
 12 13  1  0  0  0
 13 14  4  0  0  0
 13 22  4  0  0  0
 14 15  4  0  0  0
 16 15  4  0  0  0
 16 17  4  0  0  0
 22 16  4  0  0  0
 17 18  1  0  0  0
 17 19  4  0  0  0
 20 19  4  0  0  0
 21 20  4  0  0  0
 22 21  4  0  0  0
 23 24  4  0  0  0
 40 23  4  0  0  0
 24 25  1  0  0  0
 24 26  4  0  0  0
 27 26  4  0  0  0
 27 28  1  0  0  0
 29 27  4  0  0  0
 29 30  1  0  0  0
 40 29  4  0  0  0
 31 30  1  0  0  0
 30 54  1  0  0  0
 31 32  4  0  0  0
 38 31  4  0  0  0
 32 33  4  0  0  0
 33 34  1  0  0  0
 35 33  4  0  0  0
 35 36  1  0  0  0
 37 35  4  0  0  0
 38 37  4  0  0  0
 39 38  1  0  0  0
 39 40  1  0  0  0
 41 39  1  0  0  0
 42 41  1  0  0  0
 42 43  1  0  0  0
 44 42  1  0  0  0
 44 45  1  0  0  0
 46 44  1  0  0  0
 46 47  1  0  0  0
 48 46  1  0  0  0
 49 48  1  0  0  0
 50 49  1  0  0  0
 50 51  2  0  0  0
 50 52  1  0  0  0
 50 53  1  0  0  0
 54 55  2  0  0  0
 54 56  1  0  0  0
 56 57  1  0  0  0
 57 58  1  0  0  0
 58 59  4  0  0  0
 58 61  4  0  0  0
 59 60  4  0  0  0
 60 63  4  0  0  0
 61 62  4  0  0  0
 62 63  4  0  0  0
 63 64  1  0  0  0
 64 65  1  0  0  0
 65 66  2  0  0  0
 65 67  1  0  0  0
 67 68  1  0  0  0
 67 75  1  0  0  0
 68 69  1  0  0  0
 69 70  4  0  0  0
 69 74  4  0  0  0
 70 71  4  0  0  0
 71 72  4  0  0  0
 72 73  4  0  0  0
 73 74  4  0  0  0
 75 76  1  0  0  0
 76 77  2  0  0  0
 76 78  1  0  0  0
 78 79  1  0  0  0
 79 80  1  0  0  0
 80 81  4  0  0  0
 80 85  4  0  0  0
 81 82  4  0  0  0
 82 83  4  0  0  0
 83 84  4  0  0  0
 84 85  4  0  0  0
  3 86  1  0  0  0
  5 87  1  0  0  0
  5 88  1  0  0  0
  6 89  1  0  0  0
  8 90  1  0  0  0
  9 91  1  0  0  0
 10 92  1  0  0  0
 11 93  1  0  0  0
 12 94  1  0  0  0
 14 95  1  0  0  0
 18 96  1  0  0  0
 18 97  1  0  0  0
 20 98  1  0  0  0
 25 99  1  0  0  0
 28100  1  0  0  0
 32101  1  0  0  0
 34102  1  0  0  0
 34103  1  0  0  0
 34104  1  0  0  0
 36105  1  0  0  0
 36106  1  0  0  0
 36107  1  0  0  0
 37108  1  0  0  0
 41109  1  0  0  0
 41110  1  0  0  0
 42111  1  0  0  0
 43112  1  0  0  0
 44113  1  0  0  0
 45114  1  0  0  0
 46115  1  0  0  0
 47116  1  0  0  0
 48117  1  0  0  0
 48118  1  0  0  0
 52119  1  0  0  0
 56120  1  0  0  0
 56121  1  0  0  0
 57122  1  0  0  0
 57123  1  0  0  0
 59124  1  0  0  0
 60125  1  0  0  0
 61126  1  0  0  0
 62127  1  0  0  0
 64128  1  0  0  0
 67129  1  0  0  0
 68130  1  0  0  0
 68131  1  0  0  0
 70132  1  0  0  0
 71133  1  0  0  0
 72134  1  0  0  0
 73135  1  0  0  0
 74136  1  0  0  0
 75137  1  0  0  0
 79138  1  0  0  0
 79139  1  0  0  0
 81140  1  0  0  0
 82141  1  0  0  0
 83142  1  0  0  0
 84143  1  0  0  0
 85144  1  0  0  0
M  END
$$$$
