### 
### Created by X-TOOL on Sun Sep  9 21:51:17 2018
### 

@<TRIPOS>MOLECULE
2xas_ligand
  142   150     1     0     0
SMALL
GAST_HUCK


@<TRIPOS>ATOM
      1 PA         -6.7200   67.7450   88.7910 P.3       1 NON         0.2972
      2 O1A        -5.7870   68.2580   87.6990 O.co2     1 NON        -0.6127
      3 O2A        -8.0980   67.1570   88.4750 O.co2     1 NON        -0.6127
      4 O5B        -7.0940   69.0460   89.6830 O.3       1 NON        -0.2476
      5 C5B        -6.2210   70.1860   89.7270 C.3       1 NON         0.1128
      6 C4B        -6.9910   71.4910   89.6210 C.3       1 NON         0.1189
      7 O4B        -6.0590   72.5390   89.8050 O.3       1 NON        -0.3364
      8 C3B        -7.5610   71.6990   88.2300 C.3       1 NON         0.1149
      9 O3B        -8.9380   72.1100   88.3420 O.3       1 NON        -0.3864
     10 C2B        -6.6710   72.7700   87.6110 C.3       1 NON         0.1385
     11 O2B        -7.3590   73.5920   86.6830 O.3       1 NON        -0.3836
     12 C1B        -6.3160   73.5480   88.8360 C.3       1 NON         0.2010
     13 N9A        -5.1250   74.4050   88.7470 N.pl3     1 NON        -0.1919
     14 C8A        -3.9360   74.1690   88.1700 C.2       1 NON         0.1123
     15 N7A        -3.1040   75.2320   88.3960 N.2       1 NON        -0.2958
     16 C5A        -3.8010   76.1330   89.1380 C.ar      1 NON         0.1045
     17 C6A        -3.4810   77.3880   89.6560 C.ar      1 NON         0.1298
     18 N6A        -2.2780   77.9310   89.4290 N.pl3     1 NON        -0.3152
     19 N1A        -4.3850   78.0780   90.3750 N.ar      1 NON        -0.2698
     20 C2A        -5.7520   77.5760   90.6480 C.ar      1 NON         0.0533
     21 N3A        -6.0280   76.2660   90.0670 N.ar      1 NON        -0.2714
     22 C4A        -5.0790   75.5960   89.3550 C.ar      1 NON         0.1613
     23 N1         -8.1500   58.1310   85.8470 N.ar      1 NON        -0.2533
     24 C2         -9.1360   57.1970   85.9990 C.ar      1 NON         0.2008
     25 O2         -9.4900   56.7590   87.2380 O.3       1 NON        -0.3076
     26 N3         -9.7920   56.6740   84.9390 N.ar      1 NON        -0.2521
     27 C4         -9.5030   57.0610   83.6840 C.ar      1 NON         0.1800
     28 O4        -10.1600   56.5420   82.6100 O.3       1 NON        -0.3216
     29 C4X        -8.5180   57.9930   83.4720 C.ar      1 NON         0.1797
     30 N5         -8.2570   58.3960   82.1580 N.am      1 NON        -0.1791
     31 C5X        -7.5520   59.6110   82.0200 C.ar      1 NON         0.1011
     32 C6         -7.6260   60.2270   80.7760 C.ar      1 NON        -0.0499
     33 C7         -7.0110   61.4410   80.5400 C.ar      1 NON        -0.0681
     34 C7M        -7.0900   62.0580   79.1680 C.3       1 NON        -0.0422
     35 C8         -6.3180   62.0660   81.5660 C.ar      1 NON        -0.0682
     36 C8M        -5.6420   63.3910   81.2940 C.3       1 NON        -0.0429
     37 C9         -6.2580   61.4480   82.8310 C.ar      1 NON        -0.0540
     38 C9A        -6.9020   60.2270   83.0870 C.ar      1 NON         0.0805
     39 N10        -6.8050   59.5620   84.3560 N.pl3     1 NON        -0.2521
     40 C10        -7.8230   58.6010   84.6190 C.ar      1 NON         0.1569
     41 C1'        -6.2870   60.3420   85.5080 C.3       1 NON         0.0721
     42 C2'        -7.2920   61.1480   86.3060 C.3       1 NON         0.1067
     43 O2'        -8.0380   61.9560   85.4060 O.3       1 NON        -0.3868
     44 C3'        -6.5520   62.0660   87.2620 C.3       1 NON         0.1115
     45 O3'        -5.6760   61.2700   88.0480 O.3       1 NON        -0.3865
     46 C4'        -7.4850   62.8250   88.1930 C.3       1 NON         0.1118
     47 O4'        -8.6310   63.2800   87.4450 O.3       1 NON        -0.3865
     48 C5'        -6.6820   63.9520   88.8800 C.3       1 NON         0.1124
     49 O5'        -7.4200   64.7090   89.8710 O.3       1 NON        -0.2477
     50 P          -6.6010   65.7130   90.8370 P.3       1 NON         0.2972
     51 O1P        -5.4800   65.0170   91.5800 O.co2     1 NON        -0.6127
     52 O2P        -7.6750   66.3650   91.6880 O.co2     1 NON        -0.6127
     53 O3P        -5.9010   66.8010   89.8390 O.3       1 NON        -0.1319
     54 C1B        -7.8880   57.2900   81.2760 C.2       1 NON         0.2211
     55 O1B        -8.4650   57.2550   80.1840 O.2       1 NON        -0.3800
     56 C2B        -6.9230   56.2040   81.7000 C.3       1 NON         0.0539
     57 C3B        -6.0480   56.6430   82.8560 C.3       1 NON        -0.0085
     58 CB1        -6.0620   55.5310   83.8730 C.ar      1 NON        -0.0553
     59 CB6        -7.2660   54.9230   84.2140 C.ar      1 NON        -0.0731
     60 CB5        -7.2890   53.8880   85.1450 C.ar      1 NON        -0.0473
     61 CB2        -4.8670   55.0950   84.4560 C.ar      1 NON        -0.0731
     62 CB3        -4.8890   54.0580   85.3850 C.ar      1 NON        -0.0473
     63 CB4        -6.1090   53.4490   85.7530 C.ar      1 NON         0.0597
     64 NB4        -6.1730   52.3650   86.6810 N.am      1 NON        -0.2357
     65 C4B        -5.0730   51.8640   87.2780 C.2       1 NON         0.2295
     66 O4B        -3.9410   52.3340   87.0870 O.2       1 NON        -0.3830
     67 CW         -5.2220   50.6760   88.2050 C.3       1 NON         0.1476
     68 CW1        -3.8020   50.0870   88.3220 C.3       1 NON         0.0218
     69 CW2        -3.6150   48.6620   88.8070 C.ar      1 NON        -0.0385
     70 CW3        -3.1620   47.6860   87.9130 C.ar      1 NON        -0.0601
     71 CW4        -2.9640   46.3740   88.3490 C.ar      1 NON        -0.0686
     72 CW5        -3.1950   46.0520   89.6850 C.ar      1 NON        -0.0687
     73 CW6        -3.6270   47.0280   90.5780 C.ar      1 NON        -0.0686
     74 CW7        -3.8370   48.3330   90.1440 C.ar      1 NON        -0.0601
     75 NW         -6.0900   49.6260   87.6710 N.am      1 NON        -0.2388
     76 CY         -5.9080   48.9310   86.5150 C.2       1 NON         0.3241
     77 OY1        -6.7380   48.0670   86.2130 O.2       1 NON        -0.3773
     78 OY2        -4.7370   49.1590   85.6100 O.3       1 NON        -0.2505
     79 CZ         -4.6880   48.8700   84.1900 C.3       1 NON         0.1113
     80 CZ1        -5.3230   49.9300   83.2800 C.ar      1 NON        -0.0130
     81 CZ2        -6.6600   49.7940   82.8540 C.ar      1 NON        -0.0578
     82 CZ3        -7.2620   50.7450   82.0190 C.ar      1 NON        -0.0685
     83 CZ4        -6.5090   51.8480   81.6070 C.ar      1 NON        -0.0687
     84 CZ5        -5.1740   51.9940   82.0160 C.ar      1 NON        -0.0685
     85 CZ6        -4.5790   51.0410   82.8480 C.ar      1 NON        -0.0578
     86 H          -5.5341   70.1241   88.8829 H         1 NON         0.0648
     87 H          -5.6930   70.1764   90.6805 H         1 NON         0.0648
     88 H          -7.7983   71.4718   90.3532 H         1 NON         0.0651
     89 H          -7.5655   70.8023   87.6103 H         1 NON         0.0648
     90 H          -8.9865   72.9306   88.8378 H         1 NON         0.2100
     91 H          -5.8353   72.3703   87.0366 H         1 NON         0.0676
     92 H          -8.0851   74.0359   87.1273 H         1 NON         0.2101
     93 H          -7.1266   74.2444   89.0504 H         1 NON         0.0996
     94 H          -3.6743   73.2716   87.6095 H         1 NON         0.1349
     95 H          -1.5873   77.4263   88.8735 H         1 NON         0.1820
     96 H          -2.0525   78.8492   89.8116 H         1 NON         0.1820
     97 H          -6.4851   78.1345   91.2300 H         1 NON         0.0996
     98 H         -10.1926   56.1097   87.1580 H         1 NON         0.2554
     99 H          -9.8178   56.9377   81.8051 H         1 NON         0.2505
    100 H          -8.1798   59.7428   79.9717 H         1 NON         0.0394
    101 H          -6.6399   61.3823   78.4407 H         1 NON         0.0353
    102 H          -8.1344   62.2303   78.9081 H         1 NON         0.0353
    103 H          -6.5526   63.0063   79.1660 H         1 NON         0.0353
    104 H          -6.0533   64.1505   81.9589 H         1 NON         0.0349
    105 H          -4.5707   63.2938   81.4700 H         1 NON         0.0349
    106 H          -5.8164   63.6805   80.2577 H         1 NON         0.0349
    107 H          -5.6971   61.9304   83.6315 H         1 NON         0.0408
    108 H          -5.5931   61.0687   85.0855 H         1 NON         0.0587
    109 H          -5.8777   59.6082   86.2023 H         1 NON         0.0587
    110 H          -7.9471   60.4764   86.8610 H         1 NON         0.0643
    111 H          -8.6797   62.4730   85.8985 H         1 NON         0.2100
    112 H          -6.0145   62.8050   86.6678 H         1 NON         0.0647
    113 H          -6.1875   60.6228   88.5390 H         1 NON         0.2100
    114 H          -7.8776   62.1919   88.9887 H         1 NON         0.0647
    115 H          -9.0902   62.5233   87.0734 H         1 NON         0.2100
    116 H          -6.3911   64.6540   88.0986 H         1 NON         0.0647
    117 H          -5.8513   63.4757   89.4007 H         1 NON         0.0647
    118 H          -6.2777   55.9714   80.8529 H         1 NON         0.0528
    119 H          -7.5029   55.3386   82.0206 H         1 NON         0.0528
    120 H          -6.4249   57.5676   83.2931 H         1 NON         0.0423
    121 H          -5.0313   56.8386   82.5151 H         1 NON         0.0423
    122 H          -8.1941   55.2580   83.7509 H         1 NON         0.0520
    123 H          -8.2367   53.4151   85.4025 H         1 NON         0.0487
    124 H          -3.9222   55.5655   84.1839 H         1 NON         0.0520
    125 H          -3.9566   53.7133   85.8321 H         1 NON         0.0487
    126 H          -7.0816   51.9562   86.8993 H         1 NON         0.2235
    127 H          -5.6663   51.0044   89.1446 H         1 NON         0.0828
    128 H          -3.3120   50.7006   89.0780 H         1 NON         0.0474
    129 H          -3.4225   50.0810   87.3002 H         1 NON         0.0474
    130 H          -2.9632   47.9499   86.8743 H         1 NON         0.0557
    131 H          -2.6312   45.6074   87.6493 H         1 NON         0.0599
    132 H          -3.0366   45.0310   90.0322 H         1 NON         0.0559
    133 H          -3.8016   46.7688   91.6222 H         1 NON         0.0599
    134 H          -4.1738   49.0955   90.8463 H         1 NON         0.0557
    135 H          -6.9159   49.3909   88.2214 H         1 NON         0.1901
    136 H          -5.2547   47.9511   84.0398 H         1 NON         0.0776
    137 H          -3.6334   48.8187   83.9191 H         1 NON         0.0776
    138 H          -7.2383   48.9300   83.1813 H         1 NON         0.0557
    139 H          -8.2967   50.6268   81.6973 H         1 NON         0.0599
    140 H          -6.9622   52.6013   80.9626 H         1 NON         0.0559
    141 H          -4.5972   52.8566   81.6825 H         1 NON         0.0599
    142 H          -3.5415   51.1594   83.1605 H         1 NON         0.0557
@<TRIPOS>BOND
     1    1    2 ar 
     2    1    3 ar 
     3    1    4 1  
     4   53    1 1  
     5    4    5 1  
     6    5    6 1  
     7    6    7 1  
     8    6    8 1  
     9    7   12 1  
    10    8    9 1  
    11    8   10 1  
    12   10   11 1  
    13   10   12 1  
    14   12   13 1  
    15   13   14 1  
    16   13   22 1  
    17   14   15 2  
    18   16   15 1  
    19   16   17 ar 
    20   22   16 ar 
    21   17   18 1  
    22   17   19 ar 
    23   20   19 ar 
    24   21   20 ar 
    25   22   21 ar 
    26   23   24 ar 
    27   40   23 ar 
    28   24   25 1  
    29   24   26 ar 
    30   27   26 ar 
    31   27   28 1  
    32   29   27 ar 
    33   29   30 1  
    34   40   29 ar 
    35   31   30 1  
    36   30   54 am 
    37   31   32 ar 
    38   38   31 ar 
    39   32   33 ar 
    40   33   34 1  
    41   35   33 ar 
    42   35   36 1  
    43   37   35 ar 
    44   38   37 ar 
    45   39   38 1  
    46   39   40 1  
    47   41   39 1  
    48   42   41 1  
    49   42   43 1  
    50   44   42 1  
    51   44   45 1  
    52   46   44 1  
    53   46   47 1  
    54   48   46 1  
    55   49   48 1  
    56   50   49 1  
    57   50   51 ar 
    58   50   52 ar 
    59   50   53 1  
    60   54   55 2  
    61   54   56 1  
    62   56   57 1  
    63   57   58 1  
    64   58   59 ar 
    65   58   61 ar 
    66   59   60 ar 
    67   60   63 ar 
    68   61   62 ar 
    69   62   63 ar 
    70   63   64 1  
    71   64   65 am 
    72   65   66 2  
    73   65   67 1  
    74   67   68 1  
    75   67   75 1  
    76   68   69 1  
    77   69   70 ar 
    78   69   74 ar 
    79   70   71 ar 
    80   71   72 ar 
    81   72   73 ar 
    82   73   74 ar 
    83   75   76 am 
    84   76   77 2  
    85   76   78 1  
    86   78   79 1  
    87   79   80 1  
    88   80   81 ar 
    89   80   85 ar 
    90   81   82 ar 
    91   82   83 ar 
    92   83   84 ar 
    93   84   85 ar 
    94    5   86 1  
    95    5   87 1  
    96    6   88 1  
    97    8   89 1  
    98    9   90 1  
    99   10   91 1  
   100   11   92 1  
   101   12   93 1  
   102   14   94 1  
   103   18   95 1  
   104   18   96 1  
   105   20   97 1  
   106   25   98 1  
   107   28   99 1  
   108   32  100 1  
   109   34  101 1  
   110   34  102 1  
   111   34  103 1  
   112   36  104 1  
   113   36  105 1  
   114   36  106 1  
   115   37  107 1  
   116   41  108 1  
   117   41  109 1  
   118   42  110 1  
   119   43  111 1  
   120   44  112 1  
   121   45  113 1  
   122   46  114 1  
   123   47  115 1  
   124   48  116 1  
   125   48  117 1  
   126   56  118 1  
   127   56  119 1  
   128   57  120 1  
   129   57  121 1  
   130   59  122 1  
   131   60  123 1  
   132   61  124 1  
   133   62  125 1  
   134   64  126 1  
   135   67  127 1  
   136   68  128 1  
   137   68  129 1  
   138   70  130 1  
   139   71  131 1  
   140   72  132 1  
   141   73  133 1  
   142   74  134 1  
   143   75  135 1  
   144   79  136 1  
   145   79  137 1  
   146   81  138 1  
   147   82  139 1  
   148   83  140 1  
   149   84  141 1  
   150   85  142 1  
@<TRIPOS>SUBSTRUCTURE
     1 NON         1

