5ty1_ligand
  -I-interpret- 

 28 29  0  0  0  0  0  0  0  0999 V2000
   -3.0010    3.8800   14.7300 C   0  0  0  0  0
   -3.0520    5.1110   14.1540 C   0  0  0  0  0
   -5.4030    5.0420   14.4990 C   0  0  0  0  0
   -4.1000    3.1960   15.1920 C   0  0  0  0  0
   -4.3010    5.7200   14.0640 C   0  0  0  0  0
   -5.3540    3.7990   15.0450 C   0  0  0  0  0
   -4.6530    0.7530   14.9960 C   0  0  0  0  0
   -5.4840    0.7380   17.0100 C   0  0  0  0  0
   -3.9260    1.8180   15.7690 C   0  0  0  0  0
   -3.4070    7.6000   12.9310 C   0  0  0  0  0
   -7.0180    3.6750   16.6960 C   0  0  0  0  0
   -5.5360    0.1190   15.8020 N   0  0  0  0  0
   -4.4610    0.5320   13.7890 O   0  0  0  0  0
   -6.1680    0.4980   17.9970 O   0  0  0  0  0
   -4.4940    1.6770   17.0800 O   0  0  0  0  0
   -4.5570    6.9680   13.4750 O   0  0  0  0  0
   -6.4640    3.0970   15.4710 O   0  0  0  0  0
   -2.0252    3.4050   14.8319 H   0  0  0  0  0
   -2.1532    5.6002   13.7787 H   0  0  0  0  0
   -6.3757    5.5244   14.4030 H   0  0  0  0  0
   -2.8427    1.6986   15.7523 H   0  0  0  0  0
   -2.6748    7.7622   13.7220 H   0  0  0  0  0
   -2.9749    6.9631   12.1592 H   0  0  0  0  0
   -3.6920    8.5579   12.4959 H   0  0  0  0  0
   -6.2644    3.6460   17.4830 H   0  0  0  0  0
   -7.3101    4.7083   16.5089 H   0  0  0  0  0
   -7.8906    3.0997   17.0053 H   0  0  0  0  0
   -6.1278   -0.6728   15.5504 H   0  0  0  0  0
  1  2  4  0  0  0
  1  4  4  0  0  0
  2  5  4  0  0  0
  5  3  4  0  0  0
  3  6  4  0  0  0
  4  6  4  0  0  0
  4  9  1  0  0  0
  5 16  1  0  0  0
  6 17  1  0  0  0
  9  7  1  0  0  0
  7 12  1  0  0  0
  7 13  2  0  0  0
 12  8  1  0  0  0
  8 14  2  0  0  0
  8 15  1  0  0  0
  9 15  1  0  0  0
 16 10  1  0  0  0
 17 11  1  0  0  0
  1 18  1  0  0  0
  2 19  1  0  0  0
  3 20  1  0  0  0
  9 21  1  0  0  0
 10 22  1  0  0  0
 10 23  1  0  0  0
 10 24  1  0  0  0
 11 25  1  0  0  0
 11 26  1  0  0  0
 11 27  1  0  0  0
 12 28  1  0  0  0
M  END
$$$$
