### 
### Created by X-TOOL on Mon Aug  2 16:15:14 2021
### 

@<TRIPOS>MOLECULE
6n83_ligand
   47    50     1     0     0
SMALL
GAST_HUCK


@<TRIPOS>ATOM
      1 CAP         2.6600   76.7980   28.4170 C.ar      1 YL6        -0.0453
      2 CAQ         1.9960   78.0180   28.5750 C.ar      1 YL6         0.0422
      3 CL          0.2970   78.0440   29.1420 Cl        1 YL6        -0.0768
      4 CAR         2.6470   79.2250   28.3330 C.ar      1 YL6        -0.0310
      5 CAW         2.0000   80.4530   28.4900 C.3       1 YL6        -0.0300
      6 CAS         3.9510   79.2170   27.9200 C.ar      1 YL6        -0.0587
      7 CAT         4.6120   78.0200   27.7710 C.ar      1 YL6        -0.0591
      8 CAO         3.9880   76.7940   27.9830 C.ar      1 YL6        -0.0122
      9 CAM         4.7370   75.6870   27.7980 C.2       1 YL6         0.0373
     10 SAN         6.3620   75.7770   27.2390 S.3       1 YL6        -0.0140
     11 CAL         4.4150   74.3910   28.0100 C.2       1 YL6        -0.0456
     12 C5          5.4290   73.4980   27.7430 C.ar      1 YL6         0.0469
     13 C6          6.6090   74.0910   27.3170 C.ar      1 YL6         0.1085
     14 N1          7.7370   73.3850   27.0170 N.ar      1 YL6        -0.2773
     15 C2          7.7250   71.9750   27.1250 C.ar      1 YL6         0.0586
     16 N3          6.5280   71.3730   27.5700 N.ar      1 YL6        -0.2639
     17 C4          5.4330   72.1430   27.8550 C.ar      1 YL6         0.1295
     18 NAB         4.3190   71.5540   28.2790 N.pl3     1 YL6        -0.2805
     19 CAC         4.3480   70.1310   28.7110 C.3       1 YL6         0.1217
     20 PAA         3.2610   69.2290   27.6210 P.3       1 YL6         0.0872
     21 OAD         3.7080   69.8330   26.1210 O.co2     1 YL6        -0.5606
     22 OAU         1.6890   69.7150   28.0520 O.co2     1 YL6        -0.5606
     23 OAE         3.5270   67.7820   27.7450 O.co2     1 YL6        -0.5606
     24 CAV         3.9240   69.9270   30.1820 C.3       1 YL6         0.0193
     25 CAX         4.8370   70.6110   30.9870 C.ar      1 YL6        -0.0413
     26 CAY         4.3480   71.4880   31.9480 C.ar      1 YL6        -0.0269
     27 CAZ         5.2240   72.2040   32.7620 C.ar      1 YL6         0.1258
     28 FBD         4.6840   73.0550   33.7080 F         1 YL6        -0.1853
     29 CBA         6.6100   72.0590   32.6300 C.ar      1 YL6        -0.0352
     30 CBB         7.0990   71.1970   31.6380 C.ar      1 YL6        -0.0704
     31 CBC         6.2240   70.4690   30.8220 C.ar      1 YL6        -0.0642
     32 H1          2.1500   75.8652   28.6289 H         1 YL6         0.0612
     33 H2          2.6972   81.2684   28.2472 H         1 YL6         0.0397
     34 H3          1.6609   80.5583   29.5311 H         1 YL6         0.0397
     35 H4          1.1325   80.4993   27.8153 H         1 YL6         0.0397
     36 H5          4.4614   80.1502   27.7110 H         1 YL6         0.0561
     37 H6          5.6556   78.0319   27.4782 H         1 YL6         0.0608
     38 H7          3.4334   74.0786   28.3633 H         1 YL6         0.0448
     39 H8          8.5976   71.3817   26.8767 H         1 YL6         0.1012
     40 H9          3.4358   72.0832   28.3083 H         1 YL6         0.1885
     41 H10         5.3736   69.7501   28.5971 H         1 YL6         0.0781
     42 H11         3.9358   68.8554   30.4299 H         1 YL6         0.0463
     43 H12         2.9121   70.3286   30.3391 H         1 YL6         0.0463
     44 H13         3.2780   71.6160   32.0652 H         1 YL6         0.0542
     45 H14         7.2890   72.6001   33.2791 H         1 YL6         0.0546
     46 H15         8.1692   71.0926   31.5008 H         1 YL6         0.0589
     47 H16         6.6161   69.7985   30.0659 H         1 YL6         0.0523
@<TRIPOS>BOND
     1    1    2 ar 
     2    1    8 ar 
     3    2    3 1  
     4    2    4 ar 
     5    4    5 1  
     6    4    6 ar 
     7    6    7 ar 
     8    7    8 ar 
     9    8    9 1  
    10    9   10 1  
    11    9   11 2  
    12   10   13 1  
    13   11   12 1  
    14   12   13 ar 
    15   12   17 ar 
    16   13   14 ar 
    17   14   15 ar 
    18   15   16 ar 
    19   16   17 ar 
    20   17   18 1  
    21   18   19 1  
    22   19   20 1  
    23   19   24 1  
    24   20   21 ar 
    25   20   22 ar 
    26   20   23 ar 
    27   24   25 1  
    28   25   26 ar 
    29   25   31 ar 
    30   26   27 ar 
    31   27   28 1  
    32   27   29 ar 
    33   29   30 ar 
    34   30   31 ar 
    35    1   32 1  
    36    5   33 1  
    37    5   34 1  
    38    5   35 1  
    39    6   36 1  
    40    7   37 1  
    41   11   38 1  
    42   15   39 1  
    43   18   40 1  
    44   19   41 1  
    45   24   42 1  
    46   24   43 1  
    47   26   44 1  
    48   29   45 1  
    49   30   46 1  
    50   31   47 1  
@<TRIPOS>SUBSTRUCTURE
     1 YL6         1

