6n83_ligand
  -I-interpret- 

 49 52  0  0  0  0  0  0  0  0999 V2000
    2.6600   76.7980   28.4170 C   0  0  0  0  0
    1.9960   78.0180   28.5750 C   0  0  0  0  0
    0.2970   78.0440   29.1420 Cl  0  0  0  0  0
    2.6470   79.2250   28.3330 C   0  0  0  0  0
    2.0000   80.4530   28.4900 C   0  0  0  0  0
    3.9510   79.2170   27.9200 C   0  0  0  0  0
    4.6120   78.0200   27.7710 C   0  0  0  0  0
    3.9880   76.7940   27.9830 C   0  0  0  0  0
    4.7370   75.6870   27.7980 C   0  0  0  0  0
    6.3620   75.7770   27.2390 S   0  0  0  0  0
    4.4150   74.3910   28.0100 C   0  0  0  0  0
    5.4290   73.4980   27.7430 C   0  0  0  0  0
    6.6090   74.0910   27.3170 C   0  0  0  0  0
    7.7370   73.3850   27.0170 N   0  0  0  0  0
    7.7250   71.9750   27.1250 C   0  0  0  0  0
    6.5280   71.3730   27.5700 N   0  0  0  0  0
    5.4330   72.1430   27.8550 C   0  0  0  0  0
    4.3190   71.5540   28.2790 N   0  0  0  0  0
    4.3480   70.1310   28.7110 C   0  0  0  0  0
    3.2610   69.2290   27.6210 P   0  0  0  0  0
    3.7080   69.8330   26.1210 O   0  0  0  0  0
    1.6890   69.7150   28.0520 O   0  0  0  0  0
    3.5270   67.7820   27.7450 O   0  0  0  0  0
    3.9240   69.9270   30.1820 C   0  0  0  0  0
    4.8370   70.6110   30.9870 C   0  0  0  0  0
    4.3480   71.4880   31.9480 C   0  0  0  0  0
    5.2240   72.2040   32.7620 C   0  0  0  0  0
    4.6840   73.0550   33.7080 F   0  0  0  0  0
    6.6100   72.0590   32.6300 C   0  0  0  0  0
    7.0990   71.1970   31.6380 C   0  0  0  0  0
    6.2240   70.4690   30.8220 C   0  0  0  0  0
    2.1472   75.8600   28.6301 H   0  0  0  0  0
    1.1406   80.4976   27.8210 H   0  0  0  0  0
    1.6644   80.5561   29.5219 H   0  0  0  0  0
    2.6918   81.2601   28.2492 H   0  0  0  0  0
    4.4642   80.1554   27.7098 H   0  0  0  0  0
    5.6614   78.0319   27.4765 H   0  0  0  0  0
    3.4325   74.0783   28.3636 H   0  0  0  0  0
    8.6024   71.3785   26.8753 H   0  0  0  0  0
    3.4444   72.0780   28.3080 H   0  0  0  0  0
    5.3743   69.7685   28.6529 H   0  0  0  0  0
    3.5175   70.7733   26.0862 H   0  0  0  0  0
    1.6072   70.6650   27.9410 H   0  0  0  0  0
    3.9198   68.8659   30.4314 H   0  0  0  0  0
    2.9162   70.3101   30.3424 H   0  0  0  0  0
    3.2721   71.6167   32.0659 H   0  0  0  0  0
    7.2927   72.6031   33.2827 H   0  0  0  0  0
    8.1751   71.0921   31.5000 H   0  0  0  0  0
    6.6183   69.7947   30.0617 H   0  0  0  0  0
  1  2  4  0  0  0
  1  8  4  0  0  0
  2  3  1  0  0  0
  2  4  4  0  0  0
  4  5  1  0  0  0
  4  6  4  0  0  0
  6  7  4  0  0  0
  7  8  4  0  0  0
  8  9  1  0  0  0
  9 10  4  0  0  0
  9 11  4  0  0  0
 10 13  4  0  0  0
 11 12  4  0  0  0
 12 13  4  0  0  0
 12 17  4  0  0  0
 13 14  4  0  0  0
 14 15  4  0  0  0
 15 16  4  0  0  0
 16 17  4  0  0  0
 17 18  1  0  0  0
 18 19  1  0  0  0
 19 20  1  0  0  0
 19 24  1  0  0  0
 20 21  1  0  0  0
 20 22  1  0  0  0
 20 23  2  0  0  0
 24 25  1  0  0  0
 25 26  4  0  0  0
 25 31  4  0  0  0
 26 27  4  0  0  0
 27 28  1  0  0  0
 27 29  4  0  0  0
 29 30  4  0  0  0
 30 31  4  0  0  0
  1 32  1  0  0  0
  5 33  1  0  0  0
  5 34  1  0  0  0
  5 35  1  0  0  0
  6 36  1  0  0  0
  7 37  1  0  0  0
 11 38  1  0  0  0
 15 39  1  0  0  0
 18 40  1  0  0  0
 19 41  1  0  0  0
 21 42  1  0  0  0
 22 43  1  0  0  0
 24 44  1  0  0  0
 24 45  1  0  0  0
 26 46  1  0  0  0
 29 47  1  0  0  0
 30 48  1  0  0  0
 31 49  1  0  0  0
M  END
$$$$
