5yg2_ligand
  -I-interpret- 

 63 66  0  0  0  0  0  0  0  0999 V2000
   38.6500   46.3490   28.1650 O   0  0  0  0  0
   38.9100   46.0280   26.9890 C   0  0  0  0  0
   40.0190   45.5480   26.6610 O   0  0  0  0  0
   37.8260   46.2480   25.9520 C   0  0  0  0  0
   37.8180   45.1530   24.8790 C   0  0  0  0  0
   36.6530   45.3740   23.9120 C   0  0  0  0  0
   37.0120   45.0080   22.5030 C   0  0  0  0  0
   35.9400   45.5240   21.5580 C   0  0  0  0  0
   35.4430   44.5850   24.3360 C   0  0  0  0  0
   34.2240   45.0500   23.5380 C   0  0  0  0  0
   34.5890   45.2160   22.1040 N   0  0  0  0  0
   33.5250   45.2190   21.1510 C   0  0  0  0  0
   33.5780   46.0950   20.0540 C   0  0  0  0  0
   32.5440   46.1350   19.1280 C   0  0  0  0  0
   32.6260   46.9460   18.0840 F   0  0  0  0  0
   31.4240   45.3380   19.2480 C   0  0  0  0  0
   32.3740   44.4140   21.2580 C   0  0  0  0  0
   31.3000   44.4560   20.3290 C   0  0  0  0  0
   30.0660   43.5470   20.4410 C   0  0  0  0  0
   28.7380   44.1080   19.8760 C   0  0  0  0  0
   27.5340   43.1420   19.8850 C   0  0  0  0  0
   28.3110   45.4310   20.5090 C   0  0  0  0  0
   30.3840   42.3230   19.5840 C   0  0  0  0  0
   30.8110   42.5350   18.3990 C   0  0  0  0  0
   31.2000   42.7240   17.3220 N   0  0  0  0  0
   30.2020   41.0530   20.0420 C   0  0  0  0  0
   30.4520   39.9690   19.3170 N   0  0  0  0  0
   29.8590   43.1420   21.8730 C   0  0  0  0  0
   29.7790   43.8630   23.1780 C   0  0  0  0  0
   29.8830   45.3390   23.4690 C   0  0  0  0  0
   29.5950   42.9140   24.1130 N   0  0  0  0  0
   29.5490   41.5920   23.6200 N   0  0  0  0  0
   29.6960   41.7630   22.3060 C   0  0  0  0  0
   29.7050   40.7790   21.3770 O   0  0  0  0  0
   40.0222   45.3679   25.7180 H   0  0  0  0  0
   38.0162   47.2022   25.4606 H   0  0  0  0  0
   36.8622   46.2305   26.4608 H   0  0  0  0  0
   37.7047   44.1814   25.3599 H   0  0  0  0  0
   38.7555   45.1887   24.3241 H   0  0  0  0  0
   36.4230   46.4390   23.9424 H   0  0  0  0  0
   37.0827   43.9238   22.4156 H   0  0  0  0  0
   37.9714   45.4559   22.2440 H   0  0  0  0  0
   36.0538   45.0401   20.5880 H   0  0  0  0  0
   36.0459   46.6035   21.4505 H   0  0  0  0  0
   35.2619   44.7419   25.3993 H   0  0  0  0  0
   35.6168   43.5254   24.1484 H   0  0  0  0  0
   33.8788   46.0052   23.9336 H   0  0  0  0  0
   33.4332   44.3047   23.6234 H   0  0  0  0  0
   34.4400   46.7503   19.9284 H   0  0  0  0  0
   30.6336   45.3949   18.4995 H   0  0  0  0  0
   32.3037   43.7226   22.0977 H   0  0  0  0  0
   29.0064   44.2702   18.8321 H   0  0  0  0  0
   27.7704   42.2632   19.2851 H   0  0  0  0  0
   27.3218   42.8375   20.9099 H   0  0  0  0  0
   26.6626   43.6456   19.4664 H   0  0  0  0  0
   28.1748   45.2919   21.5815 H   0  0  0  0  0
   29.0816   46.1817   20.3336 H   0  0  0  0  0
   27.3729   45.7601   20.0620 H   0  0  0  0  0
   30.7998   40.0627   18.3627 H   0  0  0  0  0
   30.2963   39.0426   19.7144 H   0  0  0  0  0
   30.8541   45.7060   23.1368 H   0  0  0  0  0
   29.0920   45.8692   22.9386 H   0  0  0  0  0
   29.7778   45.5049   24.5411 H   0  0  0  0  0
  1  2  2  0  0  0
  2  3  1  0  0  0
  2  4  1  0  0  0
  4  5  1  0  0  0
  5  6  1  0  0  0
  6  7  1  0  0  0
  6  9  1  0  0  0
  7  8  1  0  0  0
  8 11  1  0  0  0
  9 10  1  0  0  0
 10 11  1  0  0  0
 11 12  1  0  0  0
 12 13  4  0  0  0
 12 17  4  0  0  0
 13 14  4  0  0  0
 14 15  1  0  0  0
 14 16  4  0  0  0
 16 18  4  0  0  0
 17 18  4  0  0  0
 18 19  1  0  0  0
 19 20  1  0  0  0
 19 23  1  0  0  0
 19 28  1  0  0  0
 20 21  1  0  0  0
 20 22  1  0  0  0
 23 24  1  0  0  0
 23 26  2  0  0  0
 24 25  3  0  0  0
 26 27  1  0  0  0
 26 34  1  0  0  0
 28 29  4  0  0  0
 28 33  4  0  0  0
 29 30  1  0  0  0
 29 31  4  0  0  0
 31 32  4  0  0  0
 32 33  4  0  0  0
 33 34  1  0  0  0
  3 35  1  0  0  0
  4 36  1  0  0  0
  4 37  1  0  0  0
  5 38  1  0  0  0
  5 39  1  0  0  0
  6 40  1  0  0  0
  7 41  1  0  0  0
  7 42  1  0  0  0
  8 43  1  0  0  0
  8 44  1  0  0  0
  9 45  1  0  0  0
  9 46  1  0  0  0
 10 47  1  0  0  0
 10 48  1  0  0  0
 13 49  1  0  0  0
 16 50  1  0  0  0
 17 51  1  0  0  0
 20 52  1  0  0  0
 21 53  1  0  0  0
 21 54  1  0  0  0
 21 55  1  0  0  0
 22 56  1  0  0  0
 22 57  1  0  0  0
 22 58  1  0  0  0
 27 59  1  0  0  0
 27 60  1  0  0  0
 30 61  1  0  0  0
 30 62  1  0  0  0
 30 63  1  0  0  0
M  END
$$$$
