2qrg_ligand
  -I-interpret- 

 42 44  0  0  0  0  0  0  0  0999 V2000
   37.2640   26.6140   35.0690 C   0  0  0  0  0
   37.9810   26.0510   33.9560 O   0  0  0  0  0
   37.1670   25.5740   32.9600 C   0  0  0  0  0
   37.7550   25.0240   31.8220 C   0  0  0  0  0
   36.9620   24.5260   30.7830 C   0  0  0  0  0
   35.7670   25.6230   33.0530 C   0  0  0  0  0
   34.9750   25.1210   32.0150 C   0  0  0  0  0
   35.5710   24.5660   30.8780 C   0  0  0  0  0
   34.7850   24.0860   29.8200 C   0  0  0  0  0
   35.2840   23.3430   28.5820 C   0  0  0  0  0
   33.4700   24.2530   29.6950 N   0  0  0  0  0
   32.9520   23.6970   28.4860 O   0  0  0  0  0
   33.9930   22.9180   27.8760 C   0  0  0  0  0
   33.7750   21.5110   28.1170 O   0  0  0  0  0
   32.5500   20.9950   27.5300 C   0  0  0  0  0
   32.4080   19.5330   27.9740 C   0  0  0  0  0
   33.4000   18.7350   27.3090 O   0  0  0  0  0
   32.5900   21.1640   25.9950 C   0  0  0  0  0
   31.3630   20.6960   25.4160 O   0  0  0  0  0
   32.8400   22.6280   25.6070 C   0  0  0  0  0
   33.0610   22.7310   24.1940 O   0  0  0  0  0
   34.0610   23.1980   26.3570 C   0  0  0  0  0
   34.1640   24.6070   26.1110 O   0  0  0  0  0
   36.6527   27.4470   34.7218 H   0  0  0  0  0
   36.6233   25.8506   35.5104 H   0  0  0  0  0
   37.9747   26.9694   35.8151 H   0  0  0  0  0
   38.8412   24.9817   31.7412 H   0  0  0  0  0
   37.4332   24.1047   29.8950 H   0  0  0  0  0
   35.2958   26.0535   33.9366 H   0  0  0  0  0
   33.8886   25.1626   32.0926 H   0  0  0  0  0
   35.9220   22.4954   28.8322 H   0  0  0  0  0
   35.9208   23.9629   27.9509 H   0  0  0  0  0
   31.6731   21.5464   27.8692 H   0  0  0  0  0
   31.4138   19.1686   27.7153 H   0  0  0  0  0
   32.5485   19.4645   29.0527 H   0  0  0  0  0
   33.3117   17.8202   27.5863 H   0  0  0  0  0
   33.4159   20.5679   25.6068 H   0  0  0  0  0
   31.3981   20.8053   24.4629 H   0  0  0  0  0
   31.9579   23.2051   25.8845 H   0  0  0  0  0
   33.2162   23.6494   23.9616 H   0  0  0  0  0
   34.9509   22.6949   25.9788 H   0  0  0  0  0
   34.2051   24.7633   25.1647 H   0  0  0  0  0
  1  2  1  0  0  0
  2  3  1  0  0  0
  3  4  4  0  0  0
  3  6  4  0  0  0
  4  5  4  0  0  0
  5  8  4  0  0  0
  6  7  4  0  0  0
  7  8  4  0  0  0
  8  9  1  0  0  0
  9 10  1  0  0  0
  9 11  2  0  0  0
 10 13  1  0  0  0
 11 12  1  0  0  0
 12 13  1  0  0  0
 13 14  1  0  0  0
 13 22  1  0  0  0
 14 15  1  0  0  0
 15 16  1  0  0  0
 15 18  1  0  0  0
 16 17  1  0  0  0
 18 19  1  0  0  0
 18 20  1  0  0  0
 20 21  1  0  0  0
 20 22  1  0  0  0
 22 23  1  0  0  0
  1 24  1  0  0  0
  1 25  1  0  0  0
  1 26  1  0  0  0
  4 27  1  0  0  0
  5 28  1  0  0  0
  6 29  1  0  0  0
  7 30  1  0  0  0
 10 31  1  0  0  0
 10 32  1  0  0  0
 15 33  1  0  0  0
 16 34  1  0  0  0
 16 35  1  0  0  0
 17 36  1  0  0  0
 18 37  1  0  0  0
 19 38  1  0  0  0
 20 39  1  0  0  0
 21 40  1  0  0  0
 22 41  1  0  0  0
 23 42  1  0  0  0
M  END
$$$$
