1f73_ligand
  -I-interpret- 

 42 41  0  0  0  0  0  0  0  0999 V2000
   -9.4740   47.0300   49.6750 C   0  0  0  0  0
  -10.2720   46.1000   49.9960 O   0  0  0  0  0
   -9.6740   47.8440   48.7320 O   0  0  0  0  0
   -8.2320   47.2110   50.5060 C   0  0  0  0  0
   -7.7010   48.5420   50.4310 O   0  0  0  0  0
   -7.1790   46.1860   50.1510 C   0  0  0  0  0
   -6.1450   46.1560   51.2720 C   0  0  0  0  0
   -5.2550   47.2540   51.1070 O   0  0  0  0  0
   -5.3730   44.8430   51.1950 C   0  0  0  0  0
   -4.6850   44.8480   49.8860 N   0  0  0  0  0
   -4.8060   43.7900   49.0840 C   0  0  0  0  0
   -5.2050   42.7010   49.5080 O   0  0  0  0  0
   -4.4320   43.9160   47.6160 C   0  0  0  0  0
   -4.3080   44.7080   52.2970 C   0  0  0  0  0
   -4.9050   44.8820   53.5770 O   0  0  0  0  0
   -3.6610   43.3290   52.2240 C   0  0  0  0  0
   -4.6260   42.2820   52.1900 O   0  0  0  0  0
   -2.7600   43.1070   53.4260 C   0  0  0  0  0
   -1.8270   44.1730   53.4540 O   0  0  0  0  0
   -2.0810   41.7680   53.2140 C   0  0  0  0  0
   -1.0340   41.8640   52.2620 O   0  0  0  0  0
   -9.9104   45.6120   50.7394 H   0  0  0  0  0
   -8.5302   47.0514   51.5422 H   0  0  0  0  0
   -8.3875   49.1726   50.6603 H   0  0  0  0  0
   -6.7012   46.4512   49.2079 H   0  0  0  0  0
   -7.6364   45.2032   50.0371 H   0  0  0  0  0
   -6.6340   46.2311   52.2433 H   0  0  0  0  0
   -5.7493   48.0754   51.1569 H   0  0  0  0  0
   -6.0687   44.0135   51.3215 H   0  0  0  0  0
   -4.1248   45.6511   49.6003 H   0  0  0  0  0
   -3.6251   43.2199   47.3869 H   0  0  0  0  0
   -5.3004   43.6830   46.9998 H   0  0  0  0  0
   -4.1032   44.9351   47.4123 H   0  0  0  0  0
   -3.5483   45.4752   52.1475 H   0  0  0  0  0
   -4.2326   44.7959   54.2568 H   0  0  0  0  0
   -3.0845   43.3030   51.2993 H   0  0  0  0  0
   -4.1762   41.4351   52.1444 H   0  0  0  0  0
   -3.2945   43.0909   54.3758 H   0  0  0  0  0
   -1.2395   44.0629   54.2052 H   0  0  0  0  0
   -2.8216   41.0590   52.8439 H   0  0  0  0  0
   -1.6569   41.4407   54.1633 H   0  0  0  0  0
   -0.6249   41.0028   52.1500 H   0  0  0  0  0
  1  4  1  0  0  0
  1  3  2  0  0  0
  1  2  1  0  0  0
  4  6  1  0  0  0
  4  5  1  0  0  0
  6  7  1  0  0  0
  7  9  1  0  0  0
  7  8  1  0  0  0
  9 14  1  0  0  0
  9 10  1  0  0  0
 10 11  1  0  0  0
 11 13  1  0  0  0
 11 12  2  0  0  0
 14 16  1  0  0  0
 14 15  1  0  0  0
 16 18  1  0  0  0
 16 17  1  0  0  0
 18 20  1  0  0  0
 18 19  1  0  0  0
 20 21  1  0  0  0
  2 22  1  0  0  0
  4 23  1  0  0  0
  5 24  1  0  0  0
  6 25  1  0  0  0
  6 26  1  0  0  0
  7 27  1  0  0  0
  8 28  1  0  0  0
  9 29  1  0  0  0
 10 30  1  0  0  0
 13 31  1  0  0  0
 13 32  1  0  0  0
 13 33  1  0  0  0
 14 34  1  0  0  0
 15 35  1  0  0  0
 16 36  1  0  0  0
 17 37  1  0  0  0
 18 38  1  0  0  0
 19 39  1  0  0  0
 20 40  1  0  0  0
 20 41  1  0  0  0
 21 42  1  0  0  0
M  END
$$$$
