5cj6_ligand
  -I-interpret- 

 35 36  0  0  0  0  0  0  0  0999 V2000
  -27.7140    3.4670   -4.4210 C   0  0  0  0  0
  -26.7160    2.5430   -4.6690 C   0  0  0  0  0
  -27.4510    4.8180   -4.4220 C   0  0  0  0  0
  -24.3480    2.0010   -5.1880 C   0  0  0  0  0
  -25.4370    2.9890   -4.9240 C   0  0  0  0  0
  -25.1750    4.3400   -4.9240 C   0  0  0  0  0
  -26.1720    5.2580   -4.6750 C   0  0  0  0  0
  -26.9190    1.1540   -4.6900 N   0  0  0  0  0
  -28.1510    0.6940   -4.0950 C   0  0  0  0  0
  -29.2800    0.5610   -5.0980 C   0  0  0  0  0
  -30.3150    1.4080   -4.6490 O   0  0  0  0  0
  -28.9270    0.9130   -6.5280 C   0  0  0  0  0
  -29.7910   -0.8520   -5.0440 C   0  0  0  0  0
  -29.1050   -1.5250   -3.8860 C   0  0  0  0  0
  -27.8950   -0.6920   -3.5470 C   0  0  0  0  0
  -23.5750    4.8970   -5.2360 Cl  0  0  0  0  0
  -25.8740    6.6540   -4.6850 C   0  0  0  0  0
  -25.6650    7.8000   -4.7310 N   0  0  0  0  0
  -28.7275    3.1193   -4.2211 H   0  0  0  0  0
  -28.2492    5.5334   -4.2240 H   0  0  0  0  0
  -24.2356    1.3465   -4.3236 H   0  0  0  0  0
  -24.6036    1.4062   -6.0649 H   0  0  0  0  0
  -23.4131    2.5319   -5.3674 H   0  0  0  0  0
  -26.2402    0.5118   -5.0990 H   0  0  0  0  0
  -28.4463    1.4221   -3.3395 H   0  0  0  0  0
  -31.0559    1.3561   -5.2572 H   0  0  0  0  0
  -28.5947    1.9501   -6.5741 H   0  0  0  0  0
  -28.1278    0.2582   -6.8753 H   0  0  0  0  0
  -29.8054    0.7832   -7.1602 H   0  0  0  0  0
  -29.5765   -1.3752   -5.9759 H   0  0  0  0  0
  -30.8729   -0.8657   -4.9118 H   0  0  0  0  0
  -28.8124   -2.5416   -4.1486 H   0  0  0  0  0
  -29.7755   -1.5981   -3.0297 H   0  0  0  0  0
  -27.7367   -0.6593   -2.4690 H   0  0  0  0  0
  -26.9939   -1.1214   -3.9849 H   0  0  0  0  0
  1  2  4  0  0  0
  1  3  4  0  0  0
  2  5  4  0  0  0
  2  8  1  0  0  0
  3  7  4  0  0  0
  5  4  1  0  0  0
  5  6  4  0  0  0
  6  7  4  0  0  0
  6 16  1  0  0  0
  7 17  1  0  0  0
  8  9  1  0  0  0
  9 10  1  0  0  0
  9 15  1  0  0  0
 10 11  1  0  0  0
 10 12  1  0  0  0
 10 13  1  0  0  0
 13 14  1  0  0  0
 14 15  1  0  0  0
 17 18  3  0  0  0
  1 19  1  0  0  0
  3 20  1  0  0  0
  4 21  1  0  0  0
  4 22  1  0  0  0
  4 23  1  0  0  0
  8 24  1  0  0  0
  9 25  1  0  0  0
 11 26  1  0  0  0
 12 27  1  0  0  0
 12 28  1  0  0  0
 12 29  1  0  0  0
 13 30  1  0  0  0
 13 31  1  0  0  0
 14 32  1  0  0  0
 14 33  1  0  0  0
 15 34  1  0  0  0
 15 35  1  0  0  0
M  END
$$$$
