3wf8_ligand
  -I-interpret- 

 55 58  0  0  0  0  0  0  0  0999 V2000
   -3.9230   14.6280  -30.6320 N   0  0  0  0  0
   -3.6930   15.9200  -30.1150 C   0  0  0  0  0
   -4.6980   16.5640  -29.3350 C   0  0  0  0  0
   -4.4580   17.8460  -28.8380 C   0  0  0  0  0
   -3.2440   18.5000  -29.1050 C   0  0  0  0  0
   -2.2610   17.8780  -29.8710 C   0  0  0  0  0
   -2.5040   16.5620  -30.3710 C   0  0  0  0  0
   -1.5230   15.9210  -31.1430 C   0  0  0  0  0
   -0.2650   16.6720  -31.4220 C   0  0  0  0  0
   -0.2230   17.3370  -32.4460 O   0  0  0  0  0
    0.8340   16.6530  -30.5920 O   0  0  0  0  0
    1.8960   17.4410  -31.0090 C   0  0  0  0  0
    2.6160   16.9950  -32.2500 C   0  0  0  0  0
    2.2610   15.9500  -32.7840 O   0  0  0  0  0
    3.6780   17.8090  -32.7850 N   0  0  0  0  0
    4.4400   17.4790  -33.9660 C   0  0  0  0  0
    5.6150   18.1740  -34.1790 C   0  0  0  0  0
    6.3870   17.9090  -35.3000 C   0  0  0  0  0
    5.9910   16.9550  -36.2240 C   0  0  0  0  0
    7.0140   16.6320  -37.6300 S   0  0  0  0  0
    7.7950   17.7830  -37.9860 O   0  0  0  0  0
    6.2110   16.3510  -38.7740 O   0  0  0  0  0
    7.9570   15.3460  -37.3060 N   0  0  0  0  0
    4.8100   16.2540  -36.0290 C   0  0  0  0  0
    4.0360   16.5250  -34.9000 C   0  0  0  0  0
   -1.7330   14.6270  -31.6620 C   0  0  0  0  0
   -0.6490   13.9800  -32.5050 C   0  0  0  0  0
   -0.1310   12.6620  -32.0150 C   0  0  0  0  0
   -1.0200   11.4920  -32.2720 C   0  0  0  0  0
   -2.3150   11.5190  -31.5250 C   0  0  0  0  0
   -3.2770   12.5930  -31.9000 C   0  0  0  0  0
   -2.9450   13.9820  -31.3970 C   0  0  0  0  0
   -5.6428   16.0609  -29.1292 H   0  0  0  0  0
   -5.2193   18.3439  -28.2375 H   0  0  0  0  0
   -3.0700   19.5009  -28.7101 H   0  0  0  0  0
   -1.3214   18.3871  -30.0855 H   0  0  0  0  0
    2.6311   17.4063  -30.2050 H   0  0  0  0  0
    1.4734   18.4187  -31.2405 H   0  0  0  0  0
    3.9063   18.6752  -32.2972 H   0  0  0  0  0
    5.9357   18.9321  -33.4645 H   0  0  0  0  0
    7.3160   18.4573  -35.4562 H   0  0  0  0  0
    8.9716   15.4284  -37.3704 H   0  0  0  0  0
    7.5335   14.4575  -37.0385 H   0  0  0  0  0
    4.4905   15.5006  -36.7490 H   0  0  0  0  0
    3.1026   15.9836  -34.7458 H   0  0  0  0  0
    0.1985   14.6653  -32.4907 H   0  0  0  0  0
   -1.0949   13.7888  -33.4811 H   0  0  0  0  0
   -0.0334   12.7479  -30.9328 H   0  0  0  0  0
    0.7978   12.4723  -32.5530 H   0  0  0  0  0
   -0.4808   10.6040  -31.9423 H   0  0  0  0  0
   -1.2648   11.5054  -33.3341 H   0  0  0  0  0
   -2.0573   11.6960  -30.4808 H   0  0  0  0  0
   -2.8129   10.5759  -31.7503 H   0  0  0  0  0
   -4.2312   12.3224  -31.4480 H   0  0  0  0  0
   -3.2656   12.6494  -32.9885 H   0  0  0  0  0
  1  2  4  0  0  0
  1 32  4  0  0  0
  2  3  4  0  0  0
  2  7  4  0  0  0
  3  4  4  0  0  0
  4  5  4  0  0  0
  5  6  4  0  0  0
  6  7  4  0  0  0
  7  8  4  0  0  0
  8  9  1  0  0  0
  8 26  4  0  0  0
  9 10  2  0  0  0
  9 11  1  0  0  0
 11 12  1  0  0  0
 12 13  1  0  0  0
 13 14  2  0  0  0
 13 15  1  0  0  0
 15 16  1  0  0  0
 16 17  4  0  0  0
 16 25  4  0  0  0
 17 18  4  0  0  0
 18 19  4  0  0  0
 19 20  1  0  0  0
 19 24  4  0  0  0
 20 21  2  0  0  0
 20 22  2  0  0  0
 20 23  1  0  0  0
 24 25  4  0  0  0
 26 27  1  0  0  0
 26 32  4  0  0  0
 27 28  1  0  0  0
 28 29  1  0  0  0
 29 30  1  0  0  0
 30 31  1  0  0  0
 31 32  1  0  0  0
  3 33  1  0  0  0
  4 34  1  0  0  0
  5 35  1  0  0  0
  6 36  1  0  0  0
 12 37  1  0  0  0
 12 38  1  0  0  0
 15 39  1  0  0  0
 17 40  1  0  0  0
 18 41  1  0  0  0
 23 42  1  0  0  0
 23 43  1  0  0  0
 24 44  1  0  0  0
 25 45  1  0  0  0
 27 46  1  0  0  0
 27 47  1  0  0  0
 28 48  1  0  0  0
 28 49  1  0  0  0
 29 50  1  0  0  0
 29 51  1  0  0  0
 30 52  1  0  0  0
 30 53  1  0  0  0
 31 54  1  0  0  0
 31 55  1  0  0  0
M  END
$$$$
