3f36_ligand
  -I-interpret- 

 22 22  0  0  0  0  0  0  0  0999 V2000
   36.6220   -0.7870   33.4900 C   0  0  0  0  0
   36.1630    0.4670   34.2170 C   0  0  0  0  0
   37.3770    1.2350   34.7380 C   0  0  0  0  0
   35.2720    0.0820   35.4010 C   0  0  0  0  0
   35.8480   -0.4430   36.5480 C   0  0  0  0  0
   35.0590   -0.7950   37.6350 C   0  0  0  0  0
   33.6830   -0.6180   37.5750 C   0  0  0  0  0
   33.1070   -0.0900   36.4330 C   0  0  0  0  0
   33.8970    0.2600   35.3460 C   0  0  0  0  0
   33.3270    0.7750   34.2270 O   0  0  0  0  0
   37.1864   -1.4177   34.1769 H   0  0  0  0  0
   35.7520   -1.3329   33.1251 H   0  0  0  0  0
   37.2556   -0.5063   32.6486 H   0  0  0  0  0
   35.6019    1.0928   33.5230 H   0  0  0  0  0
   37.0420    2.1343   35.2548 H   0  0  0  0  0
   37.9353    0.6038   35.4294 H   0  0  0  0  0
   38.0166    1.5127   33.9002 H   0  0  0  0  0
   36.9282   -0.5804   36.5966 H   0  0  0  0  0
   35.5183   -1.2090   38.5326 H   0  0  0  0  0
   33.0587   -0.8941   38.4247 H   0  0  0  0  0
   32.0273    0.0519   36.3864 H   0  0  0  0  0
   32.3768    0.8329   34.3509 H   0  0  0  0  0
  1  2  1  0  0  0
  2  3  1  0  0  0
  2  4  1  0  0  0
  4  5  4  0  0  0
  4  9  4  0  0  0
  5  6  4  0  0  0
  6  7  4  0  0  0
  7  8  4  0  0  0
  8  9  4  0  0  0
  9 10  1  0  0  0
  1 11  1  0  0  0
  1 12  1  0  0  0
  1 13  1  0  0  0
  2 14  1  0  0  0
  3 15  1  0  0  0
  3 16  1  0  0  0
  3 17  1  0  0  0
  5 18  1  0  0  0
  6 19  1  0  0  0
  7 20  1  0  0  0
  8 21  1  0  0  0
 10 22  1  0  0  0
M  END
$$$$
