3zvw_ligand
  -I-interpret- 

 22 22  0  0  0  0  0  0  0  0999 V2000
   64.3190   24.4070   31.4860 O   0  0  0  0  0
   64.2050   23.8150   32.5260 C   0  0  0  0  0
   63.9210   24.4480   33.6470 N   0  0  0  0  0
   63.6870   25.8690   33.8370 C   0  0  0  0  0
   62.3920   25.9640   34.7960 B   0  0  0  0  0
   64.3420   22.2970   32.5930 C   0  0  0  0  0
   62.9280   21.7330   32.6760 C   0  0  0  0  0
   62.2100   21.4360   31.5080 C   0  0  0  0  0
   60.9050   20.9230   31.5790 C   0  0  0  0  0
   60.3080   20.7290   32.8190 C   0  0  0  0  0
   61.0100   21.0240   33.9930 C   0  0  0  0  0
   62.3190   21.5260   33.9200 C   0  0  0  0  0
   63.8578   23.8686   34.4841 H   0  0  0  0  0
   63.5210   26.3784   32.8877 H   0  0  0  0  0
   64.5518   26.3618   34.2813 H   0  0  0  0  0
   64.9310   21.9980   33.4600 H   0  0  0  0  0
   64.8618   21.9147   31.7145 H   0  0  0  0  0
   62.6703   21.6054   30.5346 H   0  0  0  0  0
   60.3626   20.6780   30.6658 H   0  0  0  0  0
   59.2893   20.3457   32.8772 H   0  0  0  0  0
   60.5407   20.8641   34.9637 H   0  0  0  0  0
   62.8638   21.7557   34.8357 H   0  0  0  0  0
  1  2  2  0  0  0
  2  3  1  0  0  0
  2  6  1  0  0  0
  3  4  1  0  0  0
  4  5  1  0  0  0
  6  7  1  0  0  0
  7  8  4  0  0  0
  7 12  4  0  0  0
  8  9  4  0  0  0
  9 10  4  0  0  0
 10 11  4  0  0  0
 11 12  4  0  0  0
  3 13  1  0  0  0
  4 14  1  0  0  0
  4 15  1  0  0  0
  6 16  1  0  0  0
  6 17  1  0  0  0
  8 18  1  0  0  0
  9 19  1  0  0  0
 10 20  1  0  0  0
 11 21  1  0  0  0
 12 22  1  0  0  0
M  END
$$$$
