### 
### Created by X-TOOL on Mon Sep 10 21:13:09 2018
### 

@<TRIPOS>MOLECULE
3zvw_ligand
   22    22     1     0     0
SMALL
GAST_HUCK


@<TRIPOS>ATOM
      1 O6         64.3190   24.4070   31.4860 O.2       1 FP5        -0.3966
      2 C5         64.2050   23.8150   32.5260 C.2       1 FP5         0.1591
      3 N4         63.9210   24.4480   33.6470 N.am      1 FP5        -0.4393
      4 C3         63.6870   25.8690   33.8370 C.3       1 FP5        -0.2407
      5 B          62.3920   25.9640   34.7960 B         1 FP5         1.0000
      6 C7         64.3420   22.2970   32.5930 C.3       1 FP5         0.0679
      7 CG         62.9280   21.7330   32.6760 C.ar      1 FP5        -0.0244
      8 CD2        62.2100   21.4360   31.5080 C.ar      1 FP5        -0.0580
      9 CE2        60.9050   20.9230   31.5790 C.ar      1 FP5        -0.0681
     10 CZ         60.3080   20.7290   32.8190 C.ar      1 FP5        -0.0684
     11 CE1        61.0100   21.0240   33.9930 C.ar      1 FP5        -0.0681
     12 CD1        62.3190   21.5260   33.9200 C.ar      1 FP5        -0.0580
     13 H          63.8578   23.8686   34.4841 H         1 FP5         0.1458
     14 H          63.5210   26.3784   32.8877 H         1 FP5        -0.1856
     15 H          64.5518   26.3618   34.2813 H         1 FP5        -0.1856
     16 H          64.9310   21.9980   33.4600 H         1 FP5         0.0658
     17 H          64.8618   21.9147   31.7145 H         1 FP5         0.0658
     18 H          62.6703   21.6054   30.5346 H         1 FP5         0.0561
     19 H          60.3626   20.6780   30.6658 H         1 FP5         0.0600
     20 H          59.2893   20.3457   32.8772 H         1 FP5         0.0561
     21 H          60.5407   20.8641   34.9637 H         1 FP5         0.0600
     22 H          62.8638   21.7557   34.8357 H         1 FP5         0.0561
@<TRIPOS>BOND
     1    1    2 2  
     2    2    3 am 
     3    2    6 1  
     4    3    4 1  
     5    4    5 1  
     6    6    7 1  
     7    7    8 ar 
     8    7   12 ar 
     9    8    9 ar 
    10    9   10 ar 
    11   10   11 ar 
    12   11   12 ar 
    13    3   13 1  
    14    4   14 1  
    15    4   15 1  
    16    6   16 1  
    17    6   17 1  
    18    8   18 1  
    19    9   19 1  
    20   10   20 1  
    21   11   21 1  
    22   12   22 1  
@<TRIPOS>SUBSTRUCTURE
     1 FP5         1

