5zk7_ligand
  -I-interpret- 

 85 85  0  0  0  0  0  0  0  0999 V2000
  -17.3550    9.5870   12.7310 C   0  0  0  0  0
  -18.1120    8.7820   13.2960 O   0  0  0  0  0
  -17.3520   11.0430   13.2070 C   0  0  0  0  0
  -16.5340    9.1770   11.7220 N   0  0  0  0  0
  -15.5590    9.9990   10.9340 C   0  0  0  0  0
  -16.2840   10.8930    9.9280 C   0  0  0  0  0
  -16.0940   12.1100    9.9390 O   0  0  0  0  0
  -14.5390    9.1000   10.2220 C   0  0  0  0  0
  -13.4730    9.8640    9.4460 C   0  0  0  0  0
  -12.3740    8.9490    8.9400 C   0  0  0  0  0
  -11.4520    8.5490   10.0010 N   0  0  0  0  0
  -10.4010    7.7440    9.8360 C   0  0  0  0  0
  -10.1100    7.2300    8.6370 N   0  0  0  0  0
   -9.6360    7.4460   10.8810 N   0  0  0  0  0
  -17.1060   10.2840    9.0700 N   0  0  0  0  0
  -17.9060   11.0310    8.0850 C   0  0  0  0  0
  -19.3990   10.8370    8.3220 C   0  0  0  0  0
  -19.8550    9.7170    8.5600 O   0  0  0  0  0
  -17.5770   10.6150    6.6460 C   0  0  0  0  0
  -16.1030   10.6430    6.3320 C   0  0  0  0  0
  -15.4160   11.8510    6.1850 C   0  0  0  0  0
  -15.3840    9.4610    6.1980 C   0  0  0  0  0
  -14.0470   11.8710    5.9050 C   0  0  0  0  0
  -14.0240    9.4730    5.9230 C   0  0  0  0  0
  -13.3600   10.6760    5.7790 C   0  0  0  0  0
  -12.0100   10.6700    5.5120 O   0  0  0  0  0
  -20.1440   11.9340    8.2470 N   0  0  0  0  0
  -21.5920   11.8800    8.1390 C   0  0  0  0  0
  -21.9760   11.3850    6.7450 C   0  0  0  0  0
  -21.1400   11.3760    5.8200 O   0  0  0  0  0
  -22.1930   13.2690    8.3710 C   0  0  0  0  0
  -21.8000   14.1820    7.3510 O   0  0  0  0  0
  -23.2430   10.9970    6.5930 N   0  0  0  0  0
  -23.7910   10.6350    5.2870 C   0  0  0  0  0
  -23.5660   11.7580    4.2660 C   0  0  0  0  0
  -23.1160   11.4710    3.1470 O   0  0  0  0  0
  -25.2910   10.3010    5.3800 C   0  0  0  0  0
  -25.8900    9.8590    4.0520 C   0  0  0  0  0
  -27.3990    9.6640    4.0790 C   0  0  0  0  0
  -27.7940    9.0580    2.8110 N   0  0  0  0  0
  -27.9760    9.7160    1.6640 C   0  0  0  0  0
  -28.3030    9.0390    0.5690 N   0  0  0  0  0
  -27.8520   11.0360    1.5870 N   0  0  0  0  0
  -18.3496   11.4654   13.0864 H   0  0  0  0  0
  -17.0651   11.0798   14.2579 H   0  0  0  0  0
  -16.6392   11.6162   12.6142 H   0  0  0  0  0
  -16.5904    8.1895   11.4729 H   0  0  0  0  0
  -15.0210   10.6413   11.6313 H   0  0  0  0  0
  -15.0896    8.4936    9.5028 H   0  0  0  0  0
  -14.0265    8.5215   10.9906 H   0  0  0  0  0
  -13.0244   10.5981   10.1153 H   0  0  0  0  0
  -13.9488   10.3339    8.5852 H   0  0  0  0  0
  -11.8050    9.4903    8.1841 H   0  0  0  0  0
  -12.8410    8.0486    8.5409 H   0  0  0  0  0
  -11.6251    8.9126   10.9381 H   0  0  0  0  0
   -9.3050    6.6132    8.5283 H   0  0  0  0  0
  -10.6930    7.4546    7.8307 H   0  0  0  0  0
   -9.8545    7.8319   11.7996 H   0  0  0  0  0
  -17.1824    9.2672    9.0978 H   0  0  0  0  0
  -17.6487   12.0819    8.2171 H   0  0  0  0  0
  -18.0666   11.3257    5.9802 H   0  0  0  0  0
  -17.9195    9.5884    6.5161 H   0  0  0  0  0
  -15.9561   12.7919    6.2903 H   0  0  0  0  0
  -15.8982    8.5066    6.3111 H   0  0  0  0  0
  -13.5243   12.8202    5.7868 H   0  0  0  0  0
  -13.4799    8.5341    5.8207 H   0  0  0  0  0
  -11.6996    9.7632    5.4581 H   0  0  0  0  0
  -19.6845   12.8444    8.2658 H   0  0  0  0  0
  -21.9803   11.1970    8.8945 H   0  0  0  0  0
  -21.8351   13.6454    9.3293 H   0  0  0  0  0
  -23.2795   13.1826    8.3585 H   0  0  0  0  0
  -22.1916   15.0413    7.5240 H   0  0  0  0  0
  -23.8480   10.9515    7.4130 H   0  0  0  0  0
  -23.2618    9.7437    4.9500 H   0  0  0  0  0
  -23.7982   12.7921    4.5206 H   0  0  0  0  0
  -25.8122   11.2057    5.6928 H   0  0  0  0  0
  -25.4029    9.4762    6.0838 H   0  0  0  0  0
  -25.4465    8.8943    3.8056 H   0  0  0  0  0
  -25.6815   10.6469    3.3283 H   0  0  0  0  0
  -27.9018   10.6218    4.2133 H   0  0  0  0  0
  -27.6822    9.0190    4.9108 H   0  0  0  0  0
  -27.9431    8.0490    2.8007 H   0  0  0  0  0
  -28.4540    9.5335   -0.3103 H   0  0  0  0  0
  -28.4031    8.0247    0.6074 H   0  0  0  0  0
  -27.6115   11.5750    2.4189 H   0  0  0  0  0
  1  2  2  0  0  0
  1  3  1  0  0  0
  1  4  1  0  0  0
  4  5  1  0  0  0
  5  6  1  0  0  0
  5  8  1  0  0  0
  6  7  2  0  0  0
  6 15  1  0  0  0
  8  9  1  0  0  0
  9 10  1  0  0  0
 10 11  1  0  0  0
 11 12  1  0  0  0
 12 13  1  0  0  0
 12 14  2  0  0  0
 15 16  1  0  0  0
 16 17  1  0  0  0
 16 19  1  0  0  0
 17 18  2  0  0  0
 17 27  1  0  0  0
 19 20  1  0  0  0
 20 21  4  0  0  0
 20 22  4  0  0  0
 21 23  4  0  0  0
 22 24  4  0  0  0
 23 25  4  0  0  0
 24 25  4  0  0  0
 25 26  1  0  0  0
 27 28  1  0  0  0
 28 29  1  0  0  0
 28 31  1  0  0  0
 29 30  2  0  0  0
 29 33  1  0  0  0
 31 32  1  0  0  0
 33 34  1  0  0  0
 34 35  1  0  0  0
 34 37  1  0  0  0
 35 36  2  0  0  0
 37 38  1  0  0  0
 38 39  1  0  0  0
 39 40  1  0  0  0
 40 41  1  0  0  0
 41 42  1  0  0  0
 41 43  2  0  0  0
  3 44  1  0  0  0
  3 45  1  0  0  0
  3 46  1  0  0  0
  4 47  1  0  0  0
  5 48  1  0  0  0
  8 49  1  0  0  0
  8 50  1  0  0  0
  9 51  1  0  0  0
  9 52  1  0  0  0
 10 53  1  0  0  0
 10 54  1  0  0  0
 11 55  1  0  0  0
 13 56  1  0  0  0
 13 57  1  0  0  0
 14 58  1  0  0  0
 15 59  1  0  0  0
 16 60  1  0  0  0
 19 61  1  0  0  0
 19 62  1  0  0  0
 21 63  1  0  0  0
 22 64  1  0  0  0
 23 65  1  0  0  0
 24 66  1  0  0  0
 26 67  1  0  0  0
 27 68  1  0  0  0
 28 69  1  0  0  0
 31 70  1  0  0  0
 31 71  1  0  0  0
 32 72  1  0  0  0
 33 73  1  0  0  0
 34 74  1  0  0  0
 35 75  1  0  0  0
 37 76  1  0  0  0
 37 77  1  0  0  0
 38 78  1  0  0  0
 38 79  1  0  0  0
 39 80  1  0  0  0
 39 81  1  0  0  0
 40 82  1  0  0  0
 42 83  1  0  0  0
 42 84  1  0  0  0
 43 85  1  0  0  0
M  END
$$$$
