5th4_ligand
  -I-interpret- 

 15 15  0  0  0  0  0  0  0  0999 V2000
   -5.0380    3.3240   14.1170 C   0  0  0  0  0
   -5.8340    3.7430   15.1310 C   0  0  0  0  0
   -6.2410    2.8730   16.0690 C   0  0  0  0  0
   -5.0600    1.1070   15.0120 N   0  0  0  0  0
   -4.6820   -0.1670   14.9460 O   0  0  0  0  0
   -4.6430    1.9990   14.0500 C   0  0  0  0  0
   -5.8370    1.5150   15.9990 C   0  0  0  0  0
   -6.3620    0.3940   17.2070 S   0  0  0  0  0
   -4.7091    4.0302   13.3546 H   0  0  0  0  0
   -6.1438    4.7867   15.1848 H   0  0  0  0  0
   -7.3250    2.8411   15.9594 H   0  0  0  0  0
   -5.7979    3.2421   16.9939 H   0  0  0  0  0
   -4.1248   -0.2948   14.1748 H   0  0  0  0  0
   -3.5591    2.0318   14.1603 H   0  0  0  0  0
   -5.0857    1.6291   13.1252 H   0  0  0  0  0
  1  2  2  0  0  0
  6  1  1  0  0  0
  2  3  1  0  0  0
  3  7  1  0  0  0
  4  5  1  0  0  0
  4  6  1  0  0  0
  4  7  1  0  0  0
  7  8  2  0  0  0
  1  9  1  0  0  0
  2 10  1  0  0  0
  3 11  1  0  0  0
  3 12  1  0  0  0
  5 13  1  0  0  0
  6 14  1  0  0  0
  6 15  1  0  0  0
M  END
$$$$
