2r6y_ligand
  -I-interpret- 

 59 63  0  0  0  0  0  0  0  0999 V2000
   12.1520   -0.5100   28.6560 C   0  0  0  0  0
   13.3830   -0.0040   29.0190 C   0  0  0  0  0
   14.4350    0.0280   28.0800 C   0  0  0  0  0
   14.2680   -0.4430   26.7780 C   0  0  0  0  0
    8.1750   -4.2560   25.9620 C   0  0  0  0  0
    6.0080   -3.1600   26.2430 C   0  0  0  0  0
   11.5270   -4.1330   24.8220 C   0  0  0  0  0
   10.9130   -3.3480   23.8520 C   0  0  0  0  0
   11.0730   -3.5860   22.5040 C   0  0  0  0  0
   13.0610   -5.9040   18.9130 C   0  0  0  0  0
   12.2090   -6.1380   16.6850 C   0  0  0  0  0
   12.0270   -4.2520   27.1140 O   0  0  0  0  0
   11.3070   -3.7800   26.2460 C   0  0  0  0  0
   12.3540   -5.2150   24.4220 C   0  0  0  0  0
   12.4960   -5.4500   23.0670 C   0  0  0  0  0
   11.8710   -4.6640   22.1070 C   0  0  0  0  0
   11.9720   -4.8700   20.7670 O   0  0  0  0  0
   12.7740   -6.0140   20.4290 C   0  0  0  0  0
   11.8240   -6.0700   18.1060 N   0  3  0  0  0
   10.9500   -4.8990   18.2650 C   0  0  0  0  0
   10.3840   -4.5120   16.8640 C   0  0  0  0  0
   11.0000   -5.5610   15.8950 C   0  0  0  0  0
   10.2560   -2.7790   26.5780 C   0  0  0  0  0
    8.8230   -3.0590   26.4270 C   0  0  0  0  0
    6.7840   -4.2440   25.8530 C   0  0  0  0  0
    4.6500   -3.1750   26.1640 O   0  0  0  0  0
    6.6170   -1.9870   26.7010 C   0  0  0  0  0
    7.9810   -1.9540   26.7760 C   0  0  0  0  0
    9.1040   -0.6720   27.3110 S   0  0  0  0  0
   10.6250   -1.5300   27.0440 C   0  0  0  0  0
   11.9670   -0.9910   27.3430 C   0  0  0  0  0
   13.0290   -0.9510   26.4060 C   0  0  0  0  0
   15.6340    0.5200   28.5000 O   0  0  0  0  0
   11.3329   -0.5377   29.3746 H   0  0  0  0  0
   13.5424    0.3706   30.0301 H   0  0  0  0  0
   15.0929   -0.4133   26.0662 H   0  0  0  0  0
    8.7520   -5.1438   25.7031 H   0  0  0  0  0
   10.2838   -2.5162   24.1687 H   0  0  0  0  0
   10.5887   -2.9487   21.7641 H   0  0  0  0  0
   13.7595   -6.6941   18.6374 H   0  0  0  0  0
   13.4720   -4.9146   18.7121 H   0  0  0  0  0
   12.4313   -7.1610   16.3813 H   0  0  0  0  0
   13.1188   -5.5697   16.4914 H   0  0  0  0  0
   12.8600   -5.8395   25.1582 H   0  0  0  0  0
   13.1205   -6.2815   22.7403 H   0  0  0  0  0
   13.6993   -6.0303   21.0048 H   0  0  0  0  0
   12.2546   -6.9427   20.6651 H   0  0  0  0  0
   11.3367   -6.9123   18.4118 H   0  0  0  0  0
   11.5157   -4.0656   18.6815 H   0  0  0  0  0
   10.1317   -5.1345   18.9454 H   0  0  0  0  0
   10.6465   -3.4919   16.5838 H   0  0  0  0  0
    9.2943   -4.5265   16.8443 H   0  0  0  0  0
   10.2844   -6.3331   15.6126 H   0  0  0  0  0
   11.3000   -5.1196   14.9446 H   0  0  0  0  0
    6.2851   -5.1227   25.4444 H   0  0  0  0  0
    4.3030   -2.3372   26.4790 H   0  0  0  0  0
    6.0195   -1.1224   26.9903 H   0  0  0  0  0
   12.8741   -1.3192   25.3918 H   0  0  0  0  0
   16.2628    0.4892   27.7753 H   0  0  0  0  0
  1  2  4  0  0  0
 31  1  4  0  0  0
  2  3  4  0  0  0
  3  4  4  0  0  0
  3 33  1  0  0  0
  4 32  4  0  0  0
 24  5  4  0  0  0
  5 25  4  0  0  0
  6 25  4  0  0  0
  6 26  1  0  0  0
 27  6  4  0  0  0
  7  8  4  0  0  0
 13  7  1  0  0  0
  7 14  4  0  0  0
  8  9  4  0  0  0
  9 16  4  0  0  0
 18 10  1  0  0  0
 10 19  1  0  0  0
 19 11  1  0  0  0
 11 22  1  0  0  0
 13 12  2  0  0  0
 23 13  1  0  0  0
 14 15  4  0  0  0
 15 16  4  0  0  0
 16 17  1  0  0  0
 17 18  1  0  0  0
 19 20  1  0  0  0
 20 21  1  0  0  0
 21 22  1  0  0  0
 23 24  4  0  0  0
 30 23  4  0  0  0
 28 24  4  0  0  0
 28 27  4  0  0  0
 29 28  4  0  0  0
 30 29  4  0  0  0
 30 31  1  0  0  0
 31 32  4  0  0  0
  1 34  1  0  0  0
  2 35  1  0  0  0
  4 36  1  0  0  0
  5 37  1  0  0  0
  8 38  1  0  0  0
  9 39  1  0  0  0
 10 40  1  0  0  0
 10 41  1  0  0  0
 11 42  1  0  0  0
 11 43  1  0  0  0
 14 44  1  0  0  0
 15 45  1  0  0  0
 18 46  1  0  0  0
 18 47  1  0  0  0
 19 48  1  0  0  0
 20 49  1  0  0  0
 20 50  1  0  0  0
 21 51  1  0  0  0
 21 52  1  0  0  0
 22 53  1  0  0  0
 22 54  1  0  0  0
 25 55  1  0  0  0
 26 56  1  0  0  0
 27 57  1  0  0  0
 32 58  1  0  0  0
 33 59  1  0  0  0
M  END
$$$$
