1ctt_ligand
  -I-interpret- 

 30 31  0  0  0  0  0  0  0  0999 V2000
   35.3030   48.9280    9.0090 N   0  0  0  0  0
   36.2150   48.0430    8.4400 C   0  0  0  0  0
   37.3770   48.3610    8.1860 O   0  0  0  0  0
   35.7260   46.7830    8.1070 N   0  0  0  0  0
   34.3520   46.2460    8.5840 C   0  0  0  0  0
   33.4730   47.4160    9.0320 C   0  0  0  0  0
   33.9940   48.6440    9.2560 C   0  0  0  0  0
   35.8860   50.3090    9.6320 C   0  0  0  0  0
   35.8290   51.7290    9.2300 C   0  0  0  0  0
   36.6940   51.9520    8.0850 O   0  0  0  0  0
   36.0520   52.5330   10.4680 C   0  0  0  0  0
   37.4510   52.6540   10.5530 O   0  0  0  0  0
   35.4790   51.5220   11.6050 C   0  0  0  0  0
   35.6150   50.1690   11.0250 O   0  0  0  0  0
   34.0690   51.5920   11.9880 C   0  0  0  0  0
   33.3570   51.9390   10.7650 O   0  0  0  0  0
   36.3019   46.1813    7.5182 H   0  0  0  0  0
   34.5000   45.5625    9.4200 H   0  0  0  0  0
   33.8641   45.7187    7.7642 H   0  0  0  0  0
   32.4041   47.2563    9.1736 H   0  0  0  0  0
   33.3469   49.4298    9.6458 H   0  0  0  0  0
   36.8425   50.2885    9.1098 H   0  0  0  0  0
   34.8647   52.0605    8.8448 H   0  0  0  0  0
   36.6523   52.8763    7.8291 H   0  0  0  0  0
   35.5985   53.5221   10.5320 H   0  0  0  0  0
   37.6801   53.1647   11.3329 H   0  0  0  0  0
   36.0400   51.7871   12.5012 H   0  0  0  0  0
   33.9020   52.3293   12.7732 H   0  0  0  0  0
   33.7180   50.6472   12.4031 H   0  0  0  0  0
   32.4170   52.0011   10.9499 H   0  0  0  0  0
  1  2  1  0  0  0
  1  7  1  0  0  0
  1  8  1  0  0  0
  2  3  2  0  0  0
  2  4  1  0  0  0
  4  5  1  0  0  0
  5  6  1  0  0  0
  7  6  2  0  0  0
  8  9  1  0  0  0
  8 14  1  0  0  0
  9 10  1  0  0  0
  9 11  1  0  0  0
 11 12  1  0  0  0
 11 13  1  0  0  0
 13 14  1  0  0  0
 13 15  1  0  0  0
 15 16  1  0  0  0
  4 17  1  0  0  0
  5 18  1  0  0  0
  5 19  1  0  0  0
  6 20  1  0  0  0
  7 21  1  0  0  0
  8 22  1  0  0  0
  9 23  1  0  0  0
 10 24  1  0  0  0
 11 25  1  0  0  0
 12 26  1  0  0  0
 13 27  1  0  0  0
 15 28  1  0  0  0
 15 29  1  0  0  0
 16 30  1  0  0  0
M  END
$$$$
