1v2n_ligand
  -I-interpret- 

 52 54  0  0  0  0  0  0  0  0999 V2000
   43.6060   22.6170   51.1030 C   0  0  0  0  0
   44.1480   21.4790   51.9700 C   0  0  0  0  0
   44.9630   21.7290   53.1220 C   0  0  0  0  0
   45.4370   20.6620   53.9120 C   0  0  0  0  0
   43.8520   20.1330   51.6060 C   0  0  0  0  0
   44.3330   19.0570   52.4030 C   0  0  0  0  0
   45.1400   19.3200   53.5490 C   0  0  0  0  0
   45.6570   18.1900   54.4070 C   0  0  0  0  0
   45.1280   16.9340   54.2960 N   0  0  0  0  0
   46.6630   18.4220   55.3090 N   0  0  0  0  0
   42.1130   26.2480   54.3230 C   0  0  0  0  0
   40.8730   25.7440   55.0500 C   0  0  0  0  0
   40.8900   25.6100   56.4690 C   0  0  0  0  0
   39.7270   25.1470   57.1580 C   0  0  0  0  0
   39.6900   25.4080   54.3320 C   0  0  0  0  0
   38.5350   24.9480   55.0130 C   0  0  0  0  0
   38.5420   24.8140   56.4250 C   0  0  0  0  0
   37.2940   24.3240   57.1370 C   0  0  0  0  0
   36.5080   23.3580   56.5620 N   0  0  0  0  0
   36.9320   24.8480   58.3480 N   0  0  0  0  0
   43.0560   23.7970   51.5100 C   0  0  0  0  0
   42.6450   24.7630   50.4190 C   0  0  0  0  0
   43.7200   25.8790   50.2600 C   0  0  0  0  0
   43.5940   26.9650   51.3760 C   0  0  0  0  0
   43.9970   26.4030   52.7760 C   0  0  0  0  0
   42.8480   25.6160   53.3680 C   0  0  0  0  0
   42.7070   24.1870   52.9230 C   0  0  0  0  0
   42.3200   23.3360   53.7180 O   0  0  0  0  0
   43.6670   22.4660   50.0252 H   0  0  0  0  0
   45.2189   22.7541   53.3899 H   0  0  0  0  0
   46.0319   20.8662   54.8022 H   0  0  0  0  0
   43.2566   19.9279   50.7163 H   0  0  0  0  0
   44.0842   18.0296   52.1371 H   0  0  0  0  0
   45.4821   16.1779   54.8819 H   0  0  0  0  0
   47.0116   17.6605   55.8913 H   0  0  0  0  0
   47.0629   19.3561   55.3979 H   0  0  0  0  0
   42.4560   27.2437   54.6041 H   0  0  0  0  0
   41.7909   25.8609   57.0289 H   0  0  0  0  0
   39.7414   25.0470   58.2433 H   0  0  0  0  0
   39.6724   25.5056   53.2465 H   0  0  0  0  0
   37.6371   24.6960   54.4488 H   0  0  0  0  0
   35.6640   23.0379   57.0369 H   0  0  0  0  0
   36.7675   22.9598   55.6595 H   0  0  0  0  0
   37.5025   25.5746   58.7804 H   0  0  0  0  0
   41.6919   25.2196   50.6857 H   0  0  0  0  0
   42.5500   24.2209   49.4781 H   0  0  0  0  0
   43.5744   26.3611   49.2933 H   0  0  0  0  0
   44.7057   25.4201   50.3368 H   0  0  0  0  0
   42.5549   27.2909   51.4226 H   0  0  0  0  0
   44.2639   27.7891   51.1307 H   0  0  0  0  0
   44.2422   27.2330   53.4386 H   0  0  0  0  0
   44.8607   25.7475   52.6643 H   0  0  0  0  0
  1  2  1  0  0  0
 21  1  2  0  0  0
  2  3  4  0  0  0
  2  5  4  0  0  0
  3  4  4  0  0  0
  4  7  4  0  0  0
  5  6  4  0  0  0
  6  7  4  0  0  0
  7  8  1  0  0  0
  8  9  2  0  0  0
  8 10  1  0  0  0
 11 12  1  0  0  0
 26 11  2  0  0  0
 12 13  4  0  0  0
 12 15  4  0  0  0
 13 14  4  0  0  0
 14 17  4  0  0  0
 15 16  4  0  0  0
 16 17  4  0  0  0
 17 18  1  0  0  0
 18 19  1  0  0  0
 18 20  2  0  0  0
 22 21  1  0  0  0
 21 27  1  0  0  0
 23 22  1  0  0  0
 24 23  1  0  0  0
 25 24  1  0  0  0
 25 26  1  0  0  0
 26 27  1  0  0  0
 27 28  2  0  0  0
  1 29  1  0  0  0
  3 30  1  0  0  0
  4 31  1  0  0  0
  5 32  1  0  0  0
  6 33  1  0  0  0
  9 34  1  0  0  0
 10 35  1  0  0  0
 10 36  1  0  0  0
 11 37  1  0  0  0
 13 38  1  0  0  0
 14 39  1  0  0  0
 15 40  1  0  0  0
 16 41  1  0  0  0
 19 42  1  0  0  0
 19 43  1  0  0  0
 20 44  1  0  0  0
 22 45  1  0  0  0
 22 46  1  0  0  0
 23 47  1  0  0  0
 23 48  1  0  0  0
 24 49  1  0  0  0
 24 50  1  0  0  0
 25 51  1  0  0  0
 25 52  1  0  0  0
M  END
$$$$
