### 
### Created by X-TOOL on Mon Aug  2 16:17:08 2021
### 

@<TRIPOS>MOLECULE
6rml_ligand
  138   139     1     0     0
SMALL
GAST_HUCK


@<TRIPOS>ATOM
      1 N          -1.5500  -23.8080   26.4260 N.4       1 GLU         0.2380
      2 CA         -1.0560  -24.7370   27.4360 C.3       1 GLU         0.0665
      3 C           0.4490  -24.9350   27.3350 C.2       1 GLU         0.2268
      4 O           1.0660  -24.6200   26.3160 O.2       1 GLU        -0.3907
      5 CB         -1.7590  -26.0900   27.3130 C.3       1 GLU         0.0194
      6 CG         -3.2010  -26.0880   27.7760 C.3       1 GLU         0.0075
      7 CD         -3.8000  -27.4790   27.8010 C.2       1 GLU         0.0351
      8 OE1        -4.4050  -27.8910   26.7870 O.co2     1 GLU        -0.5690
      9 OE2        -3.6550  -28.1660   28.8340 O.co2     1 GLU        -0.5690
     10 N           1.0330  -25.4640   28.4060 N.am      1 GLU        -0.2609
     11 CA          2.4470  -25.8060   28.4450 C.3       1 GLU         0.1326
     12 C           2.6060  -27.0990   29.2270 C.2       1 GLU         0.2040
     13 O           2.0180  -27.2540   30.3020 O.2       1 GLU        -0.3944
     14 CB          3.2770  -24.6840   29.0820 C.3       1 GLU        -0.0008
     15 CG          4.7390  -25.0390   29.2940 C.3       1 GLU         0.0044
     16 CD          5.5370  -23.8890   29.8740 C.2       1 GLU         0.0350
     17 OE1         5.0850  -22.7300   29.7500 O.co2     1 GLU        -0.5690
     18 OE2         6.6160  -24.1470   30.4500 O.co2     1 GLU        -0.5690
     19 N           3.3880  -28.0260   28.6850 N.am      1 GLU        -0.2635
     20 CA          3.5970  -29.3200   29.3270 C.3       1 GLU         0.1337
     21 C           5.0940  -29.5710   29.4700 C.2       1 GLU         0.2067
     22 O           5.8370  -29.4690   28.4850 O.2       1 GLU        -0.3942
     23 CB          2.9090  -30.4460   28.5410 C.3       1 GLU        -0.0037
     24 CG1         1.4070  -30.4370   28.8280 C.3       1 GLU        -0.0491
     25 CG2         3.5310  -31.7990   28.8710 C.3       1 GLU        -0.0582
     26 CD1         0.7070  -31.7020   28.4170 C.3       1 GLU        -0.0648
     27 N           5.5780  -29.9020   30.6630 N.am      1 GLU        -0.2498
     28 CA          7.0140  -30.1180   30.8390 C.3       1 GLU         0.1338
     29 C           7.4510  -31.4710   30.2980 C.2       1 GLU         0.2041
     30 O           6.6450  -32.3690   30.0350 O.2       1 GLU        -0.3944
     31 CB          7.2070  -30.0360   32.3570 C.3       1 GLU        -0.0104
     32 CG          5.8380  -30.2500   32.9560 C.3       1 GLU        -0.0281
     33 CD          4.8080  -30.2610   31.8660 C.3       1 GLU         0.0369
     34 N           8.7610  -31.5960   30.1270 N.am      1 GLU        -0.2636
     35 CA          9.3480  -32.8080   29.5730 C.3       1 GLU         0.1325
     36 C           9.1950  -33.9840   30.5310 C.2       1 GLU         0.2041
     37 O           9.1960  -33.8020   31.7560 O.2       1 GLU        -0.3944
     38 CB         10.8250  -32.5770   29.2500 C.3       1 GLU        -0.0008
     39 CG         11.4690  -33.6900   28.4500 C.3       1 GLU         0.0044
     40 CD         12.8840  -33.3540   28.0450 C.2       1 GLU         0.0350
     41 OE1        13.4310  -32.3630   28.5780 O.co2     1 GLU        -0.5690
     42 OE2        13.4450  -34.0750   27.1920 O.co2     1 GLU        -0.5690
     43 N           9.0430  -35.1810   29.9680 N.am      1 GLU        -0.2611
     44 CA          9.1040  -36.4150   30.7460 C.3       1 GLU         0.1614
     45 CB          8.8260  -37.6230   29.8590 C.3       1 GLU         0.1262
     46 CG2         8.9610  -38.8970   30.6980 C.3       1 GLU        -0.0298
     47 OG1         7.5150  -37.5460   29.2900 O.3       1 GLU        -0.2685
     48 P           7.6540  -37.3770   27.6900 P.3       1 GLU         0.2014
     49 O1P         8.3350  -38.6780   27.0260 O.co2     1 GLU        -0.5537
     50 O2P         8.5560  -36.0850   27.3570 O.co2     1 GLU        -0.5537
     51 O3P         6.2960  -37.2030   27.1310 O.co2     1 GLU        -0.5537
     52 C          10.4860  -36.5360   31.3790 C.2       1 GLU         0.2093
     53 O          11.4870  -36.6370   30.6670 O.2       1 GLU        -0.3941
     54 N          10.5440  -36.5380   32.7210 N.am      1 GLU        -0.2498
     55 CA         11.8480  -36.5230   33.3900 C.3       1 GLU         0.1338
     56 C          12.5830  -37.8520   33.2530 C.2       1 GLU         0.2041
     57 O          11.9470  -38.8960   33.0900 O.2       1 GLU        -0.3944
     58 CB         11.4920  -36.2290   34.8490 C.3       1 GLU        -0.0104
     59 CG         10.0460  -36.6290   35.0060 C.3       1 GLU        -0.0281
     60 CD          9.4450  -36.8600   33.6490 C.3       1 GLU         0.0369
     61 N          13.9130  -37.8000   33.3110 N.am      1 GLU        -0.2629
     62 CA         14.7510  -38.9820   33.1420 C.3       1 GLU         0.1396
     63 C          14.3690  -40.0740   34.1380 C.2       1 GLU         0.2042
     64 O          14.9880  -40.2080   35.2010 O.2       1 GLU        -0.3944
     65 CB         16.2240  -38.5950   33.2850 C.3       1 GLU         0.0311
     66 SG         16.6880  -37.1380   32.3010 S.3       1 GLU        -0.1735
     67 N          13.3470  -40.8540   33.7910 N.am      1 GLU        -0.2694
     68 CA         12.7820  -41.8750   34.6700 C.3       1 GLU         0.0959
     69 C          13.7860  -42.9820   34.9890 C.2       1 GLU         0.0602
     70 O          13.4650  -43.9380   35.6970 O.co2     1 GLU        -0.5666
     71 CB         11.5240  -42.4780   34.0310 C.3       1 GLU        -0.0064
     72 CG         11.7860  -43.2230   32.7200 C.3       1 GLU         0.0038
     73 CD         10.9960  -42.6650   31.5430 C.2       1 GLU         0.0350
     74 OE1         9.9000  -42.1030   31.7630 O.co2     1 GLU        -0.5690
     75 OE2        11.4760  -42.7890   30.3940 O.co2     1 GLU        -0.5690
     76 OXT        14.9340  -42.9380   34.5440 O.co2     1 GLU        -0.5666
     77 H1         -2.5476  -23.7033   26.5251 H         1 GLU         0.2015
     78 H2         -1.3393  -24.1667   25.5078 H         1 GLU         0.2015
     79 H3         -1.1045  -22.9119   26.5471 H         1 GLU         0.2015
     80 H4         -1.2822  -24.3151   28.4264 H         1 GLU         0.1099
     81 H5         -1.2042  -26.8226   27.9175 H         1 GLU         0.0363
     82 H6         -1.7370  -26.3948   26.2563 H         1 GLU         0.0363
     83 H7         -3.7913  -25.4612   27.0913 H         1 GLU         0.0434
     84 H8         -3.2459  -25.6655   28.7906 H         1 GLU         0.0434
     85 H9          0.4768  -25.6341   29.2195 H         1 GLU         0.1885
     86 H10         2.8042  -25.9622   27.4164 H         1 GLU         0.0801
     87 H11         2.8355  -24.4397   30.0594 H         1 GLU         0.0330
     88 H12         3.2271  -23.8022   28.4263 H         1 GLU         0.0330
     89 H13         5.1780  -25.3197   28.3252 H         1 GLU         0.0433
     90 H14         4.7981  -25.8931   29.9847 H         1 GLU         0.0433
     91 H15         3.8443  -27.8327   27.8165 H         1 GLU         0.1883
     92 H16         3.1526  -29.2864   30.3327 H         1 GLU         0.0803
     93 H17         3.0551  -30.2574   27.4672 H         1 GLU         0.0345
     94 H18         0.9539  -29.5962   28.2824 H         1 GLU         0.0267
     95 H19         1.2605  -30.2943   29.9088 H         1 GLU         0.0267
     96 H20         4.6088  -31.7699   28.6532 H         1 GLU         0.0235
     97 H21         3.0546  -32.5803   28.2606 H         1 GLU         0.0235
     98 H22         3.3783  -32.0226   29.9371 H         1 GLU         0.0235
     99 H23        -0.3643  -31.6216   28.6534 H         1 GLU         0.0230
    100 H24         1.1397  -32.5541   28.9616 H         1 GLU         0.0230
    101 H25         0.8331  -31.8560   27.3352 H         1 GLU         0.0230
    102 H26         7.5876  -29.3277   30.3327 H         1 GLU         0.0802
    103 H27         7.5994  -29.0484   32.6408 H         1 GLU         0.0313
    104 H28         7.9011  -30.8182   32.6980 H         1 GLU         0.0313
    105 H29         5.6157  -29.4358   33.6614 H         1 GLU         0.0287
    106 H30         5.8177  -31.2123   33.4885 H         1 GLU         0.0287
    107 H31         4.3570  -31.2588   31.7611 H         1 GLU         0.0524
    108 H32         4.0187  -29.5207   32.0633 H         1 GLU         0.0524
    109 H33         9.3605  -30.8384   30.3852 H         1 GLU         0.1883
    110 H34         8.8203  -33.0523   28.6393 H         1 GLU         0.0801
    111 H35        11.3729  -32.4727   30.1981 H         1 GLU         0.0330
    112 H36        10.9098  -31.6444   28.6729 H         1 GLU         0.0330
    113 H37        10.8726  -33.8652   27.5425 H         1 GLU         0.0433
    114 H38        11.4829  -34.6041   29.0617 H         1 GLU         0.0433
    115 H39         8.8822  -35.2365   28.9826 H         1 GLU         0.1884
    116 H40         8.3450  -36.3761   31.5412 H         1 GLU         0.0830
    117 H41         9.5648  -37.6471   29.0444 H         1 GLU         0.0695
    118 H42         8.7620  -39.7750   30.0660 H         1 GLU         0.0260
    119 H43         8.2370  -38.8694   31.5257 H         1 GLU         0.0260
    120 H44         9.9809  -38.9617   31.1049 H         1 GLU         0.0260
    121 H45        12.4811  -35.7234   32.9780 H         1 GLU         0.0802
    122 H46        11.6193  -35.1582   35.0664 H         1 GLU         0.0313
    123 H47        12.1284  -36.8187   35.5252 H         1 GLU         0.0313
    124 H48         9.4963  -35.8264   35.5195 H         1 GLU         0.0287
    125 H49         9.9827  -37.5538   35.5982 H         1 GLU         0.0287
    126 H50         9.1280  -37.9070   33.5335 H         1 GLU         0.0524
    127 H51         8.5841  -36.1957   33.4831 H         1 GLU         0.0524
    128 H52        14.3533  -36.9176   33.4766 H         1 GLU         0.1884
    129 H53        14.5936  -39.3758   32.1271 H         1 GLU         0.0808
    130 H54        16.8410  -39.4457   32.9601 H         1 GLU         0.0422
    131 H55        16.4263  -38.3788   34.3444 H         1 GLU         0.0422
    132 H56        17.6662  -36.9379   32.4398 H         1 GLU         0.1019
    133 H57        12.9460  -40.7348   32.8827 H         1 GLU         0.1875
    134 H58        12.4959  -41.3910   35.6154 H         1 GLU         0.0727
    135 H59        10.8140  -41.6624   33.8291 H         1 GLU         0.0323
    136 H60        11.0775  -43.1842   34.7465 H         1 GLU         0.0323
    137 H61        11.5098  -44.2789   32.8569 H         1 GLU         0.0432
    138 H62        12.8585  -43.1519   32.4860 H         1 GLU         0.0432
@<TRIPOS>BOND
     1    1    2 1  
     2    2    3 1  
     3    2    5 1  
     4    3    4 2  
     5    3   10 am 
     6    5    6 1  
     7    6    7 1  
     8    7    8 ar 
     9    7    9 ar 
    10   10   11 1  
    11   11   12 1  
    12   11   14 1  
    13   12   13 2  
    14   12   19 am 
    15   14   15 1  
    16   15   16 1  
    17   16   17 ar 
    18   16   18 ar 
    19   19   20 1  
    20   20   21 1  
    21   20   23 1  
    22   21   22 2  
    23   21   27 am 
    24   23   24 1  
    25   23   25 1  
    26   24   26 1  
    27   27   28 1  
    28   27   33 1  
    29   28   29 1  
    30   28   31 1  
    31   29   30 2  
    32   29   34 am 
    33   31   32 1  
    34   32   33 1  
    35   34   35 1  
    36   35   36 1  
    37   35   38 1  
    38   36   37 2  
    39   36   43 am 
    40   38   39 1  
    41   39   40 1  
    42   40   41 ar 
    43   40   42 ar 
    44   43   44 1  
    45   44   45 1  
    46   44   52 1  
    47   45   46 1  
    48   45   47 1  
    49   47   48 1  
    50   48   49 ar 
    51   48   50 ar 
    52   48   51 ar 
    53   52   53 2  
    54   52   54 am 
    55   54   55 1  
    56   54   60 1  
    57   55   56 1  
    58   55   58 1  
    59   56   57 2  
    60   56   61 am 
    61   58   59 1  
    62   59   60 1  
    63   61   62 1  
    64   62   63 1  
    65   62   65 1  
    66   63   64 2  
    67   63   67 am 
    68   65   66 1  
    69   67   68 1  
    70   68   69 1  
    71   68   71 1  
    72   69   70 ar 
    73   69   76 ar 
    74   71   72 1  
    75   72   73 1  
    76   73   74 ar 
    77   73   75 ar 
    78    1   77 1  
    79    1   78 1  
    80    1   79 1  
    81    2   80 1  
    82    5   81 1  
    83    5   82 1  
    84    6   83 1  
    85    6   84 1  
    86   10   85 1  
    87   11   86 1  
    88   14   87 1  
    89   14   88 1  
    90   15   89 1  
    91   15   90 1  
    92   19   91 1  
    93   20   92 1  
    94   23   93 1  
    95   24   94 1  
    96   24   95 1  
    97   25   96 1  
    98   25   97 1  
    99   25   98 1  
   100   26   99 1  
   101   26  100 1  
   102   26  101 1  
   103   28  102 1  
   104   31  103 1  
   105   31  104 1  
   106   32  105 1  
   107   32  106 1  
   108   33  107 1  
   109   33  108 1  
   110   34  109 1  
   111   35  110 1  
   112   38  111 1  
   113   38  112 1  
   114   39  113 1  
   115   39  114 1  
   116   43  115 1  
   117   44  116 1  
   118   45  117 1  
   119   46  118 1  
   120   46  119 1  
   121   46  120 1  
   122   55  121 1  
   123   58  122 1  
   124   58  123 1  
   125   59  124 1  
   126   59  125 1  
   127   60  126 1  
   128   60  127 1  
   129   61  128 1  
   130   62  129 1  
   131   65  130 1  
   132   65  131 1  
   133   66  132 1  
   134   67  133 1  
   135   68  134 1  
   136   71  135 1  
   137   71  136 1  
   138   72  137 1  
   139   72  138 1  
@<TRIPOS>SUBSTRUCTURE
     1 GLU         1

