6rml_ligand
  -I-interpret- 

145146  0  0  0  0  0  0  0  0999 V2000
   -1.5500  -23.8080   26.4260 N   0  3  0  0  0
   -1.0560  -24.7370   27.4360 C   0  0  0  0  0
    0.4490  -24.9350   27.3350 C   0  0  0  0  0
    1.0660  -24.6200   26.3160 O   0  0  0  0  0
   -1.7590  -26.0900   27.3130 C   0  0  0  0  0
   -3.2010  -26.0880   27.7760 C   0  0  0  0  0
   -3.8000  -27.4790   27.8010 C   0  0  0  0  0
   -4.4050  -27.8910   26.7870 O   0  0  0  0  0
   -3.6550  -28.1660   28.8340 O   0  0  0  0  0
    1.0330  -25.4640   28.4060 N   0  0  0  0  0
    2.4470  -25.8060   28.4450 C   0  0  0  0  0
    2.6060  -27.0990   29.2270 C   0  0  0  0  0
    2.0180  -27.2540   30.3020 O   0  0  0  0  0
    3.2770  -24.6840   29.0820 C   0  0  0  0  0
    4.7390  -25.0390   29.2940 C   0  0  0  0  0
    5.5370  -23.8890   29.8740 C   0  0  0  0  0
    5.0850  -22.7300   29.7500 O   0  0  0  0  0
    6.6160  -24.1470   30.4500 O   0  0  0  0  0
    3.3880  -28.0260   28.6850 N   0  0  0  0  0
    3.5970  -29.3200   29.3270 C   0  0  0  0  0
    5.0940  -29.5710   29.4700 C   0  0  0  0  0
    5.8370  -29.4690   28.4850 O   0  0  0  0  0
    2.9090  -30.4460   28.5410 C   0  0  0  0  0
    1.4070  -30.4370   28.8280 C   0  0  0  0  0
    3.5310  -31.7990   28.8710 C   0  0  0  0  0
    0.7070  -31.7020   28.4170 C   0  0  0  0  0
    5.5780  -29.9020   30.6630 N   0  0  0  0  0
    7.0140  -30.1180   30.8390 C   0  0  0  0  0
    7.4510  -31.4710   30.2980 C   0  0  0  0  0
    6.6450  -32.3690   30.0350 O   0  0  0  0  0
    7.2070  -30.0360   32.3570 C   0  0  0  0  0
    5.8380  -30.2500   32.9560 C   0  0  0  0  0
    4.8080  -30.2610   31.8660 C   0  0  0  0  0
    8.7610  -31.5960   30.1270 N   0  0  0  0  0
    9.3480  -32.8080   29.5730 C   0  0  0  0  0
    9.1950  -33.9840   30.5310 C   0  0  0  0  0
    9.1960  -33.8020   31.7560 O   0  0  0  0  0
   10.8250  -32.5770   29.2500 C   0  0  0  0  0
   11.4690  -33.6900   28.4500 C   0  0  0  0  0
   12.8840  -33.3540   28.0450 C   0  0  0  0  0
   13.4310  -32.3630   28.5780 O   0  0  0  0  0
   13.4450  -34.0750   27.1920 O   0  0  0  0  0
    9.0430  -35.1810   29.9680 N   0  0  0  0  0
    9.1040  -36.4150   30.7460 C   0  0  0  0  0
    8.8260  -37.6230   29.8590 C   0  0  0  0  0
    8.9610  -38.8970   30.6980 C   0  0  0  0  0
    7.5150  -37.5460   29.2900 O   0  0  0  0  0
    7.6540  -37.3770   27.6900 P   0  0  0  0  0
    8.3350  -38.6780   27.0260 O   0  0  0  0  0
    8.5560  -36.0850   27.3570 O   0  0  0  0  0
    6.2960  -37.2030   27.1310 O   0  0  0  0  0
   10.4860  -36.5360   31.3790 C   0  0  0  0  0
   11.4870  -36.6370   30.6670 O   0  0  0  0  0
   10.5440  -36.5380   32.7210 N   0  0  0  0  0
   11.8480  -36.5230   33.3900 C   0  0  0  0  0
   12.5830  -37.8520   33.2530 C   0  0  0  0  0
   11.9470  -38.8960   33.0900 O   0  0  0  0  0
   11.4920  -36.2290   34.8490 C   0  0  0  0  0
   10.0460  -36.6290   35.0060 C   0  0  0  0  0
    9.4450  -36.8600   33.6490 C   0  0  0  0  0
   13.9130  -37.8000   33.3110 N   0  0  0  0  0
   14.7510  -38.9820   33.1420 C   0  0  0  0  0
   14.3690  -40.0740   34.1380 C   0  0  0  0  0
   14.9880  -40.2080   35.2010 O   0  0  0  0  0
   16.2240  -38.5950   33.2850 C   0  0  0  0  0
   16.6880  -37.1380   32.3010 S   0  0  0  0  0
   13.3470  -40.8540   33.7910 N   0  0  0  0  0
   12.7820  -41.8750   34.6700 C   0  0  0  0  0
   13.7860  -42.9820   34.9890 C   0  0  0  0  0
   13.4650  -43.9380   35.6970 O   0  0  0  0  0
   11.5240  -42.4780   34.0310 C   0  0  0  0  0
   11.7860  -43.2230   32.7200 C   0  0  0  0  0
   10.9960  -42.6650   31.5430 C   0  0  0  0  0
    9.9000  -42.1030   31.7630 O   0  0  0  0  0
   11.4760  -42.7890   30.3940 O   0  0  0  0  0
   14.9340  -42.9380   34.5440 O   0  0  0  0  0
   -1.0698  -22.9135   26.5246 H   0  0  0  0  0
   -1.3714  -24.1906   25.4975 H   0  0  0  0  0
   -2.5531  -23.6725   26.5520 H   0  0  0  0  0
   -1.2775  -24.2990   28.4093 H   0  0  0  0  0
   -1.2189  -26.7909   27.9495 H   0  0  0  0  0
   -1.7622  -26.3546   26.2556 H   0  0  0  0  0
   -3.7793  -25.4838   27.0770 H   0  0  0  0  0
   -3.2295  -25.6898   28.7903 H   0  0  0  0  0
   -4.3995  -27.2076   26.1128 H   0  0  0  0  0
    0.4657  -25.6375   29.2357 H   0  0  0  0  0
    2.8144  -25.9361   27.4271 H   0  0  0  0  0
    2.8481  -24.4826   30.0636 H   0  0  0  0  0
    3.2468  -23.8335   28.4009 H   0  0  0  0  0
    5.1681  -25.2907   28.3241 H   0  0  0  0  0
    4.7847  -25.8693   29.9987 H   0  0  0  0  0
    4.2496  -22.7623   29.2781 H   0  0  0  0  0
    3.8535  -27.8288   27.7991 H   0  0  0  0  0
    3.1452  -29.3071   30.3189 H   0  0  0  0  0
    3.0562  -30.2736   27.4748 H   0  0  0  0  0
    0.9698  -29.6205   28.2532 H   0  0  0  0  0
    1.2812  -30.3297   29.9054 H   0  0  0  0  0
    4.5891  -31.7844   28.6097 H   0  0  0  0  0
    3.4214  -31.9975   29.9372 H   0  0  0  0  0
    3.0254  -32.5786   28.3011 H   0  0  0  0  0
    0.8328  -31.8535   27.3449 H   0  0  0  0  0
    1.1367  -32.5455   28.9573 H   0  0  0  0  0
   -0.3543  -31.6212   28.6518 H   0  0  0  0  0
    7.6154  -29.3900   30.2946 H   0  0  0  0  0
    7.6239  -29.0733   32.6529 H   0  0  0  0  0
    7.9159  -30.7858   32.7083 H   0  0  0  0  0
    5.6179  -29.4424   33.6541 H   0  0  0  0  0
    5.8182  -31.2041   33.4826 H   0  0  0  0  0
    4.3099  -31.2259   31.7711 H   0  0  0  0  0
    3.9876  -29.5698   32.0590 H   0  0  0  0  0
    9.3725  -30.8233   30.3904 H   0  0  0  0  0
    8.8154  -33.0522   28.6539 H   0  0  0  0  0
   11.3556  -32.5164   30.2002 H   0  0  0  0  0
   10.8835  -31.6719   28.6454 H   0  0  0  0  0
   10.8827  -33.8398   27.5434 H   0  0  0  0  0
   11.4972  -34.5838   29.0732 H   0  0  0  0  0
   12.8215  -31.9584   29.1996 H   0  0  0  0  0
    8.8790  -35.2376   28.9629 H   0  0  0  0  0
    8.3434  -36.3852   31.5262 H   0  0  0  0  0
    9.5467  -37.6391   29.0414 H   0  0  0  0  0
    9.9720  -38.9599   31.1006 H   0  0  0  0  0
    8.2432  -38.8684   31.5178 H   0  0  0  0  0
    8.7636  -39.7663   30.0707 H   0  0  0  0  0
    9.2172  -38.7950   27.3861 H   0  0  0  0  0
    9.4350  -36.2067   27.7234 H   0  0  0  0  0
   12.5287  -35.7899   32.9572 H   0  0  0  0  0
   11.6413  -35.1765   35.0899 H   0  0  0  0  0
   12.1339  -36.7831   35.5338 H   0  0  0  0  0
    9.5009  -35.8348   35.5162 H   0  0  0  0  0
    9.9824  -37.5446   35.5940 H   0  0  0  0  0
    9.0801  -37.8795   33.5238 H   0  0  0  0  0
    8.5610  -36.2463   33.4757 H   0  0  0  0  0
   14.3621  -36.8999   33.4799 H   0  0  0  0  0
   14.5906  -39.3856   32.1423 H   0  0  0  0  0
   16.8201  -39.4351   32.9286 H   0  0  0  0  0
   16.3993  -38.3525   34.3331 H   0  0  0  0  0
   17.9786  -36.8740   32.4841 H   0  0  0  0  0
   12.9379  -40.7324   32.8646 H   0  0  0  0  0
   12.5219  -41.3888   35.6102 H   0  0  0  0  0
   12.5497  -43.8399   35.9694 H   0  0  0  0  0
   10.8498  -41.6522   33.8039 H   0  0  0  0  0
   11.1180  -43.2016   34.7379 H   0  0  0  0  0
   11.4785  -44.2590   32.8622 H   0  0  0  0  0
   12.8453  -43.1168   32.4863 H   0  0  0  0  0
   12.3181  -43.2467   30.4479 H   0  0  0  0  0
  1  2  1  0  0  0
  2  3  1  0  0  0
  2  5  1  0  0  0
  3  4  2  0  0  0
  3 10  1  0  0  0
  5  6  1  0  0  0
  6  7  1  0  0  0
  7  8  1  0  0  0
  7  9  2  0  0  0
 10 11  1  0  0  0
 11 12  1  0  0  0
 11 14  1  0  0  0
 12 13  2  0  0  0
 12 19  1  0  0  0
 14 15  1  0  0  0
 15 16  1  0  0  0
 16 17  1  0  0  0
 16 18  2  0  0  0
 19 20  1  0  0  0
 20 21  1  0  0  0
 20 23  1  0  0  0
 21 22  2  0  0  0
 21 27  1  0  0  0
 23 24  1  0  0  0
 23 25  1  0  0  0
 24 26  1  0  0  0
 27 28  1  0  0  0
 27 33  1  0  0  0
 28 29  1  0  0  0
 28 31  1  0  0  0
 29 30  2  0  0  0
 29 34  1  0  0  0
 31 32  1  0  0  0
 32 33  1  0  0  0
 34 35  1  0  0  0
 35 36  1  0  0  0
 35 38  1  0  0  0
 36 37  2  0  0  0
 36 43  1  0  0  0
 38 39  1  0  0  0
 39 40  1  0  0  0
 40 41  1  0  0  0
 40 42  2  0  0  0
 43 44  1  0  0  0
 44 45  1  0  0  0
 44 52  1  0  0  0
 45 46  1  0  0  0
 45 47  1  0  0  0
 47 48  1  0  0  0
 48 49  1  0  0  0
 48 50  1  0  0  0
 48 51  2  0  0  0
 52 53  2  0  0  0
 52 54  1  0  0  0
 54 55  1  0  0  0
 54 60  1  0  0  0
 55 56  1  0  0  0
 55 58  1  0  0  0
 56 57  2  0  0  0
 56 61  1  0  0  0
 58 59  1  0  0  0
 59 60  1  0  0  0
 61 62  1  0  0  0
 62 63  1  0  0  0
 62 65  1  0  0  0
 63 64  2  0  0  0
 63 67  1  0  0  0
 65 66  1  0  0  0
 67 68  1  0  0  0
 68 69  1  0  0  0
 68 71  1  0  0  0
 69 70  1  0  0  0
 69 76  2  0  0  0
 71 72  1  0  0  0
 72 73  1  0  0  0
 73 74  2  0  0  0
 73 75  1  0  0  0
  1 77  1  0  0  0
  1 78  1  0  0  0
  1 79  1  0  0  0
  2 80  1  0  0  0
  5 81  1  0  0  0
  5 82  1  0  0  0
  6 83  1  0  0  0
  6 84  1  0  0  0
  8 85  1  0  0  0
 10 86  1  0  0  0
 11 87  1  0  0  0
 14 88  1  0  0  0
 14 89  1  0  0  0
 15 90  1  0  0  0
 15 91  1  0  0  0
 17 92  1  0  0  0
 19 93  1  0  0  0
 20 94  1  0  0  0
 23 95  1  0  0  0
 24 96  1  0  0  0
 24 97  1  0  0  0
 25 98  1  0  0  0
 25 99  1  0  0  0
 25100  1  0  0  0
 26101  1  0  0  0
 26102  1  0  0  0
 26103  1  0  0  0
 28104  1  0  0  0
 31105  1  0  0  0
 31106  1  0  0  0
 32107  1  0  0  0
 32108  1  0  0  0
 33109  1  0  0  0
 33110  1  0  0  0
 34111  1  0  0  0
 35112  1  0  0  0
 38113  1  0  0  0
 38114  1  0  0  0
 39115  1  0  0  0
 39116  1  0  0  0
 41117  1  0  0  0
 43118  1  0  0  0
 44119  1  0  0  0
 45120  1  0  0  0
 46121  1  0  0  0
 46122  1  0  0  0
 46123  1  0  0  0
 49124  1  0  0  0
 50125  1  0  0  0
 55126  1  0  0  0
 58127  1  0  0  0
 58128  1  0  0  0
 59129  1  0  0  0
 59130  1  0  0  0
 60131  1  0  0  0
 60132  1  0  0  0
 61133  1  0  0  0
 62134  1  0  0  0
 65135  1  0  0  0
 65136  1  0  0  0
 66137  1  0  0  0
 67138  1  0  0  0
 68139  1  0  0  0
 70140  1  0  0  0
 71141  1  0  0  0
 71142  1  0  0  0
 72143  1  0  0  0
 72144  1  0  0  0
 75145  1  0  0  0
M  END
$$$$
