6hv0_ligand
  -I-interpret- 

 37 40  0  0  0  0  0  0  0  0999 V2000
   -4.1750   35.8440   23.3860 C   0  0  0  0  0
   -3.5030   35.7580   24.7710 C   0  0  0  0  0
   -2.0210   36.1270   24.5380 C   0  0  0  0  0
   -3.5520   34.3680   25.3080 N   0  0  0  0  0
   -4.4240   33.9920   26.3810 C   0  0  0  0  0
   -5.0680   34.9870   27.1160 C   0  0  0  0  0
   -5.9370   34.6320   28.1870 C   0  0  0  0  0
   -6.8060   35.8860   29.1780 Cl  0  0  0  0  0
   -6.2060   33.3660   28.5810 N   0  0  0  0  0
   -5.5830   32.3690   27.8720 N   0  0  0  0  0
   -4.6830   32.6030   26.7680 C   0  0  0  0  0
   -4.2930   31.3360   26.3600 N   0  0  0  0  0
   -4.9300   30.3430   27.1820 C   0  0  0  0  0
   -5.7770   30.9990   28.1690 C   0  0  0  0  0
   -6.6070   30.3600   29.2170 C   0  0  0  0  0
   -6.9190   30.9540   30.4190 C   0  0  0  0  0
   -7.7160   30.3140   31.4180 C   0  0  0  0  0
   -8.1940   30.6680   32.7280 C   0  0  0  0  0
   -8.9180   29.7020   33.2560 N   0  0  0  0  0
   -8.9720   28.6500   32.3670 N   0  0  0  0  0
   -8.2310   29.0120   31.2110 C   0  0  0  0  0
   -7.9310   28.3710   29.9820 C   0  0  0  0  0
   -7.1450   29.0120   29.0090 C   0  0  0  0  0
   -3.6572   35.1833   22.6907 H   0  0  0  0  0
   -5.2182   35.5394   23.4702 H   0  0  0  0  0
   -4.1230   36.8699   23.0214 H   0  0  0  0  0
   -4.0078   36.4142   25.4800 H   0  0  0  0  0
   -1.4804   36.0682   25.4827 H   0  0  0  0  0
   -1.5826   35.4307   23.8231 H   0  0  0  0  0
   -1.9581   37.1415   24.1444 H   0  0  0  0  0
   -2.9435   33.6599   24.8972 H   0  0  0  0  0
   -4.9062   36.0366   26.8707 H   0  0  0  0  0
   -4.7993   29.2655   27.0820 H   0  0  0  0  0
   -6.5414   31.9570   30.6177 H   0  0  0  0  0
   -7.9835   31.6166   33.2219 H   0  0  0  0  0
   -8.3147   27.3690   29.7897 H   0  0  0  0  0
   -6.9296   28.4932   28.0749 H   0  0  0  0  0
  1  2  1  0  0  0
  2  3  1  0  0  0
  2  4  1  0  0  0
  4  5  1  0  0  0
  5  6  4  0  0  0
  5 11  4  0  0  0
  6  7  4  0  0  0
  7  8  1  0  0  0
  7  9  4  0  0  0
  9 10  4  0  0  0
 10 11  4  0  0  0
 10 14  4  0  0  0
 11 12  4  0  0  0
 12 13  4  0  0  0
 13 14  4  0  0  0
 14 15  1  0  0  0
 15 16  4  0  0  0
 15 23  4  0  0  0
 16 17  4  0  0  0
 17 18  4  0  0  0
 17 21  4  0  0  0
 18 19  4  0  0  0
 19 20  4  0  0  0
 20 21  4  0  0  0
 21 22  4  0  0  0
 22 23  4  0  0  0
  1 24  1  0  0  0
  1 25  1  0  0  0
  1 26  1  0  0  0
  2 27  1  0  0  0
  3 28  1  0  0  0
  3 29  1  0  0  0
  3 30  1  0  0  0
  4 31  1  0  0  0
  6 32  1  0  0  0
 13 33  1  0  0  0
 16 34  1  0  0  0
 18 35  1  0  0  0
 22 36  1  0  0  0
 23 37  1  0  0  0
M  END
$$$$
