3upk_ligand
  -I-interpret- 

 66 68  0  0  0  0  0  0  0  0999 V2000
   86.0700    1.0000  124.1080 C   0  0  0  0  0
   85.9740   -0.0700  122.9490 C   0  0  0  0  0
   84.6350   -0.8750  123.0440 C   0  0  0  0  0
   84.6280   -1.5960  124.4090 C   0  0  0  0  0
   84.6860   -0.4830  125.5840 C   0  0  0  0  0
   84.7080   -1.1030  126.9920 C   0  0  0  0  0
   87.2290    1.0760  121.0780 C   0  0  0  0  0
   87.1370    1.8140  119.7570 C   0  0  0  0  0
   86.0740    0.6730  121.6430 N   0  0  0  0  0
   85.0430    1.9140  123.7780 O   0  0  0  0  0
   84.6090   -1.8320  121.9860 O   0  0  0  0  0
   83.4630   -2.3320  124.5890 O   0  0  0  0  0
   85.9420    0.3410  125.3960 O   0  0  0  0  0
   85.8450   -1.9560  127.0740 O   0  0  0  0  0
   88.3070    0.8500  121.6110 O   0  0  0  0  0
   81.5500    7.1780  129.1420 N   0  0  0  0  0
   80.9220    8.4590  129.4980 C   0  0  0  0  0
   81.5760    9.6100  128.9700 N   0  0  0  0  0
   82.7810    9.6120  128.1320 C   0  0  0  0  0
   83.3820    8.2890  127.7980 C   0  0  0  0  0
   82.7610    7.1620  128.2990 C   0  0  0  0  0
   79.9080    8.5830  130.1930 O   0  0  0  0  0
   83.2390   10.6780  127.7430 O   0  0  0  0  0
   80.9210    5.9070  129.6490 C   0  0  0  0  0
   80.4040    5.0650  128.4590 C   0  0  0  0  0
   79.1050    5.4970  128.1270 O   0  0  0  0  0
   80.3870    3.6640  129.1070 C   0  0  0  0  0
   81.6270    3.7480  130.0560 C   0  0  0  0  0
   81.8640    5.1290  130.3290 O   0  0  0  0  0
   79.2330    3.4430  129.9570 O   0  0  0  0  0
   82.9060    3.1370  129.3980 C   0  0  0  0  0
   83.1680    3.6360  128.0750 O   0  0  0  0  0
   84.6600    3.6620  127.4820 P   0  0  0  0  0
   85.5730    2.9090  128.3250 O   0  0  0  0  0
   85.0380    5.0470  127.1370 O   0  0  0  0  0
   84.3620    2.9610  126.1130 O   0  0  0  0  0
   84.7330    3.2490  124.5910 P   0  0  0  0  0
   85.9920    3.9430  124.6200 O   0  0  0  0  0
   83.6490    4.0030  124.0090 O   0  0  0  0  0
   87.0207    1.5261  124.1949 H   0  0  0  0  0
   86.7816   -0.7976  123.0301 H   0  0  0  0  0
   83.7652   -0.2237  122.9583 H   0  0  0  0  0
   85.4859   -2.2676  124.4404 H   0  0  0  0  0
   83.7848    0.1258  125.5111 H   0  0  0  0  0
   83.7950   -1.6712  127.1696 H   0  0  0  0  0
   84.7662   -0.3210  127.7490 H   0  0  0  0  0
   87.5738    2.8067  119.8657 H   0  0  0  0  0
   87.6806    1.2581  118.9931 H   0  0  0  0  0
   86.0907    1.9060  119.4658 H   0  0  0  0  0
   85.2061    0.8863  121.1514 H   0  0  0  0  0
   84.6136   -1.3745  121.1420 H   0  0  0  0  0
   83.4004   -3.0024  123.9047 H   0  0  0  0  0
   85.8812   -2.3562  127.9459 H   0  0  0  0  0
   81.1684   10.5174  129.1956 H   0  0  0  0  0
   84.2778    8.2142  127.1816 H   0  0  0  0  0
   83.1958    6.1928  128.0547 H   0  0  0  0  0
   80.1050    6.1834  130.3168 H   0  0  0  0  0
   80.9831    5.1196  127.5372 H   0  0  0  0  0
   78.7758    4.9794  127.3886 H   0  0  0  0  0
   80.3790    2.8761  128.3538 H   0  0  0  0  0
   81.4193    3.1811  130.9635 H   0  0  0  0  0
   79.2765    2.5597  130.3304 H   0  0  0  0  0
   82.7491    2.0615  129.3162 H   0  0  0  0  0
   83.7564    3.4081  130.0236 H   0  0  0  0  0
   84.3582    5.4338  126.5804 H   0  0  0  0  0
   82.8477    3.4746  124.0263 H   0  0  0  0  0
  1  2  1  0  0  0
 10  1  1  0  0  0
  1 13  1  0  0  0
  2  3  1  0  0  0
  2  9  1  0  0  0
  3  4  1  0  0  0
  3 11  1  0  0  0
  5  4  1  0  0  0
  4 12  1  0  0  0
  5  6  1  0  0  0
 13  5  1  0  0  0
  6 14  1  0  0  0
  7  8  1  0  0  0
  9  7  1  0  0  0
  7 15  2  0  0  0
 37 10  1  0  0  0
 16 17  1  0  0  0
 16 21  1  0  0  0
 24 16  1  0  0  0
 17 18  1  0  0  0
 17 22  2  0  0  0
 18 19  1  0  0  0
 20 19  1  0  0  0
 19 23  2  0  0  0
 21 20  2  0  0  0
 24 25  1  0  0  0
 29 24  1  0  0  0
 25 26  1  0  0  0
 27 25  1  0  0  0
 28 27  1  0  0  0
 27 30  1  0  0  0
 28 29  1  0  0  0
 31 28  1  0  0  0
 32 31  1  0  0  0
 33 32  1  0  0  0
 33 34  2  0  0  0
 33 35  1  0  0  0
 36 33  1  0  0  0
 36 37  1  0  0  0
 37 38  2  0  0  0
 37 39  1  0  0  0
  1 40  1  0  0  0
  2 41  1  0  0  0
  3 42  1  0  0  0
  4 43  1  0  0  0
  5 44  1  0  0  0
  6 45  1  0  0  0
  6 46  1  0  0  0
  8 47  1  0  0  0
  8 48  1  0  0  0
  8 49  1  0  0  0
  9 50  1  0  0  0
 11 51  1  0  0  0
 12 52  1  0  0  0
 14 53  1  0  0  0
 18 54  1  0  0  0
 20 55  1  0  0  0
 21 56  1  0  0  0
 24 57  1  0  0  0
 25 58  1  0  0  0
 26 59  1  0  0  0
 27 60  1  0  0  0
 28 61  1  0  0  0
 30 62  1  0  0  0
 31 63  1  0  0  0
 31 64  1  0  0  0
 35 65  1  0  0  0
 39 66  1  0  0  0
M  END
$$$$
