4n5g_ligand
  -I-interpret- 

 50 53  0  0  0  0  0  0  0  0999 V2000
    7.5280    7.6010   24.0980 C   0  0  0  0  0
    6.1790    7.7970   23.4440 C   0  0  0  0  0
    5.6560    7.0340   22.2940 C   0  0  0  0  0
    4.2520    7.5720   21.9690 C   0  0  0  0  0
    3.9490    8.6290   22.8980 C   0  0  0  0  0
    5.1630    8.7930   23.8430 C   0  0  0  0  0
    5.3290    9.6540   24.8750 C   0  0  0  0  0
    4.5240   10.9170   25.1170 C   0  0  0  0  0
    4.0130   11.1530   26.3840 C   0  0  0  0  0
    3.2790   12.3020   26.6430 C   0  0  0  0  0
    3.0640   13.2230   25.6310 C   0  0  0  0  0
    3.5810   12.9960   24.3650 C   0  0  0  0  0
    4.3160   11.8450   24.1070 C   0  0  0  0  0
    2.2670   14.4770   25.9160 C   0  0  0  0  0
    2.7810   15.1690   27.1600 C   0  0  0  0  0
    0.7910   14.1730   26.0360 C   0  0  0  0  0
    2.7160    9.2820   22.8040 C   0  0  0  0  0
    1.7850    8.9160   21.8170 C   0  0  0  0  0
    2.0930    7.8700   20.9020 C   0  0  0  0  0
    3.3280    7.2070   20.9900 C   0  0  0  0  0
    1.4480    7.6100   20.2140 F   0  0  0  0  0
    6.3690    5.9130   21.5670 C   0  0  0  0  0
    5.7880    4.5640   21.9260 C   0  0  0  0  0
    5.6740    4.3850   23.4250 C   0  0  0  0  0
    6.6850    4.1100   24.2720 N   0  0  0  0  0
    6.1750    4.0350   25.5090 N   0  0  0  0  0
    4.8570    4.2600   25.4460 N   0  0  0  0  0
    4.5380    4.4790   24.1550 N   0  0  0  0  0
    7.6013    6.5822   24.4785 H   0  0  0  0  0
    8.3148    7.7734   23.3637 H   0  0  0  0  0
    7.6370    8.3066   24.9216 H   0  0  0  0  0
    6.1112    9.4185   25.5966 H   0  0  0  0  0
    4.1889   10.4315   27.1818 H   0  0  0  0  0
    2.8732   12.4790   27.6390 H   0  0  0  0  0
    3.4107   13.7219   23.5700 H   0  0  0  0  0
    4.7282   11.6718   23.1129 H   0  0  0  0  0
    2.3971   15.1548   25.0723 H   0  0  0  0  0
    2.6931   14.4947   28.0119 H   0  0  0  0  0
    3.8267   15.4413   27.0169 H   0  0  0  0  0
    2.1921   16.0676   27.3440 H   0  0  0  0  0
    0.4337   13.7385   25.1023 H   0  0  0  0  0
    0.6318   13.4670   26.8511 H   0  0  0  0  0
    0.2469   15.0950   26.2408 H   0  0  0  0  0
    2.4747   10.0827   23.5031 H   0  0  0  0  0
    0.8275    9.4328   21.7521 H   0  0  0  0  0
    3.5651    6.4048   20.2911 H   0  0  0  0  0
    7.4195    5.9255   21.8576 H   0  0  0  0  0
    6.2505    6.0661   20.4943 H   0  0  0  0  0
    6.4498    3.7903   21.5369 H   0  0  0  0  0
    4.7894    4.4941   21.4947 H   0  0  0  0  0
  1  2  1  0  0  0
  2  3  2  0  0  0
  2  6  1  0  0  0
  3  4  1  0  0  0
  3 22  1  0  0  0
  4  5  4  0  0  0
  4 20  4  0  0  0
  5  6  1  0  0  0
  5 17  4  0  0  0
  6  7  2  0  0  0
  7  8  1  0  0  0
  8  9  4  0  0  0
  8 13  4  0  0  0
  9 10  4  0  0  0
 10 11  4  0  0  0
 11 12  4  0  0  0
 11 14  1  0  0  0
 12 13  4  0  0  0
 14 15  1  0  0  0
 14 16  1  0  0  0
 17 18  4  0  0  0
 18 19  4  0  0  0
 19 20  4  0  0  0
 19 21  1  0  0  0
 22 23  1  0  0  0
 23 24  1  0  0  0
 24 25  4  0  0  0
 24 28  4  0  0  0
 25 26  4  0  0  0
 26 27  4  0  0  0
 27 28  4  0  0  0
  1 29  1  0  0  0
  1 30  1  0  0  0
  1 31  1  0  0  0
  7 32  1  0  0  0
  9 33  1  0  0  0
 10 34  1  0  0  0
 12 35  1  0  0  0
 13 36  1  0  0  0
 14 37  1  0  0  0
 15 38  1  0  0  0
 15 39  1  0  0  0
 15 40  1  0  0  0
 16 41  1  0  0  0
 16 42  1  0  0  0
 16 43  1  0  0  0
 17 44  1  0  0  0
 18 45  1  0  0  0
 20 46  1  0  0  0
 22 47  1  0  0  0
 22 48  1  0  0  0
 23 49  1  0  0  0
 23 50  1  0  0  0
M  END
$$$$
