### 
### Created by X-TOOL on Mon Sep 10 21:13:26 2018
### 

@<TRIPOS>MOLECULE
5elq_ligand
  102   101     1     0     0
SMALL
GAST_HUCK


@<TRIPOS>ATOM
      1 N          46.7490   27.9030   70.7730 N.4       1 GLU         0.2380
      2 CA         47.2690   28.3420   69.4830 C.3       1 GLU         0.0665
      3 C          47.8950   27.1720   68.7470 C.2       1 GLU         0.2269
      4 O          49.0500   26.8090   69.0110 O.2       1 GLU        -0.3907
      5 CB         48.3060   29.4440   69.6640 C.3       1 GLU         0.0194
      6 CG         47.7390   30.7050   70.2730 C.3       1 GLU         0.0075
      7 CD         48.7680   31.8020   70.3990 C.2       1 GLU         0.0351
      8 OE1        49.8080   31.7360   69.7070 O.co2     1 GLU        -0.5690
      9 OE2        48.5550   32.7210   71.2140 O.co2     1 GLU        -0.5690
     10 N          47.1190   26.5920   67.8340 N.am      1 ASP        -0.2595
     11 CA         47.5440   25.4300   67.0610 C.3       1 ASP         0.1424
     12 C          47.6840   25.8000   65.5940 C.2       1 ASP         0.2056
     13 O          47.1980   26.8350   65.1420 O.2       1 ASP        -0.3943
     14 CB         46.5430   24.2780   67.1980 C.3       1 ASP         0.0406
     15 CG         46.6830   23.5100   68.5230 C.2       1 ASP         0.0393
     16 OD1        47.3900   23.9830   69.4370 O.co2     1 ASP        -0.5688
     17 OD2        46.0780   22.4220   68.6490 O.co2     1 ASP        -0.5688
     18 N          48.3700   24.9400   64.8650 N.am      1 GLN        -0.2635
     19 CA         48.5570   25.0870   63.4300 C.3       1 GLN         0.1330
     20 C          48.4210   23.7000   62.8390 C.2       1 GLN         0.2040
     21 O          48.6970   22.7150   63.5190 O.2       1 GLN        -0.3944
     22 CB         49.9420   25.6820   63.1330 C.3       1 GLN         0.0045
     23 CG         50.2560   25.8370   61.6580 C.3       1 GLN         0.0412
     24 CD         51.5160   26.6400   61.4020 C.2       1 GLN         0.1737
     25 OE1        52.1230   27.1850   62.3240 O.2       1 GLN        -0.3973
     26 NE2        51.9000   26.7360   60.1340 N.am      1 GLN        -0.3009
     27 N          47.9700   23.6380   61.5900 N.am      1 GLU        -0.2636
     28 CA         47.7790   22.3920   60.8740 C.3       1 GLU         0.1325
     29 C          48.4860   22.4800   59.5240 C.2       1 GLU         0.2041
     30 O          48.3390   23.4660   58.7980 O.2       1 GLU        -0.3944
     31 CB         46.2820   22.1100   60.6870 C.3       1 GLU        -0.0008
     32 CG         45.9820   20.7830   60.0190 C.3       1 GLU         0.0044
     33 CD         44.5330   20.3610   60.0970 C.2       1 GLU         0.0350
     34 OE1        43.7170   21.0400   60.7780 O.co2     1 GLU        -0.5690
     35 OE2        44.2000   19.3290   59.4700 O.co2     1 GLU        -0.5690
     36 N          49.2330   21.4340   59.1870 N.am      1 THR        -0.2613
     37 CA         50.0420   21.3990   57.9620 C.3       1 THR         0.1565
     38 C          49.8330   20.0620   57.2660 C.2       1 THR         0.2065
     39 O          49.9150   19.0190   57.9070 O.2       1 THR        -0.3943
     40 CB         51.5420   21.5700   58.2850 C.3       1 THR         0.0924
     41 OG1        51.7350   22.8220   58.9350 O.3       1 THR        -0.3874
     42 CG2        52.3950   21.5160   57.0210 C.3       1 THR        -0.0346
     43 N          49.5880   20.0900   55.9540 N.am      1 ALA        -0.2639
     44 CA         49.5180   18.8760   55.1380 C.3       1 ALA         0.1282
     45 C          50.9200   18.4890   54.7020 C.2       1 ALA         0.2031
     46 O          51.6740   19.3340   54.2160 O.2       1 ALA        -0.3944
     47 CB         48.6600   19.1120   53.9150 C.3       1 ALA        -0.0244
     48 N          51.2670   17.2180   54.8430 N.am      1 VAL        -0.2692
     49 CA         52.5860   16.7090   54.4570 C.3       1 VAL         0.0967
     50 C          52.4660   15.4780   53.5620 C.2       1 VAL         0.0603
     51 O          53.4800   15.0280   53.0250 O.co2     1 VAL        -0.5666
     52 CB         53.4370   16.3650   55.6950 C.3       1 VAL        -0.0118
     53 CG1        53.7130   17.6140   56.5090 C.3       1 VAL        -0.0590
     54 CG2        52.7600   15.3150   56.5550 C.3       1 VAL        -0.0590
     55 OXT        51.3640   14.9050   53.3940 O.co2     1 VAL        -0.5666
     56 H1         46.3358   28.6871   71.2531 H         1 GLU         0.2015
     57 H2         47.5016   27.5276   71.3285 H         1 GLU         0.2015
     58 H3         46.0501   27.1910   70.6289 H         1 GLU         0.2015
     59 H4         46.4353   28.7356   68.8830 H         1 GLU         0.1099
     60 H5         48.7279   29.6915   68.6787 H         1 GLU         0.0363
     61 H6         49.1042   29.0677   70.3207 H         1 GLU         0.0363
     62 H7         47.3513   30.4689   71.2749 H         1 GLU         0.0434
     63 H8         46.9168   31.0646   69.6369 H         1 GLU         0.0434
     64 H9         46.2069   26.9684   67.6713 H         1 ASP         0.1886
     65 H10        48.5212   25.0958   67.4398 H         1 ASP         0.0819
     66 H11        46.7031   23.5748   66.3675 H         1 ASP         0.0478
     67 H12        45.5249   24.6902   67.1385 H         1 ASP         0.0478
     68 H13        48.7806   24.1501   65.3206 H         1 GLN         0.1883
     69 H14        47.7833   25.7490   63.0139 H         1 GLN         0.0801
     70 H15        50.7018   25.0232   63.5787 H         1 GLN         0.0337
     71 H16        49.9971   26.6753   63.6023 H         1 GLN         0.0337
     72 H17        49.4110   26.3460   61.1713 H         1 GLN         0.0504
     73 H18        50.3830   24.8362   61.2196 H         1 GLN         0.0504
     74 H19        52.7234   27.2523   59.8987 H         1 GLN         0.1814
     75 H20        51.3656   26.2920   59.4148 H         1 GLN         0.1814
     76 H21        47.7516   24.4937   61.1209 H         1 GLU         0.1883
     77 H22        48.2225   21.5713   61.4568 H         1 GLU         0.0801
     78 H23        45.8536   22.9127   60.0688 H         1 GLU         0.0330
     79 H24        45.8031   22.1145   61.6772 H         1 GLU         0.0330
     80 H25        46.5932   20.0074   60.5036 H         1 GLU         0.0433
     81 H26        46.2616   20.8604   58.9580 H         1 GLU         0.0433
     82 H27        49.2447   20.6381   59.7923 H         1 THR         0.1884
     83 H28        49.7220   22.2137   57.2957 H         1 THR         0.0826
     84 H29        51.8558   20.7590   58.9586 H         1 THR         0.0639
     85 H30        51.2290   22.8416   59.7388 H         1 THR         0.2101
     86 H31        53.4547   21.6409   57.2882 H         1 THR         0.0257
     87 H32        52.0913   22.3237   56.3389 H         1 THR         0.0257
     88 H33        52.2541   20.5445   56.5247 H         1 THR         0.0257
     89 H34        49.4466   20.9752   55.5108 H         1 ALA         0.1883
     90 H35        49.0815   18.0617   55.7350 H         1 ALA         0.0797
     91 H36        48.6178   18.1919   53.3137 H         1 ALA         0.0277
     92 H37        49.0947   19.9237   53.3132 H         1 ALA         0.0277
     93 H38        47.6435   19.3920   54.2286 H         1 ALA         0.0277
     94 H39        50.6011   16.5795   55.2289 H         1 VAL         0.1875
     95 H40        53.1022   17.4986   53.8913 H         1 VAL         0.0729
     96 H41        54.3981   15.9574   55.3484 H         1 VAL         0.0336
     97 H42        54.3205   17.3521   57.3878 H         1 VAL         0.0234
     98 H43        52.7607   18.0541   56.8396 H         1 VAL         0.0234
     99 H44        54.2581   18.3419   55.8902 H         1 VAL         0.0234
    100 H45        52.5664   14.4159   55.9515 H         1 VAL         0.0234
    101 H46        51.8080   15.7121   56.9371 H         1 VAL         0.0234
    102 H47        53.4146   15.0554   57.4000 H         1 VAL         0.0234
@<TRIPOS>BOND
     1    1    2 1  
     2    2    3 1  
     3    2    5 1  
     4    3    4 2  
     5    3   10 am 
     6    5    6 1  
     7    6    7 1  
     8    7    8 ar 
     9    7    9 ar 
    10   10   11 1  
    11   11   12 1  
    12   11   14 1  
    13   12   13 2  
    14   12   18 am 
    15   14   15 1  
    16   15   16 ar 
    17   15   17 ar 
    18   18   19 1  
    19   19   20 1  
    20   19   22 1  
    21   20   21 2  
    22   20   27 am 
    23   22   23 1  
    24   23   24 1  
    25   24   25 2  
    26   24   26 am 
    27   27   28 1  
    28   28   29 1  
    29   28   31 1  
    30   29   30 2  
    31   29   36 am 
    32   31   32 1  
    33   32   33 1  
    34   33   34 ar 
    35   33   35 ar 
    36   36   37 1  
    37   37   38 1  
    38   37   40 1  
    39   38   39 2  
    40   38   43 am 
    41   40   41 1  
    42   40   42 1  
    43   43   44 1  
    44   44   45 1  
    45   44   47 1  
    46   45   46 2  
    47   45   48 am 
    48   48   49 1  
    49   49   50 1  
    50   49   52 1  
    51   50   51 ar 
    52   50   55 ar 
    53   52   53 1  
    54   52   54 1  
    55    1   56 1  
    56    1   57 1  
    57    1   58 1  
    58    2   59 1  
    59    5   60 1  
    60    5   61 1  
    61    6   62 1  
    62    6   63 1  
    63   10   64 1  
    64   11   65 1  
    65   14   66 1  
    66   14   67 1  
    67   18   68 1  
    68   19   69 1  
    69   22   70 1  
    70   22   71 1  
    71   23   72 1  
    72   23   73 1  
    73   26   74 1  
    74   26   75 1  
    75   27   76 1  
    76   28   77 1  
    77   31   78 1  
    78   31   79 1  
    79   32   80 1  
    80   32   81 1  
    81   36   82 1  
    82   37   83 1  
    83   40   84 1  
    84   41   85 1  
    85   42   86 1  
    86   42   87 1  
    87   42   88 1  
    88   43   89 1  
    89   44   90 1  
    90   47   91 1  
    91   47   92 1  
    92   47   93 1  
    93   48   94 1  
    94   49   95 1  
    95   52   96 1  
    96   53   97 1  
    97   53   98 1  
    98   53   99 1  
    99   54  100 1  
   100   54  101 1  
   101   54  102 1  
@<TRIPOS>SUBSTRUCTURE
     1 GLU         1

