5elq_ligand
  -I-interpret- 

106105  0  0  0  0  0  0  0  0999 V2000
   46.7490   27.9030   70.7730 N   0  3  0  0  0
   47.2690   28.3420   69.4830 C   0  0  0  0  0
   47.8950   27.1720   68.7470 C   0  0  0  0  0
   49.0500   26.8090   69.0110 O   0  0  0  0  0
   48.3060   29.4440   69.6640 C   0  0  0  0  0
   47.7390   30.7050   70.2730 C   0  0  0  0  0
   48.7680   31.8020   70.3990 C   0  0  0  0  0
   49.8080   31.7360   69.7070 O   0  0  0  0  0
   48.5550   32.7210   71.2140 O   0  0  0  0  0
   47.1190   26.5920   67.8340 N   0  0  0  0  0
   47.5440   25.4300   67.0610 C   0  0  0  0  0
   47.6840   25.8000   65.5940 C   0  0  0  0  0
   47.1980   26.8350   65.1420 O   0  0  0  0  0
   46.5430   24.2780   67.1980 C   0  0  0  0  0
   46.6830   23.5100   68.5230 C   0  0  0  0  0
   47.3900   23.9830   69.4370 O   0  0  0  0  0
   46.0780   22.4220   68.6490 O   0  0  0  0  0
   48.3700   24.9400   64.8650 N   0  0  0  0  0
   48.5570   25.0870   63.4300 C   0  0  0  0  0
   48.4210   23.7000   62.8390 C   0  0  0  0  0
   48.6970   22.7150   63.5190 O   0  0  0  0  0
   49.9420   25.6820   63.1330 C   0  0  0  0  0
   50.2560   25.8370   61.6580 C   0  0  0  0  0
   51.5160   26.6400   61.4020 C   0  0  0  0  0
   52.1230   27.1850   62.3240 O   0  0  0  0  0
   51.9000   26.7360   60.1340 N   0  0  0  0  0
   47.9700   23.6380   61.5900 N   0  0  0  0  0
   47.7790   22.3920   60.8740 C   0  0  0  0  0
   48.4860   22.4800   59.5240 C   0  0  0  0  0
   48.3390   23.4660   58.7980 O   0  0  0  0  0
   46.2820   22.1100   60.6870 C   0  0  0  0  0
   45.9820   20.7830   60.0190 C   0  0  0  0  0
   44.5330   20.3610   60.0970 C   0  0  0  0  0
   43.7170   21.0400   60.7780 O   0  0  0  0  0
   44.2000   19.3290   59.4700 O   0  0  0  0  0
   49.2330   21.4340   59.1870 N   0  0  0  0  0
   50.0420   21.3990   57.9620 C   0  0  0  0  0
   49.8330   20.0620   57.2660 C   0  0  0  0  0
   49.9150   19.0190   57.9070 O   0  0  0  0  0
   51.5420   21.5700   58.2850 C   0  0  0  0  0
   51.7350   22.8220   58.9350 O   0  0  0  0  0
   52.3950   21.5160   57.0210 C   0  0  0  0  0
   49.5880   20.0900   55.9540 N   0  0  0  0  0
   49.5180   18.8760   55.1380 C   0  0  0  0  0
   50.9200   18.4890   54.7020 C   0  0  0  0  0
   51.6740   19.3340   54.2160 O   0  0  0  0  0
   48.6600   19.1120   53.9150 C   0  0  0  0  0
   51.2670   17.2180   54.8430 N   0  0  0  0  0
   52.5860   16.7090   54.4570 C   0  0  0  0  0
   52.4660   15.4780   53.5620 C   0  0  0  0  0
   53.4800   15.0280   53.0250 O   0  0  0  0  0
   53.4370   16.3650   55.6950 C   0  0  0  0  0
   53.7130   17.6140   56.5090 C   0  0  0  0  0
   52.7600   15.3150   56.5550 C   0  0  0  0  0
   51.3640   14.9050   53.3940 O   0  0  0  0  0
   46.0582   27.1668   70.6271 H   0  0  0  0  0
   47.5151   27.5439   71.3427 H   0  0  0  0  0
   46.3113   28.6923   71.2482 H   0  0  0  0  0
   46.4378   28.7358   68.8981 H   0  0  0  0  0
   48.6906   29.6994   68.6766 H   0  0  0  0  0
   49.0722   29.0670   70.3415 H   0  0  0  0  0
   47.3823   30.4630   71.2741 H   0  0  0  0  0
   46.9435   31.0645   69.6202 H   0  0  0  0  0
   49.7710   30.9554   69.1494 H   0  0  0  0  0
   46.1887   26.9759   67.6680 H   0  0  0  0  0
   48.5077   25.1042   67.4524 H   0  0  0  0  0
   46.7340   23.5756   66.3867 H   0  0  0  0  0
   45.5407   24.7053   67.1676 H   0  0  0  0  0
   45.5927   22.2318   67.8428 H   0  0  0  0  0
   48.7888   24.1343   65.3297 H   0  0  0  0  0
   47.8219   25.7650   62.9965 H   0  0  0  0  0
   50.6800   24.9943   63.5459 H   0  0  0  0  0
   49.9608   26.6804   63.5699 H   0  0  0  0  0
   49.4241   26.3680   61.1954 H   0  0  0  0  0
   50.4077   24.8401   61.2442 H   0  0  0  0  0
   52.7291   27.2786   59.8919 H   0  0  0  0  0
   51.3658   26.2671   59.4025 H   0  0  0  0  0
   47.7472   24.5108   61.1115 H   0  0  0  0  0
   48.2056   21.5697   61.4484 H   0  0  0  0  0
   45.8840   22.8934   60.0420 H   0  0  0  0  0
   45.8326   22.0807   61.6796 H   0  0  0  0  0
   46.5657   20.0232   60.5386 H   0  0  0  0  0
   46.2276   20.8929   58.9627 H   0  0  0  0  0
   44.1748   21.7850   61.1743 H   0  0  0  0  0
   49.2450   20.6222   59.8045 H   0  0  0  0  0
   49.7296   22.2193   57.3158 H   0  0  0  0  0
   51.8515   20.7509   58.9342 H   0  0  0  0  0
   52.6662   22.9352   59.1390 H   0  0  0  0  0
   52.2544   20.5529   56.5302 H   0  0  0  0  0
   52.0930   22.3168   56.3459 H   0  0  0  0  0
   53.4447   21.6399   57.2871 H   0  0  0  0  0
   49.4438   20.9929   55.5019 H   0  0  0  0  0
   49.0747   18.0746   55.7291 H   0  0  0  0  0
   47.6532   19.3894   54.2271 H   0  0  0  0  0
   49.0918   19.9165   53.3196 H   0  0  0  0  0
   48.6189   18.1996   53.3200 H   0  0  0  0  0
   50.5878   16.5667   55.2366 H   0  0  0  0  0
   53.0820   17.5026   53.8981 H   0  0  0  0  0
   54.3842   15.9535   55.3463 H   0  0  0  0  0
   54.2531   18.3345   55.8948 H   0  0  0  0  0
   52.7686   18.0491   56.8359 H   0  0  0  0  0
   54.3150   17.3532   57.3795 H   0  0  0  0  0
   51.7936   15.6906   56.8913 H   0  0  0  0  0
   52.6147   14.4067   55.9702 H   0  0  0  0  0
   53.3869   15.0958   57.4193 H   0  0  0  0  0
   50.6818   15.3782   53.8759 H   0  0  0  0  0
  1  2  1  0  0  0
  2  3  1  0  0  0
  2  5  1  0  0  0
  3  4  2  0  0  0
  3 10  1  0  0  0
  5  6  1  0  0  0
  6  7  1  0  0  0
  7  8  1  0  0  0
  7  9  2  0  0  0
 10 11  1  0  0  0
 11 12  1  0  0  0
 11 14  1  0  0  0
 12 13  2  0  0  0
 12 18  1  0  0  0
 14 15  1  0  0  0
 15 16  2  0  0  0
 15 17  1  0  0  0
 18 19  1  0  0  0
 19 20  1  0  0  0
 19 22  1  0  0  0
 20 21  2  0  0  0
 20 27  1  0  0  0
 22 23  1  0  0  0
 23 24  1  0  0  0
 24 25  2  0  0  0
 24 26  1  0  0  0
 27 28  1  0  0  0
 28 29  1  0  0  0
 28 31  1  0  0  0
 29 30  2  0  0  0
 29 36  1  0  0  0
 31 32  1  0  0  0
 32 33  1  0  0  0
 33 34  1  0  0  0
 33 35  2  0  0  0
 36 37  1  0  0  0
 37 38  1  0  0  0
 37 40  1  0  0  0
 38 39  2  0  0  0
 38 43  1  0  0  0
 40 41  1  0  0  0
 40 42  1  0  0  0
 43 44  1  0  0  0
 44 45  1  0  0  0
 44 47  1  0  0  0
 45 46  2  0  0  0
 45 48  1  0  0  0
 48 49  1  0  0  0
 49 50  1  0  0  0
 49 52  1  0  0  0
 50 51  2  0  0  0
 50 55  1  0  0  0
 52 53  1  0  0  0
 52 54  1  0  0  0
  1 56  1  0  0  0
  1 57  1  0  0  0
  1 58  1  0  0  0
  2 59  1  0  0  0
  5 60  1  0  0  0
  5 61  1  0  0  0
  6 62  1  0  0  0
  6 63  1  0  0  0
  8 64  1  0  0  0
 10 65  1  0  0  0
 11 66  1  0  0  0
 14 67  1  0  0  0
 14 68  1  0  0  0
 17 69  1  0  0  0
 18 70  1  0  0  0
 19 71  1  0  0  0
 22 72  1  0  0  0
 22 73  1  0  0  0
 23 74  1  0  0  0
 23 75  1  0  0  0
 26 76  1  0  0  0
 26 77  1  0  0  0
 27 78  1  0  0  0
 28 79  1  0  0  0
 31 80  1  0  0  0
 31 81  1  0  0  0
 32 82  1  0  0  0
 32 83  1  0  0  0
 34 84  1  0  0  0
 36 85  1  0  0  0
 37 86  1  0  0  0
 40 87  1  0  0  0
 41 88  1  0  0  0
 42 89  1  0  0  0
 42 90  1  0  0  0
 42 91  1  0  0  0
 43 92  1  0  0  0
 44 93  1  0  0  0
 47 94  1  0  0  0
 47 95  1  0  0  0
 47 96  1  0  0  0
 48 97  1  0  0  0
 49 98  1  0  0  0
 52 99  1  0  0  0
 53100  1  0  0  0
 53101  1  0  0  0
 53102  1  0  0  0
 54103  1  0  0  0
 54104  1  0  0  0
 54105  1  0  0  0
 55106  1  0  0  0
M  END
$$$$
