3fue_ligand
  -I-interpret- 

 15 16  0  0  0  0  0  0  0  0999 V2000
   22.4820   -3.0260   -5.5770 C   0  0  0  0  0
   22.8700   -3.2290   -4.2550 C   0  0  0  0  0
   24.3200    0.0370   -4.8090 C   0  0  0  0  0
   24.9350    0.3370   -3.6040 C   0  0  0  0  0
   24.8990   -0.5280   -2.5340 C   0  0  0  0  0
   24.2210   -1.7530   -2.6250 C   0  0  0  0  0
   23.6020   -2.0660   -3.8510 C   0  0  0  0  0
   23.6500   -1.1810   -4.9230 C   0  0  0  0  0
   25.7670    0.1420   -1.1100 Cl  0  0  0  0  0
   22.9650   -1.7820   -5.9480 N   0  0  0  0  0
   21.9090   -3.7132   -6.1994 H   0  0  0  0  0
   22.6571   -4.1061   -3.6439 H   0  0  0  0  0
   24.3588    0.7345   -5.6457 H   0  0  0  0  0
   25.4624    1.2853   -3.5006 H   0  0  0  0  0
   24.1750   -2.4375   -1.7780 H   0  0  0  0  0
  2  1  4  0  0  0
  1 10  4  0  0  0
  7  2  4  0  0  0
  4  3  4  0  0  0
  3  8  4  0  0  0
  5  4  4  0  0  0
  6  5  4  0  0  0
  5  9  1  0  0  0
  6  7  4  0  0  0
  7  8  4  0  0  0
  8 10  4  0  0  0
  1 11  1  0  0  0
  2 12  1  0  0  0
  3 13  1  0  0  0
  4 14  1  0  0  0
  6 15  1  0  0  0
M  END
$$$$
