2ydt_ligand
  -I-interpret- 

 38 39  0  0  0  0  0  0  0  0999 V2000
   64.3550   26.4330   55.1530 O   0  0  0  0  0
   65.5060   26.4670   54.2620 C   0  0  0  0  0
   65.0730   26.1030   52.8560 C   0  0  0  0  0
   65.2460   27.3310   52.0690 N   0  3  0  0  0
   66.1630   27.8510   54.1740 C   0  0  0  0  0
   67.4370   27.9450   54.8490 O   0  0  0  0  0
   66.3520   28.0740   52.6620 C   0  0  0  0  0
   66.4060   29.5100   52.2170 C   0  0  0  0  0
   66.8520   29.5160   50.8690 O   0  0  0  0  0
   63.2810   32.2020   48.7990 O   0  0  0  0  0
   64.5700   32.3730   48.1850 C   0  0  0  0  0
   65.5470   31.3140   48.6330 C   0  0  0  0  0
   65.8230   31.3750   50.0180 O   0  0  0  0  0
   66.9480   31.4870   48.0170 C   0  0  0  0  0
   67.0510   30.9760   46.6640 O   0  0  0  0  0
   67.7900   30.6490   48.9480 C   0  0  0  0  0
   69.1650   31.0450   49.0580 O   0  0  0  0  0
   67.0760   30.7920   50.2650 C   0  0  0  0  0
   63.9884   25.5458   55.1667 H   0  0  0  0  0
   66.2245   25.7593   54.6756 H   0  0  0  0  0
   64.0414   25.7519   52.8314 H   0  0  0  0  0
   65.6648   25.2810   52.4534 H   0  0  0  0  0
   64.3919   27.8884   52.0823 H   0  0  0  0  0
   65.4467   27.1067   51.0944 H   0  0  0  0  0
   65.5410   28.5978   54.6675 H   0  0  0  0  0
   67.3103   27.8049   55.7902 H   0  0  0  0  0
   67.3326   27.7256   52.3378 H   0  0  0  0  0
   67.0858   30.0820   52.8485 H   0  0  0  0  0
   65.4230   29.9739   52.2979 H   0  0  0  0  0
   62.6875   32.8911   48.4917 H   0  0  0  0  0
   64.9624   33.3473   48.4763 H   0  0  0  0  0
   64.4489   32.2933   47.1047 H   0  0  0  0  0
   65.0544   30.3906   48.3283 H   0  0  0  0  0
   67.2363   32.5347   47.9311 H   0  0  0  0  0
   67.9437   31.1130   46.3385 H   0  0  0  0  0
   67.8719   29.6269   48.5784 H   0  0  0  0  0
   69.6181   30.4580   49.6677 H   0  0  0  0  0
   67.6865   31.4000   50.9326 H   0  0  0  0  0
  2  1  1  0  0  0
  2  3  1  0  0  0
  5  2  1  0  0  0
  4  3  1  0  0  0
  7  4  1  0  0  0
  5  6  1  0  0  0
  7  5  1  0  0  0
  8  7  1  0  0  0
  9  8  1  0  0  0
 18  9  1  0  0  0
 11 10  1  0  0  0
 12 11  1  0  0  0
 13 12  1  0  0  0
 12 14  1  0  0  0
 13 18  1  0  0  0
 14 15  1  0  0  0
 14 16  1  0  0  0
 16 17  1  0  0  0
 16 18  1  0  0  0
  1 19  1  0  0  0
  2 20  1  0  0  0
  3 21  1  0  0  0
  3 22  1  0  0  0
  4 23  1  0  0  0
  4 24  1  0  0  0
  5 25  1  0  0  0
  6 26  1  0  0  0
  7 27  1  0  0  0
  8 28  1  0  0  0
  8 29  1  0  0  0
 10 30  1  0  0  0
 11 31  1  0  0  0
 11 32  1  0  0  0
 12 33  1  0  0  0
 14 34  1  0  0  0
 15 35  1  0  0  0
 16 36  1  0  0  0
 17 37  1  0  0  0
 18 38  1  0  0  0
M  END
$$$$
