4g2y_ligand
  -I-interpret- 

 59 62  0  0  0  0  0  0  0  0999 V2000
   32.0830  -31.8340  -44.2420 C   0  0  0  0  0
   30.6780  -32.3160  -44.0860 C   0  0  0  0  0
   30.1270  -32.0730  -42.7810 N   0  3  0  0  0
   28.8000  -32.6380  -42.5390 C   0  0  0  0  0
   30.3720  -30.7490  -42.3040 C   0  0  0  0  0
   31.8060  -30.3500  -42.4110 C   0  0  0  0  0
   32.2590  -30.5050  -43.7560 N   0  0  0  0  0
   33.4770  -29.5600  -44.3360 S   0  0  0  0  0
   33.3270  -28.1730  -43.8030 O   0  0  0  0  0
   33.4640  -29.5370  -45.8260 O   0  0  0  0  0
   35.0130  -30.3230  -43.7830 C   0  0  0  0  0
   35.4970  -30.0950  -42.4980 C   0  0  0  0  0
   35.7120  -31.1570  -44.6370 C   0  0  0  0  0
   36.8940  -31.7570  -44.2100 C   0  0  0  0  0
   37.3780  -31.5260  -42.9200 C   0  0  0  0  0
   38.5430  -32.1210  -42.5200 O   0  0  0  0  0
   39.2410  -33.0060  -43.3450 C   0  0  0  0  0
   40.2930  -33.7090  -42.5700 C   0  0  0  0  0
   41.0780  -32.7100  -41.7130 C   0  0  0  0  0
   36.6640  -30.7130  -42.0580 C   0  0  0  0  0
   37.1170  -30.3960  -40.7140 C   0  0  0  0  0
   36.2270  -30.2610  -39.6840 N   0  0  0  0  0
   36.6810  -29.9070  -38.4120 C   0  0  0  0  0
   36.0160  -29.6900  -37.0910 C   0  0  0  0  0
   37.0110  -28.9370  -36.2720 C   0  0  0  0  0
   38.3550  -29.3240  -36.7740 C   0  0  0  0  0
   38.1010  -29.6820  -38.2080 C   0  0  0  0  0
   38.9920  -29.8370  -39.3030 C   0  0  0  0  0
   40.3360  -29.6270  -39.1130 O   0  0  0  0  0
   38.4820  -30.1760  -40.5270 N   0  0  0  0  0
   32.3253  -31.8393  -45.3047 H   0  0  0  0  0
   32.7316  -32.4928  -43.6646 H   0  0  0  0  0
   30.6836  -33.3947  -44.2423 H   0  0  0  0  0
   30.0649  -31.7733  -44.8055 H   0  0  0  0  0
   30.6758  -32.6513  -42.1448 H   0  0  0  0  0
   28.6130  -32.6762  -41.4658 H   0  0  0  0  0
   28.0471  -32.0122  -43.0183 H   0  0  0  0  0
   28.7543  -33.6452  -42.9532 H   0  0  0  0  0
   30.0953  -30.7180  -41.2502 H   0  0  0  0  0
   29.7882  -30.0611  -42.9157 H   0  0  0  0  0
   32.4038  -30.9846  -41.7567 H   0  0  0  0  0
   31.9098  -29.3057  -42.1166 H   0  0  0  0  0
   34.9564  -29.4253  -41.8291 H   0  0  0  0  0
   35.3379  -31.3444  -45.6435 H   0  0  0  0  0
   37.4448  -32.4107  -44.8863 H   0  0  0  0  0
   39.7090  -32.4452  -44.1540 H   0  0  0  0  0
   38.5448  -33.7410  -43.7491 H   0  0  0  0  0
   40.9774  -34.1996  -43.2621 H   0  0  0  0  0
   39.8231  -34.4454  -41.9181 H   0  0  0  0  0
   41.5468  -31.9682  -42.3596 H   0  0  0  0  0
   40.3975  -32.2130  -41.0216 H   0  0  0  0  0
   41.8460  -33.2407  -41.1504 H   0  0  0  0  0
   35.7387  -30.6332  -36.6203 H   0  0  0  0  0
   35.0818  -29.1385  -37.1965 H   0  0  0  0  0
   36.9065  -29.1783  -35.2142 H   0  0  0  0  0
   36.8563  -27.8619  -36.3635 H   0  0  0  0  0
   38.7921  -30.1468  -36.2083 H   0  0  0  0  0
   39.0883  -28.5249  -36.6657 H   0  0  0  0  0
   39.1149  -30.2700  -41.3214 H   0  0  0  0  0
  1  2  1  0  0  0
  1  7  1  0  0  0
  2  3  1  0  0  0
  3  4  1  0  0  0
  3  5  1  0  0  0
  5  6  1  0  0  0
  6  7  1  0  0  0
  7  8  1  0  0  0
  8  9  2  0  0  0
  8 10  2  0  0  0
  8 11  1  0  0  0
 11 12  4  0  0  0
 11 13  4  0  0  0
 12 20  4  0  0  0
 13 14  4  0  0  0
 14 15  4  0  0  0
 15 16  1  0  0  0
 15 20  4  0  0  0
 16 17  1  0  0  0
 17 18  1  0  0  0
 18 19  1  0  0  0
 20 21  1  0  0  0
 21 22  2  0  0  0
 21 30  1  0  0  0
 22 23  1  0  0  0
 23 24  1  0  0  0
 23 27  2  0  0  0
 24 25  1  0  0  0
 25 26  1  0  0  0
 26 27  1  0  0  0
 27 28  1  0  0  0
 28 29  2  0  0  0
 28 30  1  0  0  0
  1 31  1  0  0  0
  1 32  1  0  0  0
  2 33  1  0  0  0
  2 34  1  0  0  0
  3 35  1  0  0  0
  4 36  1  0  0  0
  4 37  1  0  0  0
  4 38  1  0  0  0
  5 39  1  0  0  0
  5 40  1  0  0  0
  6 41  1  0  0  0
  6 42  1  0  0  0
 12 43  1  0  0  0
 13 44  1  0  0  0
 14 45  1  0  0  0
 17 46  1  0  0  0
 17 47  1  0  0  0
 18 48  1  0  0  0
 18 49  1  0  0  0
 19 50  1  0  0  0
 19 51  1  0  0  0
 19 52  1  0  0  0
 24 53  1  0  0  0
 24 54  1  0  0  0
 25 55  1  0  0  0
 25 56  1  0  0  0
 26 57  1  0  0  0
 26 58  1  0  0  0
 30 59  1  0  0  0
M  END
$$$$
