### 
### Created by X-TOOL on Mon Sep 10 21:13:31 2018
### 

@<TRIPOS>MOLECULE
6azk_ligand
  214   215     1     0     0
SMALL
GAST_HUCK


@<TRIPOS>ATOM
      1 N         -17.7650   34.2640  -29.0140 N.am      1 GLN        -0.2655
      2 CA        -18.3060   35.6170  -29.1150 C.3       1 GLN         0.1330
      3 C         -19.8210   35.6190  -29.3470 C.2       1 GLN         0.2042
      4 O         -20.3320   34.8820  -30.1910 O.2       1 GLN        -0.3944
      5 CB        -17.6060   36.3720  -30.2470 C.3       1 GLN         0.0045
      6 CG        -18.0910   37.7950  -30.4830 C.3       1 GLN         0.0412
      7 CD        -17.0790   38.8300  -30.0440 C.2       1 GLN         0.1737
      8 OE1       -16.2640   38.5840  -29.1510 O.2       1 GLN        -0.3973
      9 NE2       -17.1250   39.9980  -30.6720 N.am      1 GLN        -0.3009
     10 N         -20.5260   36.4670  -28.6020 N.am      1 PHE        -0.2619
     11 CA        -21.9790   36.5420  -28.6750 C.3       1 PHE         0.1404
     12 C         -22.4160   37.3310  -29.9100 C.2       1 PHE         0.2060
     13 O         -21.8860   38.4110  -30.1930 O.2       1 PHE        -0.3942
     14 CB        -22.5290   37.1840  -27.3990 C.3       1 PHE         0.0214
     15 CG        -24.0200   37.3490  -27.3960 C.ar      1 PHE        -0.0386
     16 CD1       -24.8450   36.2530  -27.2230 C.ar      1 PHE        -0.0601
     17 CD2       -24.6000   38.5990  -27.5550 C.ar      1 PHE        -0.0601
     18 CE1       -26.2150   36.3960  -27.2110 C.ar      1 PHE        -0.0686
     19 CE2       -25.9850   38.7460  -27.5480 C.ar      1 PHE        -0.0686
     20 CZ        -26.7890   37.6430  -27.3760 C.ar      1 PHE        -0.0687
     21 N         -23.3930   36.7860  -30.6360 N.am      1 ASP        -0.2620
     22 CA        -23.8880   37.3590  -31.8840 C.3       1 ASP         0.1423
     23 C         -25.2710   37.9520  -31.6450 C.2       1 ASP         0.2056
     24 O         -26.2110   37.2210  -31.3150 O.2       1 ASP        -0.3943
     25 CB        -23.9430   36.2940  -32.9800 C.3       1 ASP         0.0406
     26 CG        -24.4650   36.8290  -34.2980 C.2       1 ASP         0.0393
     27 OD1       -24.4950   38.0620  -34.4890 O.co2     1 ASP        -0.5688
     28 OD2       -24.8500   36.0090  -35.1540 O.co2     1 ASP        -0.5688
     29 N         -25.3960   39.2710  -31.8410 N.am      1 LEU        -0.2636
     30 CA        -26.6600   39.9680  -31.6150 C.3       1 LEU         0.1312
     31 C         -27.7530   39.5540  -32.5950 C.2       1 LEU         0.2040
     32 O         -28.9390   39.6500  -32.2570 O.2       1 LEU        -0.3944
     33 CB        -26.4330   41.4770  -31.6910 C.3       1 LEU        -0.0101
     34 CG        -25.4080   41.9560  -30.6650 C.3       1 LEU        -0.0425
     35 CD1       -24.8050   43.2700  -31.0900 C.3       1 LEU        -0.0625
     36 CD2       -26.0590   42.0800  -29.3040 C.3       1 LEU        -0.0625
     37 N         -27.3860   39.0940  -33.7940 N.am      1 SER        -0.2616
     38 CA        -28.3900   38.6960  -34.7770 C.3       1 SER         0.1539
     39 C         -29.1420   37.4430  -34.3390 C.2       1 SER         0.2063
     40 O         -30.3570   37.3420  -34.5420 O.2       1 SER        -0.3943
     41 CB        -27.7310   38.4730  -36.1390 C.3       1 SER         0.0843
     42 OG        -27.1070   39.6570  -36.6040 O.3       1 SER        -0.3903
     43 N         -28.4460   36.4880  -33.7290 N.am      1 THR        -0.2613
     44 CA        -29.0350   35.1880  -33.4050 C.3       1 THR         0.1565
     45 C         -29.1530   34.9340  -31.9070 C.2       1 THR         0.2065
     46 O         -29.8000   33.9710  -31.4890 O.2       1 THR        -0.3943
     47 CB        -28.2070   34.0420  -34.0110 C.3       1 THR         0.0924
     48 OG1       -26.8960   34.0380  -33.4220 O.3       1 THR        -0.3874
     49 CG2       -28.0910   34.2200  -35.5170 C.3       1 THR        -0.0346
     50 N         -28.5130   35.7980  -31.1210 N.am      1 C6D        -0.2636
     51 CA        -28.4280   35.6520  -29.6700 C.3       1 C6D         0.1311
     52 C         -27.7370   34.3360  -29.3150 C.2       1 C6D         0.2039
     53 O         -28.0800   33.6920  -28.3300 O.2       1 C6D        -0.3944
     54 CB        -29.8250   35.7180  -29.0140 C.3       1 C6D        -0.0092
     55 CG        -30.6170   36.9670  -29.3780 C.3       1 C6D        -0.0156
     56 CD        -31.6550   37.2420  -28.3150 C.3       1 C6D         0.0627
     57 NE        -32.4720   38.3990  -28.6340 N.pl3     1 C6D        -0.2722
     58 CZ        -33.4990   38.7880  -27.8980 C.cat     1 C6D         0.2903
     59 NH1       -33.7840   38.0680  -26.8240 N.pl3     1 C6D        -0.2848
     60 NH2       -34.2320   39.8530  -28.2040 N.pl3     1 C6D        -0.2721
     61 C01       -35.1880   41.4610  -29.7060 C.3       1 C6D         0.0035
     62 C02       -33.9550   40.6670  -29.3810 C.3       1 C6D         0.0646
     63 C03       -34.8970   42.4740  -30.7700 C.3       1 C6D         0.0474
     64 O2        -35.0470   43.7530  -30.2360 O.3       1 C6D        -0.3949
     65 N         -26.7620   33.9490  -30.1240 N.am      1 ARG        -0.2637
     66 CA        -26.0290   32.7180  -29.8860 C.3       1 ARG         0.1311
     67 C         -24.5240   32.9610  -29.9390 C.2       1 ARG         0.2039
     68 O         -24.0490   33.8590  -30.6350 O.2       1 ARG        -0.3944
     69 CB        -26.4280   31.6470  -30.9060 C.3       1 ARG        -0.0092
     70 CG        -27.8900   31.2150  -30.8350 C.3       1 ARG        -0.0156
     71 CD        -28.2010   30.4810  -29.5380 C.3       1 ARG         0.0627
     72 NE        -27.2060   29.4520  -29.2530 N.pl3     1 ARG        -0.2723
     73 CZ        -27.1750   28.2510  -29.8270 C.cat     1 ARG         0.2882
     74 NH1       -28.0920   27.9070  -30.7270 N.pl3     1 ARG        -0.2849
     75 NH2       -26.2160   27.3930  -29.4980 N.pl3     1 ARG        -0.2849
     76 N         -23.7760   32.1670  -29.1840 N.am      1 LEU        -0.2637
     77 CA        -22.3280   32.2050  -29.2940 C.3       1 LEU         0.1312
     78 C         -21.9080   31.6810  -30.6590 C.2       1 LEU         0.2039
     79 O         -22.4400   30.6840  -31.1510 O.2       1 LEU        -0.3944
     80 CB        -21.6790   31.3760  -28.1840 C.3       1 LEU        -0.0101
     81 CG        -21.9100   31.8790  -26.7560 C.3       1 LEU        -0.0425
     82 CD1       -21.3440   30.8960  -25.7440 C.3       1 LEU        -0.0625
     83 CD2       -21.3130   33.2620  -26.5460 C.3       1 LEU        -0.0625
     84 N         -20.9530   32.3690  -31.2700 N.am      1 LYS        -0.2637
     85 CA        -20.4320   32.0160  -32.5820 C.3       1 LYS         0.1308
     86 C         -18.9250   31.8420  -32.4420 C.2       1 LYS         0.2016
     87 O         -18.2990   32.5480  -31.6540 O.2       1 LYS        -0.3945
     88 CB        -20.7780   33.0940  -33.6120 C.3       1 LYS        -0.0122
     89 CG        -20.6820   32.6520  -35.0560 C.3       1 LYS        -0.0440
     90 CD        -21.2060   33.7470  -35.9770 C.3       1 LYS        -0.0124
     91 CE        -21.1720   33.3280  -37.4320 C.3       1 LYS        -0.0354
     92 NZ        -21.5860   34.4410  -38.3380 N.4       1 LYS         0.2185
     93 C5        -16.3830   30.3120  -30.6860 C.3       1 011        -0.0511
     94 C4        -16.8610   30.2580  -29.2780 C.3       1 011        -0.0509
     95 O         -17.7760   34.1930  -26.7340 O.2       1 011        -0.3969
     96 C6        -17.3420   29.5920  -31.5730 C.3       1 011        -0.0327
     97 C3        -17.6400   31.4780  -28.9050 C.3       1 011        -0.0361
     98 C7        -17.2390   30.1560  -32.9490 C.3       1 011         0.0309
     99 C2        -16.8630   32.3250  -27.9510 C.3       1 011         0.0374
    100 N         -18.3250   31.0330  -33.3100 N.am      1 011        -0.2851
    101 C1        -17.5010   33.6730  -27.8530 C.2       1 011         0.1782
    102 H1        -17.5848   33.7586  -29.8579 H         1 GLN         0.1883
    103 H2        -18.1039   36.1384  -28.1677 H         1 GLN         0.0801
    104 H3        -17.7564   35.8041  -31.1770 H         1 GLN         0.0337
    105 H4        -16.5321   36.4144  -30.0128 H         1 GLN         0.0337
    106 H5        -19.0218   37.9492  -29.9175 H         1 GLN         0.0504
    107 H6        -18.2882   37.9273  -31.5570 H         1 GLN         0.0504
    108 H7        -16.4817   40.7233  -30.4267 H         1 GLN         0.1814
    109 H8        -17.8029   40.1530  -31.3906 H         1 GLN         0.1814
    110 H9        -20.0420   37.0731  -27.9708 H         1 PHE         0.1885
    111 H10       -22.3800   35.5208  -28.7548 H         1 PHE         0.0823
    112 H11       -22.0704   38.1774  -27.2855 H         1 PHE         0.0474
    113 H12       -22.2489   36.5509  -26.5442 H         1 PHE         0.0474
    114 H13       -24.4083   35.2691  -27.0952 H         1 PHE         0.0557
    115 H14       -23.9688   39.4705  -27.6861 H         1 PHE         0.0557
    116 H15       -26.8466   35.5261  -27.0714 H         1 PHE         0.0599
    117 H16       -26.4282   39.7267  -27.6777 H         1 PHE         0.0599
    118 H17       -27.8676   37.7510  -27.3699 H         1 PHE         0.0559
    119 H18       -23.8093   35.9383  -30.3074 H         1 ASP         0.1884
    120 H19       -23.2059   38.1600  -32.2051 H         1 ASP         0.0819
    121 H20       -24.6033   35.4803  -32.6456 H         1 ASP         0.0478
    122 H21       -22.9279   35.9009  -33.1384 H         1 ASP         0.0478
    123 H22       -24.6017   39.7936  -32.1508 H         1 LEU         0.1883
    124 H23       -27.0062   39.7186  -30.6011 H         1 LEU         0.0800
    125 H24       -27.3882   41.9893  -31.5038 H         1 LEU         0.0315
    126 H25       -26.0718   41.7311  -32.6984 H         1 LEU         0.0315
    127 H26       -24.6027   41.2095  -30.6003 H         1 LEU         0.0298
    128 H27       -24.0709   43.5966  -30.3387 H         1 LEU         0.0232
    129 H28       -25.5990   44.0260  -31.1795 H         1 LEU         0.0232
    130 H29       -24.3049   43.1467  -32.0619 H         1 LEU         0.0232
    131 H30       -26.4915   41.1108  -29.0148 H         1 LEU         0.0232
    132 H31       -26.8544   42.8386  -29.3457 H         1 LEU         0.0232
    133 H32       -25.3042   42.3805  -28.5625 H         1 LEU         0.0232
    134 H33       -26.4147   39.0215  -34.0207 H         1 SER         0.1884
    135 H34       -29.1182   39.5148  -34.8736 H         1 SER         0.0823
    136 H35       -28.4989   38.1635  -36.8632 H         1 SER         0.0606
    137 H36       -26.9738   37.6806  -36.0462 H         1 SER         0.0606
    138 H37       -27.7577   40.3439  -36.6896 H         1 SER         0.2097
    139 H38       -27.4923   36.6633  -33.4845 H         1 THR         0.1884
    140 H39       -30.0452   35.1623  -33.8395 H         1 THR         0.0826
    141 H40       -28.7043   33.0842  -33.7981 H         1 THR         0.0639
    142 H41       -26.4681   34.8675  -33.5988 H         1 THR         0.2101
    143 H42       -27.4975   33.3956  -35.9390 H         1 THR         0.0257
    144 H43       -27.5960   35.1776  -35.7360 H         1 THR         0.0257
    145 H44       -29.0955   34.2154  -35.9652 H         1 THR         0.0257
    146 H45       -28.0682   36.5866  -31.5456 H         1 C6D         0.1883
    147 H46       -27.8230   36.4813  -29.2748 H         1 C6D         0.0800
    148 H47       -29.6967   35.6949  -27.9218 H         1 C6D         0.0313
    149 H48       -30.4005   34.8370  -29.3343 H         1 C6D         0.0313
    150 H49       -31.1170   36.8134  -30.3457 H         1 C6D         0.0301
    151 H50       -29.9327   37.8251  -29.4509 H         1 C6D         0.0301
    152 H51       -31.1433   37.4224  -27.3582 H         1 C6D         0.0689
    153 H52       -32.3082   36.3619  -28.2213 H         1 C6D         0.0689
    154 H53       -32.2397   38.9443  -29.4764 H         1 C6D         0.2642
    155 H54       -34.5756   38.3338  -26.2210 H         1 C6D         0.2615
    156 H55       -33.2141   37.2421  -26.5915 H         1 C6D         0.2615
    157 H56       -35.0190   40.1110  -27.5916 H         1 C6D         0.2642
    158 H57       -35.5343   41.9785  -28.7992 H         1 C6D         0.0321
    159 H58       -35.9741   40.7787  -30.0617 H         1 C6D         0.0321
    160 H59       -33.6964   40.0173  -30.2301 H         1 C6D         0.0689
    161 H60       -33.1175   41.3491  -29.1728 H         1 C6D         0.0689
    162 H61       -35.5975   42.3401  -31.6074 H         1 C6D         0.0558
    163 H62       -33.8658   42.3440  -31.1302 H         1 C6D         0.0558
    164 H63       -35.9379   43.8626  -29.9249 H         1 C6D         0.2094
    165 H64       -26.5262   34.5153  -30.9137 H         1 ARG         0.1883
    166 H65       -26.2856   32.3529  -28.8806 H         1 ARG         0.0800
    167 H66       -25.7997   30.7603  -30.7360 H         1 ARG         0.0313
    168 H67       -26.2363   32.0445  -31.9136 H         1 ARG         0.0313
    169 H68       -28.1054   30.5473  -31.6822 H         1 ARG         0.0301
    170 H69       -28.5287   32.1082  -30.9004 H         1 ARG         0.0301
    171 H70       -29.1901   30.0075  -29.6238 H         1 ARG         0.0689
    172 H71       -28.2120   31.2061  -28.7109 H         1 ARG         0.0689
    173 H72       -26.4767   29.6702  -28.5592 H         1 ARG         0.2642
    174 H73       -28.0593   26.9755  -31.1654 H         1 ARG         0.2615
    175 H74       -28.8347   28.5721  -30.9856 H         1 ARG         0.2615
    176 H75       -25.5050   27.6576  -28.8013 H         1 ARG         0.2615
    177 H76       -26.1833   26.4630  -29.9396 H         1 ARG         0.2615
    178 H77       -24.2104   31.5403  -28.5370 H         1 LEU         0.1883
    179 H78       -21.9927   33.2479  -29.1950 H         1 LEU         0.0800
    180 H79       -20.5941   31.3598  -28.3649 H         1 LEU         0.0315
    181 H80       -22.0771   30.3527  -28.2501 H         1 LEU         0.0315
    182 H81       -22.9956   31.9504  -26.5938 H         1 LEU         0.0298
    183 H82       -21.5199   31.2752  -24.7265 H         1 LEU         0.0232
    184 H83       -20.2628   30.7803  -25.9103 H         1 LEU         0.0232
    185 H84       -21.8397   29.9212  -25.8628 H         1 LEU         0.0232
    186 H85       -21.7334   33.9590  -27.2859 H         1 LEU         0.0232
    187 H86       -20.2209   33.2124  -26.6681 H         1 LEU         0.0232
    188 H87       -21.5530   33.6149  -25.5322 H         1 LEU         0.0232
    189 H88       -20.5724   33.1693  -30.8066 H         1 LYS         0.1883
    190 H89       -20.8779   31.0646  -32.9077 H         1 LYS         0.0800
    191 H90       -20.0884   33.9386  -33.4670 H         1 LYS         0.0312
    192 H91       -21.8096   33.4266  -33.4247 H         1 LYS         0.0312
    193 H92       -21.2812   31.7405  -35.1977 H         1 LYS         0.0269
    194 H93       -19.6308   32.4419  -35.3027 H         1 LYS         0.0269
    195 H94       -20.5834   34.6451  -35.8513 H         1 LYS         0.0317
    196 H95       -22.2445   33.9789  -35.6983 H         1 LYS         0.0317
    197 H96       -21.8569   32.4791  -37.5745 H         1 LYS         0.0813
    198 H97       -20.1480   33.0204  -37.6904 H         1 LYS         0.0813
    199 H98       -21.5511   34.1259  -39.2949 H         1 LYS         0.1994
    200 H99       -20.9601   35.2221  -38.2184 H         1 LYS         0.1994
    201 H100      -22.5261   34.7261  -38.1122 H         1 LYS         0.1994
    202 H101      -15.3940   29.8355  -30.7545 H         1 011         0.0266
    203 H102      -16.3072   31.3617  -31.0060 H         1 011         0.0266
    204 H103      -15.9909   30.1742  -28.6103 H         1 011         0.0267
    205 H104      -17.5043   29.3743  -29.1548 H         1 011         0.0267
    206 H105      -18.3664   29.7244  -31.1948 H         1 011         0.0285
    207 H106      -17.0942   28.5205  -31.5931 H         1 011         0.0285
    208 H107      -18.5848   31.1732  -28.4312 H         1 011         0.0290
    209 H108      -17.8562   32.0607  -29.8126 H         1 011         0.0290
    210 H109      -17.2180   29.3203  -33.6639 H         1 011         0.0520
    211 H110      -16.2992   30.7231  -33.0202 H         1 011         0.0520
    212 H111      -15.8300   32.4331  -28.3133 H         1 011         0.0502
    213 H112      -16.8559   31.8492  -26.9593 H         1 011         0.0502
    214 H113      -18.6421   31.0328  -34.2584 H         1 011         0.1851
@<TRIPOS>BOND
     1    2    1 1  
     2    1  101 am 
     3    3    2 1  
     4    2    5 1  
     5    3    4 2  
     6   10    3 am 
     7    5    6 1  
     8    6    7 1  
     9    7    8 2  
    10    7    9 am 
    11   11   10 1  
    12   12   11 1  
    13   11   14 1  
    14   12   13 2  
    15   21   12 am 
    16   14   15 1  
    17   15   16 ar 
    18   15   17 ar 
    19   16   18 ar 
    20   17   19 ar 
    21   18   20 ar 
    22   19   20 ar 
    23   22   21 1  
    24   23   22 1  
    25   22   25 1  
    26   23   24 2  
    27   29   23 am 
    28   25   26 1  
    29   26   27 ar 
    30   26   28 ar 
    31   30   29 1  
    32   31   30 1  
    33   30   33 1  
    34   31   32 2  
    35   37   31 am 
    36   33   34 1  
    37   34   35 1  
    38   34   36 1  
    39   38   37 1  
    40   39   38 1  
    41   38   41 1  
    42   39   40 2  
    43   43   39 am 
    44   41   42 1  
    45   44   43 1  
    46   45   44 1  
    47   44   47 1  
    48   45   46 2  
    49   50   45 am 
    50   47   48 1  
    51   47   49 1  
    52   51   50 1  
    53   52   51 1  
    54   51   54 1  
    55   52   53 2  
    56   65   52 am 
    57   54   55 1  
    58   55   56 1  
    59   56   57 1  
    60   57   58 ar 
    61   58   59 ar 
    62   58   60 ar 
    63   60   62 1  
    64   62   61 1  
    65   61   63 1  
    66   63   64 1  
    67   66   65 1  
    68   67   66 1  
    69   66   69 1  
    70   67   68 2  
    71   76   67 am 
    72   69   70 1  
    73   70   71 1  
    74   71   72 1  
    75   72   73 ar 
    76   73   74 ar 
    77   73   75 ar 
    78   77   76 1  
    79   78   77 1  
    80   77   80 1  
    81   78   79 2  
    82   84   78 am 
    83   80   81 1  
    84   81   82 1  
    85   81   83 1  
    86   85   84 1  
    87   86   85 1  
    88   85   88 1  
    89   86   87 2  
    90  100   86 am 
    91   88   89 1  
    92   89   90 1  
    93   90   91 1  
    94   91   92 1  
    95   93   94 1  
    96   96   93 1  
    97   94   97 1  
    98  101   95 2  
    99   98   96 1  
   100   97   99 1  
   101   98  100 1  
   102   99  101 1  
   103    1  102 1  
   104    2  103 1  
   105    5  104 1  
   106    5  105 1  
   107    6  106 1  
   108    6  107 1  
   109    9  108 1  
   110    9  109 1  
   111   10  110 1  
   112   11  111 1  
   113   14  112 1  
   114   14  113 1  
   115   16  114 1  
   116   17  115 1  
   117   18  116 1  
   118   19  117 1  
   119   20  118 1  
   120   21  119 1  
   121   22  120 1  
   122   25  121 1  
   123   25  122 1  
   124   29  123 1  
   125   30  124 1  
   126   33  125 1  
   127   33  126 1  
   128   34  127 1  
   129   35  128 1  
   130   35  129 1  
   131   35  130 1  
   132   36  131 1  
   133   36  132 1  
   134   36  133 1  
   135   37  134 1  
   136   38  135 1  
   137   41  136 1  
   138   41  137 1  
   139   42  138 1  
   140   43  139 1  
   141   44  140 1  
   142   47  141 1  
   143   48  142 1  
   144   49  143 1  
   145   49  144 1  
   146   49  145 1  
   147   50  146 1  
   148   51  147 1  
   149   54  148 1  
   150   54  149 1  
   151   55  150 1  
   152   55  151 1  
   153   56  152 1  
   154   56  153 1  
   155   57  154 1  
   156   59  155 1  
   157   59  156 1  
   158   60  157 1  
   159   61  158 1  
   160   61  159 1  
   161   62  160 1  
   162   62  161 1  
   163   63  162 1  
   164   63  163 1  
   165   64  164 1  
   166   65  165 1  
   167   66  166 1  
   168   69  167 1  
   169   69  168 1  
   170   70  169 1  
   171   70  170 1  
   172   71  171 1  
   173   71  172 1  
   174   72  173 1  
   175   74  174 1  
   176   74  175 1  
   177   75  176 1  
   178   75  177 1  
   179   76  178 1  
   180   77  179 1  
   181   80  180 1  
   182   80  181 1  
   183   81  182 1  
   184   82  183 1  
   185   82  184 1  
   186   82  185 1  
   187   83  186 1  
   188   83  187 1  
   189   83  188 1  
   190   84  189 1  
   191   85  190 1  
   192   88  191 1  
   193   88  192 1  
   194   89  193 1  
   195   89  194 1  
   196   90  195 1  
   197   90  196 1  
   198   91  197 1  
   199   91  198 1  
   200   92  199 1  
   201   92  200 1  
   202   92  201 1  
   203   93  202 1  
   204   93  203 1  
   205   94  204 1  
   206   94  205 1  
   207   96  206 1  
   208   96  207 1  
   209   97  208 1  
   210   97  209 1  
   211   98  210 1  
   212   98  211 1  
   213   99  212 1  
   214   99  213 1  
   215  100  214 1  
@<TRIPOS>SUBSTRUCTURE
     1 GLN         1

