6azk_ligand
  -I-interpret- 

213214  0  0  0  0  0  0  0  0999 V2000
  -17.7650   34.2640  -29.0140 N   0  0  0  0  0
  -18.3060   35.6170  -29.1150 C   0  0  0  0  0
  -19.8210   35.6190  -29.3470 C   0  0  0  0  0
  -20.3320   34.8820  -30.1910 O   0  0  0  0  0
  -17.6060   36.3720  -30.2470 C   0  0  0  0  0
  -18.0910   37.7950  -30.4830 C   0  0  0  0  0
  -17.0790   38.8300  -30.0440 C   0  0  0  0  0
  -16.2640   38.5840  -29.1510 O   0  0  0  0  0
  -17.1250   39.9980  -30.6720 N   0  0  0  0  0
  -20.5260   36.4670  -28.6020 N   0  0  0  0  0
  -21.9790   36.5420  -28.6750 C   0  0  0  0  0
  -22.4160   37.3310  -29.9100 C   0  0  0  0  0
  -21.8860   38.4110  -30.1930 O   0  0  0  0  0
  -22.5290   37.1840  -27.3990 C   0  0  0  0  0
  -24.0200   37.3490  -27.3960 C   0  0  0  0  0
  -24.8450   36.2530  -27.2230 C   0  0  0  0  0
  -24.6000   38.5990  -27.5550 C   0  0  0  0  0
  -26.2150   36.3960  -27.2110 C   0  0  0  0  0
  -25.9850   38.7460  -27.5480 C   0  0  0  0  0
  -26.7890   37.6430  -27.3760 C   0  0  0  0  0
  -23.3930   36.7860  -30.6360 N   0  0  0  0  0
  -23.8880   37.3590  -31.8840 C   0  0  0  0  0
  -25.2710   37.9520  -31.6450 C   0  0  0  0  0
  -26.2110   37.2210  -31.3150 O   0  0  0  0  0
  -23.9430   36.2940  -32.9800 C   0  0  0  0  0
  -24.4650   36.8290  -34.2980 C   0  0  0  0  0
  -24.4950   38.0620  -34.4890 O   0  0  0  0  0
  -24.8500   36.0090  -35.1540 O   0  0  0  0  0
  -25.3960   39.2710  -31.8410 N   0  0  0  0  0
  -26.6600   39.9680  -31.6150 C   0  0  0  0  0
  -27.7530   39.5540  -32.5950 C   0  0  0  0  0
  -28.9390   39.6500  -32.2570 O   0  0  0  0  0
  -26.4330   41.4770  -31.6910 C   0  0  0  0  0
  -25.4080   41.9560  -30.6650 C   0  0  0  0  0
  -24.8050   43.2700  -31.0900 C   0  0  0  0  0
  -26.0590   42.0800  -29.3040 C   0  0  0  0  0
  -27.3860   39.0940  -33.7940 N   0  0  0  0  0
  -28.3900   38.6960  -34.7770 C   0  0  0  0  0
  -29.1420   37.4430  -34.3390 C   0  0  0  0  0
  -30.3570   37.3420  -34.5420 O   0  0  0  0  0
  -27.7310   38.4730  -36.1390 C   0  0  0  0  0
  -27.1070   39.6570  -36.6040 O   0  0  0  0  0
  -28.4460   36.4880  -33.7290 N   0  0  0  0  0
  -29.0350   35.1880  -33.4050 C   0  0  0  0  0
  -29.1530   34.9340  -31.9070 C   0  0  0  0  0
  -29.8000   33.9710  -31.4890 O   0  0  0  0  0
  -28.2070   34.0420  -34.0110 C   0  0  0  0  0
  -26.8960   34.0380  -33.4220 O   0  0  0  0  0
  -28.0910   34.2200  -35.5170 C   0  0  0  0  0
  -28.5130   35.7980  -31.1210 N   0  0  0  0  0
  -28.4280   35.6520  -29.6700 C   0  0  0  0  0
  -27.7370   34.3360  -29.3150 C   0  0  0  0  0
  -28.0800   33.6920  -28.3300 O   0  0  0  0  0
  -29.8250   35.7180  -29.0140 C   0  0  0  0  0
  -30.6170   36.9670  -29.3780 C   0  0  0  0  0
  -31.6550   37.2420  -28.3150 C   0  0  0  0  0
  -32.4720   38.3990  -28.6340 N   0  0  0  0  0
  -33.4990   38.7880  -27.8980 C   0  0  0  0  0
  -33.7840   38.0680  -26.8240 N   0  0  0  0  0
  -34.2320   39.8530  -28.2040 N   0  0  0  0  0
  -35.1880   41.4610  -29.7060 C   0  0  0  0  0
  -33.9550   40.6670  -29.3810 C   0  0  0  0  0
  -34.8970   42.4740  -30.7700 C   0  0  0  0  0
  -35.0470   43.7530  -30.2360 O   0  0  0  0  0
  -26.7620   33.9490  -30.1240 N   0  0  0  0  0
  -26.0290   32.7180  -29.8860 C   0  0  0  0  0
  -24.5240   32.9610  -29.9390 C   0  0  0  0  0
  -24.0490   33.8590  -30.6350 O   0  0  0  0  0
  -26.4280   31.6470  -30.9060 C   0  0  0  0  0
  -27.8900   31.2150  -30.8350 C   0  0  0  0  0
  -28.2010   30.4810  -29.5380 C   0  0  0  0  0
  -27.2060   29.4520  -29.2530 N   0  0  0  0  0
  -27.1750   28.2510  -29.8270 C   0  0  0  0  0
  -28.0920   27.9070  -30.7270 N   0  0  0  0  0
  -26.2160   27.3930  -29.4980 N   0  0  0  0  0
  -23.7760   32.1670  -29.1840 N   0  0  0  0  0
  -22.3280   32.2050  -29.2940 C   0  0  0  0  0
  -21.9080   31.6810  -30.6590 C   0  0  0  0  0
  -22.4400   30.6840  -31.1510 O   0  0  0  0  0
  -21.6790   31.3760  -28.1840 C   0  0  0  0  0
  -21.9100   31.8790  -26.7560 C   0  0  0  0  0
  -21.3440   30.8960  -25.7440 C   0  0  0  0  0
  -21.3130   33.2620  -26.5460 C   0  0  0  0  0
  -20.9530   32.3690  -31.2700 N   0  0  0  0  0
  -20.4320   32.0160  -32.5820 C   0  0  0  0  0
  -18.9250   31.8420  -32.4420 C   0  0  0  0  0
  -18.2990   32.5480  -31.6540 O   0  0  0  0  0
  -20.7780   33.0940  -33.6120 C   0  0  0  0  0
  -20.6820   32.6520  -35.0560 C   0  0  0  0  0
  -21.2060   33.7470  -35.9770 C   0  0  0  0  0
  -21.1720   33.3280  -37.4320 C   0  0  0  0  0
  -21.5860   34.4410  -38.3380 N   0  3  0  0  0
  -16.3830   30.3120  -30.6860 C   0  0  0  0  0
  -16.8610   30.2580  -29.2780 C   0  0  0  0  0
  -17.7760   34.1930  -26.7340 O   0  0  0  0  0
  -17.3420   29.5920  -31.5730 C   0  0  0  0  0
  -17.6400   31.4780  -28.9050 C   0  0  0  0  0
  -17.2390   30.1560  -32.9490 C   0  0  0  0  0
  -16.8630   32.3250  -27.9510 C   0  0  0  0  0
  -18.3250   31.0330  -33.3100 N   0  0  0  0  0
  -17.5010   33.6730  -27.8530 C   0  0  0  0  0
  -17.5812   33.7485  -29.8747 H   0  0  0  0  0
  -18.1202   36.1163  -28.1641 H   0  0  0  0  0
  -17.8112   35.8181  -31.1631 H   0  0  0  0  0
  -16.5547   36.4445  -29.9683 H   0  0  0  0  0
  -18.9993   37.9427  -29.8988 H   0  0  0  0  0
  -18.2593   37.9207  -31.5526 H   0  0  0  0  0
  -16.4686   40.7376  -30.4221 H   0  0  0  0  0
  -17.8168   40.1562  -31.4047 H   0  0  0  0  0
  -20.0323   37.0852  -27.9582 H   0  0  0  0  0
  -22.3813   35.5327  -28.7620 H   0  0  0  0  0
  -22.0924   38.1798  -27.3228 H   0  0  0  0  0
  -22.2739   36.5255  -26.5687 H   0  0  0  0  0
  -24.4059   35.2637  -27.0945 H   0  0  0  0  0
  -23.9653   39.4753  -27.6868 H   0  0  0  0  0
  -26.8500   35.5213  -27.0707 H   0  0  0  0  0
  -26.4306   39.7322  -27.6784 H   0  0  0  0  0
  -27.8736   37.7516  -27.3698 H   0  0  0  0  0
  -23.8177   35.9213  -30.3008 H   0  0  0  0  0
  -23.2091   38.1448  -32.2154 H   0  0  0  0  0
  -24.6223   35.5092  -32.6473 H   0  0  0  0  0
  -22.9273   35.9348  -33.1458 H   0  0  0  0  0
  -24.1571   38.5134  -33.7120 H   0  0  0  0  0
  -24.5858   39.8040  -32.1570 H   0  0  0  0  0
  -27.0087   39.6874  -30.6211 H   0  0  0  0  0
  -27.3804   41.9743  -31.4829 H   0  0  0  0  0
  -26.0552   41.7144  -32.6855 H   0  0  0  0  0
  -24.6045   41.2221  -30.6023 H   0  0  0  0  0
  -24.3098   43.1465  -32.0531 H   0  0  0  0  0
  -25.5928   44.0181  -31.1784 H   0  0  0  0  0
  -24.0778   43.5925  -30.3448 H   0  0  0  0  0
  -26.8768   42.7986  -29.3580 H   0  0  0  0  0
  -26.4469   41.1083  -28.9983 H   0  0  0  0  0
  -25.3203   42.4221  -28.5791 H   0  0  0  0  0
  -26.3953   39.0200  -34.0252 H   0  0  0  0  0
  -29.1173   39.5038  -34.8580 H   0  0  0  0  0
  -28.4994   38.1798  -36.8543 H   0  0  0  0  0
  -26.9730   37.6964  -36.0366 H   0  0  0  0  0
  -26.7023   39.4898  -37.4583 H   0  0  0  0  0
  -27.4732   36.6668  -33.4797 H   0  0  0  0  0
  -30.0375   35.2152  -33.8319 H   0  0  0  0  0
  -28.7037   33.0938  -33.8053 H   0  0  0  0  0
  -26.3788   33.3229  -33.7999 H   0  0  0  0  0
  -29.0869   34.2154  -35.9599 H   0  0  0  0  0
  -27.6005   35.1692  -35.7327 H   0  0  0  0  0
  -27.5027   33.4026  -35.9339 H   0  0  0  0  0
  -28.0593   36.6023  -31.5541 H   0  0  0  0  0
  -27.8383   36.4822  -29.2814 H   0  0  0  0  0
  -29.6767   35.7305  -27.9342 H   0  0  0  0  0
  -30.3923   34.8582  -29.3704 H   0  0  0  0  0
  -31.1139   36.8125  -30.3358 H   0  0  0  0  0
  -29.9381   37.8169  -29.4475 H   0  0  0  0  0
  -31.1362   37.4409  -27.3772 H   0  0  0  0  0
  -32.3092   36.3729  -28.2464 H   0  0  0  0  0
  -32.2420   38.9390  -29.4682 H   0  0  0  0  0
  -33.2197   37.2501  -26.5938 H   0  0  0  0  0
  -35.0113   40.1085  -27.5976 H   0  0  0  0  0
  -35.5219   41.9789  -28.8069 H   0  0  0  0  0
  -35.9607   40.7819  -30.0665 H   0  0  0  0  0
  -33.6888   40.0283  -30.2232 H   0  0  0  0  0
  -33.1193   41.3383  -29.1832 H   0  0  0  0  0
  -35.5886   42.3407  -31.6019 H   0  0  0  0  0
  -33.8763   42.3445  -31.1300 H   0  0  0  0  0
  -34.8613   44.4058  -30.9149 H   0  0  0  0  0
  -26.5215   34.5267  -30.9295 H   0  0  0  0  0
  -26.2847   32.3626  -28.8878 H   0  0  0  0  0
  -25.8249   30.7644  -30.6929 H   0  0  0  0  0
  -26.2708   32.0760  -31.8956 H   0  0  0  0  0
  -28.0881   30.5391  -31.6669 H   0  0  0  0  0
  -28.5135   32.1079  -30.8810 H   0  0  0  0  0
  -29.1746   30.0012  -29.6381 H   0  0  0  0  0
  -28.1932   31.2038  -28.7222 H   0  0  0  0  0
  -26.4837   29.6680  -28.5659 H   0  0  0  0  0
  -28.0580   26.9856  -31.1632 H   0  0  0  0  0
  -28.8292   28.5646  -30.9809 H   0  0  0  0  0
  -25.5103   27.6561  -28.8102 H   0  0  0  0  0
  -24.2191   31.5277  -28.5241 H   0  0  0  0  0
  -21.9928   33.2365  -29.1855 H   0  0  0  0  0
  -20.6035   31.4193  -28.3558 H   0  0  0  0  0
  -22.1277   30.3841  -28.2377 H   0  0  0  0  0
  -22.9867   31.9563  -26.6048 H   0  0  0  0  0
  -21.8359   29.9306  -25.8628 H   0  0  0  0  0
  -20.2727   30.7822  -25.9099 H   0  0  0  0  0
  -21.5189   31.2728  -24.7363 H   0  0  0  0  0
  -20.2391   33.2243  -26.7286 H   0  0  0  0  0
  -21.7761   33.9652  -27.2382 H   0  0  0  0  0
  -21.4975   33.5842  -25.5212 H   0  0  0  0  0
  -20.5648   33.1853  -30.7973 H   0  0  0  0  0
  -20.8826   31.0898  -32.9386 H   0  0  0  0  0
  -20.0550   33.8990  -33.4803 H   0  0  0  0  0
  -21.8165   33.3750  -33.4370 H   0  0  0  0  0
  -21.2813   31.7521  -35.1944 H   0  0  0  0  0
  -19.6387   32.4502  -35.2989 H   0  0  0  0  0
  -20.5701   34.6245  -35.8598 H   0  0  0  0  0
  -22.2412   33.9543  -35.7059 H   0  0  0  0  0
  -21.8671   32.4992  -37.5668 H   0  0  0  0  0
  -20.1504   33.0430  -37.6832 H   0  0  0  0  0
  -21.5503   34.1211  -39.3059 H   0  0  0  0  0
  -22.5373   34.7286  -38.1085 H   0  0  0  0  0
  -20.9521   35.2307  -38.2161 H   0  0  0  0  0
  -15.4041   29.8372  -30.7528 H   0  0  0  0  0
  -16.3109   31.3525  -31.0025 H   0  0  0  0  0
  -15.9909   30.1957  -28.6244 H   0  0  0  0  0
  -17.5132   29.3911  -29.1721 H   0  0  0  0  0
  -18.3577   29.7166  -31.1976 H   0  0  0  0  0
  -17.1024   28.5288  -31.5905 H   0  0  0  0  0
  -18.5709   31.1711  -28.4281 H   0  0  0  0  0
  -17.8442   32.0564  -29.8060 H   0  0  0  0  0
  -17.2589   29.3162  -33.6435 H   0  0  0  0  0
  -16.3228   30.7452  -32.9877 H   0  0  0  0  0
  -15.8390   32.4316  -28.3090 H   0  0  0  0  0
  -16.8547   31.8534  -26.9683 H   0  0  0  0  0
  -18.6484   31.0328  -34.2774 H   0  0  0  0  0
  2  1  1  0  0  0
  1101  1  0  0  0
  3  2  1  0  0  0
  2  5  1  0  0  0
  3  4  2  0  0  0
 10  3  1  0  0  0
  5  6  1  0  0  0
  6  7  1  0  0  0
  7  8  2  0  0  0
  7  9  1  0  0  0
 11 10  1  0  0  0
 12 11  1  0  0  0
 11 14  1  0  0  0
 12 13  2  0  0  0
 21 12  1  0  0  0
 14 15  1  0  0  0
 15 16  4  0  0  0
 15 17  4  0  0  0
 16 18  4  0  0  0
 17 19  4  0  0  0
 18 20  4  0  0  0
 19 20  4  0  0  0
 22 21  1  0  0  0
 23 22  1  0  0  0
 22 25  1  0  0  0
 23 24  2  0  0  0
 29 23  1  0  0  0
 25 26  1  0  0  0
 26 27  1  0  0  0
 26 28  2  0  0  0
 30 29  1  0  0  0
 31 30  1  0  0  0
 30 33  1  0  0  0
 31 32  2  0  0  0
 37 31  1  0  0  0
 33 34  1  0  0  0
 34 35  1  0  0  0
 34 36  1  0  0  0
 38 37  1  0  0  0
 39 38  1  0  0  0
 38 41  1  0  0  0
 39 40  2  0  0  0
 43 39  1  0  0  0
 41 42  1  0  0  0
 44 43  1  0  0  0
 45 44  1  0  0  0
 44 47  1  0  0  0
 45 46  2  0  0  0
 50 45  1  0  0  0
 47 48  1  0  0  0
 47 49  1  0  0  0
 51 50  1  0  0  0
 52 51  1  0  0  0
 51 54  1  0  0  0
 52 53  2  0  0  0
 65 52  1  0  0  0
 54 55  1  0  0  0
 55 56  1  0  0  0
 56 57  1  0  0  0
 57 58  1  0  0  0
 58 59  2  0  0  0
 58 60  1  0  0  0
 60 62  1  0  0  0
 62 61  1  0  0  0
 61 63  1  0  0  0
 63 64  1  0  0  0
 66 65  1  0  0  0
 67 66  1  0  0  0
 66 69  1  0  0  0
 67 68  2  0  0  0
 76 67  1  0  0  0
 69 70  1  0  0  0
 70 71  1  0  0  0
 71 72  1  0  0  0
 72 73  1  0  0  0
 73 74  1  0  0  0
 73 75  2  0  0  0
 77 76  1  0  0  0
 78 77  1  0  0  0
 77 80  1  0  0  0
 78 79  2  0  0  0
 84 78  1  0  0  0
 80 81  1  0  0  0
 81 82  1  0  0  0
 81 83  1  0  0  0
 85 84  1  0  0  0
 86 85  1  0  0  0
 85 88  1  0  0  0
 86 87  2  0  0  0
100 86  1  0  0  0
 88 89  1  0  0  0
 89 90  1  0  0  0
 90 91  1  0  0  0
 91 92  1  0  0  0
 93 94  1  0  0  0
 96 93  1  0  0  0
 94 97  1  0  0  0
101 95  2  0  0  0
 98 96  1  0  0  0
 97 99  1  0  0  0
 98100  1  0  0  0
 99101  1  0  0  0
  1102  1  0  0  0
  2103  1  0  0  0
  5104  1  0  0  0
  5105  1  0  0  0
  6106  1  0  0  0
  6107  1  0  0  0
  9108  1  0  0  0
  9109  1  0  0  0
 10110  1  0  0  0
 11111  1  0  0  0
 14112  1  0  0  0
 14113  1  0  0  0
 16114  1  0  0  0
 17115  1  0  0  0
 18116  1  0  0  0
 19117  1  0  0  0
 20118  1  0  0  0
 21119  1  0  0  0
 22120  1  0  0  0
 25121  1  0  0  0
 25122  1  0  0  0
 27123  1  0  0  0
 29124  1  0  0  0
 30125  1  0  0  0
 33126  1  0  0  0
 33127  1  0  0  0
 34128  1  0  0  0
 35129  1  0  0  0
 35130  1  0  0  0
 35131  1  0  0  0
 36132  1  0  0  0
 36133  1  0  0  0
 36134  1  0  0  0
 37135  1  0  0  0
 38136  1  0  0  0
 41137  1  0  0  0
 41138  1  0  0  0
 42139  1  0  0  0
 43140  1  0  0  0
 44141  1  0  0  0
 47142  1  0  0  0
 48143  1  0  0  0
 49144  1  0  0  0
 49145  1  0  0  0
 49146  1  0  0  0
 50147  1  0  0  0
 51148  1  0  0  0
 54149  1  0  0  0
 54150  1  0  0  0
 55151  1  0  0  0
 55152  1  0  0  0
 56153  1  0  0  0
 56154  1  0  0  0
 57155  1  0  0  0
 59156  1  0  0  0
 60157  1  0  0  0
 61158  1  0  0  0
 61159  1  0  0  0
 62160  1  0  0  0
 62161  1  0  0  0
 63162  1  0  0  0
 63163  1  0  0  0
 64164  1  0  0  0
 65165  1  0  0  0
 66166  1  0  0  0
 69167  1  0  0  0
 69168  1  0  0  0
 70169  1  0  0  0
 70170  1  0  0  0
 71171  1  0  0  0
 71172  1  0  0  0
 72173  1  0  0  0
 74174  1  0  0  0
 74175  1  0  0  0
 75176  1  0  0  0
 76177  1  0  0  0
 77178  1  0  0  0
 80179  1  0  0  0
 80180  1  0  0  0
 81181  1  0  0  0
 82182  1  0  0  0
 82183  1  0  0  0
 82184  1  0  0  0
 83185  1  0  0  0
 83186  1  0  0  0
 83187  1  0  0  0
 84188  1  0  0  0
 85189  1  0  0  0
 88190  1  0  0  0
 88191  1  0  0  0
 89192  1  0  0  0
 89193  1  0  0  0
 90194  1  0  0  0
 90195  1  0  0  0
 91196  1  0  0  0
 91197  1  0  0  0
 92198  1  0  0  0
 92199  1  0  0  0
 92200  1  0  0  0
 93201  1  0  0  0
 93202  1  0  0  0
 94203  1  0  0  0
 94204  1  0  0  0
 96205  1  0  0  0
 96206  1  0  0  0
 97207  1  0  0  0
 97208  1  0  0  0
 98209  1  0  0  0
 98210  1  0  0  0
 99211  1  0  0  0
 99212  1  0  0  0
100213  1  0  0  0
M  END
$$$$
