1g46_ligand
  -I-interpret- 

 34 35  0  0  0  0  0  0  0  0999 V2000
   -3.7760    3.4840   14.8430 C   0  0  0  0  0
   -4.1720    2.3500   15.5910 C   0  0  0  0  0
   -5.5470    2.2440   15.9710 C   0  0  0  0  0
   -6.4400    3.2680   15.5950 C   0  0  0  0  0
   -5.9960    4.3740   14.8560 C   0  0  0  0  0
   -4.6820    4.4900   14.4760 C   0  0  0  0  0
   -4.2030    5.6770   13.6740 C   0  0  0  0  0
   -4.9920    6.5560   13.3470 O   0  0  0  0  0
   -2.8760    5.7480   13.3320 N   0  0  0  0  0
   -2.1590    6.7810   12.5860 C   0  0  0  0  0
   -6.0790    0.8210   16.8920 S   0  0  0  0  0
   -5.6770   -0.5870   16.0830 N   0  0  0  0  0
   -7.5130    1.0660   17.0180 O   0  0  0  0  0
   -5.4220    1.0020   18.1930 O   0  0  0  0  0
   -1.6020    7.8570   13.3630 C   0  0  0  0  0
   -1.9250    7.9340   14.7600 C   0  0  0  0  0
   -1.3710    9.0150   15.5610 C   0  0  0  0  0
   -0.5050    9.9880   14.9340 C   0  0  0  0  0
   -0.1790    9.9230   13.5560 C   0  0  0  0  0
   -0.7250    8.8540   12.7540 C   0  0  0  0  0
    0.3700   10.5560   13.1960 F   0  0  0  0  0
   -0.4600    8.8140   11.6700 F   0  0  0  0  0
   -2.7327    3.5789   14.5421 H   0  0  0  0  0
   -3.4514    1.5809   15.8691 H   0  0  0  0  0
   -7.4892    3.1992   15.8824 H   0  0  0  0  0
   -6.7054    5.1538   14.5790 H   0  0  0  0  0
   -2.3046    4.9631   13.6449 H   0  0  0  0  0
   -2.8901    7.2357   11.9175 H   0  0  0  0  0
   -1.3152    6.2816   12.1099 H   0  0  0  0  0
   -5.0184   -1.2447   16.5003 H   0  0  0  0  0
   -6.0905   -0.7878   15.1724 H   0  0  0  0  0
   -2.5786    7.1902   15.2158 H   0  0  0  0  0
   -1.6065    9.0904   16.6226 H   0  0  0  0  0
   -0.0907   10.7950   15.5383 H   0  0  0  0  0
  1  6  4  0  0  0
  1  2  4  0  0  0
  2  3  4  0  0  0
  3 11  1  0  0  0
  3  4  4  0  0  0
  4  5  4  0  0  0
  5  6  4  0  0  0
  6  7  1  0  0  0
  7  9  1  0  0  0
  7  8  2  0  0  0
  9 10  1  0  0  0
 10 15  1  0  0  0
 15 20  4  0  0  0
 15 16  4  0  0  0
 16 17  4  0  0  0
 17 18  4  0  0  0
 18 19  4  0  0  0
 19 20  4  0  0  0
 11 14  2  0  0  0
 11 13  2  0  0  0
 11 12  1  0  0  0
 20 22  1  0  0  0
 19 21  1  0  0  0
  1 23  1  0  0  0
  2 24  1  0  0  0
  4 25  1  0  0  0
  5 26  1  0  0  0
  9 27  1  0  0  0
 10 28  1  0  0  0
 10 29  1  0  0  0
 12 30  1  0  0  0
 12 31  1  0  0  0
 16 32  1  0  0  0
 17 33  1  0  0  0
 18 34  1  0  0  0
M  END
$$$$
