4qgi_ligand
  -I-interpret- 

106110  0  0  0  0  0  0  0  0999 V2000
   18.0540   -7.6480  -12.8680 C   0  0  0  0  0
   18.0980   -6.7230  -13.6860 O   0  0  0  0  0
   19.6820   -9.7140  -11.8010 N   0  0  0  0  0
   19.1700   -8.6420  -12.4450 C   0  0  0  0  0
   20.3880   -8.0130  -12.6400 C   0  0  0  0  0
   21.6420   -8.6630  -12.6740 C   0  0  0  0  0
   22.9080  -10.2820  -11.5540 C   0  0  0  0  0
   23.1490  -11.2970  -10.6620 C   0  0  0  0  0
   21.8430  -11.7360  -10.4170 C   0  0  0  0  0
   20.5050  -11.7380  -10.7940 C   0  0  0  0  0
   21.6950   -9.9560  -12.1700 C   0  0  0  0  0
   20.6060  -10.7150  -11.7310 C   0  0  0  0  0
   16.9130   -8.5150  -12.5710 N   0  0  0  0  0
   15.5740   -8.0410  -12.9510 C   0  0  0  0  0
   14.9790   -8.0250  -11.5500 C   0  0  0  0  0
   14.5340   -9.1160  -11.2300 O   0  0  0  0  0
   14.9080   -9.0950  -13.7930 C   0  0  0  0  0
   15.4000   -8.5090  -15.0970 C   0  0  0  0  0
   15.6660   -7.4100  -15.5490 O   0  0  0  0  0
   16.1320   -9.3010  -16.0660 N   0  0  0  0  0
   13.5950   -5.8570   -9.3840 C   0  0  0  0  0
   13.8760   -4.5050   -9.4820 O   0  0  0  0  0
   14.6960   -6.9110   -9.3730 C   0  0  0  0  0
   15.3610   -6.8670  -10.6910 N   0  0  0  0  0
   15.7830   -6.3360   -8.4850 C   0  0  0  0  0
   17.1550   -6.9260   -8.6260 C   0  0  0  0  0
   17.1000   -8.1260   -7.9340 C   0  0  0  0  0
   18.4560   -6.5330   -8.9200 C   0  0  0  0  0
   18.0400   -9.1600   -8.0720 C   0  0  0  0  0
   19.2360   -7.6480   -9.2320 C   0  0  0  0  0
   19.2960   -8.8490   -8.5450 C   0  0  0  0  0
   11.7540   -6.9490   -8.6480 N   0  3  0  0  0
   12.7170   -5.8960   -8.1480 C   0  0  0  0  0
   10.9310   -7.3020   -7.4550 C   0  0  0  0  0
   12.0210   -7.8020   -6.4830 C   0  0  0  0  0
   12.5780   -8.8450   -6.7780 O   0  0  0  0  0
    9.7640   -8.2880   -7.6990 C   0  0  0  0  0
    8.4910   -7.9420   -8.5150 C   0  0  0  0  0
    7.6780   -9.0590   -9.1460 C   0  0  0  0  0
    8.4100  -10.2250   -9.7930 C   0  0  0  0  0
    9.1110   -9.5060  -10.9240 C   0  0  0  0  0
   10.0420   -8.4350  -10.3830 C   0  0  0  0  0
    9.1580   -7.3890   -9.7400 C   0  0  0  0  0
   10.4940   -6.6810   -9.4180 C   0  0  0  0  0
   11.5420   -7.4610   -5.1210 N   0  0  0  0  0
   12.2130   -8.0490   -3.9190 C   0  0  0  0  0
   13.6020   -7.4140   -3.9640 C   0  0  0  0  0
   12.5450   -9.5270   -3.8700 C   0  0  0  0  0
   11.5800   -7.4290   -2.7150 C   0  0  0  0  0
   19.0998   -9.8300  -10.9716 H   0  0  0  0  0
   20.3787   -6.9318  -12.7781 H   0  0  0  0  0
   22.3024   -8.0695  -12.0417 H   0  0  0  0  0
   21.9075   -8.7431  -13.7281 H   0  0  0  0  0
   23.7622   -9.6564  -11.8129 H   0  0  0  0  0
   24.0939  -11.6598  -10.2574 H   0  0  0  0  0
   21.9015  -12.3600   -9.5252 H   0  0  0  0  0
   19.6585  -12.3406  -10.4649 H   0  0  0  0  0
   17.0424   -9.4184  -12.1154 H   0  0  0  0  0
   15.5033   -7.1131  -13.5185 H   0  0  0  0  0
   13.8341   -9.2380  -13.6730 H   0  0  0  0  0
   15.1447  -10.1381  -13.5830 H   0  0  0  0  0
   16.6448   -8.8406  -16.8180 H   0  0  0  0  0
   16.1342  -10.3186  -15.9957 H   0  0  0  0  0
   13.1596   -6.1831  -10.3285 H   0  0  0  0  0
   13.0552   -4.0072   -9.4723 H   0  0  0  0  0
   14.3013   -7.8880   -9.0941 H   0  0  0  0  0
   16.0057   -6.1312  -10.9799 H   0  0  0  0  0
   15.4726   -6.5423   -7.4607 H   0  0  0  0  0
   15.8776   -5.2878   -8.7687 H   0  0  0  0  0
   17.2026   -6.4414   -9.6012 H   0  0  0  0  0
   16.2744   -8.2765   -7.2384 H   0  0  0  0  0
   18.8823   -6.0303   -8.0519 H   0  0  0  0  0
   18.4406   -5.8571   -9.7750 H   0  0  0  0  0
   17.7816  -10.1862   -7.8106 H   0  0  0  0  0
   20.2413   -7.2585   -9.0717 H   0  0  0  0  0
   18.7925   -7.9628  -10.1766 H   0  0  0  0  0
   19.6420   -9.6373   -9.2135 H   0  0  0  0  0
   19.9909   -8.7599   -7.7100 H   0  0  0  0  0
   12.4144   -7.5078   -9.1884 H   0  0  0  0  0
   12.2761   -4.9477   -7.8409 H   0  0  0  0  0
   13.2211   -6.1133   -7.2063 H   0  0  0  0  0
   10.3479   -6.4629   -7.0754 H   0  0  0  0  0
    9.3698   -8.4463   -6.6952 H   0  0  0  0  0
   10.2305   -9.0675   -8.3013 H   0  0  0  0  0
    7.8135   -7.3944   -7.8599 H   0  0  0  0  0
    7.1301   -8.5838   -9.9597 H   0  0  0  0  0
    7.1180   -9.5003   -8.3216 H   0  0  0  0  0
    7.7610  -11.0400  -10.1134 H   0  0  0  0  0
    9.0783  -10.7636   -9.1212 H   0  0  0  0  0
    8.3619   -9.0338  -11.5596 H   0  0  0  0  0
    9.6971  -10.2287  -11.4917 H   0  0  0  0  0
   10.6460   -8.0015  -11.1801 H   0  0  0  0  0
   10.7431   -8.8534   -9.6608 H   0  0  0  0  0
    8.3260   -6.8902  -10.2370 H   0  0  0  0  0
   10.9275   -6.7485  -10.4158 H   0  0  0  0  0
   10.0873   -5.9196   -8.7524 H   0  0  0  0  0
   10.7537   -6.8245   -5.0033 H   0  0  0  0  0
   14.0947   -7.6866   -4.8973 H   0  0  0  0  0
   13.5065   -6.3298   -3.9053 H   0  0  0  0  0
   14.1922   -7.7742   -3.1214 H   0  0  0  0  0
   11.6273  -10.1075   -3.9648 H   0  0  0  0  0
   13.2191   -9.7740   -4.6902 H   0  0  0  0  0
   13.0265   -9.7586   -2.9199 H   0  0  0  0  0
   11.7236   -6.3489   -2.7461 H   0  0  0  0  0
   10.5137   -7.6550   -2.7097 H   0  0  0  0  0
   12.0428   -7.8325   -1.8144 H   0  0  0  0  0
  1  2  2  0  0  0
  1  4  1  0  0  0
 13  1  1  0  0  0
  4  3  1  0  0  0
  3 12  1  0  0  0
  4  5  2  0  0  0
  5  6  1  0  0  0
  6 11  1  0  0  0
  7  8  4  0  0  0
 11  7  4  0  0  0
  9  8  4  0  0  0
 10  9  4  0  0  0
 12 10  4  0  0  0
 12 11  4  0  0  0
 14 13  1  0  0  0
 15 14  1  0  0  0
 14 17  1  0  0  0
 15 16  2  0  0  0
 24 15  1  0  0  0
 17 18  1  0  0  0
 18 19  2  0  0  0
 18 20  1  0  0  0
 21 22  1  0  0  0
 23 21  1  0  0  0
 21 33  1  0  0  0
 23 24  1  0  0  0
 23 25  1  0  0  0
 25 26  1  0  0  0
 26 27  1  0  0  0
 26 28  1  0  0  0
 27 29  2  0  0  0
 28 30  1  0  0  0
 29 31  1  0  0  0
 30 31  1  0  0  0
 33 32  1  0  0  0
 32 34  1  0  0  0
 32 44  1  0  0  0
 34 35  1  0  0  0
 34 37  1  0  0  0
 35 36  2  0  0  0
 35 45  1  0  0  0
 37 38  1  0  0  0
 38 39  1  0  0  0
 38 43  1  0  0  0
 39 40  1  0  0  0
 40 41  1  0  0  0
 41 42  1  0  0  0
 42 43  1  0  0  0
 43 44  1  0  0  0
 45 46  1  0  0  0
 46 47  1  0  0  0
 46 48  1  0  0  0
 46 49  1  0  0  0
  3 50  1  0  0  0
  5 51  1  0  0  0
  6 52  1  0  0  0
  6 53  1  0  0  0
  7 54  1  0  0  0
  8 55  1  0  0  0
  9 56  1  0  0  0
 10 57  1  0  0  0
 13 58  1  0  0  0
 14 59  1  0  0  0
 17 60  1  0  0  0
 17 61  1  0  0  0
 20 62  1  0  0  0
 20 63  1  0  0  0
 21 64  1  0  0  0
 22 65  1  0  0  0
 23 66  1  0  0  0
 24 67  1  0  0  0
 25 68  1  0  0  0
 25 69  1  0  0  0
 26 70  1  0  0  0
 27 71  1  0  0  0
 28 72  1  0  0  0
 28 73  1  0  0  0
 29 74  1  0  0  0
 30 75  1  0  0  0
 30 76  1  0  0  0
 31 77  1  0  0  0
 31 78  1  0  0  0
 32 79  1  0  0  0
 33 80  1  0  0  0
 33 81  1  0  0  0
 34 82  1  0  0  0
 37 83  1  0  0  0
 37 84  1  0  0  0
 38 85  1  0  0  0
 39 86  1  0  0  0
 39 87  1  0  0  0
 40 88  1  0  0  0
 40 89  1  0  0  0
 41 90  1  0  0  0
 41 91  1  0  0  0
 42 92  1  0  0  0
 42 93  1  0  0  0
 43 94  1  0  0  0
 44 95  1  0  0  0
 44 96  1  0  0  0
 45 97  1  0  0  0
 47 98  1  0  0  0
 47 99  1  0  0  0
 47100  1  0  0  0
 48101  1  0  0  0
 48102  1  0  0  0
 48103  1  0  0  0
 49104  1  0  0  0
 49105  1  0  0  0
 49106  1  0  0  0
M  END
$$$$
