2c69_ligand
  -I-interpret- 

 37 40  0  0  0  0  0  0  0  0999 V2000
   14.4220   -8.1890    5.7560 Br  0  0  0  0  0
   14.1990   -7.4730    7.4940 C   0  0  0  0  0
   13.7090   -8.2870    8.5090 C   0  0  0  0  0
   13.5350   -7.7790    9.7960 C   0  0  0  0  0
   13.8830   -6.4340   10.0800 C   0  0  0  0  0
   14.3900   -5.6150    9.0570 C   0  0  0  0  0
   14.5450   -6.1380    7.7610 C   0  0  0  0  0
   13.0200   -8.6650   10.8840 C   0  0  0  0  0
   11.8400   -9.4090   10.7120 C   0  0  0  0  0
   11.3900  -10.2060   11.7890 C   0  0  0  0  0
   12.1240  -10.2480   12.9230 N   0  0  0  0  0
   11.9010  -10.9240   14.0230 N   0  0  0  0  0
   12.8970  -10.6180   14.8970 C   0  0  0  0  0
   13.2390   -9.5560   13.0510 C   0  0  0  0  0
   13.6920   -8.7410   12.0680 N   0  0  0  0  0
   10.1940  -10.9470   11.6970 N   0  0  0  0  0
    9.0920  -10.4610   10.8780 C   0  0  0  0  0
    8.8270  -11.4590    9.7790 C   0  0  0  0  0
    8.8290  -12.8200   10.0590 C   0  0  0  0  0
    8.6090  -13.7350    9.0400 C   0  0  0  0  0
    8.3860  -13.3020    7.7770 N   0  0  0  0  0
    8.3650  -11.9660    7.4890 C   0  0  0  0  0
    8.6000  -11.0270    8.4870 C   0  0  0  0  0
   13.7440   -9.7650   14.2660 N   0  0  0  0  0
   13.4597   -9.3269    8.2979 H   0  0  0  0  0
   13.7578   -6.0372   11.0875 H   0  0  0  0  0
   14.6615   -4.5804    9.2668 H   0  0  0  0  0
   14.9342   -5.5066    6.9623 H   0  0  0  0  0
   11.2869   -9.3723    9.7735 H   0  0  0  0  0
   12.9969  -10.9894   15.9169 H   0  0  0  0  0
   10.1002  -11.8262   12.2056 H   0  0  0  0  0
    9.3514   -9.4948   10.4452 H   0  0  0  0  0
    8.1995  -10.3421   11.4923 H   0  0  0  0  0
    9.0031  -13.1679   11.0772 H   0  0  0  0  0
    8.6157  -14.8033    9.2564 H   0  0  0  0  0
    8.1627  -11.6347    6.4705 H   0  0  0  0  0
    8.6050   -9.9625    8.2525 H   0  0  0  0  0
  1  2  1  0  0  0
  2  3  4  0  0  0
  2  7  4  0  0  0
  3  4  4  0  0  0
  4  5  4  0  0  0
  4  8  1  0  0  0
  5  6  4  0  0  0
  6  7  4  0  0  0
  8  9  4  0  0  0
  8 15  4  0  0  0
  9 10  4  0  0  0
 10 11  4  0  0  0
 10 16  1  0  0  0
 11 12  4  0  0  0
 11 14  4  0  0  0
 12 13  4  0  0  0
 13 24  4  0  0  0
 14 15  4  0  0  0
 14 24  4  0  0  0
 16 17  1  0  0  0
 17 18  1  0  0  0
 18 19  4  0  0  0
 18 23  4  0  0  0
 19 20  4  0  0  0
 20 21  4  0  0  0
 21 22  4  0  0  0
 22 23  4  0  0  0
  3 25  1  0  0  0
  5 26  1  0  0  0
  6 27  1  0  0  0
  7 28  1  0  0  0
  9 29  1  0  0  0
 13 30  1  0  0  0
 16 31  1  0  0  0
 17 32  1  0  0  0
 17 33  1  0  0  0
 19 34  1  0  0  0
 20 35  1  0  0  0
 22 36  1  0  0  0
 23 37  1  0  0  0
M  END
$$$$
