3o9a_ligand
  -I-interpret- 

 80 83  0  0  0  0  0  0  0  0999 V2000
   15.2640   36.8980   18.8620 C   0  0  0  0  0
   14.9130   35.5430   18.5380 O   0  0  0  0  0
   15.6430   34.7940   17.6380 C   0  0  0  0  0
   16.6690   35.3650   16.8740 C   0  0  0  0  0
   17.4010   34.5810   15.9790 C   0  0  0  0  0
   17.1500   33.2230   15.8090 C   0  0  0  0  0
   16.1150   32.6610   16.5710 C   0  0  0  0  0
   15.3780   33.4320   17.4870 C   0  0  0  0  0
   18.0510   32.3340   14.7750 S   0  0  0  0  0
   17.2730   31.2520   14.2660 O   0  0  0  0  0
   18.5690   33.1480   13.6970 O   0  0  0  0  0
   19.3640   31.7370   15.5100 N   0  0  0  0  0
   20.0780   32.7780   16.2950 C   0  0  0  0  0
   21.5800   32.4850   16.3810 C   0  0  0  0  0
   22.2640   32.3920   15.0110 C   0  0  0  0  0
   22.2460   33.5250   17.2850 C   0  0  0  0  0
   19.0910   30.5110   16.2930 C   0  0  0  0  0
   19.9380   29.3640   15.7330 C   0  0  0  0  0
   22.1360   34.9420   16.7850 C   0  0  0  0  0
   19.8840   28.2340   16.6120 O   0  0  0  0  0
   19.5400   28.9130   14.3330 C   0  0  0  0  0
   20.6230   28.1000   13.8510 N   0  0  0  0  0
   21.4740   28.4390   12.8860 C   0  0  0  0  0
   21.5030   29.4720   12.2360 O   0  0  0  0  0
   22.4340   27.4000   12.6390 O   0  0  0  0  0
   23.2840   27.5150   11.5100 C   0  0  0  0  0
   24.6090   26.9590   11.9810 C   0  0  0  0  0
   24.4480   25.5390   11.8700 O   0  0  0  0  0
   23.5370   25.2630   10.8020 C   0  0  0  0  0
   22.5090   24.3610   11.2120 O   0  0  0  0  0
   21.2220   25.0020   11.1960 C   0  0  0  0  0
   21.3860   26.2250   10.3070 C   0  0  0  0  0
   22.8660   26.5640   10.4090 C   0  0  0  0  0
   18.2250   28.1220   14.2440 C   0  0  0  0  0
   18.1390   26.4190   12.3770 C   0  0  0  0  0
   17.9430   26.0680   11.0550 C   0  0  0  0  0
   17.5910   27.0290   10.1290 C   0  0  0  0  0
   17.4440   28.3460   10.5230 C   0  0  0  0  0
   17.6280   28.6950   11.8560 C   0  0  0  0  0
   17.9870   27.7390   12.7890 C   0  0  0  0  0
   16.2688   36.9208   19.2838 H   0  0  0  0  0
   15.2343   37.5058   17.9577 H   0  0  0  0  0
   14.5542   37.2918   19.5895 H   0  0  0  0  0
   16.8972   36.4257   16.9783 H   0  0  0  0  0
   18.1942   35.0480   15.3952 H   0  0  0  0  0
   15.8771   31.6041   16.4504 H   0  0  0  0  0
   14.5949   32.9632   18.0829 H   0  0  0  0  0
   19.6699   32.7888   17.3057 H   0  0  0  0  0
   19.9415   33.7389   15.7988 H   0  0  0  0  0
   21.7010   31.4944   16.8194 H   0  0  0  0  0
   21.8067   31.5898   14.4317 H   0  0  0  0  0
   22.1448   33.3375   14.4819 H   0  0  0  0  0
   23.3248   32.1828   15.1494 H   0  0  0  0  0
   23.3075   33.2810   17.3268 H   0  0  0  0  0
   21.7384   33.4845   18.2487 H   0  0  0  0  0
   18.0335   30.2565   16.2214 H   0  0  0  0  0
   19.3447   30.6788   17.3397 H   0  0  0  0  0
   20.9498   29.7631   15.6613 H   0  0  0  0  0
   22.6101   35.0185   15.8065 H   0  0  0  0  0
   21.0843   35.2164   16.7030 H   0  0  0  0  0
   22.6343   35.6127   17.4850 H   0  0  0  0  0
   20.4181   27.5229   16.2504 H   0  0  0  0  0
   19.3588   29.8059   13.7346 H   0  0  0  0  0
   20.7498   27.1859   14.2855 H   0  0  0  0  0
   23.2834   28.5428   11.1470 H   0  0  0  0  0
   24.8494   27.2694   12.9978 H   0  0  0  0  0
   25.4461   27.3276   11.3881 H   0  0  0  0  0
   24.0958   24.8172    9.9792 H   0  0  0  0  0
   20.9022   25.2793   12.2005 H   0  0  0  0  0
   20.4487   24.3341   10.8166 H   0  0  0  0  0
   20.7514   27.0525   10.6243 H   0  0  0  0  0
   21.0780   26.0312    9.2795 H   0  0  0  0  0
   23.1279   27.0315    9.4598 H   0  0  0  0  0
   17.3986   28.7330   14.6073 H   0  0  0  0  0
   18.2892   27.2242   14.8588 H   0  0  0  0  0
   18.4152   25.6548   13.1035 H   0  0  0  0  0
   18.0665   25.0309   10.7431 H   0  0  0  0  0
   17.4290   26.7498    9.0879 H   0  0  0  0  0
   17.1843   29.1094    9.7897 H   0  0  0  0  0
   17.4883   29.7299   12.1684 H   0  0  0  0  0
  2  1  1  0  0  0
  3  2  1  0  0  0
  4  3  4  0  0  0
  8  3  4  0  0  0
  5  4  4  0  0  0
  6  5  4  0  0  0
  6  7  4  0  0  0
  9  6  1  0  0  0
  7  8  4  0  0  0
  9 10  2  0  0  0
  9 11  2  0  0  0
 12  9  1  0  0  0
 12 13  1  0  0  0
 17 12  1  0  0  0
 13 14  1  0  0  0
 14 15  1  0  0  0
 14 16  1  0  0  0
 16 19  1  0  0  0
 18 17  1  0  0  0
 18 20  1  0  0  0
 21 18  1  0  0  0
 21 22  1  0  0  0
 34 21  1  0  0  0
 22 23  1  0  0  0
 23 24  2  0  0  0
 23 25  1  0  0  0
 25 26  1  0  0  0
 26 27  1  0  0  0
 26 33  1  0  0  0
 27 28  1  0  0  0
 29 28  1  0  0  0
 29 30  1  0  0  0
 33 29  1  0  0  0
 31 30  1  0  0  0
 32 31  1  0  0  0
 33 32  1  0  0  0
 40 34  1  0  0  0
 35 36  4  0  0  0
 35 40  4  0  0  0
 36 37  4  0  0  0
 37 38  4  0  0  0
 38 39  4  0  0  0
 39 40  4  0  0  0
  1 41  1  0  0  0
  1 42  1  0  0  0
  1 43  1  0  0  0
  4 44  1  0  0  0
  5 45  1  0  0  0
  7 46  1  0  0  0
  8 47  1  0  0  0
 13 48  1  0  0  0
 13 49  1  0  0  0
 14 50  1  0  0  0
 15 51  1  0  0  0
 15 52  1  0  0  0
 15 53  1  0  0  0
 16 54  1  0  0  0
 16 55  1  0  0  0
 17 56  1  0  0  0
 17 57  1  0  0  0
 18 58  1  0  0  0
 19 59  1  0  0  0
 19 60  1  0  0  0
 19 61  1  0  0  0
 20 62  1  0  0  0
 21 63  1  0  0  0
 22 64  1  0  0  0
 26 65  1  0  0  0
 27 66  1  0  0  0
 27 67  1  0  0  0
 29 68  1  0  0  0
 31 69  1  0  0  0
 31 70  1  0  0  0
 32 71  1  0  0  0
 32 72  1  0  0  0
 33 73  1  0  0  0
 34 74  1  0  0  0
 34 75  1  0  0  0
 35 76  1  0  0  0
 36 77  1  0  0  0
 37 78  1  0  0  0
 38 79  1  0  0  0
 39 80  1  0  0  0
M  END
$$$$
