3sgx_ligand
  -I-interpret- 

 53 56  0  0  0  0  0  0  0  0999 V2000
  -11.3460   17.8360    1.5230 O   0  0  0  0  0
  -10.0410   14.6410    5.8000 O   0  0  0  0  0
  -12.0000    6.9280    1.3980 O   0  0  0  0  0
  -10.4160   17.6800    3.5450 O   0  0  0  0  0
  -11.3410   16.3720    5.3350 O   0  0  0  0  0
  -14.1450   -1.7410    3.1560 C   0  0  0  0  0
  -14.8750   -0.7810    3.8570 C   0  0  0  0  0
  -13.0730   -1.3370    2.3410 C   0  0  0  0  0
  -14.8860   10.8360    3.1690 C   0  0  0  0  0
  -14.8010    9.4410    3.2300 C   0  0  0  0  0
  -13.7750   11.5820    2.8110 C   0  0  0  0  0
  -14.5520    0.5660    3.7300 C   0  0  0  0  0
  -12.7330    0.0220    2.1990 C   0  0  0  0  0
  -11.4620   13.6770    1.0700 C   0  0  0  0  0
  -13.1260    4.5420    3.7010 C   0  0  0  0  0
  -13.0160    4.2490    1.3070 C   0  0  0  0  0
  -13.2760    3.1780    3.8730 C   0  0  0  0  0
  -13.1640    2.8830    1.4990 C   0  0  0  0  0
  -11.3350   15.0590    1.1990 C   0  0  0  0  0
  -12.5040    9.5120    2.5830 C   0  0  0  0  0
  -11.1270   13.4620    3.4350 C   0  0  0  0  0
  -13.5930    7.3940    2.9840 N   0  0  0  0  0
  -11.4590   11.5300    2.1490 O   0  0  0  0  0
  -10.9560   17.1780    2.5180 C   0  0  0  0  0
  -10.7470   15.3340    5.0110 C   0  0  0  0  0
  -12.8210    6.5760    2.2310 C   0  0  0  0  0
  -13.6190    8.7490    2.9370 C   0  0  0  0  0
  -12.5870   10.8990    2.5190 C   0  0  0  0  0
  -11.3730   12.8850    2.2070 C   0  0  0  0  0
  -12.9920    5.0770    2.4280 C   0  0  0  0  0
  -13.4800    0.9750    2.9110 C   0  0  0  0  0
  -13.2710    2.3440    2.7760 C   0  0  0  0  0
  -11.0960   15.6440    2.4430 C   0  0  0  0  0
  -10.9870   14.8250    3.5790 C   0  0  0  0  0
   -9.6821   13.8864    5.3274 H   0  0  0  0  0
  -10.2051   16.9810    4.1683 H   0  0  0  0  0
  -14.4038   -2.7965    3.2395 H   0  0  0  0  0
  -15.6977   -1.0861    4.5036 H   0  0  0  0  0
  -12.4934   -2.0910    1.8083 H   0  0  0  0  0
  -15.8260   11.3357    3.4031 H   0  0  0  0  0
  -15.6860    8.8724    3.5157 H   0  0  0  0  0
  -13.8237   12.6696    2.7580 H   0  0  0  0  0
  -15.1340    1.3132    4.2695 H   0  0  0  0  0
  -11.9102    0.3271    1.5524 H   0  0  0  0  0
  -11.6285   13.2252    0.0921 H   0  0  0  0  0
  -13.1130    5.2000    4.5699 H   0  0  0  0  0
  -12.9208    4.6646    0.3039 H   0  0  0  0  0
  -13.3979    2.7637    4.8738 H   0  0  0  0  0
  -13.1970    2.2210    0.6337 H   0  0  0  0  0
  -11.4236   15.6916    0.3158 H   0  0  0  0  0
  -11.5605    9.0162    2.3549 H   0  0  0  0  0
  -11.0411   12.8235    4.3142 H   0  0  0  0  0
  -14.2181    6.9462    3.6542 H   0  0  0  0  0
 24  1  2  0  0  0
 25  2  1  0  0  0
 26  3  2  0  0  0
 24  4  1  0  0  0
 25  5  2  0  0  0
  7  6  4  0  0  0
  8  6  4  0  0  0
 12  7  4  0  0  0
 13  8  4  0  0  0
 10  9  4  0  0  0
  9 11  4  0  0  0
 27 10  4  0  0  0
 28 11  4  0  0  0
 31 12  4  0  0  0
 31 13  4  0  0  0
 14 19  4  0  0  0
 29 14  4  0  0  0
 17 15  4  0  0  0
 15 30  4  0  0  0
 18 16  4  0  0  0
 16 30  4  0  0  0
 32 17  4  0  0  0
 32 18  4  0  0  0
 19 33  4  0  0  0
 27 20  4  0  0  0
 20 28  4  0  0  0
 29 21  4  0  0  0
 21 34  4  0  0  0
 26 22  1  0  0  0
 22 27  1  0  0  0
 28 23  1  0  0  0
 23 29  1  0  0  0
 33 24  1  0  0  0
 34 25  1  0  0  0
 30 26  1  0  0  0
 31 32  1  0  0  0
 33 34  4  0  0  0
  2 35  1  0  0  0
  4 36  1  0  0  0
  6 37  1  0  0  0
  7 38  1  0  0  0
  8 39  1  0  0  0
  9 40  1  0  0  0
 10 41  1  0  0  0
 11 42  1  0  0  0
 12 43  1  0  0  0
 13 44  1  0  0  0
 14 45  1  0  0  0
 15 46  1  0  0  0
 16 47  1  0  0  0
 17 48  1  0  0  0
 18 49  1  0  0  0
 19 50  1  0  0  0
 20 51  1  0  0  0
 21 52  1  0  0  0
 22 53  1  0  0  0
M  END
$$$$
