4kmd_ligand
  -I-interpret- 

136137  0  0  0  0  0  0  0  0999 V2000
   -9.2940   10.8320   11.2550 N   0  3  0  0  0
   -9.9860   12.1400   11.0500 C   0  0  0  0  0
  -11.2580   12.3160   11.8590 C   0  0  0  0  0
  -11.9290   11.3390   12.2110 O   0  0  0  0  0
  -11.5920   13.5740   12.1420 N   0  0  0  0  0
  -12.8110   13.9150   12.8660 C   0  0  0  0  0
  -14.0330   13.8160   11.9770 C   0  0  0  0  0
  -13.9260   13.7350   10.7540 O   0  0  0  0  0
  -12.7150   15.3180   13.4610 C   0  0  0  0  0
  -11.7050   15.3570   14.4380 O   0  0  0  0  0
  -15.1970   13.8410   12.6130 N   0  0  0  0  0
  -16.4440   13.6000   11.9310 C   0  0  0  0  0
  -17.4820   14.6060   12.3770 C   0  0  0  0  0
  -17.5320   14.9770   13.5570 O   0  0  0  0  0
  -16.9160   12.2000   12.2770 C   0  0  0  0  0
  -17.8420   11.6040   11.2700 C   0  0  0  0  0
  -17.3490   10.9760   10.1370 C   0  0  0  0  0
  -19.2230   11.6500   11.4590 C   0  0  0  0  0
  -18.2120   10.4120    9.1980 C   0  0  0  0  0
  -20.0920   11.0910   10.5320 C   0  0  0  0  0
  -19.5810   10.4800    9.4030 C   0  0  0  0  0
  -20.4370    9.9240    8.4820 O   0  0  0  0  0
  -18.3030   15.0550   11.4310 N   0  0  0  0  0
  -19.4210   15.9310   11.7470 C   0  0  0  0  0
  -20.7360   15.1880   11.7060 C   0  0  0  0  0
  -20.9910   14.4200   10.7820 O   0  0  0  0  0
  -21.5630   15.4090   12.7210 N   0  0  0  0  0
  -22.8750   14.7800   12.8030 C   0  0  0  0  0
  -23.8770   15.9180   12.6650 C   0  0  0  0  0
  -24.0980   16.6810   13.6100 O   0  0  0  0  0
  -23.0010   14.0430   14.1400 C   0  0  0  0  0
  -21.8590   13.1050   14.4150 C   0  0  0  0  0
  -21.8700   11.7830   14.0250 N   0  0  0  0  0
  -20.6650   13.3060   15.0230 C   0  0  0  0  0
  -20.7390   11.2070   14.3920 C   0  0  0  0  0
  -19.9840   12.1120   14.9920 N   0  0  0  0  0
  -24.4530   16.0480   11.4720 N   0  0  0  0  0
  -25.1320   17.2950   11.1040 C   0  0  0  0  0
  -26.6340   17.2860   11.3330 C   0  0  0  0  0
  -27.3350   16.3920   10.8670 O   0  0  0  0  0
  -24.8100   17.6960    9.6630 C   0  0  0  0  0
  -23.3200   17.7620    9.3120 C   0  0  0  0  0
  -23.1780   18.2080    7.8740 C   0  0  0  0  0
  -22.5610   18.6710   10.2740 C   0  0  0  0  0
  -27.1000   18.2990   12.0680 N   0  0  0  0  0
  -28.5290   18.5370   12.3230 C   0  0  0  0  0
  -29.2830   17.2820   12.7510 C   0  0  0  0  0
  -30.3140   16.9160   12.1730 O   0  0  0  0  0
  -29.1840   19.1890   11.1060 C   0  0  0  0  0
  -28.6540   20.4900   10.9020 O   0  0  0  0  0
  -28.7670   16.6460   13.7980 N   0  0  0  0  0
  -29.2270   15.3220   14.1940 C   0  0  0  0  0
  -30.4740   15.3740   15.0780 C   0  0  0  0  0
  -31.0040   14.3330   15.4800 O   0  0  0  0  0
  -28.1010   14.5270   14.8870 C   0  0  0  0  0
  -27.7100   15.2000   16.2050 C   0  0  0  0  0
  -26.8840   14.4180   13.9660 C   0  0  0  0  0
  -26.8740   14.3180   17.1260 C   0  0  0  0  0
  -30.9250   16.5900   15.3790 N   0  0  0  0  0
  -32.1790   16.8120   16.0910 C   0  0  0  0  0
  -33.3750   16.7180   15.1580 C   0  0  0  0  0
  -34.5030   16.5160   15.6100 O   0  0  0  0  0
  -33.1300   16.8800   13.8550 N   0  0  0  0  0
  -34.1670   16.6890   12.8320 C   0  0  0  0  0
  -33.8530   15.4820   11.9410 C   0  0  0  0  0
  -32.6667   15.0872   11.7849 O   0  0  0  0  0
  -34.3980   17.9640   11.9670 C   0  0  0  0  0
  -35.6770   17.8830   11.3200 O   0  0  0  0  0
  -33.2980   18.1480   10.9130 C   0  0  0  0  0
  -34.7922   14.8775   11.3578 O   0  0  0  0  0
   -8.4543   10.7987   10.6769 H   0  0  0  0  0
   -9.0361   10.7354   12.2371 H   0  0  0  0  0
   -9.9208   10.0720   10.9905 H   0  0  0  0  0
  -10.2687   12.1888    9.9984 H   0  0  0  0  0
   -9.2947   12.9192   11.3710 H   0  0  0  0  0
  -10.9724   14.3264   11.8413 H   0  0  0  0  0
  -12.9182   13.1925   13.6751 H   0  0  0  0  0
  -13.6685   15.5792   13.9199 H   0  0  0  0  0
  -12.4761   16.0280   12.6693 H   0  0  0  0  0
  -11.6517   16.2419   14.8064 H   0  0  0  0  0
  -15.2100   14.0365   13.6140 H   0  0  0  0  0
  -16.3011   13.6977   10.8548 H   0  0  0  0  0
  -17.4620   12.2668   13.2180 H   0  0  0  0  0
  -16.0326   11.5629   12.3201 H   0  0  0  0  0
  -16.2720   10.9223    9.9778 H   0  0  0  0  0
  -19.6265   12.1327   12.3491 H   0  0  0  0  0
  -17.8131    9.9216    8.3100 H   0  0  0  0  0
  -21.1691   11.1337   10.6935 H   0  0  0  0  0
  -21.3435   10.0554    8.7692 H   0  0  0  0  0
  -18.1450   14.7787   10.4619 H   0  0  0  0  0
  -19.4530   16.7304   11.0067 H   0  0  0  0  0
  -19.2778   16.3238   12.7536 H   0  0  0  0  0
  -21.2705   16.0395   13.4676 H   0  0  0  0  0
  -23.0460   14.0339   12.0270 H   0  0  0  0  0
  -23.9132   13.4476   14.1021 H   0  0  0  0  0
  -23.0065   14.7942   14.9298 H   0  0  0  0  0
  -20.3101   14.2410   15.4564 H   0  0  0  0  0
  -20.4732   10.1627   14.2280 H   0  0  0  0  0
  -24.4219   15.2741   10.8083 H   0  0  0  0  0
  -24.7337   18.0456   11.7867 H   0  0  0  0  0
  -25.2054   18.7025    9.5259 H   0  0  0  0  0
  -25.2452   16.9283    9.0232 H   0  0  0  0  0
  -22.8752   16.7726    9.4186 H   0  0  0  0  0
  -23.6806   17.4936    7.2220 H   0  0  0  0  0
  -23.6306   19.1923    7.7538 H   0  0  0  0  0
  -22.1208   18.2585    7.6133 H   0  0  0  0  0
  -22.9741   19.6784   10.2222 H   0  0  0  0  0
  -22.6611   18.2876   11.2894 H   0  0  0  0  0
  -21.5075   18.6941    9.9952 H   0  0  0  0  0
  -26.4253   18.9457   12.4766 H   0  0  0  0  0
  -28.5886   19.2218   13.1689 H   0  0  0  0  0
  -30.2580   19.2640   11.2763 H   0  0  0  0  0
  -28.9842   18.5801   10.2243 H   0  0  0  0  0
  -29.0730   20.8884   10.1356 H   0  0  0  0  0
  -28.0291   17.0973   14.3386 H   0  0  0  0  0
  -29.5066   14.8029   13.2773 H   0  0  0  0  0
  -28.4657   13.5228   15.1030 H   0  0  0  0  0
  -28.6331   15.4371   16.7339 H   0  0  0  0  0
  -27.1060   16.0726   15.9563 H   0  0  0  0  0
  -27.1697   13.9049   13.0477 H   0  0  0  0  0
  -26.5200   15.4173   13.7272 H   0  0  0  0  0
  -26.0984   13.8544   14.4693 H   0  0  0  0  0
  -27.4380   13.4197   17.3770 H   0  0  0  0  0
  -25.9501   14.0388   16.6195 H   0  0  0  0  0
  -26.6384   14.8672   18.0376 H   0  0  0  0  0
  -30.3710   17.3998   15.1003 H   0  0  0  0  0
  -32.1573   17.8121   16.5240 H   0  0  0  0  0
  -32.2798   16.0452   16.8591 H   0  0  0  0  0
  -32.1904   17.1455   13.5600 H   0  0  0  0  0
  -35.0956   16.4930   13.3681 H   0  0  0  0  0
  -34.3685   18.8267   12.6325 H   0  0  0  0  0
  -35.8157   18.6701   10.7881 H   0  0  0  0  0
  -32.3325   18.2425   11.4100 H   0  0  0  0  0
  -33.2837   17.2831   10.2499 H   0  0  0  0  0
  -33.4992   19.0487   10.3331 H   0  0  0  0  0
  -35.6269   15.2978   11.5775 H   0  0  0  0  0
  1  2  1  0  0  0
  2  3  1  0  0  0
  3  4  2  0  0  0
  3  5  1  0  0  0
  5  6  1  0  0  0
  6  7  1  0  0  0
  6  9  1  0  0  0
  7  8  2  0  0  0
  7 11  1  0  0  0
  9 10  1  0  0  0
 11 12  1  0  0  0
 12 13  1  0  0  0
 12 15  1  0  0  0
 13 14  2  0  0  0
 13 23  1  0  0  0
 15 16  1  0  0  0
 16 17  4  0  0  0
 16 18  4  0  0  0
 17 19  4  0  0  0
 18 20  4  0  0  0
 19 21  4  0  0  0
 20 21  4  0  0  0
 21 22  1  0  0  0
 23 24  1  0  0  0
 24 25  1  0  0  0
 25 26  2  0  0  0
 25 27  1  0  0  0
 27 28  1  0  0  0
 28 29  1  0  0  0
 28 31  1  0  0  0
 29 30  2  0  0  0
 29 37  1  0  0  0
 31 32  1  0  0  0
 32 33  4  0  0  0
 32 34  4  0  0  0
 33 35  4  0  0  0
 34 36  4  0  0  0
 35 36  4  0  0  0
 37 38  1  0  0  0
 38 39  1  0  0  0
 38 41  1  0  0  0
 39 40  2  0  0  0
 39 45  1  0  0  0
 41 42  1  0  0  0
 42 43  1  0  0  0
 42 44  1  0  0  0
 45 46  1  0  0  0
 46 47  1  0  0  0
 46 49  1  0  0  0
 47 48  2  0  0  0
 47 51  1  0  0  0
 49 50  1  0  0  0
 51 52  1  0  0  0
 52 53  1  0  0  0
 52 55  1  0  0  0
 53 54  2  0  0  0
 53 59  1  0  0  0
 55 56  1  0  0  0
 55 57  1  0  0  0
 56 58  1  0  0  0
 59 60  1  0  0  0
 60 61  1  0  0  0
 61 62  2  0  0  0
 61 63  1  0  0  0
 63 64  1  0  0  0
 64 65  1  0  0  0
 64 67  1  0  0  0
 65 66  2  0  0  0
 67 68  1  0  0  0
 67 69  1  0  0  0
 65 70  1  0  0  0
  1 71  1  0  0  0
  1 72  1  0  0  0
  1 73  1  0  0  0
  2 74  1  0  0  0
  2 75  1  0  0  0
  5 76  1  0  0  0
  6 77  1  0  0  0
  9 78  1  0  0  0
  9 79  1  0  0  0
 10 80  1  0  0  0
 11 81  1  0  0  0
 12 82  1  0  0  0
 15 83  1  0  0  0
 15 84  1  0  0  0
 17 85  1  0  0  0
 18 86  1  0  0  0
 19 87  1  0  0  0
 20 88  1  0  0  0
 22 89  1  0  0  0
 23 90  1  0  0  0
 24 91  1  0  0  0
 24 92  1  0  0  0
 27 93  1  0  0  0
 28 94  1  0  0  0
 31 95  1  0  0  0
 31 96  1  0  0  0
 34 97  1  0  0  0
 35 98  1  0  0  0
 37 99  1  0  0  0
 38100  1  0  0  0
 41101  1  0  0  0
 41102  1  0  0  0
 42103  1  0  0  0
 43104  1  0  0  0
 43105  1  0  0  0
 43106  1  0  0  0
 44107  1  0  0  0
 44108  1  0  0  0
 44109  1  0  0  0
 45110  1  0  0  0
 46111  1  0  0  0
 49112  1  0  0  0
 49113  1  0  0  0
 50114  1  0  0  0
 51115  1  0  0  0
 52116  1  0  0  0
 55117  1  0  0  0
 56118  1  0  0  0
 56119  1  0  0  0
 57120  1  0  0  0
 57121  1  0  0  0
 57122  1  0  0  0
 58123  1  0  0  0
 58124  1  0  0  0
 58125  1  0  0  0
 59126  1  0  0  0
 60127  1  0  0  0
 60128  1  0  0  0
 63129  1  0  0  0
 64130  1  0  0  0
 67131  1  0  0  0
 68132  1  0  0  0
 69133  1  0  0  0
 69134  1  0  0  0
 69135  1  0  0  0
 70136  1  0  0  0
M  END
$$$$
