### 
### Created by X-TOOL on Mon Sep 10 21:13:14 2018
### 

@<TRIPOS>MOLECULE
4kmd_ligand
  136   137     1     0     0
SMALL
GAST_HUCK


@<TRIPOS>ATOM
      1 N          -9.2940   10.8320   11.2550 N.4       1 GLY         0.2357
      2 CA         -9.9860   12.1400   11.0500 C.3       1 GLY         0.0545
      3 C         -11.2580   12.3160   11.8590 C.2       1 GLY         0.2237
      4 O         -11.9290   11.3390   12.2110 O.2       1 GLY        -0.3910
      5 N         -11.5920   13.5740   12.1420 N.am      1 SER        -0.2591
      6 CA        -12.8110   13.9150   12.8660 C.3       1 SER         0.1540
      7 C         -14.0330   13.8160   11.9770 C.2       1 SER         0.2063
      8 O         -13.9260   13.7350   10.7540 O.2       1 SER        -0.3943
      9 CB        -12.7150   15.3180   13.4610 C.3       1 SER         0.0843
     10 OG        -11.7050   15.3570   14.4380 O.3       1 SER        -0.3903
     11 N         -15.1970   13.8410   12.6130 N.am      1 TYR        -0.2621
     12 CA        -16.4440   13.6000   11.9310 C.3       1 TYR         0.1390
     13 C         -17.4820   14.6060   12.3770 C.2       1 TYR         0.2055
     14 O         -17.5320   14.9770   13.5570 O.2       1 TYR        -0.3942
     15 CB        -16.9160   12.2000   12.2770 C.3       1 TYR         0.0163
     16 CG        -17.8420   11.6040   11.2700 C.ar      1 TYR        -0.0493
     17 CD1       -17.3490   10.9760   10.1370 C.ar      1 TYR        -0.0685
     18 CD2       -19.2230   11.6500   11.4590 C.ar      1 TYR        -0.0685
     19 CE1       -18.2120   10.4120    9.1980 C.ar      1 TYR        -0.0398
     20 CE2       -20.0920   11.0910   10.5320 C.ar      1 TYR        -0.0398
     21 CZ        -19.5810   10.4800    9.4030 C.ar      1 TYR         0.0805
     22 OH        -20.4370    9.9240    8.4820 O.3       1 TYR        -0.3376
     23 N         -18.3030   15.0550   11.4310 N.am      1 GLY        -0.2663
     24 CA        -19.4210   15.9310   11.7470 C.3       1 GLY         0.1201
     25 C         -20.7360   15.1880   11.7060 C.2       1 GLY         0.2008
     26 O         -20.9910   14.4200   10.7820 O.2       1 GLY        -0.3947
     27 N         -21.5630   15.4090   12.7210 N.am      1 HIS        -0.2627
     28 CA        -22.8750   14.7800   12.8030 C.3       1 HIS         0.1369
     29 C         -23.8770   15.9180   12.6650 C.2       1 HIS         0.2054
     30 O         -24.0980   16.6810   13.6100 O.2       1 HIS        -0.3942
     31 CB        -23.0010   14.0430   14.1400 C.3       1 HIS         0.0145
     32 CG        -21.8590   13.1050   14.4150 C.2       1 HIS        -0.0027
     33 ND1       -21.8700   11.7830   14.0250 N.2       1 HIS        -0.3252
     34 CD2       -20.6650   13.3060   15.0230 C.2       1 HIS         0.0291
     35 CE1       -20.7390   11.2070   14.3920 C.2       1 HIS         0.0907
     36 NE2       -19.9840   12.1120   14.9920 N.pl3     1 HIS        -0.2752
     37 N         -24.4530   16.0480   11.4720 N.am      1 LEU        -0.2636
     38 CA        -25.1320   17.2950   11.1040 C.3       1 LEU         0.1312
     39 C         -26.6340   17.2860   11.3330 C.2       1 LEU         0.2040
     40 O         -27.3350   16.3920   10.8670 O.2       1 LEU        -0.3944
     41 CB        -24.8100   17.6960    9.6630 C.3       1 LEU        -0.0101
     42 CG        -23.3200   17.7620    9.3120 C.3       1 LEU        -0.0425
     43 CD1       -23.1780   18.2080    7.8740 C.3       1 LEU        -0.0625
     44 CD2       -22.5610   18.6710   10.2740 C.3       1 LEU        -0.0625
     45 N         -27.1000   18.2990   12.0680 N.am      1 SER        -0.2616
     46 CA        -28.5290   18.5370   12.3230 C.3       1 SER         0.1539
     47 C         -29.2830   17.2820   12.7510 C.2       1 SER         0.2062
     48 O         -30.3140   16.9160   12.1730 O.2       1 SER        -0.3943
     49 CB        -29.1840   19.1890   11.1060 C.3       1 SER         0.0843
     50 OG        -28.6540   20.4900   10.9020 O.3       1 SER        -0.3903
     51 N         -28.7670   16.6460   13.7980 N.am      1 ILE        -0.2634
     52 CA        -29.2270   15.3220   14.1940 C.3       1 ILE         0.1335
     53 C         -30.4740   15.3740   15.0780 C.2       1 ILE         0.2040
     54 O         -31.0040   14.3330   15.4800 O.2       1 ILE        -0.3944
     55 CB        -28.1010   14.5270   14.8870 C.3       1 ILE        -0.0037
     56 CG1       -27.7100   15.2000   16.2050 C.3       1 ILE        -0.0491
     57 CG2       -26.8840   14.4180   13.9660 C.3       1 ILE        -0.0582
     58 CD1       -26.8740   14.3180   17.1260 C.3       1 ILE        -0.0648
     59 N         -30.9250   16.5900   15.3790 N.am      1 GLY        -0.2664
     60 CA        -32.1790   16.8120   16.0910 C.3       1 GLY         0.1201
     61 C         -33.3750   16.7180   15.1580 C.2       1 GLY         0.2003
     62 O         -34.5030   16.5160   15.6100 O.2       1 GLY        -0.3947
     63 N         -33.1300   16.8800   13.8550 N.am      1 THR        -0.2672
     64 CA        -34.1670   16.6890   12.8320 C.3       1 THR         0.1198
     65 C         -33.8530   15.4820   11.9410 C.2       1 THR         0.0626
     66 O         -32.6667   15.0872   11.7849 O.co2     1 THR        -0.5665
     67 CB        -34.3980   17.9640   11.9670 C.3       1 THR         0.0869
     68 OG1       -35.6770   17.8830   11.3200 O.3       1 THR        -0.3880
     69 CG2       -33.2980   18.1480   10.9130 C.3       1 THR        -0.0352
     70 O         -34.7922   14.8775   11.3578 O.co2     1 THR        -0.5665
     71 H1         -8.4640   10.7979   10.6841 H         1 GLY         0.2012
     72 H2         -9.9125   10.0801   10.9939 H         1 GLY         0.2012
     73 H3         -9.0386   10.7354   12.2253 H         1 GLY         0.2012
     74 H4        -10.2424   12.2290    9.9840 H         1 GLY         0.1061
     75 H5         -9.2888   12.9442   11.3279 H         1 GLY         0.1061
     76 H6        -10.9846   14.3116   11.8472 H         1 SER         0.1885
     77 H7        -12.9279   13.1969   13.6910 H         1 SER         0.0823
     78 H8        -13.6777   15.5853   13.9212 H         1 SER         0.0606
     79 H9        -12.4779   16.0369   12.6629 H         1 SER         0.0606
     80 H10       -11.9096   14.7373   15.1282 H         1 SER         0.2097
     81 H11       -15.2098   14.0327   13.5944 H         1 TYR         0.1885
     82 H12       -16.2944   13.6848   10.8445 H         1 TYR         0.0821
     83 H13       -17.4374   12.2403   13.2447 H         1 TYR         0.0453
     84 H14       -16.0335   11.5490   12.3628 H         1 TYR         0.0453
     85 H15       -16.2780   10.9225    9.9787 H         1 TYR         0.0530
     86 H16       -19.6243   12.1301   12.3442 H         1 TYR         0.0530
     87 H17       -17.8153    9.9243    8.3149 H         1 TYR         0.0525
     88 H18       -21.1632   11.1335   10.6926 H         1 TYR         0.0525
     89 H19       -21.0142   10.5971    8.1411 H         1 TYR         0.2458
     90 H20       -18.1481   14.7841   10.4809 H         1 GLY         0.1881
     91 H21       -19.4508   16.7508   11.0142 H         1 GLY         0.0763
     92 H22       -19.2762   16.3456   12.7555 H         1 GLY         0.0763
     93 H23       -21.2762   16.0271   13.4529 H         1 HIS         0.1884
     94 H24       -23.0105   14.0609   11.9817 H         1 HIS         0.0817
     95 H25       -23.9349   13.4619   14.1311 H         1 HIS         0.0420
     96 H26       -23.0411   14.7893   14.9471 H         1 HIS         0.0420
     97 H27       -20.3104   14.2402   15.4560 H         1 HIS         0.0729
     98 H28       -20.4734   10.1637   14.2282 H         1 HIS         0.1199
     99 H29       -19.0411   11.9492   15.3733 H         1 HIS         0.2361
    100 H30       -24.4225   15.2893   10.8213 H         1 LEU         0.1883
    101 H31       -24.7205   18.0775   11.7585 H         1 LEU         0.0800
    102 H32       -25.2445   18.6904    9.4832 H         1 LEU         0.0315
    103 H33       -25.2833   16.9625    8.9937 H         1 LEU         0.0315
    104 H34       -22.8968   16.7507    9.4024 H         1 LEU         0.0298
    105 H35       -22.1115   18.2593    7.6097 H         1 LEU         0.0232
    106 H36       -23.6343   19.2013    7.7514 H         1 LEU         0.0232
    107 H37       -23.6848   17.4877    7.2149 H         1 LEU         0.0232
    108 H38       -22.6938   18.3076   11.3037 H         1 LEU         0.0232
    109 H39       -22.9507   19.6965   10.1940 H         1 LEU         0.0232
    110 H40       -21.4912   18.6642   10.0180 H         1 LEU         0.0232
    111 H41       -26.4385   18.9330   12.4686 H         1 SER         0.1884
    112 H42       -28.5949   19.2509   13.1572 H         1 SER         0.0823
    113 H43       -30.2690   19.2607   11.2721 H         1 SER         0.0606
    114 H44       -28.9893   18.5736   10.2153 H         1 SER         0.0606
    115 H45       -27.7171   20.4298   10.7566 H         1 SER         0.2097
    116 H46       -28.0436   17.0884   14.3280 H         1 ILE         0.1883
    117 H47       -29.4988   14.7824   13.2748 H         1 ILE         0.0803
    118 H48       -28.4689   13.5135   15.1051 H         1 ILE         0.0345
    119 H49       -28.6310   15.4808   16.7369 H         1 ILE         0.0267
    120 H50       -27.1301   16.1054   15.9727 H         1 ILE         0.0267
    121 H51       -27.1794   13.9331   13.0239 H         1 ILE         0.0235
    122 H52       -26.1042   13.8183   14.4582 H         1 ILE         0.0235
    123 H53       -26.4935   15.4242   13.7537 H         1 ILE         0.0235
    124 H54       -26.6356   14.8712   18.0464 H         1 ILE         0.0230
    125 H55       -25.9412   14.0356   16.6160 H         1 ILE         0.0230
    126 H56       -27.4421   13.4110   17.3801 H         1 ILE         0.0230
    127 H57       -30.3818   17.3839   15.1058 H         1 GLY         0.1881
    128 H58       -32.1589   17.8132   16.5461 H         1 GLY         0.0763
    129 H59       -32.2810   16.0524   16.8801 H         1 GLY         0.0763
    130 H60       -32.2088   17.1403   13.5658 H         1 THR         0.1876
    131 H61       -35.1086   16.4765   13.3595 H         1 THR         0.0752
    132 H62       -34.3912   18.8402   12.6320 H         1 THR         0.0632
    133 H63       -35.7004   17.1143   10.7622 H         1 THR         0.2100
    134 H64       -33.5000   19.0568   10.3271 H         1 THR         0.0256
    135 H65       -33.2825   17.2757   10.2430 H         1 THR         0.0256
    136 H66       -32.3230   18.2435   11.4133 H         1 THR         0.0256
@<TRIPOS>BOND
     1    1    2 1  
     2    2    3 1  
     3    3    4 2  
     4    3    5 am 
     5    5    6 1  
     6    6    7 1  
     7    6    9 1  
     8    7    8 2  
     9    7   11 am 
    10    9   10 1  
    11   11   12 1  
    12   12   13 1  
    13   12   15 1  
    14   13   14 2  
    15   13   23 am 
    16   15   16 1  
    17   16   17 ar 
    18   16   18 ar 
    19   17   19 ar 
    20   18   20 ar 
    21   19   21 ar 
    22   20   21 ar 
    23   21   22 1  
    24   23   24 1  
    25   24   25 1  
    26   25   26 2  
    27   25   27 am 
    28   27   28 1  
    29   28   29 1  
    30   28   31 1  
    31   29   30 2  
    32   29   37 am 
    33   31   32 1  
    34   32   33 1  
    35   32   34 2  
    36   33   35 2  
    37   34   36 1  
    38   35   36 1  
    39   37   38 1  
    40   38   39 1  
    41   38   41 1  
    42   39   40 2  
    43   39   45 am 
    44   41   42 1  
    45   42   43 1  
    46   42   44 1  
    47   45   46 1  
    48   46   47 1  
    49   46   49 1  
    50   47   48 2  
    51   47   51 am 
    52   49   50 1  
    53   51   52 1  
    54   52   53 1  
    55   52   55 1  
    56   53   54 2  
    57   53   59 am 
    58   55   56 1  
    59   55   57 1  
    60   56   58 1  
    61   59   60 1  
    62   60   61 1  
    63   61   62 2  
    64   61   63 am 
    65   63   64 1  
    66   64   65 1  
    67   64   67 1  
    68   65   66 ar 
    69   67   68 1  
    70   67   69 1  
    71   65   70 ar 
    72    1   71 1  
    73    1   72 1  
    74    1   73 1  
    75    2   74 1  
    76    2   75 1  
    77    5   76 1  
    78    6   77 1  
    79    9   78 1  
    80    9   79 1  
    81   10   80 1  
    82   11   81 1  
    83   12   82 1  
    84   15   83 1  
    85   15   84 1  
    86   17   85 1  
    87   18   86 1  
    88   19   87 1  
    89   20   88 1  
    90   22   89 1  
    91   23   90 1  
    92   24   91 1  
    93   24   92 1  
    94   27   93 1  
    95   28   94 1  
    96   31   95 1  
    97   31   96 1  
    98   34   97 1  
    99   35   98 1  
   100   36   99 1  
   101   37  100 1  
   102   38  101 1  
   103   41  102 1  
   104   41  103 1  
   105   42  104 1  
   106   43  105 1  
   107   43  106 1  
   108   43  107 1  
   109   44  108 1  
   110   44  109 1  
   111   44  110 1  
   112   45  111 1  
   113   46  112 1  
   114   49  113 1  
   115   49  114 1  
   116   50  115 1  
   117   51  116 1  
   118   52  117 1  
   119   55  118 1  
   120   56  119 1  
   121   56  120 1  
   122   57  121 1  
   123   57  122 1  
   124   57  123 1  
   125   58  124 1  
   126   58  125 1  
   127   58  126 1  
   128   59  127 1  
   129   60  128 1  
   130   60  129 1  
   131   63  130 1  
   132   64  131 1  
   133   67  132 1  
   134   68  133 1  
   135   69  134 1  
   136   69  135 1  
   137   69  136 1  
@<TRIPOS>SUBSTRUCTURE
     1 GLY         1

