2a3w_ligand
  -I-interpret- 

 54 55  0  0  0  0  0  0  0  0999 V2000
   11.2230   17.2110  -36.7420 O   0  0  0  0  0
   11.2800   16.2740  -35.9100 C   0  0  0  0  0
   12.2260   16.1510  -35.1000 O   0  0  0  0  0
   10.1750   15.2410  -35.8940 C   0  0  0  0  0
    8.9080   15.9210  -36.0060 O   0  0  0  0  0
    7.7520   15.1250  -35.7240 C   0  0  0  0  0
   10.3870   14.3130  -37.0940 C   0  0  0  0  0
   10.2770   14.4960  -34.6650 O   0  0  0  0  0
    9.1610   13.6570  -34.3430 C   0  0  0  0  0
    7.8930   14.4960  -34.3420 C   0  0  0  0  0
    8.0570   15.5620  -33.4130 O   0  0  0  0  0
    6.8080   16.1750  -32.9800 C   0  0  0  0  0
    5.7370   15.7490  -33.4000 O   0  0  0  0  0
    6.9240   17.1900  -32.1200 N   0  0  0  0  0
    5.7920   17.9150  -31.5780 C   0  0  0  0  0
    5.0400   17.0550  -30.5820 C   0  0  0  0  0
    3.8620   17.7090  -30.0550 N   0  0  0  0  0
    3.7540   17.9330  -28.7510 C   0  0  0  0  0
    4.6230   17.6180  -27.9450 O   0  0  0  0  0
    2.5400   18.5800  -28.2870 O   0  0  0  0  0
    2.5480   18.7540  -26.8720 C   0  0  0  0  0
    2.7800   20.2230  -26.5370 C   0  0  0  0  0
    1.6850   20.9980  -27.0270 O   0  0  0  0  0
    1.1950   18.3090  -26.3260 C   0  0  0  0  0
    0.1710   19.1720  -26.8310 O   0  0  0  0  0
    0.3850   20.5740  -26.5810 C   0  0  0  0  0
    0.1740   20.8940  -25.1000 C   0  0  0  0  0
   -0.6130   21.3760  -27.3690 C   0  0  0  0  0
   -1.6340   20.8150  -27.8300 O   0  0  0  0  0
   -0.3770   22.5900  -27.5270 O   0  0  0  0  0
   10.4233   17.1240  -37.2659 H   0  0  0  0  0
    7.6605   14.3389  -36.4735 H   0  0  0  0  0
    6.8626   15.7547  -35.7477 H   0  0  0  0  0
   11.3767   13.8605  -37.0314 H   0  0  0  0  0
    9.6275   13.5313  -37.0858 H   0  0  0  0  0
   10.3072   14.8892  -38.0158 H   0  0  0  0  0
    9.3079   13.2127  -33.3586 H   0  0  0  0  0
    9.0742   12.8616  -35.0832 H   0  0  0  0  0
    7.0297   13.8818  -34.0858 H   0  0  0  0  0
    7.8604   17.4704  -31.8286 H   0  0  0  0  0
    5.1199   18.1837  -32.3930 H   0  0  0  0  0
    6.1536   18.8100  -31.0717 H   0  0  0  0  0
    5.7092   16.8482  -29.7468 H   0  0  0  0  0
    4.7175   16.1506  -31.0979 H   0  0  0  0  0
    3.1142   17.9981  -30.6856 H   0  0  0  0  0
    3.3461   18.1613  -26.4249 H   0  0  0  0  0
    3.7046   20.5620  -27.0042 H   0  0  0  0  0
    2.8569   20.3429  -25.4563 H   0  0  0  0  0
    1.2080   18.3582  -25.2372 H   0  0  0  0  0
    0.9950   17.2846  -26.6400 H   0  0  0  0  0
    0.9298   20.3790  -24.5071 H   0  0  0  0  0
    0.2604   21.9696  -24.9461 H   0  0  0  0  0
   -0.8180   20.5606  -24.7953 H   0  0  0  0  0
   -1.6201   19.8844  -27.5948 H   0  0  0  0  0
  1  2  1  0  0  0
  2  3  2  0  0  0
  2  4  1  0  0  0
  4  5  1  0  0  0
  4  7  1  0  0  0
  4  8  1  0  0  0
  5  6  1  0  0  0
  6 10  1  0  0  0
  8  9  1  0  0  0
  9 10  1  0  0  0
 10 11  1  0  0  0
 11 12  1  0  0  0
 12 13  2  0  0  0
 12 14  1  0  0  0
 14 15  1  0  0  0
 15 16  1  0  0  0
 16 17  1  0  0  0
 17 18  1  0  0  0
 18 19  2  0  0  0
 18 20  1  0  0  0
 20 21  1  0  0  0
 21 22  1  0  0  0
 21 24  1  0  0  0
 22 23  1  0  0  0
 23 26  1  0  0  0
 24 25  1  0  0  0
 25 26  1  0  0  0
 26 27  1  0  0  0
 26 28  1  0  0  0
 28 29  1  0  0  0
 28 30  2  0  0  0
  1 31  1  0  0  0
  6 32  1  0  0  0
  6 33  1  0  0  0
  7 34  1  0  0  0
  7 35  1  0  0  0
  7 36  1  0  0  0
  9 37  1  0  0  0
  9 38  1  0  0  0
 10 39  1  0  0  0
 14 40  1  0  0  0
 15 41  1  0  0  0
 15 42  1  0  0  0
 16 43  1  0  0  0
 16 44  1  0  0  0
 17 45  1  0  0  0
 21 46  1  0  0  0
 22 47  1  0  0  0
 22 48  1  0  0  0
 24 49  1  0  0  0
 24 50  1  0  0  0
 27 51  1  0  0  0
 27 52  1  0  0  0
 27 53  1  0  0  0
 29 54  1  0  0  0
M  END
$$$$
