1zxv_ligand
  -I-interpret- 

 37 39  0  0  0  0  0  0  0  0999 V2000
   85.8650   45.0470  139.7420 C   0  0  0  0  0
   86.5260   46.2750  139.8230 C   0  0  0  0  0
   87.9080   46.3310  139.7490 C   0  0  0  0  0
   88.7230   47.8370  139.9730 Cl  0  0  0  0  0
   88.6500   45.1510  139.5880 C   0  0  0  0  0
   87.9970   43.9330  139.5030 C   0  0  0  0  0
   86.6000   43.8810  139.5790 C   0  0  0  0  0
   85.9090   42.6860  139.4550 C   0  0  0  0  0
   84.5410   42.6420  139.5150 O   0  0  0  0  0
   86.3850   41.5030  139.0680 C   0  0  0  0  0
   85.3510   40.7020  138.8340 C   0  0  0  0  0
   84.2370   41.3720  139.1130 C   0  0  0  0  0
   82.9780   40.7740  139.1460 C   0  0  0  0  0
   82.6740   39.5030  138.6730 C   0  0  0  0  0
   83.3610   38.8040  137.6810 C   0  0  0  0  0
   84.4500   39.1670  137.2260 O   0  0  0  0  0
   81.0960   38.8280  138.7100 S   0  0  0  0  0
   81.4140   37.6760  137.4760 C   0  0  0  0  0
   80.3560   36.4060  136.8960 S   0  0  0  0  0
   82.6760   37.8540  137.0570 N   0  0  0  0  0
   83.2360   37.1700  135.8890 C   0  0  0  0  0
   83.7960   35.8170  136.3300 C   0  0  0  0  0
   84.2350   34.9540  135.1390 C   0  0  0  0  0
   83.5490   33.9830  134.8080 O   0  0  0  0  0
   85.2680   35.2040  134.5400 O   0  0  0  0  0
   84.7777   45.0048  139.8065 H   0  0  0  0  0
   85.9516   47.1933  139.9450 H   0  0  0  0  0
   89.7376   45.1931  139.5300 H   0  0  0  0  0
   88.5705   43.0147  139.3769 H   0  0  0  0  0
   87.4372   41.2390  138.9621 H   0  0  0  0  0
   85.4064   39.6741  138.4756 H   0  0  0  0  0
   82.1625   41.3527  139.5798 H   0  0  0  0  0
   84.0319   37.7745  135.4540 H   0  0  0  0  0
   82.4577   37.0209  135.1406 H   0  0  0  0  0
   83.0101   35.2828  136.8640 H   0  0  0  0  0
   84.6693   35.9996  136.9561 H   0  0  0  0  0
   82.7771   33.9294  135.3762 H   0  0  0  0  0
  1  2  4  0  0  0
  1  7  4  0  0  0
  2  3  4  0  0  0
  3  4  1  0  0  0
  3  5  4  0  0  0
  5  6  4  0  0  0
  6  7  4  0  0  0
  7  8  1  0  0  0
  8  9  4  0  0  0
  8 10  4  0  0  0
  9 12  4  0  0  0
 10 11  4  0  0  0
 11 12  4  0  0  0
 12 13  1  0  0  0
 13 14  2  0  0  0
 14 15  1  0  0  0
 14 17  1  0  0  0
 15 16  2  0  0  0
 15 20  1  0  0  0
 17 18  1  0  0  0
 18 19  2  0  0  0
 18 20  1  0  0  0
 20 21  1  0  0  0
 21 22  1  0  0  0
 22 23  1  0  0  0
 23 24  1  0  0  0
 23 25  2  0  0  0
  1 26  1  0  0  0
  2 27  1  0  0  0
  5 28  1  0  0  0
  6 29  1  0  0  0
 10 30  1  0  0  0
 11 31  1  0  0  0
 13 32  1  0  0  0
 21 33  1  0  0  0
 21 34  1  0  0  0
 22 35  1  0  0  0
 22 36  1  0  0  0
 24 37  1  0  0  0
M  END
$$$$
