6htr_ligand
  -I-interpret- 

 85 86  0  0  0  0  0  0  0  0999 V2000
   58.9580 -134.6040   33.8460 C   0  0  0  0  0
   60.2390 -134.9810   34.5610 C   0  0  0  0  0
   61.7430 -134.5190   37.1750 C   0  0  0  0  0
   63.3770 -135.9080   40.0150 C   0  0  0  0  0
   64.2110 -135.4730   42.2980 C   0  0  0  0  0
   64.6800 -133.0860   42.5460 C   0  0  0  0  0
   65.6920 -130.6970   41.4440 C   0  0  0  0  0
   66.2180 -129.5440   40.8800 C   0  0  0  0  0
   65.6710 -133.1160   41.5460 C   0  0  0  0  0
   62.5720 -136.7940   43.6890 C   0  0  0  0  0
   62.4240 -139.4520   42.2160 C   0  0  0  0  0
   64.2170 -131.8350   42.9850 C   0  0  0  0  0
   64.7130 -130.6490   42.4390 C   0  0  0  0  0
   66.3290 -128.4300   41.6220 N   0  0  0  0  0
   66.1580 -131.9290   41.0110 C   0  0  0  0  0
   64.1230 -134.1930   43.1650 C   0  0  0  0  0
   64.0180 -136.7480   43.1490 C   0  0  0  0  0
   61.8540 -138.4740   43.6110 S   0  0  0  0  0
   60.3410 -138.3100   43.4810 O   0  0  0  0  0
   62.1660 -139.2080   44.9090 O   0  0  0  0  0
   63.1740 -135.4610   41.2570 N   0  0  0  0  0
   64.4440 -136.3360   39.5690 O   0  0  0  0  0
   62.1150 -135.8760   39.1610 C   0  0  0  0  0
   61.5090 -137.2940   39.1100 C   0  0  0  0  0
   60.0960 -137.2610   39.3580 O   0  0  0  0  0
   62.4580 -135.4560   37.8070 N   0  0  0  0  0
   60.7520 -133.9500   37.6400 O   0  0  0  0  0
   62.2020 -134.2420   35.7500 C   0  0  0  0  0
   63.2180 -133.1000   35.7160 C   0  0  0  0  0
   64.3470 -133.6090   34.7630 C   0  0  0  0  0
   64.4410 -132.9840   33.4230 C   0  0  0  0  0
   65.7160 -133.2470   35.1740 C   0  0  0  0  0
   60.9970 -133.9590   34.9760 N   0  0  0  0  0
   60.5060 -136.1710   34.7560 O   0  0  0  0  0
   58.7780 -135.6130   32.7880 N   0  0  0  0  0
   58.7520 -135.2530   31.7660 N   0  0  0  0  0
   58.7280 -134.8990   30.7080 N   0  0  0  0  0
   57.8500 -134.6540   34.9200 C   0  0  0  0  0
   56.5570 -134.3400   34.4520 C   0  0  0  0  0
   55.8650 -133.2330   34.9720 C   0  0  0  0  0
   54.5740 -132.9220   34.5250 C   0  0  0  0  0
   53.9510 -133.7170   33.5590 C   0  0  0  0  0
   54.6260 -134.8270   33.0430 C   0  0  0  0  0
   55.9130 -135.1400   33.4910 C   0  0  0  0  0
   58.9520 -133.6157   33.3863 H   0  0  0  0  0
   65.2037 -135.4837   41.8480 H   0  0  0  0  0
   66.5400 -129.5421   39.8386 H   0  0  0  0  0
   66.0569 -134.0716   41.1909 H   0  0  0  0  0
   61.9599 -136.1360   43.0721 H   0  0  0  0  0
   62.5914 -136.4830   44.7335 H   0  0  0  0  0
   61.9351 -140.4261   42.2329 H   0  0  0  0  0
   62.1778 -138.9365   41.2877 H   0  0  0  0  0
   63.5037 -139.5848   42.2840 H   0  0  0  0  0
   63.4574 -131.7888   43.7654 H   0  0  0  0  0
   64.3367 -129.6877   42.7888 H   0  0  0  0  0
   66.0271 -128.4340   42.5963 H   0  0  0  0  0
   66.9223 -131.9676   40.2348 H   0  0  0  0  0
   64.6773 -134.3747   44.0858 H   0  0  0  0  0
   63.0684 -133.9813   43.3416 H   0  0  0  0  0
   64.7173 -136.7356   43.9850 H   0  0  0  0  0
   64.2032 -137.6274   42.5322 H   0  0  0  0  0
   62.2530 -135.0928   41.4949 H   0  0  0  0  0
   61.3969 -135.1775   39.5906 H   0  0  0  0  0
   61.9839 -137.9042   39.8783 H   0  0  0  0  0
   61.6793 -137.7107   38.1173 H   0  0  0  0  0
   59.7448 -138.1537   39.3207 H   0  0  0  0  0
   63.2550 -135.8832   37.3351 H   0  0  0  0  0
   62.7227 -135.0966   35.3181 H   0  0  0  0  0
   63.5984 -132.8619   36.7093 H   0  0  0  0  0
   62.7745 -132.1689   35.3632 H   0  0  0  0  0
   64.0616 -134.6608   34.7798 H   0  0  0  0  0
   63.5092 -133.1468   32.8814 H   0  0  0  0  0
   64.6160 -131.9139   33.5341 H   0  0  0  0  0
   65.2667 -133.4331   32.8711 H   0  0  0  0  0
   65.8063 -132.1616   35.2161 H   0  0  0  0  0
   65.9220 -133.6684   36.1579 H   0  0  0  0  0
   66.4282 -133.6444   34.4508 H   0  0  0  0  0
   60.7369 -132.9978   34.7550 H   0  0  0  0  0
   58.1043 -133.9067   35.6717 H   0  0  0  0  0
   57.8126 -135.6792   35.2882 H   0  0  0  0  0
   56.3376 -132.6097   35.7311 H   0  0  0  0  0
   54.0530 -132.0557   34.9327 H   0  0  0  0  0
   52.9472 -133.4735   33.2109 H   0  0  0  0  0
   54.1472 -135.4510   32.2884 H   0  0  0  0  0
   56.4239 -136.0155   33.0902 H   0  0  0  0  0
  2  1  1  0  0  0
  1 35  1  0  0  0
  1 38  1  0  0  0
 33  2  1  0  0  0
  2 34  2  0  0  0
  3 26  1  0  0  0
  3 27  2  0  0  0
 28  3  1  0  0  0
  4 21  1  0  0  0
  4 22  2  0  0  0
 23  4  1  0  0  0
  5 16  1  0  0  0
  5 17  1  0  0  0
 21  5  1  0  0  0
  6  9  4  0  0  0
  6 12  4  0  0  0
 16  6  1  0  0  0
  7  8  1  0  0  0
 13  7  4  0  0  0
 15  7  4  0  0  0
  8 14  2  0  0  0
  9 15  4  0  0  0
 17 10  1  0  0  0
 10 18  1  0  0  0
 18 11  1  0  0  0
 12 13  4  0  0  0
 18 19  2  0  0  0
 18 20  2  0  0  0
 23 24  1  0  0  0
 26 23  1  0  0  0
 24 25  1  0  0  0
 28 29  1  0  0  0
 28 33  1  0  0  0
 29 30  1  0  0  0
 30 31  1  0  0  0
 30 32  1  0  0  0
 35 36  2  0  0  0
 36 37  3  0  0  0
 38 39  1  0  0  0
 39 40  4  0  0  0
 39 44  4  0  0  0
 40 41  4  0  0  0
 41 42  4  0  0  0
 42 43  4  0  0  0
 43 44  4  0  0  0
  1 45  1  0  0  0
  5 46  1  0  0  0
  8 47  1  0  0  0
  9 48  1  0  0  0
 10 49  1  0  0  0
 10 50  1  0  0  0
 11 51  1  0  0  0
 11 52  1  0  0  0
 11 53  1  0  0  0
 12 54  1  0  0  0
 13 55  1  0  0  0
 14 56  1  0  0  0
 15 57  1  0  0  0
 16 58  1  0  0  0
 16 59  1  0  0  0
 17 60  1  0  0  0
 17 61  1  0  0  0
 21 62  1  0  0  0
 23 63  1  0  0  0
 24 64  1  0  0  0
 24 65  1  0  0  0
 25 66  1  0  0  0
 26 67  1  0  0  0
 28 68  1  0  0  0
 29 69  1  0  0  0
 29 70  1  0  0  0
 30 71  1  0  0  0
 31 72  1  0  0  0
 31 73  1  0  0  0
 31 74  1  0  0  0
 32 75  1  0  0  0
 32 76  1  0  0  0
 32 77  1  0  0  0
 33 78  1  0  0  0
 38 79  1  0  0  0
 38 80  1  0  0  0
 40 81  1  0  0  0
 41 82  1  0  0  0
 42 83  1  0  0  0
 43 84  1  0  0  0
 44 85  1  0  0  0
M  END
$$$$
