### 
### Created by X-TOOL on Mon Aug  2 16:10:08 2021
### 

@<TRIPOS>MOLECULE
6htr_ligand
   85    86     1     0     0
SMALL
GAST_HUCK


@<TRIPOS>ATOM
      1 C6         58.9580 -134.6040   33.8460 C.3       1 GQT         0.3131
      2 C7         60.2390 -134.9810   34.5610 C.2       1 GQT         0.2449
      3 C10        61.7430 -134.5190   37.1750 C.2       1 GQT         0.2040
      4 C13        63.3770 -135.9080   40.0150 C.2       1 GQT         0.2043
      5 C15        64.2110 -135.4730   42.2980 C.3       1 GQT         0.0542
      6 C17        64.6800 -133.0860   42.5460 C.ar      1 GQT        -0.0325
      7 C20        65.6920 -130.6970   41.4440 C.ar      1 GQT         0.0061
      8 C21        66.2180 -129.5440   40.8800 C.2       1 GQT         0.0101
      9 C24        65.6710 -133.1160   41.5460 C.ar      1 GQT        -0.0508
     10 C26        62.5720 -136.7940   43.6890 C.3       1 GQT         0.0677
     11 C28        62.4240 -139.4520   42.2160 C.3       1 GQT         0.0544
     12 C18        64.2170 -131.8350   42.9850 C.ar      1 GQT        -0.0508
     13 C19        64.7130 -130.6490   42.4390 C.ar      1 GQT        -0.0481
     14 N22        66.3290 -128.4300   41.6220 N.2       1 GQT        -0.3549
     15 C23        66.1580 -131.9290   41.0110 C.ar      1 GQT        -0.0481
     16 C16        64.1230 -134.1930   43.1650 C.3       1 GQT         0.0079
     17 C25        64.0180 -136.7480   43.1490 C.3       1 GQT        -0.0084
     18 S27        61.8540 -138.4740   43.6110 S.o2      1 GQT        -0.0337
     19 O29        60.3410 -138.3100   43.4810 O.2       1 GQT        -0.1746
     20 O30        62.1660 -139.2080   44.9090 O.2       1 GQT        -0.1746
     21 N14        63.1740 -135.4610   41.2570 N.am      1 GQT        -0.2797
     22 O31        64.4440 -136.3360   39.5690 O.2       1 GQT        -0.3944
     23 C12        62.1150 -135.8760   39.1610 C.3       1 GQT         0.1538
     24 C32        61.5090 -137.2940   39.1100 C.3       1 GQT         0.0843
     25 O33        60.0960 -137.2610   39.3580 O.3       1 GQT        -0.3903
     26 N11        62.4580 -135.4560   37.8070 N.am      1 GQT        -0.2616
     27 O39        60.7520 -133.9500   37.6400 O.2       1 GQT        -0.3944
     28 C9         62.2020 -134.2420   35.7500 C.3       1 GQT         0.1313
     29 C40        63.2180 -133.1000   35.7160 C.3       1 GQT        -0.0101
     30 C41        64.3470 -133.6090   34.7630 C.3       1 GQT        -0.0425
     31 C42        64.4410 -132.9840   33.4230 C.3       1 GQT        -0.0625
     32 C43        65.7160 -133.2470   35.1740 C.3       1 GQT        -0.0625
     33 N8         60.9970 -133.9590   34.9760 N.am      1 GQT        -0.2609
     34 O44        60.5060 -136.1710   34.7560 O.2       1 GQT        -0.3906
     35 N51        58.7780 -135.6130   32.7880 N.2       1 GQT         0.1934
     36 N52        58.7520 -135.2530   31.7660 N.1       1 GQT         0.1323
     37 N53        58.7280 -134.8990   30.7080 N.1       1 GQT         0.2336
     38 C54        57.8500 -134.6540   34.9200 C.3       1 GQT         0.0575
     39 C55        56.5570 -134.3400   34.4520 C.ar      1 GQT        -0.0354
     40 C60        55.8650 -133.2330   34.9720 C.ar      1 GQT        -0.0600
     41 C59        54.5740 -132.9220   34.5250 C.ar      1 GQT        -0.0686
     42 C58        53.9510 -133.7170   33.5590 C.ar      1 GQT        -0.0687
     43 C57        54.6260 -134.8270   33.0430 C.ar      1 GQT        -0.0686
     44 C56        55.9130 -135.1400   33.4910 C.ar      1 GQT        -0.0600
     45 H1         59.0176 -133.5975   33.4063 H         1 GQT         0.1271
     46 H2         65.2022 -135.5058   41.8221 H         1 GQT         0.0581
     47 H3         66.5397 -129.5421   39.8396 H         1 GQT         0.1084
     48 H4         66.0547 -134.0663   41.1928 H         1 GQT         0.0581
     49 H5         61.9486 -136.1149   43.0888 H         1 GQT         0.0500
     50 H6         62.5750 -136.4591   44.7368 H         1 GQT         0.0500
     51 H7         61.9468 -140.4427   42.2434 H         1 GQT         0.0464
     52 H8         63.5162 -139.5695   42.2724 H         1 GQT         0.0464
     53 H9         62.1579 -138.9428   41.2780 H         1 GQT         0.0464
     54 H10        63.4616 -131.7890   43.7611 H         1 GQT         0.0581
     55 H11        64.3388 -129.6929   42.7869 H         1 GQT         0.0677
     56 H12        66.7107 -127.5900   41.2161 H         1 GQT         0.1192
     57 H13        66.9181 -131.9674   40.2391 H         1 GQT         0.0677
     58 H14        64.6555 -134.3718   44.1108 H         1 GQT         0.0467
     59 H15        63.0639 -133.9826   43.3746 H         1 GQT         0.0467
     60 H16        64.7239 -136.7359   43.9925 H         1 GQT         0.0305
     61 H17        64.2052 -137.6356   42.5269 H         1 GQT         0.0305
     62 H18        62.2710 -135.1000   41.4902 H         1 GQT         0.1857
     63 H19        61.3882 -135.1741   39.5958 H         1 GQT         0.0823
     64 H20        61.9934 -137.9194   39.8743 H         1 GQT         0.0606
     65 H21        61.6890 -137.7261   38.1146 H         1 GQT         0.0606
     66 H22        59.7484 -138.1444   39.3211 H         1 GQT         0.2097
     67 H23        63.2394 -135.8749   37.3444 H         1 GQT         0.1884
     68 H24        62.6859 -135.1412   35.3411 H         1 GQT         0.0800
     69 H25        63.6173 -132.9047   36.7222 H         1 GQT         0.0315
     70 H26        62.7587 -132.1826   35.3193 H         1 GQT         0.0315
     71 H27        64.2301 -134.6994   34.6776 H         1 GQT         0.0298
     72 H28        65.2740 -133.4365   32.8650 H         1 GQT         0.0232
     73 H29        64.6176 -131.9039   33.5337 H         1 GQT         0.0232
     74 H30        63.5012 -133.1476   32.8753 H         1 GQT         0.0232
     75 H31        65.9037 -133.6192   36.1920 H         1 GQT         0.0232
     76 H32        65.8265 -132.1527   35.1575 H         1 GQT         0.0232
     77 H33        66.4391 -133.6991   34.4792 H         1 GQT         0.0232
     78 H34        60.7420 -133.0166   34.7594 H         1 GQT         0.1884
     79 H35        58.1099 -133.9376   35.7132 H         1 GQT         0.0506
     80 H36        57.8247 -135.6710   35.3383 H         1 GQT         0.0506
     81 H37        56.3350 -132.6131   35.7269 H         1 GQT         0.0557
     82 H38        54.0558 -132.0605   34.9304 H         1 GQT         0.0599
     83 H39        52.9527 -133.4749   33.2128 H         1 GQT         0.0559
     84 H40        54.1498 -135.4476   32.2926 H         1 GQT         0.0599
     85 H41        56.4211 -136.0107   33.0924 H         1 GQT         0.0557
@<TRIPOS>BOND
     1    2    1 1  
     2    1   35 1  
     3    1   38 1  
     4   33    2 am 
     5    2   34 2  
     6    3   26 am 
     7    3   27 2  
     8   28    3 1  
     9    4   21 am 
    10    4   22 2  
    11   23    4 1  
    12    5   16 1  
    13    5   17 1  
    14   21    5 1  
    15    6    9 ar 
    16    6   12 ar 
    17   16    6 1  
    18    7    8 1  
    19   13    7 ar 
    20   15    7 ar 
    21    8   14 2  
    22    9   15 ar 
    23   17   10 1  
    24   10   18 1  
    25   18   11 1  
    26   12   13 ar 
    27   18   19 2  
    28   18   20 2  
    29   23   24 1  
    30   26   23 1  
    31   24   25 1  
    32   28   29 1  
    33   28   33 1  
    34   29   30 1  
    35   30   31 1  
    36   30   32 1  
    37   35   36 2  
    38   36   37 3  
    39   38   39 1  
    40   39   40 ar 
    41   39   44 ar 
    42   40   41 ar 
    43   41   42 ar 
    44   42   43 ar 
    45   43   44 ar 
    46    1   45 1  
    47    5   46 1  
    48    8   47 1  
    49    9   48 1  
    50   10   49 1  
    51   10   50 1  
    52   11   51 1  
    53   11   52 1  
    54   11   53 1  
    55   12   54 1  
    56   13   55 1  
    57   14   56 1  
    58   15   57 1  
    59   16   58 1  
    60   16   59 1  
    61   17   60 1  
    62   17   61 1  
    63   21   62 1  
    64   23   63 1  
    65   24   64 1  
    66   24   65 1  
    67   25   66 1  
    68   26   67 1  
    69   28   68 1  
    70   29   69 1  
    71   29   70 1  
    72   30   71 1  
    73   31   72 1  
    74   31   73 1  
    75   31   74 1  
    76   32   75 1  
    77   32   76 1  
    78   32   77 1  
    79   33   78 1  
    80   38   79 1  
    81   38   80 1  
    82   40   81 1  
    83   41   82 1  
    84   42   83 1  
    85   43   84 1  
    86   44   85 1  
@<TRIPOS>SUBSTRUCTURE
     1 GQT         1

