4xe0_ligand
  -I-interpret- 

 48 52  0  0  0  0  0  0  0  0999 V2000
   -3.0990  -14.1880   23.6450 C   0  0  0  0  0
   -2.7890  -16.3660   24.6000 C   0  0  0  0  0
   -4.5080  -16.0300   22.9510 C   0  0  0  0  0
   -7.5970  -14.5410   23.5990 C   0  0  0  0  0
   -8.7690  -14.3380   22.6510 C   0  0  0  0  0
   -7.0420   -9.9920   25.2280 C   0  0  0  0  0
   -4.9980  -11.2850   17.7880 C   0  0  0  0  0
   -6.1650  -10.6730   18.2330 C   0  0  0  0  0
   -6.6670  -10.9930   19.5000 C   0  0  0  0  0
   -6.0110  -11.9180   20.3270 C   0  0  0  0  0
   -4.8590  -12.5380   19.8720 C   0  0  0  0  0
   -4.3640  -12.2210   18.6040 C   0  0  0  0  0
   -3.2470  -12.8160   18.1730 F   0  0  0  0  0
   -6.5270  -12.2030   21.5840 N   0  0  0  0  0
   -4.1940  -13.5210   20.7630 C   0  0  0  0  0
   -3.1750  -14.0670   20.4020 O   0  0  0  0  0
   -4.8070  -13.7570   21.9950 N   0  0  0  0  0
   -4.1550  -14.6760   22.8700 C   0  0  0  0  0
   -2.4080  -15.0300   24.5110 C   0  0  0  0  0
   -3.8270  -16.8710   23.8240 C   0  0  0  0  0
   -5.9620  -13.0730   22.3480 C   0  0  0  0  0
   -6.6120  -13.3560   23.7120 C   0  0  0  0  0
   -7.2550  -12.1070   24.1100 N   0  0  0  0  0
   -6.4770  -11.1650   24.7280 C   0  0  0  0  0
   -6.2030   -9.0860   25.8370 C   0  0  0  0  0
   -4.8690   -9.1820   26.0140 N   0  0  0  0  0
   -4.4110  -10.3460   25.5000 C   0  0  0  0  0
   -5.1190  -11.3250   24.8750 N   0  0  0  0  0
   -8.3410   -9.5400   25.2300 N   0  0  0  0  0
   -8.2750   -8.3860   25.8440 C   0  0  0  0  0
   -7.0130   -8.0650   26.2290 N   0  0  0  0  0
   -2.8143  -13.1385   23.5703 H   0  0  0  0  0
   -2.2649  -17.0277   25.2896 H   0  0  0  0  0
   -5.3142  -16.4226   22.3313 H   0  0  0  0  0
   -7.0246  -15.3812   23.2059 H   0  0  0  0  0
   -8.0244  -14.6823   24.5917 H   0  0  0  0  0
   -9.3574  -13.4818   22.9808 H   0  0  0  0  0
   -8.3930  -14.1559   21.6442 H   0  0  0  0  0
   -9.3936  -15.2313   22.6509 H   0  0  0  0  0
   -4.5833  -11.0354   16.8113 H   0  0  0  0  0
   -6.6835   -9.9515   17.6016 H   0  0  0  0  0
   -7.5824  -10.5159   19.8500 H   0  0  0  0  0
   -1.5811  -14.6493   25.1105 H   0  0  0  0  0
   -4.1055  -17.9221   23.9000 H   0  0  0  0  0
   -5.8895  -13.6566   24.4707 H   0  0  0  0  0
   -8.2462  -11.9425   23.9343 H   0  0  0  0  0
   -3.3398  -10.5218   25.5990 H   0  0  0  0  0
   -9.1412   -7.7501   26.0269 H   0  0  0  0  0
 18  1  4  0  0  0
  1 19  4  0  0  0
 19  2  4  0  0  0
 20  2  4  0  0  0
 18  3  4  0  0  0
  3 20  4  0  0  0
  4  5  1  0  0  0
 22  4  1  0  0  0
 24  6  4  0  0  0
  6 25  4  0  0  0
  6 29  4  0  0  0
  8  7  4  0  0  0
 12  7  4  0  0  0
  9  8  4  0  0  0
 10  9  4  0  0  0
 10 11  4  0  0  0
 14 10  1  0  0  0
 11 12  4  0  0  0
 15 11  1  0  0  0
 12 13  1  0  0  0
 21 14  2  0  0  0
 15 16  2  0  0  0
 17 15  1  0  0  0
 17 18  1  0  0  0
 21 17  1  0  0  0
 22 21  1  0  0  0
 23 22  1  0  0  0
 23 24  1  0  0  0
 24 28  4  0  0  0
 25 26  4  0  0  0
 25 31  4  0  0  0
 26 27  4  0  0  0
 27 28  4  0  0  0
 29 30  4  0  0  0
 30 31  4  0  0  0
  1 32  1  0  0  0
  2 33  1  0  0  0
  3 34  1  0  0  0
  4 35  1  0  0  0
  4 36  1  0  0  0
  5 37  1  0  0  0
  5 38  1  0  0  0
  5 39  1  0  0  0
  7 40  1  0  0  0
  8 41  1  0  0  0
  9 42  1  0  0  0
 19 43  1  0  0  0
 20 44  1  0  0  0
 22 45  1  0  0  0
 23 46  1  0  0  0
 27 47  1  0  0  0
 30 48  1  0  0  0
M  END
$$$$
