4jal_ligand
  -I-interpret- 

 47 49  0  0  0  0  0  0  0  0999 V2000
    2.1330   13.6740   16.4560 N   0  3  0  0  0
    1.8710   12.5410   17.3370 C   0  0  0  0  0
    3.0730   12.3290   18.2290 C   0  0  0  0  0
    3.7110   11.0060   17.8650 C   0  0  0  0  0
    5.4810   11.0610   18.1350 S   0  0  0  0  0
    0.6270   12.7290   18.1920 C   0  0  0  0  0
    0.0510   11.7590   18.6840 O   0  0  0  0  0
    0.1750   13.8530   18.4130 O   0  0  0  0  0
    5.1730   10.0030   19.5670 C   0  0  0  0  0
    5.7480    8.6020   19.4340 C   0  0  0  0  0
    5.1320    7.8950   18.3740 O   0  0  0  0  0
    7.2360    8.6130   19.1060 C   0  0  0  0  0
    8.0040    8.7940   20.2610 O   0  0  0  0  0
    7.4290    7.2440   18.5050 C   0  0  0  0  0
    7.6100    6.2780   19.5240 O   0  0  0  0  0
    6.0820    6.9880   17.8450 C   0  0  0  0  0
    6.2010    7.2030   16.3860 N   0  0  0  0  0
    5.6260    8.1720   15.6150 C   0  0  0  0  0
    5.9980    7.9790   14.3300 N   0  0  0  0  0
    6.8020    6.8940   14.2740 C   0  0  0  0  0
    7.4620    6.2520   13.2300 C   0  0  0  0  0
    7.3630    6.6920   11.9710 N   0  0  0  0  0
    8.2310    5.1450   13.5190 N   0  0  0  0  0
    8.3570    4.6770   14.8090 C   0  0  0  0  0
    7.6900    5.3190   15.8340 N   0  0  0  0  0
    6.9330    6.4010   15.5660 C   0  0  0  0  0
    2.9752   13.4912   15.9103 H   0  0  0  0  0
    1.3406   13.8045   15.8271 H   0  0  0  0  0
    2.2657   14.5156   17.0168 H   0  0  0  0  0
    1.6910   11.6692   16.7080 H   0  0  0  0  0
    2.7644   12.3190   19.2744 H   0  0  0  0  0
    3.7887   13.1391   18.0890 H   0  0  0  0  0
    3.5215   10.8015   16.8113 H   0  0  0  0  0
    3.2830   10.2240   18.4923 H   0  0  0  0  0
    0.7196   14.5083   17.9708 H   0  0  0  0  0
    4.0925    9.9013   19.6681 H   0  0  0  0  0
    5.6555   10.4709   20.4251 H   0  0  0  0  0
    5.5684    8.1293   20.3996 H   0  0  0  0  0
    7.5444    9.4225   18.4444 H   0  0  0  0  0
    8.9352    8.7971   20.0275 H   0  0  0  0  0
    8.2901    7.1880   17.8391 H   0  0  0  0  0
    7.7314    5.4131   19.1255 H   0  0  0  0  0
    5.7653    5.9629   18.0371 H   0  0  0  0  0
    4.9753    8.9686   15.9757 H   0  0  0  0  0
    6.7955    7.5131   11.7608 H   0  0  0  0  0
    7.8550    6.2065   11.2209 H   0  0  0  0  0
    8.9785    3.8065   15.0189 H   0  0  0  0  0
  1  2  1  0  0  0
  2  3  1  0  0  0
  2  6  1  0  0  0
  3  4  1  0  0  0
  4  5  1  0  0  0
  5  9  1  0  0  0
  6  7  2  0  0  0
  6  8  1  0  0  0
  9 10  1  0  0  0
 10 11  1  0  0  0
 10 12  1  0  0  0
 11 16  1  0  0  0
 12 13  1  0  0  0
 12 14  1  0  0  0
 14 15  1  0  0  0
 14 16  1  0  0  0
 16 17  1  0  0  0
 17 18  4  0  0  0
 17 26  4  0  0  0
 18 19  4  0  0  0
 19 20  4  0  0  0
 20 21  4  0  0  0
 20 26  4  0  0  0
 21 22  1  0  0  0
 21 23  4  0  0  0
 23 24  4  0  0  0
 24 25  4  0  0  0
 25 26  4  0  0  0
  1 27  1  0  0  0
  1 28  1  0  0  0
  1 29  1  0  0  0
  2 30  1  0  0  0
  3 31  1  0  0  0
  3 32  1  0  0  0
  4 33  1  0  0  0
  4 34  1  0  0  0
  8 35  1  0  0  0
  9 36  1  0  0  0
  9 37  1  0  0  0
 10 38  1  0  0  0
 12 39  1  0  0  0
 13 40  1  0  0  0
 14 41  1  0  0  0
 15 42  1  0  0  0
 16 43  1  0  0  0
 18 44  1  0  0  0
 22 45  1  0  0  0
 22 46  1  0  0  0
 24 47  1  0  0  0
M  END
$$$$
