6pt3_ligand
  -I-interpret- 

 77 80  0  0  0  0  0  0  0  0999 V2000
    2.4380  -40.2500  -54.7940 C   0  0  0  0  0
    1.7940  -39.5550  -53.5960 C   0  0  0  0  0
    2.0070  -40.2040  -52.4380 N   0  0  0  0  0
    1.1440  -41.2010  -52.1070 C   0  0  0  0  0
   -0.1380  -40.8030  -51.3270 C   0  0  0  0  0
    3.0820  -39.8350  -51.6770 C   0  0  0  0  0
    3.7910  -38.9350  -52.0480 O   0  0  0  0  0
    3.4850  -40.4720  -50.3920 C   0  0  0  0  0
    4.6470  -41.2700  -50.3400 C   0  0  0  0  0
    5.0700  -41.8430  -49.1230 C   0  0  0  0  0
    2.7870  -40.1950  -49.2050 C   0  0  0  0  0
    3.1900  -40.7800  -47.9960 C   0  0  0  0  0
    4.3490  -41.5900  -47.9380 C   0  0  0  0  0
    4.7920  -42.2210  -46.6610 C   0  0  0  0  0
    3.7740  -43.2220  -46.2490 C   0  0  0  0  0
    3.8640  -44.4970  -46.8120 C   0  0  0  0  0
    2.8970  -45.4680  -46.5210 C   0  0  0  0  0
    2.9930  -46.6920  -47.1220 O   0  0  0  0  0
    1.8470  -45.1860  -45.6330 C   0  0  0  0  0
    1.7360  -43.9040  -45.0720 C   0  0  0  0  0
    2.6910  -42.9220  -45.3880 C   0  0  0  0  0
    5.1400  -41.2650  -45.5940 N   0  3  0  0  0
    5.6980  -41.8580  -44.3860 C   0  0  0  0  0
    5.6450  -40.7620  -43.2900 C   0  0  0  0  0
    7.0920  -42.5110  -44.5060 C   0  0  0  0  0
    5.9820  -40.1300  -46.0710 C   0  0  0  0  0
    5.8240  -38.9830  -45.0230 C   0  0  0  0  0
    4.4030  -38.4130  -45.1200 C   0  0  0  0  0
    6.2180  -39.4710  -43.6980 N   0  3  0  0  0
    6.0230  -38.4110  -42.6560 C   0  0  0  0  0
    6.5190  -38.7010  -41.2890 C   0  0  0  0  0
    5.6830  -38.4070  -40.1900 C   0  0  0  0  0
    6.1120  -38.6640  -38.8690 C   0  0  0  0  0
    7.3950  -39.1860  -38.6320 C   0  0  0  0  0
    8.2480  -39.4510  -39.7240 C   0  0  0  0  0
    7.8170  -39.2090  -41.0480 C   0  0  0  0  0
    3.5154  -40.3118  -54.6406 H   0  0  0  0  0
    2.0259  -41.2540  -54.8947 H   0  0  0  0  0
    2.2307  -39.6784  -55.6986 H   0  0  0  0  0
    0.7180  -39.5246  -53.7676 H   0  0  0  0  0
    2.2377  -38.5633  -53.5083 H   0  0  0  0  0
    1.6993  -41.8638  -51.4434 H   0  0  0  0  0
    0.7968  -41.6169  -53.0528 H   0  0  0  0  0
    0.1429  -40.3361  -50.3830 H   0  0  0  0  0
   -0.7204  -40.0999  -51.9224 H   0  0  0  0  0
   -0.7333  -41.6945  -51.1299 H   0  0  0  0  0
    5.2230  -41.4453  -51.2486 H   0  0  0  0  0
    5.9535  -42.4809  -49.0984 H   0  0  0  0  0
    1.9290  -39.5229  -49.2237 H   0  0  0  0  0
    2.6050  -40.6092  -47.0923 H   0  0  0  0  0
    5.7400  -42.7265  -46.8452 H   0  0  0  0  0
    4.6904  -44.7376  -47.4808 H   0  0  0  0  0
    2.2677  -47.2487  -46.8294 H   0  0  0  0  0
    1.1212  -45.9589  -45.3802 H   0  0  0  0  0
    0.9139  -43.6713  -44.3952 H   0  0  0  0  0
    2.5968  -41.9212  -44.9666 H   0  0  0  0  0
    4.2321  -40.8891  -45.3205 H   0  0  0  0  0
    5.0881  -42.7257  -44.1345 H   0  0  0  0  0
    6.2342  -41.1225  -42.4468 H   0  0  0  0  0
    4.5937  -40.5883  -43.0604 H   0  0  0  0  0
    7.0522  -43.3176  -45.2381 H   0  0  0  0  0
    7.8161  -41.7623  -44.8274 H   0  0  0  0  0
    7.3884  -42.9124  -43.5369 H   0  0  0  0  0
    5.6642  -39.7993  -47.0598 H   0  0  0  0  0
    7.0254  -40.4319  -46.1622 H   0  0  0  0  0
    6.4927  -38.1467  -45.2268 H   0  0  0  0  0
    4.2378  -38.0211  -46.1236 H   0  0  0  0  0
    3.6811  -39.2032  -44.9138 H   0  0  0  0  0
    4.2840  -37.6112  -44.3913 H   0  0  0  0  0
    7.2136  -39.6753  -43.7848 H   0  0  0  0  0
    4.9443  -38.2883  -42.5584 H   0  0  0  0  0
    6.5953  -37.5498  -43.0008 H   0  0  0  0  0
    4.6963  -37.9772  -40.3627 H   0  0  0  0  0
    5.4461  -38.4569  -38.0312 H   0  0  0  0  0
    7.7282  -39.3844  -37.6133 H   0  0  0  0  0
    9.2481  -39.8458  -39.5450 H   0  0  0  0  0
    8.4854  -39.4140  -41.8842 H   0  0  0  0  0
  1  2  1  0  0  0
  2  3  1  0  0  0
  3  4  1  0  0  0
  3  6  1  0  0  0
  4  5  1  0  0  0
  6  7  2  0  0  0
  6  8  1  0  0  0
  8  9  4  0  0  0
  8 11  4  0  0  0
  9 10  4  0  0  0
 10 13  4  0  0  0
 11 12  4  0  0  0
 12 13  4  0  0  0
 13 14  1  0  0  0
 14 15  1  0  0  0
 14 22  1  0  0  0
 15 16  4  0  0  0
 15 21  4  0  0  0
 16 17  4  0  0  0
 17 18  1  0  0  0
 17 19  4  0  0  0
 19 20  4  0  0  0
 20 21  4  0  0  0
 22 23  1  0  0  0
 22 26  1  0  0  0
 23 24  1  0  0  0
 23 25  1  0  0  0
 24 29  1  0  0  0
 26 27  1  0  0  0
 27 28  1  0  0  0
 27 29  1  0  0  0
 29 30  1  0  0  0
 30 31  1  0  0  0
 31 32  4  0  0  0
 31 36  4  0  0  0
 32 33  4  0  0  0
 33 34  4  0  0  0
 34 35  4  0  0  0
 35 36  4  0  0  0
  1 37  1  0  0  0
  1 38  1  0  0  0
  1 39  1  0  0  0
  2 40  1  0  0  0
  2 41  1  0  0  0
  4 42  1  0  0  0
  4 43  1  0  0  0
  5 44  1  0  0  0
  5 45  1  0  0  0
  5 46  1  0  0  0
  9 47  1  0  0  0
 10 48  1  0  0  0
 11 49  1  0  0  0
 12 50  1  0  0  0
 14 51  1  0  0  0
 16 52  1  0  0  0
 18 53  1  0  0  0
 19 54  1  0  0  0
 20 55  1  0  0  0
 21 56  1  0  0  0
 22 57  1  0  0  0
 23 58  1  0  0  0
 24 59  1  0  0  0
 24 60  1  0  0  0
 25 61  1  0  0  0
 25 62  1  0  0  0
 25 63  1  0  0  0
 26 64  1  0  0  0
 26 65  1  0  0  0
 27 66  1  0  0  0
 28 67  1  0  0  0
 28 68  1  0  0  0
 28 69  1  0  0  0
 29 70  1  0  0  0
 30 71  1  0  0  0
 30 72  1  0  0  0
 32 73  1  0  0  0
 33 74  1  0  0  0
 34 75  1  0  0  0
 35 76  1  0  0  0
 36 77  1  0  0  0
M  END
$$$$
