5x79_ligand
  -I-interpret- 

 51 50  0  0  0  0  0  0  0  0999 V2000
   14.2520    9.9740   24.2640 C   0  0  0  0  0
   12.8500    9.3280   24.3050 C   0  0  0  0  0
   12.5530    8.6860   25.6670 C   0  0  0  0  0
   11.0970    8.2040   25.7800 C   0  0  0  0  0
    9.3240    6.9910   27.1280 C   0  0  0  0  0
    9.2850    5.4670   27.3400 C   0  0  0  0  0
    9.7940    4.5430   24.5470 C   0  0  0  0  0
    8.7120    3.4490   24.5520 C   0  0  0  0  0
    8.8900    7.5960   28.4450 C   0  0  0  0  0
    7.0710    8.2950   29.9480 C   0  0  0  0  0
    6.0690    9.4130   29.7380 C   0  0  0  0  0
   15.2720    8.8310   24.2340 C   0  0  0  0  0
   14.3190   10.8860   23.1100 N   0  3  0  0  0
   10.6740    7.4720   26.9590 N   0  0  0  0  0
    7.4750    7.7530   28.6790 N   0  0  0  0  0
   10.3420    8.4120   24.8930 O   0  0  0  0  0
    9.7210    1.6250   23.2020 O   0  0  0  0  0
    9.3760    1.0860   25.9020 O   0  0  0  0  0
    9.7100    7.9010   29.2630 O   0  0  0  0  0
    6.6720   10.3440   28.8830 O   0  0  0  0  0
    5.7870    9.9130   31.0060 O   0  0  0  0  0
   16.1270    8.8410   23.1320 O   0  0  0  0  0
   15.9160    8.6020   25.4570 O   0  0  0  0  0
   10.4620    4.6480   26.2410 S   0  0  0  0  0
    8.9860    1.8540   24.5670 S   0  0  0  0  0
   14.4733   10.5869   25.1378 H   0  0  0  0  0
   12.8116    8.5479   23.5446 H   0  0  0  0  0
   12.1098   10.1080   24.1270 H   0  0  0  0  0
   12.7214    9.4370   26.4388 H   0  0  0  0  0
   13.2056    7.8206   25.7824 H   0  0  0  0  0
    8.7160    7.2416   26.2587 H   0  0  0  0  0
    8.2813    5.1035   27.1196 H   0  0  0  0  0
    9.5509    5.2454   28.3736 H   0  0  0  0  0
    9.3711    5.4999   24.2410 H   0  0  0  0  0
   10.5842    4.2983   23.8371 H   0  0  0  0  0
    8.2405    3.5902   23.5794 H   0  0  0  0  0
    8.2325    3.6070   25.5180 H   0  0  0  0  0
    6.6103    7.5075   30.5443 H   0  0  0  0  0
    7.9459    8.6895   30.4647 H   0  0  0  0  0
    5.1301    9.1104   29.2743 H   0  0  0  0  0
   14.6591    7.9429   24.0797 H   0  0  0  0  0
   13.6099   11.6123   23.2105 H   0  0  0  0  0
   15.2436   11.3150   23.0704 H   0  0  0  0  0
   14.1498   10.3603   22.2524 H   0  0  0  0  0
   11.3559    7.2907   27.6956 H   0  0  0  0  0
    6.7884    7.4899   27.9721 H   0  0  0  0  0
    6.0656   11.0713   28.7249 H   0  0  0  0  0
    5.1523   10.6295   30.9324 H   0  0  0  0  0
   15.6175    9.0026   22.3346 H   0  0  0  0  0
   15.2677    8.6091   26.1650 H   0  0  0  0  0
    7.8745    1.1282   24.6486 H   0  0  0  0  0
  2  1  1  0  0  0
  1 12  1  0  0  0
  1 13  1  0  0  0
  3  2  1  0  0  0
  4  3  1  0  0  0
 14  4  1  0  0  0
  4 16  2  0  0  0
  5  6  1  0  0  0
  9  5  1  0  0  0
  5 14  1  0  0  0
  6 24  1  0  0  0
  7  8  1  0  0  0
 24  7  1  0  0  0
  8 25  1  0  0  0
 15  9  1  0  0  0
  9 19  2  0  0  0
 10 11  1  0  0  0
 10 15  1  0  0  0
 11 20  1  0  0  0
 11 21  1  0  0  0
 12 22  1  0  0  0
 12 23  1  0  0  0
 25 17  2  0  0  0
 25 18  2  0  0  0
  1 26  1  0  0  0
  2 27  1  0  0  0
  2 28  1  0  0  0
  3 29  1  0  0  0
  3 30  1  0  0  0
  5 31  1  0  0  0
  6 32  1  0  0  0
  6 33  1  0  0  0
  7 34  1  0  0  0
  7 35  1  0  0  0
  8 36  1  0  0  0
  8 37  1  0  0  0
 10 38  1  0  0  0
 10 39  1  0  0  0
 11 40  1  0  0  0
 12 41  1  0  0  0
 13 42  1  0  0  0
 13 43  1  0  0  0
 13 44  1  0  0  0
 14 45  1  0  0  0
 15 46  1  0  0  0
 20 47  1  0  0  0
 21 48  1  0  0  0
 22 49  1  0  0  0
 23 50  1  0  0  0
 25 51  1  0  0  0
M  END
$$$$
