5ka3_ligand
  -I-interpret- 

 29 30  0  0  0  0  0  0  0  0999 V2000
  -42.5840   10.3940    0.0580 N   0  3  0  0  0
  -42.3620   10.8300    1.4400 C   0  0  0  0  0
  -42.7800   12.2500    1.8520 C   0  0  0  0  0
  -43.5800   13.0190    0.9300 C   0  0  0  0  0
  -43.9970   12.4320   -0.3870 C   0  0  0  0  0
  -43.7820   10.9650   -0.6230 C   0  0  0  0  0
  -42.5050   13.1110    3.1360 S   0  0  0  0  0
  -43.2260   14.4710    2.8820 C   0  0  0  0  0
  -43.8650   14.4380    1.5920 C   0  0  0  0  0
  -44.6670   15.5860    0.9870 C   0  0  0  0  0
  -45.1090   16.4950    1.7350 O   0  0  0  0  0
  -44.8790   15.6290   -0.2520 O   0  0  0  0  0
  -43.3170   15.6440    3.7110 N   0  0  0  0  0
  -42.8290   15.7920    5.0590 C   0  0  0  0  0
  -43.0770   17.1550    5.6760 C   0  0  0  0  0
  -42.1540   17.7620    6.2730 O   0  0  0  0  0
  -44.2270   17.6610    5.5520 O   0  0  0  0  0
  -42.2890   14.9230    5.6500 O   0  0  0  0  0
  -42.7295    9.3851    0.0957 H   0  0  0  0  0
  -41.7738   10.7091   -0.4755 H   0  0  0  0  0
  -41.2800   10.8079    1.5701 H   0  0  0  0  0
  -42.9824   10.1689    2.0451 H   0  0  0  0  0
  -43.3756   12.9324   -1.1296 H   0  0  0  0  0
  -45.0773   12.5704   -0.4294 H   0  0  0  0  0
  -44.6528   10.4476   -0.2205 H   0  0  0  0  0
  -43.6305   10.8346   -1.6945 H   0  0  0  0  0
  -44.4761   14.8651   -0.6711 H   0  0  0  0  0
  -43.7758   16.4574    3.3007 H   0  0  0  0  0
  -44.7926   17.0530    5.0703 H   0  0  0  0  0
  1  2  1  0  0  0
  1  6  1  0  0  0
  2  3  1  0  0  0
  3  4  4  0  0  0
  3  7  4  0  0  0
  4  5  1  0  0  0
  4  9  4  0  0  0
  5  6  1  0  0  0
  7  8  4  0  0  0
  8  9  4  0  0  0
  8 13  1  0  0  0
  9 10  1  0  0  0
 10 11  2  0  0  0
 10 12  1  0  0  0
 13 14  1  0  0  0
 14 15  1  0  0  0
 14 18  2  0  0  0
 15 16  2  0  0  0
 15 17  1  0  0  0
  1 19  1  0  0  0
  1 20  1  0  0  0
  2 21  1  0  0  0
  2 22  1  0  0  0
  5 23  1  0  0  0
  5 24  1  0  0  0
  6 25  1  0  0  0
  6 26  1  0  0  0
 12 27  1  0  0  0
 13 28  1  0  0  0
 17 29  1  0  0  0
M  END
$$$$
