4ei4_ligand
  -I-interpret- 

 37 40  0  0  0  0  0  0  0  0999 V2000
   10.2940   56.7550   -0.5130 C   0  0  0  0  0
    9.1330   57.7010   -0.2740 C   0  0  0  0  0
    9.1270   58.9600   -0.6400 N   0  0  0  0  0
    7.9630   59.5520   -0.2730 C   0  0  0  0  0
    7.4540   60.8580   -0.3970 C   0  0  0  0  0
    6.2540   61.1740    0.0550 N   0  0  0  0  0
    5.4810   60.2620    0.6500 C   0  0  0  0  0
    5.9140   58.9270    0.8260 C   0  0  0  0  0
    7.1870   58.5520    0.3660 C   0  0  0  0  0
    7.9500   57.3840    0.3400 N   0  0  0  0  0
    7.5940   56.0600    0.8720 C   0  0  0  0  0
    6.4090   55.4710    0.0820 C   0  0  0  0  0
    6.1490   54.0240    0.5280 C   0  0  0  0  0
    5.9330   53.9530    2.0540 C   0  0  0  0  0
    7.0040   54.6900    2.9040 C   0  0  0  0  0
    7.2940   56.1100    2.3900 C   0  0  0  0  0
    8.2230   53.9390    2.9360 O   0  0  0  0  0
    4.8240   58.2190    1.5110 C   0  0  0  0  0
    3.8540   59.1060    1.7010 C   0  0  0  0  0
    4.2330   60.3310    1.1940 N   0  0  0  0  0
   10.4840   56.6782   -1.5836 H   0  0  0  0  0
   11.1826   57.1385   -0.0116 H   0  0  0  0  0
   10.0469   55.7708   -0.1150 H   0  0  0  0  0
    8.0628   61.6248   -0.8761 H   0  0  0  0  0
    8.4543   55.4028    0.7452 H   0  0  0  0  0
    6.6460   55.4817   -0.9819 H   0  0  0  0  0
    5.5184   56.0704    0.2707 H   0  0  0  0  0
    7.0137   53.4142    0.2662 H   0  0  0  0  0
    5.2524   53.6573    0.0282 H   0  0  0  0  0
    5.9826   52.8997    2.3300 H   0  0  0  0  0
    4.9792   54.4390    2.2596 H   0  0  0  0  0
    6.5939   54.7783    3.9100 H   0  0  0  0  0
    6.4256   56.7444    2.5674 H   0  0  0  0  0
    8.1568   56.5174    2.9170 H   0  0  0  0  0
    8.8727   54.4081    3.4646 H   0  0  0  0  0
    4.8135   57.1697    1.8059 H   0  0  0  0  0
    2.9003   58.8968    2.1856 H   0  0  0  0  0
  1  2  1  0  0  0
  2  3  4  0  0  0
  2 10  4  0  0  0
  3  4  4  0  0  0
  4  5  4  0  0  0
  4  9  4  0  0  0
  5  6  4  0  0  0
  6  7  4  0  0  0
  7  8  4  0  0  0
  7 20  4  0  0  0
  8  9  4  0  0  0
  8 18  4  0  0  0
  9 10  4  0  0  0
 10 11  1  0  0  0
 11 12  1  0  0  0
 11 16  1  0  0  0
 12 13  1  0  0  0
 13 14  1  0  0  0
 14 15  1  0  0  0
 15 16  1  0  0  0
 15 17  1  0  0  0
 18 19  4  0  0  0
 19 20  4  0  0  0
  1 21  1  0  0  0
  1 22  1  0  0  0
  1 23  1  0  0  0
  5 24  1  0  0  0
 11 25  1  0  0  0
 12 26  1  0  0  0
 12 27  1  0  0  0
 13 28  1  0  0  0
 13 29  1  0  0  0
 14 30  1  0  0  0
 14 31  1  0  0  0
 15 32  1  0  0  0
 16 33  1  0  0  0
 16 34  1  0  0  0
 17 35  1  0  0  0
 18 36  1  0  0  0
 19 37  1  0  0  0
M  END
$$$$
