2bow_ligand
  -I-interpret- 

 45 48  0  0  0  0  0  0  0  0999 V2000
  -16.4450   73.0740   26.2110 P   0  0  0  0  0
  -16.2540   74.3750   25.0320 C   0  0  0  0  0
  -16.9720   75.5720   25.0900 C   0  0  0  0  0
  -16.7750   76.5600   24.1230 C   0  0  0  0  0
  -15.8540   76.3580   23.0920 C   0  0  0  0  0
  -15.1320   75.1680   23.0250 C   0  0  0  0  0
  -15.3280   74.1800   23.9910 C   0  0  0  0  0
  -15.2600   73.2540   27.5210 C   0  0  0  0  0
  -13.9350   73.5510   27.1780 C   0  0  0  0  0
  -12.9550   73.6990   28.1720 C   0  0  0  0  0
  -13.2960   73.5410   29.5070 C   0  0  0  0  0
  -14.6110   73.2390   29.8610 C   0  0  0  0  0
  -15.5890   73.0950   28.8660 C   0  0  0  0  0
  -16.2090   71.5070   25.3150 C   0  0  0  0  0
  -16.7810   71.4080   24.0390 C   0  0  0  0  0
  -16.6430   70.2400   23.2870 C   0  0  0  0  0
  -15.9390   69.1570   23.8100 C   0  0  0  0  0
  -15.3730   69.2320   25.0840 C   0  0  0  0  0
  -15.5120   70.4070   25.8350 C   0  0  0  0  0
  -18.8700   71.9540   26.6410 C   0  0  0  0  0
  -20.1420   71.8310   27.1990 C   0  0  0  0  0
  -20.5890   72.7850   28.1040 C   0  0  0  0  0
  -19.7660   73.8680   28.4510 C   0  0  0  0  0
  -18.4830   73.9880   27.8850 C   0  0  0  0  0
  -18.0320   73.0320   26.9750 C   0  0  0  0  0
  -17.6895   75.7356   25.8940 H   0  0  0  0  0
  -17.3407   77.4904   24.1726 H   0  0  0  0  0
  -15.7001   77.1316   22.3397 H   0  0  0  0  0
  -14.4152   75.0091   22.2193 H   0  0  0  0  0
  -14.7599   73.2512   23.9386 H   0  0  0  0  0
  -13.6622   73.6683   26.1292 H   0  0  0  0  0
  -11.9281   73.9376   27.8952 H   0  0  0  0  0
  -12.5359   73.6529   30.2802 H   0  0  0  0  0
  -14.8784   73.1150   30.9104 H   0  0  0  0  0
  -16.6149   72.8568   29.1470 H   0  0  0  0  0
  -17.3386   72.2507   23.6303 H   0  0  0  0  0
  -17.0850   70.1752   22.2927 H   0  0  0  0  0
  -15.8297   68.2463   23.2211 H   0  0  0  0  0
  -14.8263   68.3819   25.4921 H   0  0  0  0  0
  -15.0747   70.4663   26.8317 H   0  0  0  0  0
  -18.5197   71.2018   25.9342 H   0  0  0  0  0
  -20.7815   70.9914   26.9266 H   0  0  0  0  0
  -21.5811   72.6926   28.5458 H   0  0  0  0  0
  -20.1209   74.6166   29.1594 H   0  0  0  0  0
  -17.8426   74.8269   28.1574 H   0  0  0  0  0
  1  2  1  0  0  0
  1  8  1  0  0  0
  1 14  1  0  0  0
 25  1  1  0  0  0
  2  3  4  0  0  0
  2  7  4  0  0  0
  3  4  4  0  0  0
  4  5  4  0  0  0
  6  5  4  0  0  0
  7  6  4  0  0  0
  8  9  4  0  0  0
  8 13  4  0  0  0
  9 10  4  0  0  0
 10 11  4  0  0  0
 12 11  4  0  0  0
 13 12  4  0  0  0
 14 15  4  0  0  0
 14 19  4  0  0  0
 15 16  4  0  0  0
 16 17  4  0  0  0
 18 17  4  0  0  0
 19 18  4  0  0  0
 20 21  4  0  0  0
 20 25  4  0  0  0
 21 22  4  0  0  0
 22 23  4  0  0  0
 23 24  4  0  0  0
 24 25  4  0  0  0
  3 26  1  0  0  0
  4 27  1  0  0  0
  5 28  1  0  0  0
  6 29  1  0  0  0
  7 30  1  0  0  0
  9 31  1  0  0  0
 10 32  1  0  0  0
 11 33  1  0  0  0
 12 34  1  0  0  0
 13 35  1  0  0  0
 15 36  1  0  0  0
 16 37  1  0  0  0
 17 38  1  0  0  0
 18 39  1  0  0  0
 19 40  1  0  0  0
 20 41  1  0  0  0
 21 42  1  0  0  0
 22 43  1  0  0  0
 23 44  1  0  0  0
 24 45  1  0  0  0
M  END
$$$$
