3rxo_ligand
  -I-interpret- 

 26 27  0  0  0  0  0  0  0  0999 V2000
   -1.7030  -13.4820   18.3010 C   0  0  0  0  0
   -3.0300  -13.4880   18.8880 N   0  3  0  0  0
   -1.6840  -14.1980   16.9640 C   0  0  0  0  0
   -2.9610  -17.3110   15.3810 N   0  0  0  0  0
   -1.0160  -13.6220   15.8960 C   0  0  0  0  0
   -0.9950  -14.2710   14.6750 C   0  0  0  0  0
   -1.6420  -15.4930   14.5190 C   0  0  0  0  0
   -2.3260  -16.1280   15.5640 C   0  0  0  0  0
   -2.5980  -18.2220   14.4730 C   0  0  0  0  0
   -3.5160  -19.2510   14.5990 C   0  0  0  0  0
   -4.4160  -18.8950   15.5900 C   0  0  0  0  0
   -4.0510  -17.6570   16.0690 C   0  0  0  0  0
   -2.3230  -15.4290   16.7870 C   0  0  0  0  0
   -1.0230  -13.9979   18.9789 H   0  0  0  0  0
   -1.3998  -12.4470   18.1430 H   0  0  0  0  0
   -3.0067  -12.9998   19.7833 H   0  0  0  0  0
   -3.6807  -13.0170   18.2594 H   0  0  0  0  0
   -3.3322  -14.4514   19.0325 H   0  0  0  0  0
   -0.5104  -12.6640   16.0171 H   0  0  0  0  0
   -0.4695  -13.8235   13.8314 H   0  0  0  0  0
   -1.6156  -15.9767   13.5426 H   0  0  0  0  0
   -1.7580  -18.1668   13.7806 H   0  0  0  0  0
   -3.5282  -20.1755   14.0218 H   0  0  0  0  0
   -5.2635  -19.4900   15.9304 H   0  0  0  0  0
   -4.5487  -17.0795   16.8481 H   0  0  0  0  0
   -2.8443  -15.8693   17.6370 H   0  0  0  0  0
  1  2  1  0  0  0
  3  1  1  0  0  0
  5  3  4  0  0  0
  3 13  4  0  0  0
  8  4  1  0  0  0
  4  9  4  0  0  0
  4 12  4  0  0  0
  6  5  4  0  0  0
  7  6  4  0  0  0
  7  8  4  0  0  0
  8 13  4  0  0  0
  9 10  4  0  0  0
 10 11  4  0  0  0
 11 12  4  0  0  0
  1 14  1  0  0  0
  1 15  1  0  0  0
  2 16  1  0  0  0
  2 17  1  0  0  0
  2 18  1  0  0  0
  5 19  1  0  0  0
  6 20  1  0  0  0
  7 21  1  0  0  0
  9 22  1  0  0  0
 10 23  1  0  0  0
 11 24  1  0  0  0
 12 25  1  0  0  0
 13 26  1  0  0  0
M  END
$$$$
