5c7e_ligand
  -I-interpret- 

139138  0  0  0  0  0  0  0  0999 V2000
  -43.7430   95.2220   50.4760 N   0  3  0  0  0
  -44.7230   95.2920   49.3990 C   0  0  0  0  0
  -45.8980   94.3460   49.6540 C   0  0  0  0  0
  -45.7780   93.3880   50.4240 O   0  0  0  0  0
  -44.0690   94.9810   48.0450 C   0  0  0  0  0
  -43.2830   93.8000   48.0860 O   0  0  0  0  0
  -47.0390   94.6460   49.0360 N   0  0  0  0  0
  -48.2670   93.9010   49.2750 C   0  0  0  0  0
  -48.0480   92.4520   48.8730 C   0  0  0  0  0
  -47.4020   92.1750   47.8570 O   0  0  0  0  0
  -49.4390   94.4980   48.4960 C   0  0  0  0  0
  -48.5520   91.5300   49.6860 N   0  0  0  0  0
  -48.3650   90.1160   49.4090 C   0  0  0  0  0
  -49.1270   89.8230   48.1350 C   0  0  0  0  0
  -49.9640   90.6170   47.6950 O   0  0  0  0  0
  -48.8940   89.1920   50.5460 C   0  0  0  0  0
  -49.4130   89.9810   51.6230 O   0  0  0  0  0
  -47.8020   88.2640   51.0680 C   0  0  0  0  0
  -48.8790   88.6500   47.5790 N   0  0  0  0  0
  -49.5730   88.2220   46.3820 C   0  0  0  0  0
  -50.7580   87.4210   46.8730 C   0  0  0  0  0
  -50.5900   86.4170   47.5580 O   0  0  0  0  0
  -48.6540   87.3680   45.5210 C   0  0  0  0  0
  -49.2630   86.0780   45.0210 C   0  0  0  0  0
  -48.2170   85.1280   44.4910 C   0  0  0  0  0
  -47.1130   85.6020   44.1580 O   0  0  0  0  0
  -48.4590   83.8990   44.5030 O   0  0  0  0  0
  -51.9560   87.9490   46.6790 N   0  0  0  0  0
  -53.1360   87.2270   47.1140 C   0  0  0  0  0
  -53.8090   86.4950   45.9670 C   0  0  0  0  0
  -54.8940   85.9340   46.1500 O   0  0  0  0  0
  -54.1190   88.1600   47.8180 C   0  0  0  0  0
  -54.4530   87.6080   49.2120 C   0  0  0  0  0
  -53.1950   87.4520   50.0400 C   0  0  0  0  0
  -55.4590   88.4640   49.9490 C   0  0  0  0  0
  -53.1550   86.4570   44.8050 N   0  0  0  0  0
  -53.8010   85.9060   43.6180 C   0  0  0  0  0
  -53.6840   84.4020   43.5910 C   0  0  0  0  0
  -52.9940   83.8140   44.4100 O   0  0  0  0  0
  -53.1660   86.4810   42.3540 C   0  0  0  0  0
  -54.3980   83.7720   42.6740 N   0  0  0  0  0
  -54.3910   82.3260   42.5930 C   0  0  0  0  0
  -53.9250   81.9660   41.2040 C   0  0  0  0  0
  -54.6840   82.1230   40.2460 O   0  0  0  0  0
  -55.7770   81.7650   42.8940 C   0  0  0  0  0
  -56.2960   82.0440   44.2940 C   0  0  0  0  0
  -57.7020   81.5270   44.4210 C   0  0  0  0  0
  -55.3940   81.3670   45.3140 C   0  0  0  0  0
  -52.7300   81.4170   41.0790 N   0  0  0  0  0
  -52.2120   81.0600   39.7670 C   0  0  0  0  0
  -51.1420   80.0200   39.9870 C   0  0  0  0  0
  -50.8700   79.6730   41.1300 O   0  0  0  0  0
  -51.6570   82.2860   39.0390 C   0  0  0  0  0
  -50.5310   79.5150   38.9220 N   0  0  0  0  0
  -49.5610   78.4440   39.1040 C   0  0  0  0  0
  -48.2810   78.8860   39.8210 C   0  0  0  0  0
  -47.5210   78.0420   40.2940 O   0  0  0  0  0
  -49.2170   77.7970   37.7580 C   0  0  0  0  0
  -50.3780   77.2650   36.9140 C   0  0  0  0  0
  -50.2600   77.6680   35.4570 C   0  0  0  0  0
  -50.4220   75.7510   37.0290 C   0  0  0  0  0
  -48.0650   80.1920   39.9550 N   0  0  0  0  0
  -46.9280   80.6970   40.7160 C   0  0  0  0  0
  -47.0760   80.5890   42.2280 C   0  0  0  0  0
  -46.1640   80.9260   42.9880 O   0  0  0  0  0
  -48.1130   80.1610   42.7430 O   0  0  0  0  0
  -44.1996   95.4318   51.3637 H   0  0  0  0  0
  -43.3442   94.2838   50.5108 H   0  0  0  0  0
  -43.0020   95.9016   50.3045 H   0  0  0  0  0
  -45.1100   96.3106   49.3713 H   0  0  0  0  0
  -43.4153   95.8138   47.7856 H   0  0  0  0  0
  -44.8621   94.8345   47.3117 H   0  0  0  0  0
  -42.8950   93.6450   47.2217 H   0  0  0  0  0
  -47.0531   95.4222   48.3744 H   0  0  0  0  0
  -48.5163   93.9590   50.3345 H   0  0  0  0  0
  -49.5928   95.5309   48.8084 H   0  0  0  0  0
  -49.2170   94.4690   47.4292 H   0  0  0  0  0
  -50.3400   93.9183   48.6968 H   0  0  0  0  0
  -49.0754   91.8176   50.5129 H   0  0  0  0  0
  -47.2979   89.9114   49.3227 H   0  0  0  0  0
  -49.6905   88.5767   50.1276 H   0  0  0  0  0
  -49.7355   89.4009   52.3166 H   0  0  0  0  0
  -47.4404   87.6363   50.2535 H   0  0  0  0  0
  -46.9787   88.8596   51.4624 H   0  0  0  0  0
  -48.2092   87.6352   51.8598 H   0  0  0  0  0
  -48.1848   88.0336   48.0015 H   0  0  0  0  0
  -49.8894   89.0621   45.7638 H   0  0  0  0  0
  -47.8037   87.0933   46.1452 H   0  0  0  0  0
  -48.4068   87.9612   44.6406 H   0  0  0  0  0
  -49.9494   86.3172   44.2088 H   0  0  0  0  0
  -49.7712   85.5948   45.8555 H   0  0  0  0  0
  -49.3640   83.7550   44.7892 H   0  0  0  0  0
  -52.0487   88.8583   46.2262 H   0  0  0  0  0
  -52.8072   86.4732   47.8294 H   0  0  0  0  0
  -55.0338   88.2302   47.2295 H   0  0  0  0  0
  -53.6688   89.1474   47.9198 H   0  0  0  0  0
  -54.9090   86.6295   49.0614 H   0  0  0  0  0
  -52.5158   86.7616   49.5400 H   0  0  0  0  0
  -52.7118   88.4227   50.1508 H   0  0  0  0  0
  -53.4550   87.0598   51.0232 H   0  0  0  0  0
  -55.0568   89.4694   50.0733 H   0  0  0  0  0
  -56.3846   88.5099   49.3752 H   0  0  0  0  0
  -55.6580   88.0273   50.9277 H   0  0  0  0  0
  -52.2013   86.8138   44.7460 H   0  0  0  0  0
  -54.8555   86.1794   43.6544 H   0  0  0  0  0
  -53.2812   87.5649   42.3518 H   0  0  0  0  0
  -52.1062   86.2269   42.3335 H   0  0  0  0  0
  -53.6589   86.0602   41.4776 H   0  0  0  0  0
  -54.9606   84.3108   42.0156 H   0  0  0  0  0
  -53.7200   81.8910   43.3337 H   0  0  0  0  0
  -55.7047   80.6818   42.7966 H   0  0  0  0  0
  -56.4674   82.2471   42.2019 H   0  0  0  0  0
  -56.2956   83.1184   44.4778 H   0  0  0  0  0
  -58.3388   82.0267   43.6910 H   0  0  0  0  0
  -57.7106   80.4526   44.2376 H   0  0  0  0  0
  -58.0723   81.7282   45.4262 H   0  0  0  0  0
  -55.3889   80.2917   45.1356 H   0  0  0  0  0
  -54.3810   81.7575   45.2171 H   0  0  0  0  0
  -55.7678   81.5682   46.3179 H   0  0  0  0  0
  -52.1651   81.2417   41.9100 H   0  0  0  0  0
  -53.0057   80.6642   39.1333 H   0  0  0  0  0
  -52.4511   83.0217   38.9116 H   0  0  0  0  0
  -50.8482   82.7205   39.6264 H   0  0  0  0  0
  -51.2777   81.9861   38.0621 H   0  0  0  0  0
  -50.7380   79.8721   37.9893 H   0  0  0  0  0
  -50.0398   77.7124   39.7549 H   0  0  0  0  0
  -48.6053   76.9273   37.9978 H   0  0  0  0  0
  -48.7574   78.5853   37.1619 H   0  0  0  0  0
  -51.3004   77.7030   37.2954 H   0  0  0  0  0
  -50.2564   78.7554   35.3813 H   0  0  0  0  0
  -49.3321   77.2708   35.0455 H   0  0  0  0  0
  -51.1069   77.2665   34.9006 H   0  0  0  0  0
  -49.4827   75.3330   36.6671 H   0  0  0  0  0
  -50.5676   75.4712   38.0724 H   0  0  0  0  0
  -51.2472   75.3662   36.4298 H   0  0  0  0  0
  -48.7069   80.8527   39.5171 H   0  0  0  0  0
  -46.8347   81.7573   40.4812 H   0  0  0  0  0
  -46.0656   80.0914   40.4375 H   0  0  0  0  0
  -48.7414   79.9342   42.0536 H   0  0  0  0  0
  1  2  1  0  0  0
  2  3  1  0  0  0
  2  5  1  0  0  0
  3  4  2  0  0  0
  3  7  1  0  0  0
  5  6  1  0  0  0
  7  8  1  0  0  0
  8  9  1  0  0  0
  8 11  1  0  0  0
  9 10  2  0  0  0
  9 12  1  0  0  0
 12 13  1  0  0  0
 13 14  1  0  0  0
 13 16  1  0  0  0
 14 15  2  0  0  0
 14 19  1  0  0  0
 16 17  1  0  0  0
 16 18  1  0  0  0
 19 20  1  0  0  0
 20 21  1  0  0  0
 20 23  1  0  0  0
 21 22  2  0  0  0
 21 28  1  0  0  0
 23 24  1  0  0  0
 24 25  1  0  0  0
 25 26  2  0  0  0
 25 27  1  0  0  0
 28 29  1  0  0  0
 29 30  1  0  0  0
 29 32  1  0  0  0
 30 31  2  0  0  0
 30 36  1  0  0  0
 32 33  1  0  0  0
 33 34  1  0  0  0
 33 35  1  0  0  0
 36 37  1  0  0  0
 37 38  1  0  0  0
 37 40  1  0  0  0
 38 39  2  0  0  0
 38 41  1  0  0  0
 41 42  1  0  0  0
 42 43  1  0  0  0
 42 45  1  0  0  0
 43 44  2  0  0  0
 43 49  1  0  0  0
 45 46  1  0  0  0
 46 47  1  0  0  0
 46 48  1  0  0  0
 49 50  1  0  0  0
 50 51  1  0  0  0
 50 53  1  0  0  0
 51 52  2  0  0  0
 51 54  1  0  0  0
 54 55  1  0  0  0
 55 56  1  0  0  0
 55 58  1  0  0  0
 56 57  2  0  0  0
 56 62  1  0  0  0
 58 59  1  0  0  0
 59 60  1  0  0  0
 59 61  1  0  0  0
 62 63  1  0  0  0
 63 64  1  0  0  0
 64 65  2  0  0  0
 64 66  1  0  0  0
  1 67  1  0  0  0
  1 68  1  0  0  0
  1 69  1  0  0  0
  2 70  1  0  0  0
  5 71  1  0  0  0
  5 72  1  0  0  0
  6 73  1  0  0  0
  7 74  1  0  0  0
  8 75  1  0  0  0
 11 76  1  0  0  0
 11 77  1  0  0  0
 11 78  1  0  0  0
 12 79  1  0  0  0
 13 80  1  0  0  0
 16 81  1  0  0  0
 17 82  1  0  0  0
 18 83  1  0  0  0
 18 84  1  0  0  0
 18 85  1  0  0  0
 19 86  1  0  0  0
 20 87  1  0  0  0
 23 88  1  0  0  0
 23 89  1  0  0  0
 24 90  1  0  0  0
 24 91  1  0  0  0
 27 92  1  0  0  0
 28 93  1  0  0  0
 29 94  1  0  0  0
 32 95  1  0  0  0
 32 96  1  0  0  0
 33 97  1  0  0  0
 34 98  1  0  0  0
 34 99  1  0  0  0
 34100  1  0  0  0
 35101  1  0  0  0
 35102  1  0  0  0
 35103  1  0  0  0
 36104  1  0  0  0
 37105  1  0  0  0
 40106  1  0  0  0
 40107  1  0  0  0
 40108  1  0  0  0
 41109  1  0  0  0
 42110  1  0  0  0
 45111  1  0  0  0
 45112  1  0  0  0
 46113  1  0  0  0
 47114  1  0  0  0
 47115  1  0  0  0
 47116  1  0  0  0
 48117  1  0  0  0
 48118  1  0  0  0
 48119  1  0  0  0
 49120  1  0  0  0
 50121  1  0  0  0
 53122  1  0  0  0
 53123  1  0  0  0
 53124  1  0  0  0
 54125  1  0  0  0
 55126  1  0  0  0
 58127  1  0  0  0
 58128  1  0  0  0
 59129  1  0  0  0
 60130  1  0  0  0
 60131  1  0  0  0
 60132  1  0  0  0
 61133  1  0  0  0
 61134  1  0  0  0
 61135  1  0  0  0
 62136  1  0  0  0
 63137  1  0  0  0
 63138  1  0  0  0
 66139  1  0  0  0
M  END
$$$$
