### 
### Created by X-TOOL on Mon Sep 10 21:13:24 2018
### 

@<TRIPOS>MOLECULE
5c7e_ligand
  137   136     1     0     0
SMALL
GAST_HUCK


@<TRIPOS>ATOM
      1 N         -43.7430   95.2220   50.4760 N.4       1 SER         0.2396
      2 CA        -44.7230   95.2920   49.3990 C.3       1 SER         0.0885
      3 C         -45.8980   94.3460   49.6540 C.2       1 SER         0.2290
      4 O         -45.7780   93.3880   50.4240 O.2       1 SER        -0.3906
      5 CB        -44.0690   94.9810   48.0450 C.3       1 SER         0.1041
      6 OG        -43.2830   93.8000   48.0860 O.3       1 SER        -0.3870
      7 N         -47.0390   94.6460   49.0360 N.am      1 GLU        -0.2612
      8 CA        -48.2670   93.9010   49.2750 C.3       1 GLU         0.1283
      9 C         -48.0480   92.4520   48.8730 C.2       1 GLU         0.2037
     10 O         -47.4020   92.1750   47.8570 O.2       1 GLU        -0.3944
     11 CB        -49.4390   94.4980   48.4960 C.3       1 GLU        -0.0244
     12 N         -48.5520   91.5300   49.6860 N.am      1 THR        -0.2613
     13 CA        -48.3650   90.1160   49.4090 C.3       1 THR         0.1565
     14 C         -49.1270   89.8230   48.1350 C.2       1 THR         0.2065
     15 O         -49.9640   90.6170   47.6950 O.2       1 THR        -0.3943
     16 CB        -48.8940   89.1920   50.5460 C.3       1 THR         0.0924
     17 OG1       -49.4130   89.9810   51.6230 O.3       1 THR        -0.3874
     18 CG2       -47.8020   88.2640   51.0680 C.3       1 THR        -0.0346
     19 N         -48.8790   88.6500   47.5790 N.am      1 GLU        -0.2635
     20 CA        -49.5730   88.2220   46.3820 C.3       1 GLU         0.1325
     21 C         -50.7580   87.4210   46.8730 C.2       1 GLU         0.2040
     22 O         -50.5900   86.4170   47.5580 O.2       1 GLU        -0.3944
     23 CB        -48.6540   87.3680   45.5210 C.3       1 GLU        -0.0008
     24 CG        -49.2630   86.0780   45.0210 C.3       1 GLU         0.0044
     25 CD        -48.2170   85.1280   44.4910 C.2       1 GLU         0.0350
     26 OE1       -47.1130   85.6020   44.1580 O.co2     1 GLU        -0.5690
     27 OE2       -48.4590   83.8990   44.5030 O.co2     1 GLU        -0.5690
     28 N         -51.9560   87.9490   46.6790 N.am      1 LEU        -0.2637
     29 CA        -53.1360   87.2270   47.1140 C.3       1 LEU         0.1312
     30 C         -53.8090   86.4950   45.9670 C.2       1 LEU         0.2039
     31 O         -54.8940   85.9340   46.1500 O.2       1 LEU        -0.3944
     32 CB        -54.1190   88.1600   47.8180 C.3       1 LEU        -0.0101
     33 CG        -54.4530   87.6080   49.2120 C.3       1 LEU        -0.0425
     34 CD1       -53.1950   87.4520   50.0400 C.3       1 LEU        -0.0625
     35 CD2       -55.4590   88.4640   49.9490 C.3       1 LEU        -0.0625
     36 N         -53.1550   86.4570   44.8050 N.am      1 ASP        -0.2640
     37 CA        -53.8010   85.9060   43.6180 C.3       1 ASP         0.1282
     38 C         -53.6840   84.4020   43.5910 C.2       1 ASP         0.2036
     39 O         -52.9940   83.8140   44.4100 O.2       1 ASP        -0.3944
     40 CB        -53.1660   86.4810   42.3540 C.3       1 ASP        -0.0244
     41 N         -54.3980   83.7720   42.6740 N.am      1 LEU        -0.2637
     42 CA        -54.3910   82.3260   42.5930 C.3       1 LEU         0.1312
     43 C         -53.9250   81.9660   41.2040 C.2       1 LEU         0.2039
     44 O         -54.6840   82.1230   40.2460 O.2       1 LEU        -0.3944
     45 CB        -55.7770   81.7650   42.8940 C.3       1 LEU        -0.0101
     46 CG        -56.2960   82.0440   44.2940 C.3       1 LEU        -0.0425
     47 CD1       -57.7020   81.5270   44.4210 C.3       1 LEU        -0.0625
     48 CD2       -55.3940   81.3670   45.3140 C.3       1 LEU        -0.0625
     49 N         -52.7300   81.4170   41.0790 N.am      1 ALA        -0.2640
     50 CA        -52.2120   81.0600   39.7670 C.3       1 ALA         0.1282
     51 C         -51.1420   80.0200   39.9870 C.2       1 ALA         0.2036
     52 O         -50.8700   79.6730   41.1300 O.2       1 ALA        -0.3944
     53 CB        -51.6570   82.2860   39.0390 C.3       1 ALA        -0.0244
     54 N         -50.5310   79.5150   38.9220 N.am      1 LEU        -0.2637
     55 CA        -49.5610   78.4440   39.1040 C.3       1 LEU         0.1312
     56 C         -48.2810   78.8860   39.8210 C.2       1 LEU         0.2031
     57 O         -47.5210   78.0420   40.2940 O.2       1 LEU        -0.3944
     58 CB        -49.2170   77.7970   37.7580 C.3       1 LEU        -0.0101
     59 CG        -50.3780   77.2650   36.9140 C.3       1 LEU        -0.0425
     60 CD1       -50.2600   77.6680   35.4570 C.3       1 LEU        -0.0625
     61 CD2       -50.4220   75.7510   37.0290 C.3       1 LEU        -0.0625
     62 N         -48.0650   80.1920   39.9550 N.am      1 GLY        -0.2722
     63 CA        -46.9280   80.6970   40.7160 C.3       1 GLY         0.0833
     64 C         -47.0760   80.5890   42.2280 C.2       1 GLY         0.0570
     65 O         -46.1640   80.9260   42.9880 O.co2     1 GLY        -0.5669
     66 OXT       -48.1130   80.1610   42.7430 O.co2     1 GLY        -0.5669
     67 H1        -42.9829   95.8545   50.2802 H         1 SER         0.2016
     68 H2        -43.3877   94.2813   50.5464 H         1 SER         0.2016
     69 H3        -44.1807   95.4819   51.3460 H         1 SER         0.2016
     70 H4        -45.1143   96.3194   49.3625 H         1 SER         0.1122
     71 H5        -43.4240   95.8256   47.7612 H         1 SER         0.0640
     72 H6        -44.8597   94.8538   47.2909 H         1 SER         0.0640
     73 H7        -42.8990   93.6466   47.2307 H         1 SER         0.2099
     74 H8        -47.0528   95.4070   48.3873 H         1 GLU         0.1884
     75 H9        -48.5039   93.9428   50.3484 H         1 GLU         0.0797
     76 H10       -50.3489   93.9138   48.6978 H         1 GLU         0.0277
     77 H11       -49.2162   94.4693   47.4192 H         1 GLU         0.0277
     78 H12       -49.5953   95.5404   48.8104 H         1 GLU         0.0277
     79 H13       -49.0652   91.8120   50.4966 H         1 THR         0.1884
     80 H14       -47.2936   89.9149   49.2617 H         1 THR         0.0826
     81 H15       -49.7080   88.5746   50.1383 H         1 THR         0.0639
     82 H16       -49.7322   89.4070   52.3094 H         1 THR         0.2101
     83 H17       -48.2117   87.6288   51.8672 H         1 THR         0.0257
     84 H18       -46.9705   88.8639   51.4664 H         1 THR         0.0257
     85 H19       -47.4362   87.6299   50.2470 H         1 THR         0.0257
     86 H20       -48.1984   88.0457   47.9932 H         1 GLU         0.1883
     87 H21       -49.9135   89.0919   45.8012 H         1 GLU         0.0801
     88 H22       -47.7643   87.1167   46.1170 H         1 GLU         0.0330
     89 H23       -48.3535   87.9646   44.6471 H         1 GLU         0.0330
     90 H24       -49.9737   86.3099   44.2141 H         1 GLU         0.0433
     91 H25       -49.7965   85.5918   45.8510 H         1 GLU         0.0433
     92 H26       -52.0469   88.8405   46.2351 H         1 LEU         0.1883
     93 H27       -52.8110   86.4709   47.8439 H         1 LEU         0.0800
     94 H28       -55.0418   88.2339   47.2238 H         1 LEU         0.0315
     95 H29       -53.6670   89.1577   47.9190 H         1 LEU         0.0315
     96 H30       -54.8980   86.6112   49.0768 H         1 LEU         0.0298
     97 H31       -53.4561   87.0562   51.0326 H         1 LEU         0.0232
     98 H32       -52.7064   88.4310   50.1526 H         1 LEU         0.0232
     99 H33       -52.5086   86.7554   49.5365 H         1 LEU         0.0232
    100 H34       -56.3676   88.5700   49.3381 H         1 LEU         0.0232
    101 H35       -55.0264   89.4575   50.1381 H         1 LEU         0.0232
    102 H36       -55.7146   87.9870   50.9067 H         1 LEU         0.0232
    103 H37       -52.2200   86.8068   44.7471 H         1 ASP         0.1883
    104 H38       -54.8663   86.1793   43.6390 H         1 ASP         0.0797
    105 H39       -53.6626   86.0571   41.4688 H         1 ASP         0.0277
    106 H40       -52.0964   86.2252   42.3320 H         1 ASP         0.0277
    107 H41       -53.2816   87.5749   42.3506 H         1 ASP         0.0277
    108 H42       -54.9496   84.3002   42.0285 H         1 LEU         0.1883
    109 H43       -53.6822   81.9199   43.3297 H         1 LEU         0.0800
    110 H44       -55.7405   80.6744   42.7554 H         1 LEU         0.0315
    111 H45       -56.4851   82.2025   42.1749 H         1 LEU         0.0315
    112 H46       -56.2928   83.1293   44.4733 H         1 LEU         0.0298
    113 H47       -58.0769   81.7295   45.4351 H         1 LEU         0.0232
    114 H48       -57.7121   80.4427   44.2361 H         1 LEU         0.0232
    115 H49       -58.3458   82.0305   43.6848 H         1 LEU         0.0232
    116 H50       -54.3693   81.7534   45.2109 H         1 LEU         0.0232
    117 H51       -55.3953   80.2807   45.1409 H         1 LEU         0.0232
    118 H52       -55.7648   81.5772   46.3281 H         1 LEU         0.0232
    119 H53       -52.1762   81.2451   41.8937 H         1 ALA         0.1883
    120 H54       -53.0210   80.6288   39.1591 H         1 ALA         0.0797
    121 H55       -51.2739   81.9846   38.0529 H         1 ALA         0.0277
    122 H56       -50.8406   82.7255   39.6308 H         1 ALA         0.0277
    123 H57       -52.4575   83.0293   38.9098 H         1 ALA         0.0277
    124 H58       -50.7340   79.8651   38.0076 H         1 LEU         0.1883
    125 H59       -50.0382   77.6784   39.7334 H         1 LEU         0.0800
    126 H60       -48.5426   76.9520   37.9610 H         1 LEU         0.0315
    127 H61       -48.6893   78.5507   37.1551 H         1 LEU         0.0315
    128 H62       -51.3159   77.6800   37.3117 H         1 LEU         0.0298
    129 H63       -51.1142   77.2634   34.8943 H         1 LEU         0.0232
    130 H64       -49.3239   77.2677   35.0405 H         1 LEU         0.0232
    131 H65       -50.2563   78.7652   35.3792 H         1 LEU         0.0232
    132 H66       -50.5076   75.4661   38.0880 H         1 LEU         0.0232
    133 H67       -49.4997   75.3243   36.6079 H         1 LEU         0.0232
    134 H68       -51.2906   75.3662   36.4745 H         1 LEU         0.0232
    135 H69       -48.6944   80.8397   39.5257 H         1 GLY         0.1873
    136 H70       -46.7884   81.7577   40.4603 H         1 GLY         0.0689
    137 H71       -46.0356   80.1273   40.4175 H         1 GLY         0.0689
@<TRIPOS>BOND
     1    1    2 1  
     2    2    3 1  
     3    2    5 1  
     4    3    4 2  
     5    3    7 am 
     6    5    6 1  
     7    7    8 1  
     8    8    9 1  
     9    8   11 1  
    10    9   10 2  
    11    9   12 am 
    12   12   13 1  
    13   13   14 1  
    14   13   16 1  
    15   14   15 2  
    16   14   19 am 
    17   16   17 1  
    18   16   18 1  
    19   19   20 1  
    20   20   21 1  
    21   20   23 1  
    22   21   22 2  
    23   21   28 am 
    24   23   24 1  
    25   24   25 1  
    26   25   26 ar 
    27   25   27 ar 
    28   28   29 1  
    29   29   30 1  
    30   29   32 1  
    31   30   31 2  
    32   30   36 am 
    33   32   33 1  
    34   33   34 1  
    35   33   35 1  
    36   36   37 1  
    37   37   38 1  
    38   37   40 1  
    39   38   39 2  
    40   38   41 am 
    41   41   42 1  
    42   42   43 1  
    43   42   45 1  
    44   43   44 2  
    45   43   49 am 
    46   45   46 1  
    47   46   47 1  
    48   46   48 1  
    49   49   50 1  
    50   50   51 1  
    51   50   53 1  
    52   51   52 2  
    53   51   54 am 
    54   54   55 1  
    55   55   56 1  
    56   55   58 1  
    57   56   57 2  
    58   56   62 am 
    59   58   59 1  
    60   59   60 1  
    61   59   61 1  
    62   62   63 1  
    63   63   64 1  
    64   64   65 ar 
    65   64   66 ar 
    66    1   67 1  
    67    1   68 1  
    68    1   69 1  
    69    2   70 1  
    70    5   71 1  
    71    5   72 1  
    72    6   73 1  
    73    7   74 1  
    74    8   75 1  
    75   11   76 1  
    76   11   77 1  
    77   11   78 1  
    78   12   79 1  
    79   13   80 1  
    80   16   81 1  
    81   17   82 1  
    82   18   83 1  
    83   18   84 1  
    84   18   85 1  
    85   19   86 1  
    86   20   87 1  
    87   23   88 1  
    88   23   89 1  
    89   24   90 1  
    90   24   91 1  
    91   28   92 1  
    92   29   93 1  
    93   32   94 1  
    94   32   95 1  
    95   33   96 1  
    96   34   97 1  
    97   34   98 1  
    98   34   99 1  
    99   35  100 1  
   100   35  101 1  
   101   35  102 1  
   102   36  103 1  
   103   37  104 1  
   104   40  105 1  
   105   40  106 1  
   106   40  107 1  
   107   41  108 1  
   108   42  109 1  
   109   45  110 1  
   110   45  111 1  
   111   46  112 1  
   112   47  113 1  
   113   47  114 1  
   114   47  115 1  
   115   48  116 1  
   116   48  117 1  
   117   48  118 1  
   118   49  119 1  
   119   50  120 1  
   120   53  121 1  
   121   53  122 1  
   122   53  123 1  
   123   54  124 1  
   124   55  125 1  
   125   58  126 1  
   126   58  127 1  
   127   59  128 1  
   128   60  129 1  
   129   60  130 1  
   130   60  131 1  
   131   61  132 1  
   132   61  133 1  
   133   61  134 1  
   134   62  135 1  
   135   63  136 1  
   136   63  137 1  
@<TRIPOS>SUBSTRUCTURE
     1 SER         1

