3nwe_ligand
  -I-interpret- 

 72 76  0  0  0  0  0  0  0  0999 V2000
   -6.0030    5.6090   26.8120 N   0  0  0  0  0
   -4.9690    5.4290   25.8140 C   0  0  0  0  0
   -5.2290    5.9230   24.4400 C   0  0  0  0  0
   -6.3840    4.6690   27.7500 C   0  0  0  0  0
   -7.3330    5.2450   28.5640 C   0  0  0  0  0
   -7.5000    6.5570   28.1260 N   0  0  0  0  0
   -0.5370   13.4550   25.0020 C   0  0  0  0  0
   -3.8510    6.1760   23.9190 C   0  0  0  0  0
   -6.6630    6.7590   27.0720 C   0  0  0  0  0
   -3.7950    6.2210   26.2680 O   0  0  0  0  0
   -5.9680    5.0000   23.7460 O   0  0  0  0  0
    1.8390   13.6270   25.2960 C   0  0  0  0  0
    0.6560   12.9560   25.5260 C   0  0  0  0  0
   -3.8160    7.0050   22.6590 C   0  0  0  0  0
   -3.2570    6.8740   25.1210 C   0  0  0  0  0
   -0.5540   14.6510   24.3020 C   0  0  0  0  0
   -1.8440   12.7910   25.1910 C   0  0  0  0  0
   -7.8920    4.4630   29.6010 C   0  0  0  0  0
   -5.9840    3.3830   27.9130 N   0  0  0  0  0
    3.0230   13.1330   25.8020 O   0  0  0  0  0
    0.5870   15.3380   24.0620 C   0  0  0  0  0
   -7.4680    3.1740   29.7570 N   0  0  0  0  0
    1.8030   14.8250   24.5860 C   0  0  0  0  0
   -6.5230    2.6530   28.9280 C   0  0  0  0  0
    0.5650   16.5640   23.3150 C   0  0  0  0  0
   -3.5990    8.3580   25.1970 C   0  0  0  0  0
   -2.9190   13.3130   24.9230 O   0  0  0  0  0
   -1.8000   11.4610   25.6590 N   0  0  0  0  0
   -2.6660    9.2610   25.6500 C   0  0  0  0  0
    1.3900   17.6270   23.6780 C   0  0  0  0  0
   -0.2900   16.7250   22.2190 C   0  0  0  0  0
   -8.9040    4.9490   30.4650 N   0  0  0  0  0
    0.7730   11.8060   26.2570 O   0  0  0  0  0
    0.5430   18.9600   21.8470 C   0  0  0  0  0
   -0.2820   17.9150   21.4810 C   0  0  0  0  0
    1.4000   18.8210   22.9370 C   0  0  0  0  0
    0.5460   20.0640   21.1080 F   0  0  0  0  0
   -3.0220   10.7130   25.8020 C   0  0  0  0  0
   -9.5340    6.2510   30.2980 C   0  0  0  0  0
  -10.7300    6.1150   29.3660 C   0  0  0  0  0
  -11.6490    7.3220   29.5470 C   0  0  0  0  0
   -4.8599    4.3470   25.7398 H   0  0  0  0  0
   -5.8322    6.8276   24.3625 H   0  0  0  0  0
   -3.3156    5.2845   23.5923 H   0  0  0  0  0
   -6.5445    7.6954   26.5268 H   0  0  0  0  0
   -6.8313    4.9092   24.1561 H   0  0  0  0  0
   -4.3815    7.9238   22.8143 H   0  0  0  0  0
   -2.7822    7.2499   22.4153 H   0  0  0  0  0
   -4.2591    6.4381   21.8402 H   0  0  0  0  0
   -2.1705    6.8158   25.0561 H   0  0  0  0  0
   -1.5029   15.0452   23.9384 H   0  0  0  0  0
    3.7441   13.7154   25.5523 H   0  0  0  0  0
    2.7278   15.3803   24.4294 H   0  0  0  0  0
   -6.1895    1.6265   29.0802 H   0  0  0  0  0
   -4.5863    8.7042   24.8913 H   0  0  0  0  0
   -0.9058   11.0308   25.8952 H   0  0  0  0  0
   -1.6611    8.9211   25.9006 H   0  0  0  0  0
    2.0372   17.5308   24.5498 H   0  0  0  0  0
   -0.9670   15.9184   21.9378 H   0  0  0  0  0
   -9.2055    4.3591   31.2406 H   0  0  0  0  0
    1.6919   11.6767   26.5032 H   0  0  0  0  0
   -0.9315   18.0171   20.6116 H   0  0  0  0  0
    2.0733   19.6326   23.2129 H   0  0  0  0  0
   -3.7496   11.0135   25.0481 H   0  0  0  0  0
   -3.4777   10.8994   26.7744 H   0  0  0  0  0
   -8.8164    6.9517   29.8711 H   0  0  0  0  0
   -9.8669    6.6224   31.2672 H   0  0  0  0  0
  -11.2756    5.2015   29.6026 H   0  0  0  0  0
  -10.3851    6.0700   28.3330 H   0  0  0  0  0
  -11.9931    7.3633   30.5804 H   0  0  0  0  0
  -11.1008    8.2334   29.3085 H   0  0  0  0  0
  -12.5065    7.2273   28.8807 H   0  0  0  0  0
  2  1  1  0  0  0
  1  4  4  0  0  0
  1  9  4  0  0  0
  2  3  1  0  0  0
 10  2  1  0  0  0
  8  3  1  0  0  0
  3 11  1  0  0  0
  4  5  4  0  0  0
  4 19  4  0  0  0
  6  5  4  0  0  0
  5 18  4  0  0  0
  9  6  4  0  0  0
  7 13  4  0  0  0
  7 16  4  0  0  0
 17  7  1  0  0  0
  8 14  1  0  0  0
 15  8  1  0  0  0
 15 10  1  0  0  0
 13 12  4  0  0  0
 12 20  1  0  0  0
 12 23  4  0  0  0
 13 33  1  0  0  0
 26 15  1  0  0  0
 16 21  4  0  0  0
 17 27  2  0  0  0
 28 17  1  0  0  0
 18 22  4  0  0  0
 18 32  1  0  0  0
 19 24  4  0  0  0
 21 23  4  0  0  0
 21 25  1  0  0  0
 24 22  4  0  0  0
 25 30  4  0  0  0
 25 31  4  0  0  0
 29 26  2  0  0  0
 38 28  1  0  0  0
 29 38  1  0  0  0
 30 36  4  0  0  0
 31 35  4  0  0  0
 32 39  1  0  0  0
 35 34  4  0  0  0
 34 36  4  0  0  0
 34 37  1  0  0  0
 39 40  1  0  0  0
 40 41  1  0  0  0
  2 42  1  0  0  0
  3 43  1  0  0  0
  8 44  1  0  0  0
  9 45  1  0  0  0
 11 46  1  0  0  0
 14 47  1  0  0  0
 14 48  1  0  0  0
 14 49  1  0  0  0
 15 50  1  0  0  0
 16 51  1  0  0  0
 20 52  1  0  0  0
 23 53  1  0  0  0
 24 54  1  0  0  0
 26 55  1  0  0  0
 28 56  1  0  0  0
 29 57  1  0  0  0
 30 58  1  0  0  0
 31 59  1  0  0  0
 32 60  1  0  0  0
 33 61  1  0  0  0
 35 62  1  0  0  0
 36 63  1  0  0  0
 38 64  1  0  0  0
 38 65  1  0  0  0
 39 66  1  0  0  0
 39 67  1  0  0  0
 40 68  1  0  0  0
 40 69  1  0  0  0
 41 70  1  0  0  0
 41 71  1  0  0  0
 41 72  1  0  0  0
M  END
$$$$
