4je7_ligand
  -I-interpret- 

 62 62  0  0  0  0  0  0  0  0999 V2000
   10.6310   -7.9090  -15.4270 C   0  0  0  0  0
   11.1860   -9.3360  -15.2060 C   0  0  0  0  0
   12.0860   -9.8360  -15.9160 O   0  0  0  0  0
   10.6010   -9.9840  -14.2000 N   0  0  0  0  0
   10.9730  -11.2680  -13.8680 O   0  0  0  0  0
    9.5180   -7.8200  -16.5150 C   0  0  0  0  0
    9.3570   -6.3460  -16.9640 C   0  0  0  0  0
    8.9970   -5.4850  -16.1580 O   0  0  0  0  0
    8.1560   -8.3980  -16.0340 C   0  0  0  0  0
    7.1640   -8.5060  -17.2160 C   0  0  0  0  0
    5.9690   -9.3860  -16.8950 C   0  0  0  0  0
    5.2200   -9.8470  -18.1860 C   0  0  0  0  0
    4.7870   -8.6430  -19.0230 C   0  0  0  0  0
    9.6640   -6.0480  -18.2370 N   0  0  0  0  0
    9.5920   -4.6730  -18.7200 C   0  0  0  0  0
   10.2220   -4.5270  -20.1040 C   0  0  0  0  0
   11.3180   -5.5360  -20.4040 C   0  0  0  0  0
    9.1910   -4.5110  -21.2000 C   0  0  0  0  0
    8.1230   -4.1400  -18.6870 C   0  0  0  0  0
    7.2270   -4.9630  -18.9960 O   0  0  0  0  0
    7.8970   -2.8010  -18.3290 N   0  0  0  0  0
    6.5850   -2.1060  -18.2280 C   0  0  0  0  0
    8.9730   -1.8330  -17.9750 C   0  0  0  0  0
    8.3180   -0.5940  -17.3520 C   0  0  0  0  0
    6.8200   -0.7320  -17.5390 C   0  0  0  0  0
    5.9650   -1.8520  -19.6110 C   0  0  0  0  0
    6.8780   -1.0620  -20.4310 O   0  0  0  0  0
   11.4615   -7.2887  -15.7639 H   0  0  0  0  0
   10.1876   -7.5861  -14.4851 H   0  0  0  0  0
    9.8650   -9.5215  -13.6664 H   0  0  0  0  0
   10.4469  -11.5701  -13.1240 H   0  0  0  0  0
    9.8303   -8.4351  -17.3589 H   0  0  0  0  0
    7.7361   -7.7327  -15.2796 H   0  0  0  0  0
    8.3207   -9.3922  -15.6185 H   0  0  0  0  0
    7.6927   -8.9517  -18.0586 H   0  0  0  0  0
    6.7942   -7.5047  -17.4367 H   0  0  0  0  0
    5.2741   -8.8089  -16.2849 H   0  0  0  0  0
    6.3286  -10.2732  -16.3738 H   0  0  0  0  0
    4.3329  -10.4097  -17.8952 H   0  0  0  0  0
    5.8931  -10.4643  -18.7809 H   0  0  0  0  0
    4.1188   -8.0143  -18.4344 H   0  0  0  0  0
    5.6667   -8.0685  -19.3131 H   0  0  0  0  0
    4.2678   -8.9908  -19.9161 H   0  0  0  0  0
    9.9508   -6.7915  -18.8736 H   0  0  0  0  0
   10.1779   -4.0532  -18.0413 H   0  0  0  0  0
   10.7113   -3.5533  -20.0783 H   0  0  0  0  0
   12.1209   -5.4259  -19.6751 H   0  0  0  0  0
   10.9079   -6.5442  -20.3452 H   0  0  0  0  0
   11.7085   -5.3591  -21.4061 H   0  0  0  0  0
    8.6277   -5.4439  -21.1808 H   0  0  0  0  0
    8.5123   -3.6720  -21.0464 H   0  0  0  0  0
    9.6889   -4.4055  -22.1639 H   0  0  0  0  0
    5.9024   -2.7371  -17.6589 H   0  0  0  0  0
    9.5324   -1.5521  -18.8673 H   0  0  0  0  0
    9.6662   -2.2863  -17.2665 H   0  0  0  0  0
    8.6815    0.3137  -17.8337 H   0  0  0  0  0
    8.5661   -0.5219  -16.2931 H   0  0  0  0  0
    6.3012   -0.6820  -16.5817 H   0  0  0  0  0
    6.4264    0.0819  -18.1478 H   0  0  0  0  0
    5.0294   -1.3062  -19.4894 H   0  0  0  0  0
    5.7790   -2.8076  -20.1012 H   0  0  0  0  0
    6.4820   -0.9089  -21.2920 H   0  0  0  0  0
  1  2  1  0  0  0
  1  6  1  0  0  0
  2  3  2  0  0  0
  2  4  1  0  0  0
  4  5  1  0  0  0
  6  7  1  0  0  0
  6  9  1  0  0  0
  7  8  2  0  0  0
  7 14  1  0  0  0
  9 10  1  0  0  0
 10 11  1  0  0  0
 11 12  1  0  0  0
 12 13  1  0  0  0
 14 15  1  0  0  0
 15 16  1  0  0  0
 15 19  1  0  0  0
 16 17  1  0  0  0
 16 18  1  0  0  0
 19 20  2  0  0  0
 19 21  1  0  0  0
 21 22  1  0  0  0
 21 23  1  0  0  0
 22 25  1  0  0  0
 22 26  1  0  0  0
 23 24  1  0  0  0
 24 25  1  0  0  0
 26 27  1  0  0  0
  1 28  1  0  0  0
  1 29  1  0  0  0
  4 30  1  0  0  0
  5 31  1  0  0  0
  6 32  1  0  0  0
  9 33  1  0  0  0
  9 34  1  0  0  0
 10 35  1  0  0  0
 10 36  1  0  0  0
 11 37  1  0  0  0
 11 38  1  0  0  0
 12 39  1  0  0  0
 12 40  1  0  0  0
 13 41  1  0  0  0
 13 42  1  0  0  0
 13 43  1  0  0  0
 14 44  1  0  0  0
 15 45  1  0  0  0
 16 46  1  0  0  0
 17 47  1  0  0  0
 17 48  1  0  0  0
 17 49  1  0  0  0
 18 50  1  0  0  0
 18 51  1  0  0  0
 18 52  1  0  0  0
 22 53  1  0  0  0
 23 54  1  0  0  0
 23 55  1  0  0  0
 24 56  1  0  0  0
 24 57  1  0  0  0
 25 58  1  0  0  0
 25 59  1  0  0  0
 26 60  1  0  0  0
 26 61  1  0  0  0
 27 62  1  0  0  0
M  END
$$$$
