6f9r_ligand
  -I-interpret- 

 71 72  0  0  0  0  0  0  0  0999 V2000
    1.1800   13.9720   26.3450 C   0  0  0  0  0
    1.6530   13.9860   24.9610 N   0  0  0  0  0
    2.0900   15.2390   24.3730 C   0  0  0  0  0
    1.6670   17.0600   22.7920 C   0  0  0  0  0
    1.7380   19.0630   21.2650 C   0  0  0  0  0
   -0.3640   18.0660   21.9200 C   0  0  0  0  0
    1.0680   16.8860   20.3000 C   0  0  0  0  0
    0.0850   16.3550   18.0600 C   0  0  0  0  0
   -2.1340   17.6220   17.6570 C   0  0  0  0  0
   -3.8870   18.5350   18.9950 C   0  0  0  0  0
    3.5200   12.2950   29.7370 C   0  0  0  0  0
    2.8250   12.3770   28.3750 C   0  0  0  0  0
    0.7130   12.6950   27.0430 C   0  0  0  0  0
   -0.7950   12.7860   27.2900 C   0  0  0  0  0
   -1.3640   11.5030   27.8830 C   0  0  0  0  0
    1.2070   15.6550   23.1840 C   0  0  0  0  0
    0.9390   17.6940   21.6040 C   0  0  0  0  0
    0.6640   20.2090   21.4110 C   0  0  0  0  0
   -0.5860   19.5980   21.2990 C   0  0  0  0  0
   -1.2310   16.4370   17.2930 C   0  0  0  0  0
   -3.0660   17.4730   18.6590 C   0  0  0  0  0
   -3.7840   19.7420   18.3240 C   0  0  0  0  0
   -2.8500   19.8970   17.3060 C   0  0  0  0  0
   -2.0170   18.8310   16.9790 C   0  0  0  0  0
    1.1770   17.0880   17.3010 C   0  0  0  0  0
   -0.2700   15.6420   23.5810 C   0  0  0  0  0
    1.3920   12.6020   28.3200 N   0  0  0  0  0
    0.0150   17.0140   19.3510 N   0  0  0  0  0
    3.4420   12.2550   27.3690 O   0  0  0  0  0
   -2.0830   11.5550   28.9190 O   0  0  0  0  0
   -1.1110   10.4010   27.3300 O   0  0  0  0  0
    1.1380   14.9810   26.9560 O   0  0  0  0  0
    2.0420   16.2180   20.0850 O   0  0  0  0  0
   -4.6440   20.7900   18.6940 O   0  0  0  0  0
    1.4810   18.2790   17.6150 O   0  0  0  0  0
    1.7780   16.5070   16.3610 O   0  0  0  0  0
   -0.7110   16.3140   24.5580 O   0  0  0  0  0
   -1.0950   14.9470   22.9370 O   0  0  0  0  0
    1.6755   13.1247   24.4151 H   0  0  0  0  0
    3.1101   15.1090   24.0115 H   0  0  0  0  0
    2.0238   16.0152   25.1354 H   0  0  0  0  0
    2.7130   16.9702   22.4989 H   0  0  0  0  0
    1.4672   17.6997   23.6516 H   0  0  0  0  0
    2.1717   19.0407   20.2653 H   0  0  0  0  0
    2.5837   19.2140   21.9359 H   0  0  0  0  0
   -0.5208   18.0566   22.9986 H   0  0  0  0  0
   -1.0828   17.3656   21.4948 H   0  0  0  0  0
    0.2909   15.2915   18.1813 H   0  0  0  0  0
   -4.6200   18.4207   19.7936 H   0  0  0  0  0
    3.9931   11.3188   29.8439 H   0  0  0  0  0
    4.2769   13.0764   29.8049 H   0  0  0  0  0
    2.7830   12.4316   30.5284 H   0  0  0  0  0
    0.9346   11.8228   26.4280 H   0  0  0  0  0
   -1.2841   12.9609   26.3317 H   0  0  0  0  0
   -0.9726   13.5938   27.9999 H   0  0  0  0  0
    1.3051   14.9646   22.3463 H   0  0  0  0  0
    0.7972   20.9688   20.6409 H   0  0  0  0  0
    0.7648   20.7182   22.3695 H   0  0  0  0  0
   -1.3577   20.1478   21.8378 H   0  0  0  0  0
   -0.9355   19.5722   20.2669 H   0  0  0  0  0
   -1.7900   15.5339   17.5379 H   0  0  0  0  0
   -0.9706   16.5565   16.2413 H   0  0  0  0  0
   -3.1569   16.5228   19.1853 H   0  0  0  0  0
   -2.7709   20.8428   16.7699 H   0  0  0  0  0
   -1.2724   18.9436   16.1910 H   0  0  0  0  0
    0.8598   12.6952   29.1852 H   0  0  0  0  0
   -0.8025   17.5784   19.5822 H   0  0  0  0  0
   -2.1696   12.4684   29.2015 H   0  0  0  0  0
   -4.4618   21.5593   18.1494 H   0  0  0  0  0
    0.9299   18.5665   18.3466 H   0  0  0  0  0
    0.0117   16.7981   24.9642 H   0  0  0  0  0
  1  2  1  0  0  0
 13  1  1  0  0  0
  1 32  2  0  0  0
  2  3  1  0  0  0
  3 16  1  0  0  0
 16  4  1  0  0  0
  4 17  1  0  0  0
 17  5  1  0  0  0
  5 18  1  0  0  0
 17  6  1  0  0  0
  6 19  1  0  0  0
 17  7  1  0  0  0
  7 28  1  0  0  0
  7 33  2  0  0  0
  8 20  1  0  0  0
  8 25  1  0  0  0
 28  8  1  0  0  0
 20  9  1  0  0  0
  9 21  4  0  0  0
  9 24  4  0  0  0
 21 10  4  0  0  0
 10 22  4  0  0  0
 12 11  1  0  0  0
 27 12  1  0  0  0
 12 29  2  0  0  0
 13 14  1  0  0  0
 13 27  1  0  0  0
 14 15  1  0  0  0
 15 30  1  0  0  0
 15 31  2  0  0  0
 16 26  1  0  0  0
 18 19  1  0  0  0
 22 23  4  0  0  0
 22 34  1  0  0  0
 23 24  4  0  0  0
 25 35  1  0  0  0
 25 36  2  0  0  0
 26 37  1  0  0  0
 26 38  2  0  0  0
  2 39  1  0  0  0
  3 40  1  0  0  0
  3 41  1  0  0  0
  4 42  1  0  0  0
  4 43  1  0  0  0
  5 44  1  0  0  0
  5 45  1  0  0  0
  6 46  1  0  0  0
  6 47  1  0  0  0
  8 48  1  0  0  0
 10 49  1  0  0  0
 11 50  1  0  0  0
 11 51  1  0  0  0
 11 52  1  0  0  0
 13 53  1  0  0  0
 14 54  1  0  0  0
 14 55  1  0  0  0
 16 56  1  0  0  0
 18 57  1  0  0  0
 18 58  1  0  0  0
 19 59  1  0  0  0
 19 60  1  0  0  0
 20 61  1  0  0  0
 20 62  1  0  0  0
 21 63  1  0  0  0
 23 64  1  0  0  0
 24 65  1  0  0  0
 27 66  1  0  0  0
 28 67  1  0  0  0
 30 68  1  0  0  0
 34 69  1  0  0  0
 35 70  1  0  0  0
 37 71  1  0  0  0
M  END
$$$$
