2va5_ligand
  -I-interpret- 

 32 34  0  0  0  0  0  0  0  0999 V2000
   66.8150   49.0860    5.6170 N   0  0  0  0  0
   67.6180   48.9380    6.6930 C   0  0  0  0  0
   68.1700   47.7090    8.5350 C   0  0  0  0  0
   69.1850   48.6060    8.8140 C   0  0  0  0  0
   69.3650   49.6820    7.9650 C   0  0  0  0  0
   70.4490   50.6960    8.2230 C   0  0  0  0  0
   71.3950   50.8690    7.0530 C   0  0  0  0  0
   72.2010   49.6380    6.7190 C   0  0  0  0  0
   73.1700   49.1700    7.6010 C   0  0  0  0  0
   73.9390   48.0610    7.2970 C   0  0  0  0  0
   73.7530   47.4270    6.0760 C   0  0  0  0  0
   74.3400   46.3100    5.4600 C   0  0  0  0  0
   73.7310   46.1380    4.2190 C   0  0  0  0  0
   72.8110   47.1010    4.0620 N   0  0  0  0  0
   72.8030   47.9030    5.1820 C   0  0  0  0  0
   72.0260   49.0090    5.4910 C   0  0  0  0  0
   68.5780   49.8700    6.8950 N   0  0  0  0  0
   67.3780   47.8660    7.4680 N   0  0  0  0  0
   67.9590   46.6400    9.3490 O   0  0  0  0  0
   66.9438   49.8801    4.9899 H   0  0  0  0  0
   66.0798   48.4037    5.4316 H   0  0  0  0  0
   69.8281   48.4678    9.6831 H   0  0  0  0  0
   71.0349   50.3443    9.0722 H   0  0  0  0  0
   69.9665   51.6568    8.4025 H   0  0  0  0  0
   72.1029   51.6516    7.3259 H   0  0  0  0  0
   70.7856   51.1002    6.1793 H   0  0  0  0  0
   73.3259   49.6863    8.5482 H   0  0  0  0  0
   74.6799   47.6905    8.0055 H   0  0  0  0  0
   75.1314   45.6881    5.8784 H   0  0  0  0  0
   73.9628   45.3540    3.4981 H   0  0  0  0  0
   71.2875   49.3807    4.7806 H   0  0  0  0  0
   66.6304   47.2061    7.2536 H   0  0  0  0  0
  2  1  1  0  0  0
  2 17  2  0  0  0
 18  2  1  0  0  0
  3  4  1  0  0  0
  3 18  1  0  0  0
  3 19  2  0  0  0
  4  5  2  0  0  0
  5  6  1  0  0  0
  5 17  1  0  0  0
  6  7  1  0  0  0
  7  8  1  0  0  0
  8  9  4  0  0  0
  8 16  4  0  0  0
  9 10  4  0  0  0
 10 11  4  0  0  0
 11 12  4  0  0  0
 11 15  4  0  0  0
 12 13  4  0  0  0
 13 14  4  0  0  0
 14 15  4  0  0  0
 15 16  4  0  0  0
  1 20  1  0  0  0
  1 21  1  0  0  0
  4 22  1  0  0  0
  6 23  1  0  0  0
  6 24  1  0  0  0
  7 25  1  0  0  0
  7 26  1  0  0  0
  9 27  1  0  0  0
 10 28  1  0  0  0
 12 29  1  0  0  0
 13 30  1  0  0  0
 16 31  1  0  0  0
 18 32  1  0  0  0
M  END
$$$$
