2wmx_ligand
  -I-interpret- 

 42 45  0  0  0  0  0  0  0  0999 V2000
   19.9780   -2.2090   10.8430 C   0  0  0  0  0
   21.2690   -2.7100   10.8810 C   0  0  0  0  0
   21.9790   -2.8640    9.7050 C   0  0  0  0  0
   21.3910   -2.5160    8.5010 C   0  0  0  0  0
   20.0970   -2.0170    8.4680 C   0  0  0  0  0
   19.3760   -1.8780    9.6400 C   0  0  0  0  0
   18.0950   -1.3500    9.6320 C   0  0  0  0  0
   17.9290   -0.1020    9.0570 C   0  0  0  0  0
   16.7570    0.4920    9.0170 N   0  0  0  0  0
   15.6760   -0.0870    9.5460 C   0  0  0  0  0
   14.4120    0.3090    9.6520 N   0  0  0  0  0
   13.7710   -0.5810   10.2160 N   0  0  0  0  0
   14.5530   -1.6060   10.5490 C   0  0  0  0  0
   15.7770   -1.3280   10.1390 C   0  0  0  0  0
   17.0030   -1.9870   10.2000 C   0  0  0  0  0
   17.1190   -3.2500   10.8070 N   0  0  0  0  0
   18.3410   -3.6730   11.5190 C   0  0  0  0  0
   15.9880   -4.1890   10.7750 C   0  0  0  0  0
   15.8580   -4.9280   12.1060 C   0  0  0  0  0
   17.1270   -5.4460   12.4770 O   0  0  0  0  0
   17.9560   -4.3620   12.8350 C   0  0  0  0  0
   19.1350   -4.9600   13.6220 C   0  0  0  0  0
   19.8180   -3.9430   14.4380 N   0  3  0  0  0
   19.4274   -2.0732   11.7739 H   0  0  0  0  0
   21.7229   -2.9816   11.8340 H   0  0  0  0  0
   22.9955   -3.2570    9.7255 H   0  0  0  0  0
   21.9488   -2.6349    7.5721 H   0  0  0  0  0
   19.6475   -1.7338    7.5162 H   0  0  0  0  0
   18.7938    0.4021    8.6255 H   0  0  0  0  0
   14.2390   -2.5121   11.0672 H   0  0  0  0  0
   18.9565   -2.7994   11.7336 H   0  0  0  0  0
   18.9013   -4.3696   10.8954 H   0  0  0  0  0
   16.1593   -4.9185    9.9834 H   0  0  0  0  0
   15.0710   -3.6284   10.5934 H   0  0  0  0  0
   15.1446   -5.7456   12.0028 H   0  0  0  0  0
   15.5045   -4.2399   12.8739 H   0  0  0  0  0
   17.4980   -3.6073   13.4744 H   0  0  0  0  0
   19.8525   -5.3663   12.9090 H   0  0  0  0  0
   18.7471   -5.7305   14.2883 H   0  0  0  0  0
   20.5909   -4.3768   14.9429 H   0  0  0  0  0
   20.1777   -3.2068   13.8305 H   0  0  0  0  0
   19.1570   -3.5432   15.1041 H   0  0  0  0  0
  1  2  4  0  0  0
  1  6  4  0  0  0
  2  3  4  0  0  0
  3  4  4  0  0  0
  4  5  4  0  0  0
  5  6  4  0  0  0
  6  7  1  0  0  0
  7  8  4  0  0  0
  7 15  4  0  0  0
  8  9  4  0  0  0
  9 10  4  0  0  0
 10 11  4  0  0  0
 10 14  4  0  0  0
 11 12  4  0  0  0
 12 13  4  0  0  0
 13 14  4  0  0  0
 14 15  4  0  0  0
 15 16  1  0  0  0
 16 17  1  0  0  0
 16 18  1  0  0  0
 17 21  1  0  0  0
 18 19  1  0  0  0
 19 20  1  0  0  0
 20 21  1  0  0  0
 21 22  1  0  0  0
 22 23  1  0  0  0
  1 24  1  0  0  0
  2 25  1  0  0  0
  3 26  1  0  0  0
  4 27  1  0  0  0
  5 28  1  0  0  0
  8 29  1  0  0  0
 13 30  1  0  0  0
 17 31  1  0  0  0
 17 32  1  0  0  0
 18 33  1  0  0  0
 18 34  1  0  0  0
 19 35  1  0  0  0
 19 36  1  0  0  0
 21 37  1  0  0  0
 22 38  1  0  0  0
 22 39  1  0  0  0
 23 40  1  0  0  0
 23 41  1  0  0  0
 23 42  1  0  0  0
M  END
$$$$
