3d8y_ligand
  -I-interpret- 

 46 48  0  0  0  0  0  0  0  0999 V2000
   42.2270   -1.7160   14.7530 C   0  0  0  0  0
   43.1250   -2.8800   15.2050 C   0  0  0  0  0
   42.6620   -4.2360   14.6330 C   0  0  0  0  0
   41.9140   -4.1070   13.2930 C   0  0  0  0  0
   40.7510   -3.0930   13.3500 C   0  0  0  0  0
   40.8450   -2.1940   14.5310 N   0  3  0  0  0
   39.8820   -1.0510   14.5420 C   0  0  0  0  0
   39.4700   -0.4660   13.1450 C   0  0  0  0  0
   38.7200   -1.3620   12.2590 O   0  0  0  0  0
   38.5110    0.6850   13.4210 C   0  0  0  0  0
   38.5910    1.6270   12.3400 O   0  0  0  0  0
   37.1380    0.0070   13.3960 C   0  0  0  0  0
   37.3150   -0.9370   12.2130 C   0  0  0  0  0
   36.4730   -2.1580   12.2900 N   0  0  0  0  0
   36.8630   -3.2190   13.1310 C   0  0  0  0  0
   36.0960   -4.3810   13.2120 C   0  0  0  0  0
   36.5530   -5.5170   14.1380 C   0  0  0  0  0
   34.9300   -4.4880   12.4450 C   0  0  0  0  0
   34.2250   -5.4980   12.4940 O   0  0  0  0  0
   34.5370   -3.4370   11.6020 N   0  0  0  0  0
   35.3000   -2.2630   11.5130 C   0  0  0  0  0
   34.9280   -1.3460   10.7770 O   0  0  0  0  0
   42.6167   -1.3055   13.8215 H   0  0  0  0  0
   42.2194   -0.9494   15.5278 H   0  0  0  0  0
   43.0789   -2.9391   16.2924 H   0  0  0  0  0
   44.1347   -2.6878   14.8420 H   0  0  0  0  0
   41.9748   -4.6804   15.3530 H   0  0  0  0  0
   43.5515   -4.8409   14.4573 H   0  0  0  0  0
   41.4934   -5.0830   13.0509 H   0  0  0  0  0
   42.6262   -3.7555   12.5464 H   0  0  0  0  0
   39.8179   -3.6517   13.4231 H   0  0  0  0  0
   40.7942   -2.4774   12.4515 H   0  0  0  0  0
   40.5665   -2.7874   15.3125 H   0  0  0  0  0
   40.3826   -0.2407   15.0719 H   0  0  0  0  0
   38.9652   -1.4340   14.9902 H   0  0  0  0  0
   40.4081   -0.2223   12.6463 H   0  0  0  0  0
   38.7177    1.2155   14.3505 H   0  0  0  0  0
   37.9889    2.3558   12.5070 H   0  0  0  0  0
   36.3017    0.6984   13.2928 H   0  0  0  0  0
   36.8705   -0.4917   14.3276 H   0  0  0  0  0
   37.0247   -0.4150   11.3012 H   0  0  0  0  0
   37.7732   -3.1308   13.7242 H   0  0  0  0  0
   37.5389   -5.8628   13.8274 H   0  0  0  0  0
   36.6014   -5.1509   15.1635 H   0  0  0  0  0
   35.8420   -6.3410   14.0782 H   0  0  0  0  0
   33.6860   -3.5278   11.0471 H   0  0  0  0  0
  1  2  1  0  0  0
  1  6  1  0  0  0
  2  3  1  0  0  0
  3  4  1  0  0  0
  4  5  1  0  0  0
  5  6  1  0  0  0
  6  7  1  0  0  0
  7  8  1  0  0  0
  8  9  1  0  0  0
  8 10  1  0  0  0
  9 13  1  0  0  0
 10 11  1  0  0  0
 10 12  1  0  0  0
 12 13  1  0  0  0
 13 14  1  0  0  0
 14 15  1  0  0  0
 14 21  1  0  0  0
 15 16  2  0  0  0
 16 17  1  0  0  0
 16 18  1  0  0  0
 18 19  2  0  0  0
 18 20  1  0  0  0
 20 21  1  0  0  0
 21 22  2  0  0  0
  1 23  1  0  0  0
  1 24  1  0  0  0
  2 25  1  0  0  0
  2 26  1  0  0  0
  3 27  1  0  0  0
  3 28  1  0  0  0
  4 29  1  0  0  0
  4 30  1  0  0  0
  5 31  1  0  0  0
  5 32  1  0  0  0
  6 33  1  0  0  0
  7 34  1  0  0  0
  7 35  1  0  0  0
  8 36  1  0  0  0
 10 37  1  0  0  0
 11 38  1  0  0  0
 12 39  1  0  0  0
 12 40  1  0  0  0
 13 41  1  0  0  0
 15 42  1  0  0  0
 17 43  1  0  0  0
 17 44  1  0  0  0
 17 45  1  0  0  0
 20 46  1  0  0  0
M  END
$$$$
