6olx_ligand
  -I-interpret- 

 52 54  0  0  0  0  0  0  0  0999 V2000
    0.7520   10.2880   25.5870 C   0  0  0  0  0
   -0.0510   10.9970   24.7570 C   0  0  0  0  0
   -1.3650   11.1490   25.0990 C   0  0  0  0  0
    1.9410   10.9360   23.9270 C   0  0  0  0  0
   -1.8120   10.6230   26.2440 N   0  0  0  0  0
    0.3380    9.7320   26.7440 N   0  0  0  0  0
    4.9320    6.6070   23.6520 C   0  0  0  0  0
    4.7150    7.9420   24.3620 C   0  0  0  0  0
    3.3300    8.2030   24.9330 C   0  0  0  0  0
    3.1590    9.5530   25.6570 C   0  0  0  0  0
    1.9760   10.2420   25.0540 N   0  0  0  0  0
   -0.9870    9.9150   27.1010 C   0  0  0  0  0
   -2.2080   11.8160   24.3020 N   0  0  0  0  0
    0.7060   11.3990   23.7100 N   0  0  0  0  0
    3.1420   11.1430   22.9870 C   0  0  0  0  0
    4.2870   11.7800   23.6060 C   0  0  0  0  0
    5.5560   11.2490   23.3520 C   0  0  0  0  0
    4.1700   12.9100   24.4350 C   0  0  0  0  0
    5.3090   13.4970   24.9970 C   0  0  0  0  0
    5.2800   14.5920   25.8270 O   0  0  0  0  0
    4.0770   15.3450   25.7950 C   0  0  0  0  0
    6.5590   12.9530   24.7150 C   0  0  0  0  0
    7.7320   13.4590   25.2550 O   0  0  0  0  0
    8.0180   14.8200   24.9360 C   0  0  0  0  0
    6.6840   11.8420   23.9160 C   0  0  0  0  0
    7.9740   11.4000   23.7170 O   0  0  0  0  0
    8.0950   10.3480   22.7450 C   0  0  0  0  0
    4.7434    5.7910   24.3497 H   0  0  0  0  0
    4.2470    6.5305   22.8076 H   0  0  0  0  0
    5.9599    6.5503   23.2939 H   0  0  0  0  0
    4.8749    8.7107   23.6059 H   0  0  0  0  0
    5.3930    7.9389   25.2154 H   0  0  0  0  0
    3.1470    7.4258   25.6750 H   0  0  0  0  0
    2.6411    8.2126   24.0883 H   0  0  0  0  0
    4.0547   10.1632   25.5409 H   0  0  0  0  0
    3.0043    9.3954   26.7244 H   0  0  0  0  0
   -1.3724    9.5103   28.0368 H   0  0  0  0  0
   -1.8720   12.2184   23.4270 H   0  0  0  0  0
   -3.1866   11.9220   24.5695 H   0  0  0  0  0
    2.8083   11.7988   22.1828 H   0  0  0  0  0
    3.4650   10.1547   22.6599 H   0  0  0  0  0
    5.6625   10.3721   22.7134 H   0  0  0  0  0
    3.1860   13.3311   24.6410 H   0  0  0  0  0
    3.9096   15.7172   24.7843 H   0  0  0  0  0
    3.2434   14.7085   26.0918 H   0  0  0  0  0
    4.1575   16.1854   26.4844 H   0  0  0  0  0
    8.1048   14.9279   23.8548 H   0  0  0  0  0
    7.2112   15.4549   25.3022 H   0  0  0  0  0
    8.9556   15.1132   25.4082 H   0  0  0  0  0
    7.5085    9.4878   23.0676 H   0  0  0  0  0
    7.7257   10.7006   21.7820 H   0  0  0  0  0
    9.1422   10.0607   22.6509 H   0  0  0  0  0
  1  2  4  0  0  0
  1  6  4  0  0  0
 11  1  4  0  0  0
  2  3  4  0  0  0
 14  2  4  0  0  0
  3  5  4  0  0  0
  3 13  1  0  0  0
 11  4  4  0  0  0
  4 14  4  0  0  0
  4 15  1  0  0  0
 12  5  4  0  0  0
  6 12  4  0  0  0
  8  7  1  0  0  0
  9  8  1  0  0  0
 10  9  1  0  0  0
 10 11  1  0  0  0
 15 16  1  0  0  0
 16 17  4  0  0  0
 16 18  4  0  0  0
 17 25  4  0  0  0
 18 19  4  0  0  0
 19 20  1  0  0  0
 19 22  4  0  0  0
 20 21  1  0  0  0
 22 23  1  0  0  0
 22 25  4  0  0  0
 23 24  1  0  0  0
 25 26  1  0  0  0
 26 27  1  0  0  0
  7 28  1  0  0  0
  7 29  1  0  0  0
  7 30  1  0  0  0
  8 31  1  0  0  0
  8 32  1  0  0  0
  9 33  1  0  0  0
  9 34  1  0  0  0
 10 35  1  0  0  0
 10 36  1  0  0  0
 12 37  1  0  0  0
 13 38  1  0  0  0
 13 39  1  0  0  0
 15 40  1  0  0  0
 15 41  1  0  0  0
 17 42  1  0  0  0
 18 43  1  0  0  0
 21 44  1  0  0  0
 21 45  1  0  0  0
 21 46  1  0  0  0
 24 47  1  0  0  0
 24 48  1  0  0  0
 24 49  1  0  0  0
 27 50  1  0  0  0
 27 51  1  0  0  0
 27 52  1  0  0  0
M  END
$$$$
