3nin_ligand
  -I-interpret- 

 69 68  0  0  0  0  0  0  0  0999 V2000
    8.1240  -14.6900    4.2010 N   0  3  0  0  0
    9.0540  -14.3080    5.2980 C   0  0  0  0  0
    9.3350  -15.4900    6.2100 C   0  0  0  0  0
    8.5820  -16.4660    6.2220 O   0  0  0  0  0
    8.4940  -13.1540    6.1410 C   0  0  0  0  0
    8.0290  -11.9360    5.3680 C   0  0  0  0  0
    9.1230  -11.3310    4.4960 C   0  0  0  0  0
    8.7930   -9.9580    4.1170 N   0  0  0  0  0
    7.9520   -9.6140    3.1430 C   0  0  0  0  0
    7.3310  -10.5410    2.4190 N   0  0  0  0  0
    7.7290   -8.3280    2.8980 N   0  0  0  0  0
   10.4280  -15.3910    6.9650 N   0  0  0  0  0
   10.7520  -16.3710    7.9950 C   0  0  0  0  0
   10.7630  -15.7050    9.3680 C   0  0  0  0  0
   11.3150  -14.6140    9.5300 O   0  0  0  0  0
   12.1030  -17.0310    7.7120 C   0  0  0  0  0
   12.3810  -18.3530    8.4260 C   0  0  0  0  0
   11.7050  -19.5230    7.7150 C   0  0  0  0  0
   13.8820  -18.5790    8.5290 C   0  0  0  0  0
   10.1470  -16.3640   10.3480 N   0  0  0  0  0
   10.0930  -15.8430   11.7180 C   0  0  0  0  0
    9.8210  -16.9000   12.7720 C   0  0  0  0  0
   10.1570  -18.0760   12.5830 O   0  0  0  0  0
    9.2200  -16.4590   13.8830 N   0  0  0  0  0
    8.7420  -17.3230   14.9810 C   0  0  0  0  0
    9.9010  -17.9230   15.7790 C   0  0  0  0  0
   11.0448  -18.0454   15.2648 O   0  0  0  0  0
    7.7650  -18.4070   14.4660 C   0  0  0  0  0
    7.0300  -19.2350   15.5410 C   0  0  0  0  0
    7.5810  -20.6500   15.6960 C   0  0  0  0  0
    7.8370  -21.3140   14.6660 O   0  0  0  0  0
    7.7430  -21.1080   16.8520 O   0  0  0  0  0
    9.7094  -18.2997   16.9660 O   0  0  0  0  0
    8.5294  -15.4572    3.6649 H   0  0  0  0  0
    7.2330  -14.9859    4.5998 H   0  0  0  0  0
    7.9743  -13.8878    3.5890 H   0  0  0  0  0
    9.9798  -13.9825    4.8237 H   0  0  0  0  0
    9.3088  -12.8183    6.7824 H   0  0  0  0  0
    7.6159  -13.5461    6.6541 H   0  0  0  0  0
    7.7247  -11.1797    6.0915 H   0  0  0  0  0
    7.2166  -12.2490    4.7122 H   0  0  0  0  0
    9.2190  -11.9299    3.5904 H   0  0  0  0  0
   10.0553  -11.3230    5.0606 H   0  0  0  0  0
    9.2416   -9.2052    4.6389 H   0  0  0  0  0
    6.6864  -10.2630    1.6790 H   0  0  0  0  0
    7.4994  -11.5299    2.6038 H   0  0  0  0  0
    8.2000   -7.6139    3.4535 H   0  0  0  0  0
   11.0593  -14.6035    6.8177 H   0  0  0  0  0
    9.9865  -17.1469    7.9854 H   0  0  0  0  0
   12.8600  -16.3319    8.0673 H   0  0  0  0  0
   12.1101  -17.2573    6.6458 H   0  0  0  0  0
   11.9610  -18.2954    9.4302 H   0  0  0  0  0
   10.6274  -19.3603    7.6942 H   0  0  0  0  0
   12.0828  -19.5939    6.6950 H   0  0  0  0  0
   11.9240  -20.4471    8.2500 H   0  0  0  0  0
   14.3126  -18.6122    7.5282 H   0  0  0  0  0
   14.3332  -17.7627    9.0931 H   0  0  0  0  0
   14.0718  -19.5234    9.0392 H   0  0  0  0  0
    9.6999  -17.2568   10.1397 H   0  0  0  0  0
    9.2716  -15.1276   11.7590 H   0  0  0  0  0
   11.0696  -15.4119   11.9380 H   0  0  0  0  0
    9.0820  -15.4529   13.9785 H   0  0  0  0  0
    8.1822  -16.6916   15.6710 H   0  0  0  0  0
   11.0263  -17.7152   14.3636 H   0  0  0  0  0
    8.3699  -19.1152   13.8997 H   0  0  0  0  0
    6.9911  -17.8775   13.9103 H   0  0  0  0  0
    5.9872  -19.3196   15.2352 H   0  0  0  0  0
    7.1602  -18.7248   16.4954 H   0  0  0  0  0
    7.4898  -20.4433   17.4967 H   0  0  0  0  0
  1  2  1  0  0  0
  2  3  1  0  0  0
  2  5  1  0  0  0
  3  4  2  0  0  0
  3 12  1  0  0  0
  5  6  1  0  0  0
  6  7  1  0  0  0
  7  8  1  0  0  0
  8  9  1  0  0  0
  9 10  1  0  0  0
  9 11  2  0  0  0
 12 13  1  0  0  0
 13 14  1  0  0  0
 13 16  1  0  0  0
 14 15  2  0  0  0
 14 20  1  0  0  0
 16 17  1  0  0  0
 17 18  1  0  0  0
 17 19  1  0  0  0
 20 21  1  0  0  0
 21 22  1  0  0  0
 22 23  2  0  0  0
 22 24  1  0  0  0
 24 25  1  0  0  0
 25 26  1  0  0  0
 25 28  1  0  0  0
 26 27  1  0  0  0
 28 29  1  0  0  0
 29 30  1  0  0  0
 30 31  2  0  0  0
 30 32  1  0  0  0
 26 33  2  0  0  0
  1 34  1  0  0  0
  1 35  1  0  0  0
  1 36  1  0  0  0
  2 37  1  0  0  0
  5 38  1  0  0  0
  5 39  1  0  0  0
  6 40  1  0  0  0
  6 41  1  0  0  0
  7 42  1  0  0  0
  7 43  1  0  0  0
  8 44  1  0  0  0
 10 45  1  0  0  0
 10 46  1  0  0  0
 11 47  1  0  0  0
 12 48  1  0  0  0
 13 49  1  0  0  0
 16 50  1  0  0  0
 16 51  1  0  0  0
 17 52  1  0  0  0
 18 53  1  0  0  0
 18 54  1  0  0  0
 18 55  1  0  0  0
 19 56  1  0  0  0
 19 57  1  0  0  0
 19 58  1  0  0  0
 20 59  1  0  0  0
 21 60  1  0  0  0
 21 61  1  0  0  0
 24 62  1  0  0  0
 25 63  1  0  0  0
 27 64  1  0  0  0
 28 65  1  0  0  0
 28 66  1  0  0  0
 29 67  1  0  0  0
 29 68  1  0  0  0
 32 69  1  0  0  0
M  END
$$$$
