3old_ligand
  -I-interpret- 

130135  0  0  0  0  0  0  0  0999 V2000
   15.8690  -19.1300  -28.5520 C   0  0  0  0  0
   15.4630  -19.1880  -30.0120 C   0  0  0  0  0
   14.8560  -20.5520  -30.3360 C   0  0  0  0  0
   15.7780  -21.6670  -29.8450 C   0  0  0  0  0
   16.0920  -21.4890  -28.3630 C   0  0  0  0  0
   17.0110  -22.5370  -27.7990 C   0  0  0  0  0
   14.5250  -18.1650  -30.2690 O   0  0  0  0  0
   14.6930  -20.6650  -31.7340 O   0  0  0  0  0
   15.1530  -22.9210  -30.0490 O   0  0  0  0  0
   16.7130  -20.2180  -28.1790 O   0  0  0  0  0
   17.9960  -22.8820  -28.7550 O   0  0  0  0  0
   13.6310  -16.2360  -24.9020 C   0  0  0  0  0
   13.1140  -16.0620  -26.3140 C   0  0  0  0  0
   13.2270  -17.3300  -27.1540 C   0  0  0  0  0
   14.6100  -17.8980  -27.0030 C   0  0  0  0  0
   14.9460  -18.1510  -25.5330 C   0  0  0  0  0
   16.2880  -18.8360  -25.3040 C   0  0  0  0  0
   11.7590  -15.6510  -26.2770 O   0  0  0  0  0
   12.9550  -17.0780  -28.5170 O   0  0  0  0  0
   14.7360  -19.1130  -27.7530 O   0  0  0  0  0
   14.9230  -16.8850  -24.8260 O   0  0  0  0  0
   17.3490  -18.1470  -25.9100 O   0  0  0  0  0
   10.2100  -16.4850  -21.2740 C   0  0  0  0  0
   11.0920  -15.2570  -21.1570 C   0  0  0  0  0
   11.7930  -15.2330  -22.5030 C   0  0  0  0  0
   12.6210  -16.5250  -22.6690 C   0  0  0  0  0
   12.1660  -17.7570  -21.8520 C   0  0  0  0  0
   13.0860  -18.9890  -21.8400 C   0  0  0  0  0
   10.9720  -17.7940  -21.1540 C   0  0  0  0  0
    8.7550  -16.4280  -21.5640 N   0  3  0  0  0
   10.4270  -14.1020  -20.6140 O   0  0  0  0  0
   12.5600  -14.0400  -22.6870 O   0  0  0  0  0
   12.6380  -16.8360  -24.0570 O   0  0  0  0  0
   13.9270  -18.9390  -20.6870 O   0  0  0  0  0
    6.5200  -19.2690  -23.8420 C   0  0  0  0  0
    5.6230  -20.0020  -21.7310 O   0  0  0  0  0
    6.8250  -19.5690  -22.3710 C   0  0  0  0  0
    7.3410  -18.3360  -21.6210 C   0  0  0  0  0
    7.7990  -18.6970  -20.3120 O   0  0  0  0  0
    8.4330  -17.5970  -22.3740 C   0  0  0  0  0
    7.8350  -17.2640  -23.7450 C   0  0  0  0  0
    7.5960  -18.5110  -24.4190 O   0  0  0  0  0
    8.6650  -16.3430  -24.6370 C   0  0  0  0  0
    1.5510  -19.4150  -25.8950 C   0  0  0  0  0
    1.7090  -19.9500  -24.4780 C   0  0  0  0  0
    2.9780  -19.3460  -23.7420 C   0  0  0  0  0
    4.2430  -19.3680  -24.6470 C   0  0  0  0  0
    3.8030  -18.6730  -25.9550 C   0  0  0  0  0
    4.8500  -18.4280  -26.9960 C   0  0  0  0  0
    0.5730  -19.7770  -23.6630 O   0  0  0  0  0
    3.1900  -20.0530  -22.5330 O   0  0  0  0  0
    5.2730  -18.5820  -24.0220 O   0  0  0  0  0
    2.7480  -19.4340  -26.6000 O   0  0  0  0  0
    5.6300  -19.5740  -27.1760 O   0  0  0  0  0
   -2.3990  -16.7330  -27.7930 C   0  0  0  0  0
   -2.5620  -17.5220  -26.4780 C   0  0  0  0  0
   -1.2600  -17.4760  -25.7110 C   0  0  0  0  0
   -0.1720  -18.0310  -26.5850 C   0  0  0  0  0
   -0.0500  -17.2400  -27.9120 C   0  0  0  0  0
    0.9880  -17.7950  -28.8720 C   0  0  0  0  0
   -2.0890  -15.4080  -27.5180 O   0  0  0  0  0
   -3.5520  -16.9170  -25.6720 O   0  0  0  0  0
   -1.3450  -18.2560  -24.5280 O   0  0  0  0  0
    1.0620  -18.1150  -25.8800 O   0  0  0  0  0
   -1.3340  -17.2860  -28.5930 O   0  0  0  0  0
    2.2510  -17.1930  -28.6300 O   0  0  0  0  0
   16.4419  -18.2141  -28.4068 H   0  0  0  0  0
   16.3415  -19.0444  -30.6410 H   0  0  0  0  0
   13.8906  -20.6425  -29.8381 H   0  0  0  0  0
   16.7106  -21.6234  -30.4076 H   0  0  0  0  0
   15.1425  -21.5763  -27.8349 H   0  0  0  0  0
   16.4307  -23.4242  -27.5458 H   0  0  0  0  0
   17.4989  -22.1438  -26.9072 H   0  0  0  0  0
   14.9171  -17.3135  -30.0620 H   0  0  0  0  0
   14.1139  -19.9654  -32.0451 H   0  0  0  0  0
   14.9562  -23.0312  -30.9821 H   0  0  0  0  0
   18.5776  -23.5510  -28.3865 H   0  0  0  0  0
   13.8189  -15.2351  -24.5135 H   0  0  0  0  0
   13.7391  -15.3038  -26.7857 H   0  0  0  0  0
   12.4861  -18.0461  -26.7985 H   0  0  0  0  0
   15.3168  -17.1653  -27.3926 H   0  0  0  0  0
   14.1913  -18.8402  -25.1543 H   0  0  0  0  0
   16.2378  -19.8324  -25.7430 H   0  0  0  0  0
   16.4735  -18.8649  -24.2303 H   0  0  0  0  0
   11.4344  -15.5416  -27.1738 H   0  0  0  0  0
   13.0350  -17.8951  -29.0145 H   0  0  0  0  0
   18.1707  -18.6134  -25.7398 H   0  0  0  0  0
    9.1984  -16.3541  -20.8897 H   0  0  0  0  0
   11.8595  -15.2683  -20.3831 H   0  0  0  0  0
   11.0471  -15.2102  -23.2974 H   0  0  0  0  0
   13.6079  -16.3103  -22.2592 H   0  0  0  0  0
   13.7008  -18.9940  -22.7400 H   0  0  0  0  0
   12.4814  -19.8955  -21.8115 H   0  0  0  0  0
   10.6210  -18.6565  -20.5874 H   0  0  0  0  0
    8.5206  -15.5693  -22.0620 H   0  0  0  0  0
    8.2151  -16.4299  -20.6986 H   0  0  0  0  0
   11.0454  -13.3690  -20.5708 H   0  0  0  0  0
   12.9857  -14.0641  -23.5471 H   0  0  0  0  0
   14.5020  -19.7077  -20.6782 H   0  0  0  0  0
    6.4268  -20.2267  -24.3541 H   0  0  0  0  0
    5.8042  -20.1926  -20.8077 H   0  0  0  0  0
    7.5990  -20.3361  -22.3457 H   0  0  0  0  0
    6.4972  -17.6514  -21.5347 H   0  0  0  0  0
    8.1178  -17.9133  -19.8583 H   0  0  0  0  0
    9.3575  -18.1508  -22.5370 H   0  0  0  0  0
    6.9256  -16.6931  -23.5575 H   0  0  0  0  0
    8.8134  -15.3880  -24.1329 H   0  0  0  0  0
    9.6322  -16.8053  -24.8343 H   0  0  0  0  0
    8.1397  -16.1807  -25.5782 H   0  0  0  0  0
    0.8425  -20.0745  -26.3962 H   0  0  0  0  0
    1.8472  -21.0220  -24.6184 H   0  0  0  0  0
    2.7867  -18.2969  -23.5164 H   0  0  0  0  0
    4.6238  -20.3752  -24.8162 H   0  0  0  0  0
    3.4907  -17.6911  -25.5996 H   0  0  0  0  0
    5.4906  -17.6080  -26.6714 H   0  0  0  0  0
    4.3637  -18.1760  -27.9384 H   0  0  0  0  0
    0.7486  -20.1371  -22.7906 H   0  0  0  0  0
    3.9571  -19.6919  -22.0827 H   0  0  0  0  0
    6.2969  -19.4040  -27.8453 H   0  0  0  0  0
   -3.3404  -16.7983  -28.3385 H   0  0  0  0  0
   -2.8434  -18.5478  -26.7161 H   0  0  0  0  0
   -1.0462  -16.4440  -25.4328 H   0  0  0  0  0
   -0.4463  -19.0497  -26.8590 H   0  0  0  0  0
    0.2596  -16.2307  -27.6406 H   0  0  0  0  0
    0.6798  -17.5788  -29.8949 H   0  0  0  0  0
    1.0716  -18.8716  -28.7238 H   0  0  0  0  0
   -1.9897  -14.9260  -28.3423 H   0  0  0  0  0
   -3.6468  -17.4142  -24.8563 H   0  0  0  0  0
   -0.5096  -18.2131  -24.0571 H   0  0  0  0  0
    2.8977  -17.5516  -29.2422 H   0  0  0  0  0
  1  2  1  0  0  0
  1 10  1  0  0  0
 20  1  1  0  0  0
  2  3  1  0  0  0
  2  7  1  0  0  0
  3  4  1  0  0  0
  3  8  1  0  0  0
  5  4  1  0  0  0
  4  9  1  0  0  0
  5  6  1  0  0  0
 10  5  1  0  0  0
  6 11  1  0  0  0
 12 13  1  0  0  0
 12 21  1  0  0  0
 33 12  1  0  0  0
 13 14  1  0  0  0
 13 18  1  0  0  0
 14 15  1  0  0  0
 14 19  1  0  0  0
 16 15  1  0  0  0
 15 20  1  0  0  0
 16 17  1  0  0  0
 21 16  1  0  0  0
 17 22  1  0  0  0
 23 24  1  0  0  0
 23 29  1  0  0  0
 30 23  1  0  0  0
 24 25  1  0  0  0
 24 31  1  0  0  0
 25 26  1  0  0  0
 25 32  1  0  0  0
 27 26  1  0  0  0
 26 33  1  0  0  0
 27 28  1  0  0  0
 29 27  2  0  0  0
 28 34  1  0  0  0
 40 30  1  0  0  0
 35 37  1  0  0  0
 35 42  1  0  0  0
 52 35  1  0  0  0
 37 36  1  0  0  0
 37 38  1  0  0  0
 38 39  1  0  0  0
 38 40  1  0  0  0
 41 40  1  0  0  0
 42 41  1  0  0  0
 41 43  1  0  0  0
 44 45  1  0  0  0
 44 53  1  0  0  0
 64 44  1  0  0  0
 45 46  1  0  0  0
 45 50  1  0  0  0
 46 47  1  0  0  0
 46 51  1  0  0  0
 48 47  1  0  0  0
 47 52  1  0  0  0
 48 49  1  0  0  0
 53 48  1  0  0  0
 49 54  1  0  0  0
 56 55  1  0  0  0
 55 61  1  0  0  0
 55 65  1  0  0  0
 57 56  1  0  0  0
 56 62  1  0  0  0
 58 57  1  0  0  0
 57 63  1  0  0  0
 58 59  1  0  0  0
 58 64  1  0  0  0
 59 60  1  0  0  0
 59 65  1  0  0  0
 60 66  1  0  0  0
  1 67  1  0  0  0
  2 68  1  0  0  0
  3 69  1  0  0  0
  4 70  1  0  0  0
  5 71  1  0  0  0
  6 72  1  0  0  0
  6 73  1  0  0  0
  7 74  1  0  0  0
  8 75  1  0  0  0
  9 76  1  0  0  0
 11 77  1  0  0  0
 12 78  1  0  0  0
 13 79  1  0  0  0
 14 80  1  0  0  0
 15 81  1  0  0  0
 16 82  1  0  0  0
 17 83  1  0  0  0
 17 84  1  0  0  0
 18 85  1  0  0  0
 19 86  1  0  0  0
 22 87  1  0  0  0
 23 88  1  0  0  0
 24 89  1  0  0  0
 25 90  1  0  0  0
 26 91  1  0  0  0
 28 92  1  0  0  0
 28 93  1  0  0  0
 29 94  1  0  0  0
 30 95  1  0  0  0
 30 96  1  0  0  0
 31 97  1  0  0  0
 32 98  1  0  0  0
 34 99  1  0  0  0
 35100  1  0  0  0
 36101  1  0  0  0
 37102  1  0  0  0
 38103  1  0  0  0
 39104  1  0  0  0
 40105  1  0  0  0
 41106  1  0  0  0
 43107  1  0  0  0
 43108  1  0  0  0
 43109  1  0  0  0
 44110  1  0  0  0
 45111  1  0  0  0
 46112  1  0  0  0
 47113  1  0  0  0
 48114  1  0  0  0
 49115  1  0  0  0
 49116  1  0  0  0
 50117  1  0  0  0
 51118  1  0  0  0
 54119  1  0  0  0
 55120  1  0  0  0
 56121  1  0  0  0
 57122  1  0  0  0
 58123  1  0  0  0
 59124  1  0  0  0
 60125  1  0  0  0
 60126  1  0  0  0
 61127  1  0  0  0
 62128  1  0  0  0
 63129  1  0  0  0
 66130  1  0  0  0
M  END
$$$$
