5o1s_ligand
  -I-interpret- 

 20 19  0  0  0  0  0  0  0  0999 V2000
   -4.1340   19.4230  -21.6610 C   0  0  0  0  0
   -6.7800   14.5940  -17.5070 C   0  0  0  0  0
   -7.4570   15.4180  -18.3800 O   0  0  0  0  0
   -7.2620   16.7770  -18.4210 C   0  0  0  0  0
   -6.4340   17.3250  -17.6990 O   0  0  0  0  0
   -7.9900   17.5630  -19.4670 C   0  0  0  0  0
   -7.3680   18.8560  -19.8600 C   0  0  0  0  0
   -6.0720   18.6700  -20.5540 C   0  0  0  0  0
   -5.8520   17.6050  -21.0870 O   0  0  0  0  0
   -5.2380   19.7130  -20.8580 O   0  0  0  0  0
   -3.5096   18.6807  -21.1637 H   0  0  0  0  0
   -4.4759   19.0295  -22.6183 H   0  0  0  0  0
   -3.5572   20.3331  -21.8260 H   0  0  0  0  0
   -5.7086   14.6739  -17.6909 H   0  0  0  0  0
   -6.9976   14.8953  -16.4823 H   0  0  0  0  0
   -7.1003   13.5634  -17.6598 H   0  0  0  0  0
   -8.9643   17.8076  -19.0439 H   0  0  0  0  0
   -8.0014   16.9433  -20.3636 H   0  0  0  0  0
   -7.1858   19.4326  -18.9531 H   0  0  0  0  0
   -8.0478   19.3636  -20.5444 H   0  0  0  0  0
 10  1  1  0  0  0
  3  2  1  0  0  0
  4  3  1  0  0  0
  4  5  2  0  0  0
  6  4  1  0  0  0
  7  6  1  0  0  0
  8  7  1  0  0  0
  8  9  2  0  0  0
  8 10  1  0  0  0
  1 11  1  0  0  0
  1 12  1  0  0  0
  1 13  1  0  0  0
  2 14  1  0  0  0
  2 15  1  0  0  0
  2 16  1  0  0  0
  6 17  1  0  0  0
  6 18  1  0  0  0
  7 19  1  0  0  0
  7 20  1  0  0  0
M  END
$$$$
