6k4x_ligand
  -I-interpret- 

 18 18  0  0  0  0  0  0  0  0999 V2000
    7.2130   -3.9210   -5.6920 O   0  0  0  0  0
    8.3600   -3.9190   -6.1900 C   0  0  0  0  0
    9.1220   -2.9120   -6.1140 O   0  0  0  0  0
    8.8840   -5.1030   -6.9220 C   0  0  0  0  0
   10.2750   -5.0840   -7.2170 C   0  0  0  0  0
    8.0960   -6.2030   -7.3050 C   0  0  0  0  0
    6.4510   -6.5120   -6.9720 S   0  0  0  0  0
    8.7450   -7.2360   -8.0180 C   0  0  0  0  0
   10.1070   -7.2120   -8.3260 C   0  0  0  0  0
   10.7130   -8.2670   -8.9960 N   0  0  0  0  0
   10.8560   -6.1510   -7.9020 C   0  0  0  0  0
    9.9527   -3.1068   -6.5540 H   0  0  0  0  0
   10.8866   -4.2363   -6.9080 H   0  0  0  0  0
    6.0987   -7.6701   -7.5230 H   0  0  0  0  0
    8.1544   -8.0925   -8.3432 H   0  0  0  0  0
   10.1617   -9.0793   -9.2727 H   0  0  0  0  0
   11.7093   -8.2294   -9.2113 H   0  0  0  0  0
   11.9273   -6.1381   -8.1027 H   0  0  0  0  0
  1  2  2  0  0  0
  2  3  1  0  0  0
  2  4  1  0  0  0
  4  5  4  0  0  0
  4  6  4  0  0  0
  5 11  4  0  0  0
  6  7  1  0  0  0
  6  8  4  0  0  0
  8  9  4  0  0  0
  9 10  1  0  0  0
  9 11  4  0  0  0
  3 12  1  0  0  0
  5 13  1  0  0  0
  7 14  1  0  0  0
  8 15  1  0  0  0
 10 16  1  0  0  0
 10 17  1  0  0  0
 11 18  1  0  0  0
M  END
$$$$
