4jck_ligand
  -I-interpret- 

 45 46  0  0  0  0  0  0  0  0999 V2000
   24.5260   39.7420   34.9920 C   0  0  0  0  0
   23.4560   38.7500   35.4500 C   0  0  0  0  0
   23.4200   38.7010   36.9750 C   0  0  0  0  0
   22.6330   41.4290   33.4270 O   0  0  0  0  0
   23.0820   40.1350   32.9860 C   0  0  0  0  0
   24.5050   39.8780   33.4690 C   0  0  0  0  0
   25.3670   40.9580   33.0570 O   0  0  0  0  0
   24.3050   41.0270   35.6060 O   0  0  0  0  0
   22.3270   37.8690   37.3830 O   0  0  0  0  0
   22.1530   39.1380   34.9620 O   0  0  0  0  0
   22.1520   39.0760   33.5400 C   0  0  0  0  0
   20.5170   39.4790   32.9960 S   0  0  0  0  0
   19.6680   37.9470   33.2890 C   0  0  0  0  0
   20.1540   36.9400   32.3810 O   0  0  0  0  0
   19.5290   35.6770   32.6390 C   0  0  0  0  0
   20.1860   34.6550   31.7200 C   0  0  0  0  0
   21.5600   34.5020   32.0840 O   0  0  0  0  0
   18.0290   35.7840   32.3720 C   0  0  0  0  0
   17.8050   36.1580   31.0170 O   0  0  0  0  0
   17.4300   36.8280   33.3160 C   0  0  0  0  0
   16.0360   36.9860   33.0520 O   0  0  0  0  0
   18.1540   38.1650   33.1660 C   0  0  0  0  0
   17.8530   38.7820   31.9030 O   0  0  0  0  0
   25.5033   39.3678   35.2969 H   0  0  0  0  0
   23.7067   37.7681   35.0486 H   0  0  0  0  0
   23.2887   39.7066   37.3745 H   0  0  0  0  0
   24.3570   38.2933   37.3543 H   0  0  0  0  0
   23.2187   42.1054   33.0790 H   0  0  0  0  0
   23.0740   40.1004   31.8966 H   0  0  0  0  0
   24.8659   38.9489   33.0279 H   0  0  0  0  0
   26.2603   40.7883   33.3650 H   0  0  0  0  0
   24.3200   40.9309   36.5611 H   0  0  0  0  0
   22.2954   37.8314   38.3417 H   0  0  0  0  0
   22.4670   38.0868   33.2079 H   0  0  0  0  0
   19.8658   37.5937   34.3010 H   0  0  0  0  0
   19.6532   35.3725   33.6782 H   0  0  0  0  0
   20.1193   34.9984   30.6876 H   0  0  0  0  0
   19.6752   33.6970   31.8173 H   0  0  0  0  0
   21.9736   33.8579   31.5046 H   0  0  0  0  0
   17.5519   34.8200   32.5482 H   0  0  0  0  0
   16.8608   36.2234   30.8562 H   0  0  0  0  0
   17.5565   36.4824   34.3420 H   0  0  0  0  0
   15.6707   37.6427   33.6494 H   0  0  0  0  0
   17.8108   38.8302   33.9583 H   0  0  0  0  0
   16.9051   38.9160   31.8314 H   0  0  0  0  0
  1  2  1  0  0  0
  6  1  1  0  0  0
  1  8  1  0  0  0
  2  3  1  0  0  0
  2 10  1  0  0  0
  3  9  1  0  0  0
  5  4  1  0  0  0
  5  6  1  0  0  0
  5 11  1  0  0  0
  6  7  1  0  0  0
 10 11  1  0  0  0
 11 12  1  0  0  0
 12 13  1  0  0  0
 13 14  1  0  0  0
 13 22  1  0  0  0
 14 15  1  0  0  0
 15 16  1  0  0  0
 15 18  1  0  0  0
 16 17  1  0  0  0
 18 19  1  0  0  0
 18 20  1  0  0  0
 20 21  1  0  0  0
 20 22  1  0  0  0
 22 23  1  0  0  0
  1 24  1  0  0  0
  2 25  1  0  0  0
  3 26  1  0  0  0
  3 27  1  0  0  0
  4 28  1  0  0  0
  5 29  1  0  0  0
  6 30  1  0  0  0
  7 31  1  0  0  0
  8 32  1  0  0  0
  9 33  1  0  0  0
 11 34  1  0  0  0
 13 35  1  0  0  0
 15 36  1  0  0  0
 16 37  1  0  0  0
 16 38  1  0  0  0
 17 39  1  0  0  0
 18 40  1  0  0  0
 19 41  1  0  0  0
 20 42  1  0  0  0
 21 43  1  0  0  0
 22 44  1  0  0  0
 23 45  1  0  0  0
M  END
$$$$
