6mbp_ligand
  -I-interpret- 

 92 96  0  0  0  0  0  0  0  0999 V2000
  -26.4050   21.5310   15.7700 C   0  0  0  0  0
  -27.7940   22.9320   16.8800 C   0  0  0  0  0
  -23.6380   21.2680   23.0920 C   0  0  0  0  0
  -21.5860   19.7580   23.8140 C   0  0  0  0  0
  -20.5690   16.7270   24.5860 C   0  0  0  0  0
  -19.7940   15.6700   25.3930 C   0  0  0  0  0
  -18.2810   13.2340   25.2800 C   0  0  0  0  0
  -17.7220   16.7400   24.8190 C   0  0  0  0  0
  -20.7820   20.7050   19.0190 C   0  0  0  0  0
  -22.4490   21.4770   20.5200 C   0  0  0  0  0
  -23.6730   22.1230   20.7710 C   0  0  0  0  0
  -25.5350   23.3650   19.8220 C   0  0  0  0  0
  -25.8790   24.0870   18.4750 C   0  0  0  0  0
  -25.7500   23.1610   17.2230 C   0  0  0  0  0
  -27.5870   21.0500   15.3790 C   0  0  0  0  0
  -28.6090   21.8350   16.1020 C   0  0  0  0  0
  -24.2720   22.0310   22.0380 C   0  0  0  0  0
  -22.4260   20.6250   22.8120 C   0  0  0  0  0
  -19.8210   17.9610   24.3810 C   0  0  0  0  0
  -17.7910   14.6720   25.5530 C   0  0  0  0  0
  -17.7260   14.9930   27.0580 C   0  0  0  0  0
  -18.4640   17.7500   23.9420 C   0  0  0  0  0
  -22.9100   19.7400   26.0140 C   0  0  0  0  0
  -23.8470   20.9090   25.7500 C   0  0  0  0  0
  -24.6620   21.3330   27.0230 C   0  0  0  0  0
  -25.8130   20.3360   26.8450 C   0  0  0  0  0
  -26.9170   20.5640   27.8800 C   0  0  0  0  0
  -26.4950   21.5520   28.9740 C   0  0  0  0  0
  -26.0640   22.9060   28.4010 C   0  0  0  0  0
  -25.1470   22.7720   27.1870 C   0  0  0  0  0
  -21.8240   20.7280   21.5250 C   0  0  0  0  0
  -26.6580   22.3930   17.0840 N   0  0  0  0  0
  -20.5090   18.8000   23.3360 N   0  3  0  0  0
  -18.4420   15.4940   24.9170 N   0  3  0  0  0
  -21.6880   19.9320   25.2570 N   0  3  0  0  0
  -24.3220   21.2020   24.4040 N   0  0  0  0  0
  -21.8760   21.5860   19.2430 O   0  0  0  0  0
  -24.2280   22.8660   19.6800 O   0  0  0  0  0
  -25.4453   21.3646   15.2807 H   0  0  0  0  0
  -28.2826   23.2248   17.8093 H   0  0  0  0  0
  -27.7126   23.8608   16.3154 H   0  0  0  0  0
  -22.5478   19.3760   23.4717 H   0  0  0  0  0
  -21.4678   16.9771   25.1497 H   0  0  0  0  0
  -20.7785   16.3025   23.6041 H   0  0  0  0  0
  -20.3145   14.7180   25.2881 H   0  0  0  0  0
  -19.7452   16.0063   26.4287 H   0  0  0  0  0
  -17.5987   12.5241   25.7475 H   0  0  0  0  0
  -19.2805   13.1070   25.6959 H   0  0  0  0  0
  -18.3086   13.0590   24.2045 H   0  0  0  0  0
  -17.6220   17.1602   25.8198 H   0  0  0  0  0
  -16.7492   16.5417   24.3691 H   0  0  0  0  0
  -19.9945   20.9142   19.7431 H   0  0  0  0  0
  -21.1179   19.6743   19.1332 H   0  0  0  0  0
  -20.3982   20.8537   18.0097 H   0  0  0  0  0
  -26.2415   22.5607   20.0272 H   0  0  0  0  0
  -25.6023   24.0537   20.6642 H   0  0  0  0  0
  -25.1709   24.9064   18.3516 H   0  0  0  0  0
  -26.9165   24.4159   18.5345 H   0  0  0  0  0
  -24.8448   22.5680   17.3539 H   0  0  0  0  0
  -25.7386   23.8072   16.3453 H   0  0  0  0  0
  -27.7629   20.2414   14.6696 H   0  0  0  0  0
  -29.3385   22.2761   15.4227 H   0  0  0  0  0
  -29.1983   21.2126   16.7754 H   0  0  0  0  0
  -25.2187   22.5365   22.2285 H   0  0  0  0  0
  -19.7885   18.4548   25.3522 H   0  0  0  0  0
  -16.7640   14.7395   25.1941 H   0  0  0  0  0
  -17.2602   15.9681   27.2004 H   0  0  0  0  0
  -18.7354   15.0076   27.4690 H   0  0  0  0  0
  -17.1365   14.2297   27.5659 H   0  0  0  0  0
  -18.4940   17.3581   22.9254 H   0  0  0  0  0
  -17.9368   18.7021   24.0018 H   0  0  0  0  0
  -23.3887   18.8097   25.7083 H   0  0  0  0  0
  -22.6784   19.6884   27.0779 H   0  0  0  0  0
  -23.1900   21.7612   25.5760 H   0  0  0  0  0
  -24.0554   21.3090   27.9283 H   0  0  0  0  0
  -25.4200   19.3278   26.9756 H   0  0  0  0  0
  -26.2380   20.4730   25.8507 H   0  0  0  0  0
  -27.1376   19.6080   28.3549 H   0  0  0  0  0
  -27.7827   20.9800   27.3646 H   0  0  0  0  0
  -25.6452   21.1243   29.5060 H   0  0  0  0  0
  -27.3514   21.7188   29.6273 H   0  0  0  0  0
  -25.5131   23.4364   29.1777 H   0  0  0  0  0
  -26.9627   23.4345   28.0830 H   0  0  0  0  0
  -25.7045   23.0568   26.2947 H   0  0  0  0  0
  -24.2812   23.4185   27.3299 H   0  0  0  0  0
  -20.8785   20.2247   21.3227 H   0  0  0  0  0
  -19.7804   19.3845   22.9263 H   0  0  0  0  0
  -20.9801   18.1401   22.7171 H   0  0  0  0  0
  -18.5550   15.1141   23.9772 H   0  0  0  0  0
  -21.5043   20.9282   25.3764 H   0  0  0  0  0
  -21.0836   19.1926   25.6154 H   0  0  0  0  0
  -25.3213   21.4005   24.3559 H   0  0  0  0  0
  1 15  2  0  0  0
 32  1  1  0  0  0
  2 16  1  0  0  0
 32  2  1  0  0  0
  3 17  4  0  0  0
 18  3  4  0  0  0
  3 36  1  0  0  0
  4 18  1  0  0  0
  4 33  1  0  0  0
 35  4  1  0  0  0
  5  6  1  0  0  0
 19  5  1  0  0  0
  6 34  1  0  0  0
 20  7  1  0  0  0
 22  8  1  0  0  0
  8 34  1  0  0  0
 37  9  1  0  0  0
 10 11  4  0  0  0
 31 10  4  0  0  0
 10 37  1  0  0  0
 17 11  4  0  0  0
 11 38  1  0  0  0
 12 13  1  0  0  0
 38 12  1  0  0  0
 13 14  1  0  0  0
 14 32  1  0  0  0
 16 15  1  0  0  0
 18 31  4  0  0  0
 19 22  1  0  0  0
 33 19  1  0  0  0
 20 21  1  0  0  0
 34 20  1  0  0  0
 23 24  1  0  0  0
 23 35  1  0  0  0
 24 25  1  0  0  0
 24 36  1  0  0  0
 25 26  1  0  0  0
 25 30  1  0  0  0
 26 27  1  0  0  0
 27 28  1  0  0  0
 28 29  1  0  0  0
 29 30  1  0  0  0
  1 39  1  0  0  0
  2 40  1  0  0  0
  2 41  1  0  0  0
  4 42  1  0  0  0
  5 43  1  0  0  0
  5 44  1  0  0  0
  6 45  1  0  0  0
  6 46  1  0  0  0
  7 47  1  0  0  0
  7 48  1  0  0  0
  7 49  1  0  0  0
  8 50  1  0  0  0
  8 51  1  0  0  0
  9 52  1  0  0  0
  9 53  1  0  0  0
  9 54  1  0  0  0
 12 55  1  0  0  0
 12 56  1  0  0  0
 13 57  1  0  0  0
 13 58  1  0  0  0
 14 59  1  0  0  0
 14 60  1  0  0  0
 15 61  1  0  0  0
 16 62  1  0  0  0
 16 63  1  0  0  0
 17 64  1  0  0  0
 19 65  1  0  0  0
 20 66  1  0  0  0
 21 67  1  0  0  0
 21 68  1  0  0  0
 21 69  1  0  0  0
 22 70  1  0  0  0
 22 71  1  0  0  0
 23 72  1  0  0  0
 23 73  1  0  0  0
 24 74  1  0  0  0
 25 75  1  0  0  0
 26 76  1  0  0  0
 26 77  1  0  0  0
 27 78  1  0  0  0
 27 79  1  0  0  0
 28 80  1  0  0  0
 28 81  1  0  0  0
 29 82  1  0  0  0
 29 83  1  0  0  0
 30 84  1  0  0  0
 30 85  1  0  0  0
 31 86  1  0  0  0
 33 87  1  0  0  0
 33 88  1  0  0  0
 34 89  1  0  0  0
 35 90  1  0  0  0
 35 91  1  0  0  0
 36 92  1  0  0  0
M  END
$$$$
