3n5k_ligand
  -I-interpret- 

102104  0  0  0  0  0  0  0  0999 V2000
   35.2150   73.7130   18.2370 C   0  0  0  0  0
   35.0330   72.9740   16.9110 C   0  0  0  0  0
   35.3170   73.7880   15.5840 C   0  0  0  0  0
   36.7550   74.2740   15.3610 C   0  0  0  0  0
   36.8900   75.2320   14.1590 C   0  0  0  0  0
   36.4340   74.8190   12.7340 C   0  0  0  0  0
   34.9320   74.5750   12.5420 C   0  0  0  0  0
   34.5160   74.4740   11.0410 C   0  0  0  0  0
   33.4910   75.4190   10.7600 O   0  0  0  0  0
   33.6910   76.2270    9.6670 C   0  0  0  0  0
   34.5600   77.0730    9.7060 O   0  0  0  0  0
   32.7720   75.9540    8.5020 C   0  0  0  0  0
   33.5310   75.9820    7.1620 C   0  0  0  0  0
   32.9280   75.1720    6.0030 C   0  0  0  0  0
   31.4060   75.3480    5.8600 C   0  0  0  0  0
   30.9120   75.6330    4.4390 C   0  0  0  0  0
   32.0280   76.0010    3.4570 C   0  0  0  0  0
   31.7150   75.5510    2.0420 C   0  0  0  0  0
   33.8250   73.0920   10.7960 C   0  0  0  0  0
   34.7060   72.3110   10.0180 O   0  0  0  0  0
   34.2330   71.9640    8.7620 C   0  0  0  0  0
   33.2590   71.2440    8.7410 O   0  0  0  0  0
   35.1180   72.3230    7.5900 C   0  0  0  0  0
   34.2640   72.2770    6.3150 C   0  0  0  0  0
   36.3360   71.4260    7.3420 C   0  0  0  0  0
   37.1730   71.0580    8.5450 C   0  0  0  0  0
   33.4900   72.5440   12.2060 C   0  0  0  0  0
   33.3080   71.0410   12.3300 C   0  0  0  0  0
   34.2330   73.4030   13.2530 C   0  0  0  0  0
   34.7370   72.7730   14.5580 C   0  0  0  0  0
   33.5460   72.3310   15.2150 O   0  0  0  0  0
   33.5330   72.7310   16.5640 C   0  0  0  0  0
   33.0390   71.6590   17.2700 O   0  0  0  0  0
   37.3070   73.6860   12.1750 C   0  0  0  0  0
   36.8330   75.8730   11.8610 O   0  0  0  0  0
   37.6480   76.9430   11.9570 C   0  0  0  0  0
   37.3320   77.9940   11.4270 O   0  0  0  0  0
   39.0510   76.4120   12.0840 C   0  0  0  0  0
   37.6010   73.1590   15.2150 O   0  0  0  0  0
   38.4500   72.8740   16.2570 C   0  0  0  0  0
   38.5020   73.6110   17.2310 O   0  0  0  0  0
   39.1920   71.5790   16.0690 C   0  0  0  0  0
   38.8430   70.5960   17.1910 C   0  0  0  0  0
   39.7780   69.3980   17.1560 C   0  0  0  0  0
   34.4510   74.8880   15.5760 O   0  0  0  0  0
   35.7930   71.8070   16.8410 O   0  0  0  0  0
   34.7213   74.6832   18.1815 H   0  0  0  0  0
   34.7745   73.1253   19.0424 H   0  0  0  0  0
   36.2784   73.8555   18.4291 H   0  0  0  0  0
   37.0500   74.8533   16.2359 H   0  0  0  0  0
   37.9664   75.3699   14.0570 H   0  0  0  0  0
   36.2292   76.0609   14.4126 H   0  0  0  0  0
   34.5831   75.4756   13.0473 H   0  0  0  0  0
   35.4091   74.6277   10.4354 H   0  0  0  0  0
   32.0052   76.7284    8.4796 H   0  0  0  0  0
   32.3377   74.9626    8.6310 H   0  0  0  0  0
   34.5054   75.5362    7.3620 H   0  0  0  0  0
   33.5213   77.0219    6.8356 H   0  0  0  0  0
   33.1190   74.1180    6.2049 H   0  0  0  0  0
   33.3875   75.5269    5.0805 H   0  0  0  0  0
   31.1332   76.2127    6.4650 H   0  0  0  0  0
   30.9523   74.4051    6.1653 H   0  0  0  0  0
   30.2355   76.4857    4.4956 H   0  0  0  0  0
   30.4426   74.7212    4.0697 H   0  0  0  0  0
   32.9419   75.5013    3.7783 H   0  0  0  0  0
   32.1333   77.0859    3.4532 H   0  0  0  0  0
   31.5910   74.4682    2.0255 H   0  0  0  0  0
   30.7948   76.0285    1.7054 H   0  0  0  0  0
   32.5352   75.8342    1.3823 H   0  0  0  0  0
   32.8932   73.1180   10.2310 H   0  0  0  0  0
   35.5180   73.3056    7.8402 H   0  0  0  0  0
   33.8589   71.2733    6.1866 H   0  0  0  0  0
   33.4459   72.9921    6.4012 H   0  0  0  0  0
   34.8830   72.5331    5.4552 H   0  0  0  0  0
   36.9942   71.9931    6.6837 H   0  0  0  0  0
   35.9402   70.4866    6.9562 H   0  0  0  0  0
   37.5651   71.9653    9.0045 H   0  0  0  0  0
   36.5553   70.5220    9.2656 H   0  0  0  0  0
   38.0003   70.4222    8.2297 H   0  0  0  0  0
   32.4446   72.6882   12.4787 H   0  0  0  0  0
   32.4890   70.7211   11.6858 H   0  0  0  0  0
   34.2271   70.5389   12.0279 H   0  0  0  0  0
   33.0778   70.7883   13.3650 H   0  0  0  0  0
   33.5266   73.8830   13.9302 H   0  0  0  0  0
   35.5018   72.0414   14.2976 H   0  0  0  0  0
   32.9356   73.6165   16.7813 H   0  0  0  0  0
   33.0084   71.8791   18.2039 H   0  0  0  0  0
   37.0564   73.5191   11.1274 H   0  0  0  0  0
   38.3577   73.9635   12.2588 H   0  0  0  0  0
   37.1243   72.7741   12.7434 H   0  0  0  0  0
   39.4794   76.2798   11.0905 H   0  0  0  0  0
   39.6561   77.1197   12.6507 H   0  0  0  0  0
   39.0298   75.4534   12.6024 H   0  0  0  0  0
   40.2636   71.7773   16.0912 H   0  0  0  0  0
   38.9064   71.1418   15.1123 H   0  0  0  0  0
   37.8183   70.2506   17.0543 H   0  0  0  0  0
   38.9490   71.1010   18.1511 H   0  0  0  0  0
   39.6809   68.8909   16.1961 H   0  0  0  0  0
   40.8057   69.7368   17.2871 H   0  0  0  0  0
   39.5155   68.7103   17.9599 H   0  0  0  0  0
   34.7676   75.5476   16.1975 H   0  0  0  0  0
   36.7055   72.0070   17.0620 H   0  0  0  0  0
  1  2  1  0  0  0
  2  3  1  0  0  0
  2 32  1  0  0  0
  2 46  1  0  0  0
  3  4  1  0  0  0
  3 30  1  0  0  0
  3 45  1  0  0  0
  4  5  1  0  0  0
  4 39  1  0  0  0
  5  6  1  0  0  0
  6  7  1  0  0  0
  6 34  1  0  0  0
  6 35  1  0  0  0
  7  8  1  0  0  0
  7 29  1  0  0  0
  8  9  1  0  0  0
  8 19  1  0  0  0
  9 10  1  0  0  0
 10 11  2  0  0  0
 10 12  1  0  0  0
 12 13  1  0  0  0
 13 14  1  0  0  0
 14 15  1  0  0  0
 15 16  1  0  0  0
 16 17  1  0  0  0
 17 18  1  0  0  0
 19 20  1  0  0  0
 19 27  1  0  0  0
 20 21  1  0  0  0
 21 22  2  0  0  0
 21 23  1  0  0  0
 23 24  1  0  0  0
 23 25  1  0  0  0
 25 26  1  0  0  0
 27 28  1  0  0  0
 27 29  1  0  0  0
 29 30  1  0  0  0
 30 31  1  0  0  0
 31 32  1  0  0  0
 32 33  1  0  0  0
 35 36  1  0  0  0
 36 37  2  0  0  0
 36 38  1  0  0  0
 39 40  1  0  0  0
 40 41  2  0  0  0
 40 42  1  0  0  0
 42 43  1  0  0  0
 43 44  1  0  0  0
  1 47  1  0  0  0
  1 48  1  0  0  0
  1 49  1  0  0  0
  4 50  1  0  0  0
  5 51  1  0  0  0
  5 52  1  0  0  0
  7 53  1  0  0  0
  8 54  1  0  0  0
 12 55  1  0  0  0
 12 56  1  0  0  0
 13 57  1  0  0  0
 13 58  1  0  0  0
 14 59  1  0  0  0
 14 60  1  0  0  0
 15 61  1  0  0  0
 15 62  1  0  0  0
 16 63  1  0  0  0
 16 64  1  0  0  0
 17 65  1  0  0  0
 17 66  1  0  0  0
 18 67  1  0  0  0
 18 68  1  0  0  0
 18 69  1  0  0  0
 19 70  1  0  0  0
 23 71  1  0  0  0
 24 72  1  0  0  0
 24 73  1  0  0  0
 24 74  1  0  0  0
 25 75  1  0  0  0
 25 76  1  0  0  0
 26 77  1  0  0  0
 26 78  1  0  0  0
 26 79  1  0  0  0
 27 80  1  0  0  0
 28 81  1  0  0  0
 28 82  1  0  0  0
 28 83  1  0  0  0
 29 84  1  0  0  0
 30 85  1  0  0  0
 32 86  1  0  0  0
 33 87  1  0  0  0
 34 88  1  0  0  0
 34 89  1  0  0  0
 34 90  1  0  0  0
 38 91  1  0  0  0
 38 92  1  0  0  0
 38 93  1  0  0  0
 42 94  1  0  0  0
 42 95  1  0  0  0
 43 96  1  0  0  0
 43 97  1  0  0  0
 44 98  1  0  0  0
 44 99  1  0  0  0
 44100  1  0  0  0
 45101  1  0  0  0
 46102  1  0  0  0
M  END
$$$$
