5aqg_ligand
  -I-interpret- 

 39 42  0  0  0  0  0  0  0  0999 V2000
   32.4920   -1.6760   52.0320 C   0  0  0  0  0
   35.2180   -3.4980   54.9030 N   0  0  0  0  0
   33.9070   -1.8080   53.9820 O   0  0  0  0  0
   33.7350   -1.1470   52.7100 C   0  0  0  0  0
   33.7640   -7.7470   54.9260 N   0  0  0  0  0
   37.1180   -2.5000   52.5470 O   0  0  0  0  0
   35.2320   -2.2920   54.0860 C   0  0  0  0  0
   35.2520   -7.7170   56.7940 N   0  0  0  0  0
   35.8530   -0.1750   51.9940 O   0  0  0  0  0
   35.6990   -2.5250   52.6490 C   0  0  0  0  0
   36.1550   -6.9870   57.6340 N   0  0  0  0  0
   31.5450   -0.6370   51.8200 O   0  0  0  0  0
   35.0410   -1.3420   51.9340 C   0  0  0  0  0
   36.8500   -2.9490   56.7950 N   0  0  0  0  0
   34.5080   -4.6880   54.5770 C   0  0  0  0  0
   37.2570   -4.8280   58.2320 N   0  0  0  0  0
   34.8490   -5.6550   55.4770 C   0  0  0  0  0
   34.6260   -7.0670   55.7610 C   0  0  0  0  0
   36.4220   -5.6310   57.4790 C   0  0  0  0  0
   35.7580   -5.0540   56.3870 C   0  0  0  0  0
   35.9840   -3.7150   56.0470 C   0  0  0  0  0
   37.4120   -3.5670   57.8370 C   0  0  0  0  0
   36.8600   -7.7970   58.6670 C   0  0  0  0  0
   32.0410   -2.4346   52.6717 H   0  0  0  0  0
   32.7726   -2.0955   51.0659 H   0  0  0  0  0
   33.5635   -0.0739   52.7951 H   0  0  0  0  0
   33.5880   -8.7407   55.0744 H   0  0  0  0  0
   37.3748   -2.6492   51.6341 H   0  0  0  0  0
   35.9228   -1.6043   54.5738 H   0  0  0  0  0
   35.0770   -8.7077   56.9622 H   0  0  0  0  0
   35.4113    0.5447   51.5373 H   0  0  0  0  0
   35.4289   -3.4967   52.2355 H   0  0  0  0  0
   30.7667   -0.9979   51.3892 H   0  0  0  0  0
   34.8863   -1.5249   50.8706 H   0  0  0  0  0
   33.8099   -4.8066   53.7484 H   0  0  0  0  0
   38.0849   -2.9596   58.4423 H   0  0  0  0  0
   36.1264   -8.2585   59.3280 H   0  0  0  0  0
   37.4497   -8.5727   58.1785 H   0  0  0  0  0
   37.5178   -7.1502   59.2475 H   0  0  0  0  0
  4  1  1  0  0  0
  1 12  1  0  0  0
  2  7  1  0  0  0
  2 15  4  0  0  0
 21  2  4  0  0  0
  3  4  1  0  0  0
  7  3  1  0  0  0
 13  4  1  0  0  0
 18  5  2  0  0  0
 10  6  1  0  0  0
  7 10  1  0  0  0
 11  8  1  0  0  0
  8 18  1  0  0  0
 13  9  1  0  0  0
 10 13  1  0  0  0
 19 11  1  0  0  0
 11 23  1  0  0  0
 14 21  4  0  0  0
 22 14  4  0  0  0
 15 17  4  0  0  0
 16 19  4  0  0  0
 16 22  4  0  0  0
 17 18  1  0  0  0
 17 20  4  0  0  0
 19 20  4  0  0  0
 20 21  4  0  0  0
  1 24  1  0  0  0
  1 25  1  0  0  0
  4 26  1  0  0  0
  5 27  1  0  0  0
  6 28  1  0  0  0
  7 29  1  0  0  0
  8 30  1  0  0  0
  9 31  1  0  0  0
 10 32  1  0  0  0
 12 33  1  0  0  0
 13 34  1  0  0  0
 15 35  1  0  0  0
 22 36  1  0  0  0
 23 37  1  0  0  0
 23 38  1  0  0  0
 23 39  1  0  0  0
M  END
$$$$
