5ivc_ligand
  -I-interpret- 

 43 45  0  0  0  0  0  0  0  0999 V2000
  -23.8370   20.1690    2.5610 C   0  0  0  0  0
  -24.0020   21.7070    0.2930 C   0  0  0  0  0
  -25.9930   25.9370    3.6610 C   0  0  0  0  0
  -26.3670   25.0080    4.8170 C   0  0  0  0  0
  -27.6130   25.0730    5.4030 C   0  0  0  0  0
  -27.1430   23.2570    6.9330 C   0  0  0  0  0
  -25.5040   24.0160    5.3190 C   0  0  0  0  0
  -24.1730   20.3430    7.8680 O   0  0  0  0  0
  -23.5090   19.3160    7.5750 C   0  0  0  0  0
  -22.8570   18.6440    8.3920 O   0  0  0  0  0
  -23.5270   18.8550    6.1250 C   0  0  0  0  0
  -23.3680   17.5050    5.8340 C   0  0  0  0  0
  -23.3890   17.1190    4.5090 C   0  0  0  0  0
  -23.5420   17.9590    3.4680 N   0  0  0  0  0
  -23.7080   19.2790    3.7560 C   0  0  0  0  0
  -23.6900   19.7750    5.0660 C   0  0  0  0  0
  -24.2280   21.4950    2.6550 C   0  0  0  0  0
  -24.3240   22.2960    1.5060 C   0  0  0  0  0
  -23.6180   20.3770    0.2830 C   0  0  0  0  0
  -23.5120   19.6180    1.3880 N   0  0  0  0  0
  -24.7280   23.7190    1.5740 C   0  0  0  0  0
  -24.0320   24.5960    1.0640 O   0  0  0  0  0
  -25.8510   24.0060    2.1770 N   0  0  0  0  0
  -26.3130   25.3770    2.3140 C   0  0  0  0  0
  -28.0080   24.2290    6.4420 C   0  0  0  0  0
  -25.8770   23.1520    6.3580 C   0  0  0  0  0
  -24.0502   22.2792   -0.6335 H   0  0  0  0  0
  -24.9148   26.0913    3.7023 H   0  0  0  0  0
  -26.5711   26.8535    3.7789 H   0  0  0  0  0
  -28.3215   25.8169    5.0386 H   0  0  0  0  0
  -27.4462   22.5957    7.7447 H   0  0  0  0  0
  -24.5095   23.9159    4.8841 H   0  0  0  0  0
  -24.5896   20.6901    7.0758 H   0  0  0  0  0
  -23.2307   16.7724    6.6293 H   0  0  0  0  0
  -23.2734   16.0576    4.2896 H   0  0  0  0  0
  -23.7988   20.8416    5.2625 H   0  0  0  0  0
  -24.4634   21.9204    3.6306 H   0  0  0  0  0
  -23.3878   19.9175   -0.6782 H   0  0  0  0  0
  -26.4172   23.2494    2.5609 H   0  0  0  0  0
  -25.8107   25.9850    1.5616 H   0  0  0  0  0
  -27.3954   25.3886    2.1860 H   0  0  0  0  0
  -29.0039   24.3327    6.8727 H   0  0  0  0  0
  -25.1769   22.3975    6.7167 H   0  0  0  0  0
  1 15  1  0  0  0
 17  1  4  0  0  0
  1 20  4  0  0  0
 18  2  4  0  0  0
  2 19  4  0  0  0
  3  4  1  0  0  0
 24  3  1  0  0  0
  4  5  4  0  0  0
  4  7  4  0  0  0
  5 25  4  0  0  0
 25  6  4  0  0  0
 26  6  4  0  0  0
  7 26  4  0  0  0
  9  8  1  0  0  0
  9 10  2  0  0  0
 11  9  1  0  0  0
 11 12  4  0  0  0
 16 11  4  0  0  0
 13 12  4  0  0  0
 14 13  4  0  0  0
 15 14  4  0  0  0
 15 16  4  0  0  0
 18 17  4  0  0  0
 21 18  1  0  0  0
 19 20  4  0  0  0
 21 22  2  0  0  0
 23 21  1  0  0  0
 23 24  1  0  0  0
  2 27  1  0  0  0
  3 28  1  0  0  0
  3 29  1  0  0  0
  5 30  1  0  0  0
  6 31  1  0  0  0
  7 32  1  0  0  0
  8 33  1  0  0  0
 12 34  1  0  0  0
 13 35  1  0  0  0
 16 36  1  0  0  0
 17 37  1  0  0  0
 19 38  1  0  0  0
 23 39  1  0  0  0
 24 40  1  0  0  0
 24 41  1  0  0  0
 25 42  1  0  0  0
 26 43  1  0  0  0
M  END
$$$$
