6cmj_ligand
  -I-interpret- 

 49 52  0  0  0  0  0  0  0  0999 V2000
   37.4470   50.6690    6.7560 C   0  0  0  0  0
   35.8170   45.4090   11.2000 N   0  0  0  0  0
   39.5550   50.7510    8.9840 C   0  0  0  0  0
   38.8060   49.7230    9.5380 C   0  0  0  0  0
   39.3870   48.6240   10.1310 C   0  0  0  0  0
   41.5190   49.5790    9.6590 C   0  0  0  0  0
   40.9380   50.6760    9.0550 C   0  0  0  0  0
   41.8840   51.6970    8.5080 C   0  0  0  0  0
   38.5790   47.5550   10.6950 C   0  0  0  0  0
   38.9670   46.8290   11.8070 C   0  0  0  0  0
   34.9810   45.7670   10.2110 C   0  0  0  0  0
   35.1890   46.7310    9.2450 C   0  0  0  0  0
   37.3010   47.0810   10.3140 C   0  0  0  0  0
   34.1880   47.0590    8.2040 C   0  0  0  0  0
   33.3530   48.5320    6.4680 C   0  0  0  0  0
   34.2840   48.2070    7.4310 C   0  0  0  0  0
   37.4730   51.7360    7.8190 C   0  0  0  0  0
   37.0540   53.0170    7.1380 C   0  0  0  0  0
   38.8850   51.9250    8.3410 C   0  0  0  0  0
   40.7600   48.5660   10.1900 C   0  0  0  0  0
   41.7670   52.0550    7.3040 O   0  0  0  0  0
   42.7930   52.0870    9.2800 O   0  0  0  0  0
   37.9830   45.9430   12.1110 N   0  0  0  0  0
   36.9580   46.1010   11.2120 C   0  0  0  0  0
   36.3970   47.3940    9.3230 C   0  0  0  0  0
   33.0810   46.2560    7.9580 C   0  0  0  0  0
   32.1320   46.5600    7.0110 C   0  0  0  0  0
   32.2690   47.7020    6.2590 C   0  0  0  0  0
   36.4388   50.5869    6.3500 H   0  0  0  0  0
   38.1406   50.9355    5.9585 H   0  0  0  0  0
   37.7428   49.7153    7.1930 H   0  0  0  0  0
   37.7185   49.7874    9.5027 H   0  0  0  0  0
   42.6057   49.5158    9.7156 H   0  0  0  0  0
   39.9054   46.9480   12.3487 H   0  0  0  0  0
   34.0303   45.2358   10.1663 H   0  0  0  0  0
   33.4715   49.4388    5.8748 H   0  0  0  0  0
   35.1281   48.8777    7.5914 H   0  0  0  0  0
   36.8223   51.4653    8.6505 H   0  0  0  0  0
   37.0845   53.8359    7.8568 H   0  0  0  0  0
   37.7359   53.2291    6.3145 H   0  0  0  0  0
   36.0402   52.9075    6.7529 H   0  0  0  0  0
   39.4895   52.1610    7.4652 H   0  0  0  0  0
   38.8070   52.6797    9.1236 H   0  0  0  0  0
   41.2474   47.7120   10.6604 H   0  0  0  0  0
   40.9993   51.6275    6.9174 H   0  0  0  0  0
   36.6371   48.1699    8.5961 H   0  0  0  0  0
   32.9596   45.3439    8.5423 H   0  0  0  0  0
   31.2778   45.9005    6.8578 H   0  0  0  0  0
   31.5260   47.9515    5.5015 H   0  0  0  0  0
 17  1  1  0  0  0
  2 11  4  0  0  0
 24  2  4  0  0  0
  3  4  4  0  0  0
  3  7  4  0  0  0
 19  3  1  0  0  0
  4  5  4  0  0  0
  5  9  1  0  0  0
  5 20  4  0  0  0
  7  6  4  0  0  0
  6 20  4  0  0  0
  7  8  1  0  0  0
  8 21  1  0  0  0
  8 22  2  0  0  0
  9 10  4  0  0  0
  9 13  4  0  0  0
 10 23  4  0  0  0
 12 11  4  0  0  0
 12 14  1  0  0  0
 25 12  4  0  0  0
 13 24  4  0  0  0
 13 25  4  0  0  0
 14 16  4  0  0  0
 14 26  4  0  0  0
 16 15  4  0  0  0
 15 28  4  0  0  0
 17 18  1  0  0  0
 17 19  1  0  0  0
 23 24  4  0  0  0
 26 27  4  0  0  0
 27 28  4  0  0  0
  1 29  1  0  0  0
  1 30  1  0  0  0
  1 31  1  0  0  0
  4 32  1  0  0  0
  6 33  1  0  0  0
 10 34  1  0  0  0
 11 35  1  0  0  0
 15 36  1  0  0  0
 16 37  1  0  0  0
 17 38  1  0  0  0
 18 39  1  0  0  0
 18 40  1  0  0  0
 18 41  1  0  0  0
 19 42  1  0  0  0
 19 43  1  0  0  0
 20 44  1  0  0  0
 21 45  1  0  0  0
 25 46  1  0  0  0
 26 47  1  0  0  0
 27 48  1  0  0  0
 28 49  1  0  0  0
M  END
$$$$
