1n1g_ligand
  -I-interpret- 

 12 13  0  0  0  0  0  0  0  0999 V2000
   33.0560   56.2780   31.8530 Cl  0  0  0  0  0
   33.9490   55.0030   30.9600 C   0  0  0  0  0
   35.2730   54.8720   31.1150 N   0  0  0  0  0
   35.9950   53.9290   30.4650 C   0  0  0  0  0
   37.8460   53.8920   30.8020 Br  0  0  0  0  0
   33.3180   54.0380   30.0200 C   0  0  0  0  0
   34.1690   53.0520   29.3640 C   0  0  0  0  0
   35.4830   53.0230   29.6010 N   0  0  0  0  0
   32.0630   53.8360   29.6040 N   0  0  0  0  0
   32.1180   52.7810   28.7280 C   0  0  0  0  0
   33.3920   52.3010   28.5790 N   0  0  0  0  0
   31.2494   52.3729   28.2113 H   0  0  0  0  0
  1  2  1  0  0  0
  2  3  4  0  0  0
  2  6  4  0  0  0
  3  4  4  0  0  0
  4  5  1  0  0  0
  4  8  4  0  0  0
  6  7  4  0  0  0
  6  9  4  0  0  0
  7  8  4  0  0  0
  7 11  4  0  0  0
  9 10  4  0  0  0
 10 11  4  0  0  0
 10 12  1  0  0  0
M  END
$$$$
