5ha1_ligand
  -I-interpret- 

 53 53  0  0  0  0  0  0  0  0999 V2000
   -1.5940   -1.5710    4.2440 N   0  3  0  0  0
   -1.8450   -0.3290    5.0500 C   0  0  0  0  0
   -1.3160   -0.6320    6.4630 C   0  0  0  0  0
   -0.4530    0.0690    7.2200 C   0  0  0  0  0
   -0.0770   -0.6490    8.5350 C   0  0  0  0  0
    1.1170   -0.4290    9.1560 C   0  0  0  0  0
    1.4340   -1.3080   10.3650 C   0  0  0  0  0
    2.5370   -1.1770   11.1360 C   0  0  0  0  0
    2.6450   -2.1980   12.2590 C   0  0  0  0  0
    3.6720   -2.1920   13.1250 C   0  0  0  0  0
    3.7690   -3.1930   14.3210 C   0  0  0  0  0
    4.5160   -2.8110   15.3630 C   0  0  0  0  0
    4.6360   -3.5930   16.6770 C   0  0  0  0  0
    3.6390   -4.7410   16.7250 C   0  0  0  0  0
    3.5040   -5.4430   15.4190 C   0  0  0  0  0
    2.9760   -4.5260   14.3440 C   0  0  0  0  0
    3.1080   -5.3060   13.0420 C   0  0  0  0  0
    1.4880   -4.2930   14.6100 C   0  0  0  0  0
    5.3300   -1.5290   15.3380 C   0  0  0  0  0
    3.5410   -0.0450   10.9930 C   0  0  0  0  0
    0.2510    1.3660    6.8100 C   0  0  0  0  0
   -1.9266   -1.4290    3.2903 H   0  0  0  0  0
   -0.5936   -1.7697    4.2304 H   0  0  0  0  0
   -2.0918   -2.3550    4.6658 H   0  0  0  0  0
   -2.9051   -0.0764    5.0693 H   0  0  0  0  0
   -1.3417    0.5344    4.6149 H   0  0  0  0  0
   -1.6958   -1.5477    6.9162 H   0  0  0  0  0
   -0.7845   -1.3498    8.9781 H   0  0  0  0  0
    1.8108    0.3359    8.8072 H   0  0  0  0  0
    0.7234   -2.0932   10.6232 H   0  0  0  0  0
    1.8678   -2.9550   12.3637 H   0  0  0  0  0
    4.4685   -1.4606   12.9881 H   0  0  0  0  0
    4.4282   -2.9161   17.5057 H   0  0  0  0  0
    5.6434   -4.0031   16.7477 H   0  0  0  0  0
    2.6646   -4.3263   16.9833 H   0  0  0  0  0
    3.9978   -5.4643   17.4572 H   0  0  0  0  0
    2.8011   -6.2667   15.5432 H   0  0  0  0  0
    4.4896   -5.7958   15.1155 H   0  0  0  0  0
    2.7271   -4.7024   12.2181 H   0  0  0  0  0
    4.1575   -5.5421   12.8662 H   0  0  0  0  0
    2.5335   -6.2295   13.1134 H   0  0  0  0  0
    1.3653   -3.8028   15.5758 H   0  0  0  0  0
    1.0746   -3.6601   13.8247 H   0  0  0  0  0
    0.9674   -5.2506   14.6184 H   0  0  0  0  0
    6.0512   -1.5739   14.5219 H   0  0  0  0  0
    4.6633   -0.6796   15.1891 H   0  0  0  0  0
    5.8577   -1.4166   16.2851 H   0  0  0  0  0
    3.9683   -0.0645    9.9904 H   0  0  0  0  0
    3.0378    0.9080   11.1564 H   0  0  0  0  0
    4.3344   -0.1695   11.7300 H   0  0  0  0  0
    0.8579    1.1838    5.9231 H   0  0  0  0  0
   -0.4955    2.1293    6.5904 H   0  0  0  0  0
    0.8898    1.7047    7.6257 H   0  0  0  0  0
  1  2  1  0  0  0
  2  3  1  0  0  0
  3  4  2  0  0  0
  4  5  1  0  0  0
  4 21  1  0  0  0
  5  6  2  0  0  0
  6  7  1  0  0  0
  7  8  2  0  0  0
  8  9  1  0  0  0
  8 20  1  0  0  0
  9 10  2  0  0  0
 10 11  1  0  0  0
 11 12  2  0  0  0
 11 16  1  0  0  0
 12 13  1  0  0  0
 12 19  1  0  0  0
 13 14  1  0  0  0
 14 15  1  0  0  0
 15 16  1  0  0  0
 16 17  1  0  0  0
 16 18  1  0  0  0
  1 22  1  0  0  0
  1 23  1  0  0  0
  1 24  1  0  0  0
  2 25  1  0  0  0
  2 26  1  0  0  0
  3 27  1  0  0  0
  5 28  1  0  0  0
  6 29  1  0  0  0
  7 30  1  0  0  0
  9 31  1  0  0  0
 10 32  1  0  0  0
 13 33  1  0  0  0
 13 34  1  0  0  0
 14 35  1  0  0  0
 14 36  1  0  0  0
 15 37  1  0  0  0
 15 38  1  0  0  0
 17 39  1  0  0  0
 17 40  1  0  0  0
 17 41  1  0  0  0
 18 42  1  0  0  0
 18 43  1  0  0  0
 18 44  1  0  0  0
 19 45  1  0  0  0
 19 46  1  0  0  0
 19 47  1  0  0  0
 20 48  1  0  0  0
 20 49  1  0  0  0
 20 50  1  0  0  0
 21 51  1  0  0  0
 21 52  1  0  0  0
 21 53  1  0  0  0
M  END
$$$$
