5os8_ligand
  -I-interpret- 

 31 32  0  0  0  0  0  0  0  0999 V2000
 -135.2640 -185.2240  298.9190 Cl  0  0  0  0  0
 -136.8190 -184.5160  298.6050 C   0  0  0  0  0
 -137.3190 -183.6330  299.5410 C   0  0  0  0  0
 -138.6040 -183.1190  299.4040 C   0  0  0  0  0
 -139.2200 -182.3830  300.5180 C   0  0  0  0  0
 -139.8230 -183.3650  301.3920 N   0  3  0  0  0
 -139.3460 -183.4680  298.2830 C   0  0  0  0  0
 -138.8400 -184.3310  297.3250 C   0  0  0  0  0
 -137.5600 -184.8780  297.4650 C   0  0  0  0  0
 -137.0400 -185.7780  296.3890 C   0  0  0  0  0
 -135.9910 -185.3910  295.5250 C   0  0  0  0  0
 -135.3640 -184.0190  295.5730 C   0  0  0  0  0
 -137.6770 -187.0100  296.1920 C   0  0  0  0  0
 -137.3020 -187.8430  295.1520 C   0  0  0  0  0
 -136.2560 -187.4510  294.3510 C   0  0  0  0  0
 -135.8550 -188.2820  293.3450 F   0  0  0  0  0
 -135.5880 -186.2630  294.5180 C   0  0  0  0  0
 -136.7040 -183.3374  300.3910 H   0  0  0  0  0
 -139.9697 -181.6827  300.1497 H   0  0  0  0  0
 -138.4725 -181.7976  301.0535 H   0  0  0  0  0
 -140.2630 -182.8915  302.1811 H   0  0  0  0  0
 -140.5266 -183.8922  300.8749 H   0  0  0  0  0
 -139.1031 -184.0014  301.7342 H   0  0  0  0  0
 -140.3463 -183.0546  298.1546 H   0  0  0  0  0
 -139.4443 -184.5862  296.4545 H   0  0  0  0  0
 -136.1263 -183.2654  295.3752 H   0  0  0  0  0
 -134.9337 -183.8519  296.5604 H   0  0  0  0  0
 -134.5807 -183.9523  294.8179 H   0  0  0  0  0
 -138.4774 -187.3163  296.8656 H   0  0  0  0  0
 -137.8220 -188.7841  294.9731 H   0  0  0  0  0
 -134.7511 -186.0057  293.8688 H   0  0  0  0  0
  1  2  1  0  0  0
  2  3  4  0  0  0
  2  9  4  0  0  0
  3  4  4  0  0  0
  4  5  1  0  0  0
  4  7  4  0  0  0
  5  6  1  0  0  0
  7  8  4  0  0  0
  8  9  4  0  0  0
  9 10  1  0  0  0
 10 11  4  0  0  0
 10 13  4  0  0  0
 11 12  1  0  0  0
 11 17  4  0  0  0
 13 14  4  0  0  0
 14 15  4  0  0  0
 15 16  1  0  0  0
 15 17  4  0  0  0
  3 18  1  0  0  0
  5 19  1  0  0  0
  5 20  1  0  0  0
  6 21  1  0  0  0
  6 22  1  0  0  0
  6 23  1  0  0  0
  7 24  1  0  0  0
  8 25  1  0  0  0
 12 26  1  0  0  0
 12 27  1  0  0  0
 12 28  1  0  0  0
 13 29  1  0  0  0
 14 30  1  0  0  0
 17 31  1  0  0  0
M  END
$$$$
