4z1s_ligand
  -I-interpret- 

 51 55  0  0  0  0  0  0  0  0999 V2000
  -27.9340  -61.1300  135.9780 C   0  0  0  0  0
  -28.7770  -61.8680  135.1870 C   0  0  0  0  0
  -30.1380  -61.8270  135.4140 C   0  0  0  0  0
  -30.8910  -62.5340  134.6020 N   0  0  0  0  0
  -30.6570  -61.0970  136.3990 N   0  0  0  0  0
  -29.8190  -60.3090  137.2470 C   0  0  0  0  0
  -28.4190  -60.3090  137.0210 C   0  0  0  0  0
  -27.5060  -59.5300  137.8970 C   0  0  0  0  0
  -26.3160  -59.0860  137.3350 C   0  0  0  0  0
  -25.4220  -58.2940  138.0780 C   0  0  0  0  0
  -27.8580  -59.2120  139.1710 C   0  0  0  0  0
  -26.9980  -58.4240  139.9500 C   0  0  0  0  0
  -25.7730  -57.9730  139.4110 C   0  0  0  0  0
  -24.9040  -57.2220  140.2290 N   0  0  0  0  0
  -25.0940  -56.2340  141.0950 C   0  0  0  0  0
  -26.4400  -55.6190  141.3520 C   0  0  0  0  0
  -23.9790  -55.8550  141.6070 N   0  0  0  0  0
  -22.9310  -56.7100  141.0880 N   0  0  0  0  0
  -23.5450  -57.5330  140.2390 C   0  0  0  0  0
  -22.7670  -58.5580  139.5300 C   0  0  0  0  0
  -23.2530  -59.9130  139.9970 C   0  0  0  0  0
  -22.8840  -58.3620  138.0340 C   0  0  0  0  0
  -24.2040  -57.8800  137.5000 N   0  0  0  0  0
  -24.2140  -57.3650  136.2350 C   0  0  0  0  0
  -25.3160  -56.6980  135.7340 C   0  0  0  0  0
  -25.3670  -56.0710  134.5090 C   0  0  0  0  0
  -24.2560  -56.0920  133.7170 C   0  0  0  0  0
  -24.1800  -55.3490  132.1790 Cl  0  0  0  0  0
  -23.1010  -56.8180  134.1760 C   0  0  0  0  0
  -23.0420  -57.4190  135.4120 C   0  0  0  0  0
  -26.8602  -61.1780  135.7972 H   0  0  0  0  0
  -28.3742  -62.4840  134.3830 H   0  0  0  0  0
  -30.4627  -63.0756  133.8512 H   0  0  0  0  0
  -31.9038  -62.5413  134.7224 H   0  0  0  0  0
  -30.2492  -59.7172  138.0549 H   0  0  0  0  0
  -26.0722  -59.3542  136.3070 H   0  0  0  0  0
  -28.8021  -59.5670  139.5843 H   0  0  0  0  0
  -27.2749  -58.1599  140.9706 H   0  0  0  0  0
  -26.8275  -55.1956  140.4253 H   0  0  0  0  0
  -27.1243  -56.3849  141.7171 H   0  0  0  0  0
  -26.3416  -54.8317  142.0994 H   0  0  0  0  0
  -21.7036  -58.4799  139.7562 H   0  0  0  0  0
  -23.1028  -60.0004  141.0731 H   0  0  0  0  0
  -24.3135  -60.0162  139.7673 H   0  0  0  0  0
  -22.6915  -60.6950  139.4858 H   0  0  0  0  0
  -22.7319  -59.3483  137.5955 H   0  0  0  0  0
  -22.1632  -57.5841  137.7822 H   0  0  0  0  0
  -26.2114  -56.6659  136.3547 H   0  0  0  0  0
  -26.2761  -55.5683  134.1788 H   0  0  0  0  0
  -22.2366  -56.8948  133.5164 H   0  0  0  0  0
  -22.1355  -57.9188  135.7535 H   0  0  0  0  0
  1  2  4  0  0  0
  1  7  4  0  0  0
  2  3  4  0  0  0
  3  4  1  0  0  0
  3  5  4  0  0  0
  5  6  4  0  0  0
  6  7  4  0  0  0
  7  8  1  0  0  0
  8  9  4  0  0  0
  8 11  4  0  0  0
  9 10  4  0  0  0
 10 13  4  0  0  0
 10 23  1  0  0  0
 11 12  4  0  0  0
 12 13  4  0  0  0
 13 14  1  0  0  0
 14 15  4  0  0  0
 14 19  4  0  0  0
 15 16  1  0  0  0
 15 17  4  0  0  0
 17 18  4  0  0  0
 18 19  4  0  0  0
 19 20  1  0  0  0
 20 21  1  0  0  0
 20 22  1  0  0  0
 22 23  1  0  0  0
 23 24  1  0  0  0
 24 25  4  0  0  0
 24 30  4  0  0  0
 25 26  4  0  0  0
 26 27  4  0  0  0
 27 28  1  0  0  0
 27 29  4  0  0  0
 29 30  4  0  0  0
  1 31  1  0  0  0
  2 32  1  0  0  0
  4 33  1  0  0  0
  4 34  1  0  0  0
  6 35  1  0  0  0
  9 36  1  0  0  0
 11 37  1  0  0  0
 12 38  1  0  0  0
 16 39  1  0  0  0
 16 40  1  0  0  0
 16 41  1  0  0  0
 20 42  1  0  0  0
 21 43  1  0  0  0
 21 44  1  0  0  0
 21 45  1  0  0  0
 22 46  1  0  0  0
 22 47  1  0  0  0
 25 48  1  0  0  0
 26 49  1  0  0  0
 29 50  1  0  0  0
 30 51  1  0  0  0
M  END
$$$$
