6fau_ligand
  -I-interpret- 

153157  0  0  0  0  0  0  0  0999 V2000
   23.1120   -4.7520  -17.7610 C   0  0  0  0  0
   23.6070   -5.8040  -18.1730 O   0  0  0  0  0
   22.7820   -3.6050  -18.6760 C   0  0  0  0  0
   22.8330   -4.5750  -16.4700 N   0  0  0  0  0
   23.1110   -5.6220  -15.4960 C   0  0  0  0  0
   22.2730   -6.8820  -15.7650 C   0  0  0  0  0
   21.2700   -6.8390  -16.4880 O   0  0  0  0  0
   22.8370   -5.1220  -14.0680 C   0  0  0  0  0
   23.8860   -4.1650  -13.4590 C   0  0  0  0  0
   23.7970   -4.1970  -11.9230 C   0  0  0  0  0
   24.5310   -3.1390  -11.2230 N   0  0  0  0  0
   25.7990   -3.2260  -10.8250 C   0  0  0  0  0
   26.3630   -2.2190  -10.1720 N   0  0  0  0  0
   26.5150   -4.3130  -11.0830 N   0  0  0  0  0
   22.7070   -8.0020  -15.1930 N   0  0  0  0  0
   21.9100   -9.2200  -15.2290 C   0  0  0  0  0
   20.5240   -8.9420  -14.6460 C   0  0  0  0  0
   20.4140   -8.3120  -13.5900 O   0  0  0  0  0
   22.5690  -10.3100  -14.3780 C   0  0  0  0  0
   23.9180  -10.5320  -14.8040 O   0  0  0  0  0
   21.7910  -11.6120  -14.4840 C   0  0  0  0  0
   19.4460   -9.4560  -15.2620 N   0  0  0  0  0
   18.1040   -9.2560  -14.6790 C   0  0  0  0  0
   17.8150  -10.0070  -13.3630 C   0  0  0  0  0
   18.1520  -11.1820  -13.1810 O   0  0  0  0  0
   17.1530   -9.7590  -15.7820 C   0  0  0  0  0
   17.9570   -9.9080  -16.9980 C   0  0  0  0  0
   19.3930  -10.0440  -16.6120 C   0  0  0  0  0
   17.1810   -9.3010  -12.4360 N   0  0  0  0  0
   16.7300   -9.8820  -11.1770 C   0  0  0  0  0
   16.9460   -8.8780  -10.0480 C   0  0  0  0  0
   16.2130   -7.7070  -10.3660 O   0  0  0  0  0
   15.2470  -10.2590  -11.2880 C   0  0  0  0  0
   14.6380  -10.0950  -12.3360 O   0  0  0  0  0
   16.4500   -6.4100   -9.4560 P   0  0  0  0  0
   15.4610   -5.3630  -10.0430 O   0  0  0  0  0
   17.9410   -5.9960   -9.6380 O   0  0  0  0  0
   16.1110   -6.7940   -7.9830 O   0  0  0  0  0
   14.6700  -10.7690  -10.2080 N   0  0  0  0  0
   13.2740  -11.1790  -10.2180 C   0  0  0  0  0
   12.3940   -9.9850  -10.5950 C   0  0  0  0  0
   12.5150   -8.9300   -9.9970 O   0  0  0  0  0
   12.8930  -11.7050   -8.8380 C   0  0  0  0  0
   11.5980  -12.5000   -8.7090 C   0  0  0  0  0
   11.6730  -13.8320   -9.4160 C   0  0  0  0  0
   11.2460  -12.6990   -7.2310 C   0  0  0  0  0
   11.4930  -10.1480  -11.5580 N   0  0  0  0  0
   10.6810   -9.0120  -12.0210 C   0  0  0  0  0
    9.4200   -8.8060  -11.1860 C   0  0  0  0  0
    8.3360   -8.5310  -11.7080 O   0  0  0  0  0
   10.3500   -9.4100  -13.4600 C   0  0  0  0  0
   10.2460  -10.8930  -13.3900 C   0  0  0  0  0
   11.3260  -11.3190  -12.4290 C   0  0  0  0  0
    9.5720   -8.8790   -9.8760 N   0  0  0  0  0
    8.4610   -8.8460   -8.9610 C   0  0  0  0  0
    8.9440   -9.4280   -7.6630 C   0  0  0  0  0
   10.1360   -9.5570   -7.4550 O   0  0  0  0  0
    7.8920  -13.0210   -9.4900 C   0  0  0  0  0
    6.3580  -11.5430   -8.3530 C   0  0  0  0  0
    7.3540  -12.6360  -10.7110 C   0  0  0  0  0
    5.8150  -11.1540   -9.5840 C   0  0  0  0  0
    6.3320  -11.7070  -10.7690 C   0  0  0  0  0
    3.5610  -14.0190   -5.6820 C   0  0  0  0  0
    3.5880  -11.8200   -6.6460 C   0  0  0  0  0
    2.1830  -11.7340   -6.5660 C   0  0  0  0  0
    1.5720  -10.5270   -6.8620 C   0  0  0  0  0
    2.3310   -9.4250   -7.2330 C   0  0  0  0  0
    3.7330   -9.5320   -7.3140 C   0  0  0  0  0
    4.3540  -10.7350   -7.0100 C   0  0  0  0  0
    5.8540  -10.9320   -7.0500 C   0  0  0  0  0
    7.3940  -12.4570   -8.2940 C   0  0  0  0  0
    6.6200   -9.5780   -6.7640 C   0  0  0  0  0
    8.3910  -10.0480   -5.2000 C   0  0  0  0  0
    7.2800   -9.8420   -4.4480 C   0  0  0  0  0
    6.2840   -9.0670   -5.3030 C   0  0  0  0  0
    7.9280   -9.7840   -6.7320 N   0  0  0  0  0
    4.2820  -13.0210   -6.3490 O   0  0  0  0  0
   23.6908   -3.2648  -19.1724 H   0  0  0  0  0
   22.0598   -3.9341  -19.4231 H   0  0  0  0  0
   22.3571   -2.7877  -18.0933 H   0  0  0  0  0
   22.4197   -3.6955  -16.1600 H   0  0  0  0  0
   24.1654   -5.8804  -15.5941 H   0  0  0  0  0
   22.8330   -6.0084  -13.4336 H   0  0  0  0  0
   21.9067   -4.5564  -14.1197 H   0  0  0  0  0
   23.6927   -3.1509  -13.8088 H   0  0  0  0  0
   24.8824   -4.4813  -13.7675 H   0  0  0  0  0
   24.2400   -5.1415  -11.6073 H   0  0  0  0  0
   22.7451   -4.0620  -11.6714 H   0  0  0  0  0
   24.0333   -2.2708  -11.0258 H   0  0  0  0  0
   25.8255   -1.3752   -9.9734 H   0  0  0  0  0
   27.4874   -4.3670  -10.7798 H   0  0  0  0  0
   26.0930   -5.0945  -11.5845 H   0  0  0  0  0
   23.6118   -8.0075  -14.7221 H   0  0  0  0  0
   21.8333   -9.5505  -16.2649 H   0  0  0  0  0
   22.5688   -9.9732  -13.3413 H   0  0  0  0  0
   24.3152  -11.2168  -14.2610 H   0  0  0  0  0
   20.7718  -11.4545  -14.1312 H   0  0  0  0  0
   21.7706  -11.9379  -15.5239 H   0  0  0  0  0
   22.2748  -12.3737  -13.8726 H   0  0  0  0  0
   17.9891   -8.2099  -14.3951 H   0  0  0  0  0
   16.3366   -9.0545  -15.9409 H   0  0  0  0  0
   16.6986  -10.7085  -15.4989 H   0  0  0  0  0
   17.8273   -9.0337  -17.6359 H   0  0  0  0  0
   17.6365  -10.7938  -17.5464 H   0  0  0  0  0
   19.7331  -11.0794  -16.6293 H   0  0  0  0  0
   20.0620   -9.5428  -17.3116 H   0  0  0  0  0
   17.0018   -8.3122  -12.6109 H   0  0  0  0  0
   17.3034  -10.7830  -10.9591 H   0  0  0  0  0
   18.0059   -8.6456   -9.9449 H   0  0  0  0  0
   16.6039   -9.2938   -9.1003 H   0  0  0  0  0
   18.5081   -6.6725   -9.2607 H   0  0  0  0  0
   16.7472   -7.4400   -7.6674 H   0  0  0  0  0
   15.2160  -10.8759   -9.3531 H   0  0  0  0  0
   13.1254  -11.9706  -10.9524 H   0  0  0  0  0
   12.7519  -10.8189   -8.2191 H   0  0  0  0  0
   13.6874  -12.3987   -8.5629 H   0  0  0  0  0
   10.8106  -11.9225   -9.1935 H   0  0  0  0  0
   11.8664  -13.6688  -10.4762 H   0  0  0  0  0
   12.4795  -14.4255   -8.9854 H   0  0  0  0  0
   10.7271  -14.3599   -9.2950 H   0  0  0  0  0
   12.0509  -13.2434   -6.7372 H   0  0  0  0  0
   11.1180  -11.7267   -6.7552 H   0  0  0  0  0
   10.3195  -13.2679   -7.1529 H   0  0  0  0  0
   11.2023   -8.0584  -11.9369 H   0  0  0  0  0
   11.1045   -9.0755  -14.1719 H   0  0  0  0  0
    9.4357   -8.9421  -13.8250 H   0  0  0  0  0
   10.3753  -11.3522  -14.3701 H   0  0  0  0  0
    9.2594  -11.2118  -13.0537 H   0  0  0  0  0
   11.0593  -12.2179  -11.8732 H   0  0  0  0  0
   12.2499  -11.5971  -12.9361 H   0  0  0  0  0
   10.5153   -8.9622   -9.4970 H   0  0  0  0  0
    7.6215   -9.4204   -9.3526 H   0  0  0  0  0
    8.1089   -7.8243   -8.8184 H   0  0  0  0  0
    8.6960  -13.7561   -9.4544 H   0  0  0  0  0
    7.7413  -13.0705  -11.6325 H   0  0  0  0  0
    5.0006  -10.4306   -9.6231 H   0  0  0  0  0
    5.9266  -11.4029  -11.7340 H   0  0  0  0  0
    3.2124  -13.6345   -4.7235 H   0  0  0  0  0
    2.7054  -14.3147   -6.2892 H   0  0  0  0  0
    4.2059  -14.8819   -5.5160 H   0  0  0  0  0
    1.5891  -12.6010   -6.2767 H   0  0  0  0  0
    0.4870  -10.4414   -6.8033 H   0  0  0  0  0
    1.8422   -8.4779   -7.4614 H   0  0  0  0  0
    4.3295   -8.6708   -7.6151 H   0  0  0  0  0
    6.0699  -11.6487   -6.2577 H   0  0  0  0  0
    7.8229  -12.7401   -7.3328 H   0  0  0  0  0
    6.3236   -8.8765   -7.5438 H   0  0  0  0  0
    8.7827  -11.0566   -5.0680 H   0  0  0  0  0
    9.2026   -9.3823   -4.9064 H   0  0  0  0  0
    7.5282   -9.2793   -3.5481 H   0  0  0  0  0
    6.8518  -10.7935   -4.1326 H   0  0  0  0  0
    5.2470   -9.2418   -5.0164 H   0  0  0  0  0
    6.3776   -7.9864   -5.1955 H   0  0  0  0  0
  1  2  2  0  0  0
  1  3  1  0  0  0
  4  1  1  0  0  0
  5  4  1  0  0  0
  6  5  1  0  0  0
  5  8  1  0  0  0
  6  7  2  0  0  0
 15  6  1  0  0  0
  8  9  1  0  0  0
  9 10  1  0  0  0
 10 11  1  0  0  0
 11 12  1  0  0  0
 12 13  2  0  0  0
 12 14  1  0  0  0
 16 15  1  0  0  0
 17 16  1  0  0  0
 16 19  1  0  0  0
 17 18  2  0  0  0
 22 17  1  0  0  0
 19 20  1  0  0  0
 19 21  1  0  0  0
 23 22  1  0  0  0
 22 28  1  0  0  0
 24 23  1  0  0  0
 23 26  1  0  0  0
 24 25  2  0  0  0
 29 24  1  0  0  0
 26 27  1  0  0  0
 27 28  1  0  0  0
 30 29  1  0  0  0
 30 31  1  0  0  0
 33 30  1  0  0  0
 31 32  1  0  0  0
 32 35  1  0  0  0
 33 34  2  0  0  0
 39 33  1  0  0  0
 35 36  2  0  0  0
 35 37  1  0  0  0
 35 38  1  0  0  0
 40 39  1  0  0  0
 41 40  1  0  0  0
 40 43  1  0  0  0
 41 42  2  0  0  0
 47 41  1  0  0  0
 43 44  1  0  0  0
 44 45  1  0  0  0
 44 46  1  0  0  0
 48 47  1  0  0  0
 47 53  1  0  0  0
 49 48  1  0  0  0
 48 51  1  0  0  0
 49 50  2  0  0  0
 54 49  1  0  0  0
 51 52  1  0  0  0
 52 53  1  0  0  0
 55 54  1  0  0  0
 56 55  1  0  0  0
 56 57  2  0  0  0
 76 56  1  0  0  0
 58 60  4  0  0  0
 71 58  4  0  0  0
 59 61  4  0  0  0
 70 59  1  0  0  0
 59 71  4  0  0  0
 62 60  4  0  0  0
 61 62  4  0  0  0
 77 63  1  0  0  0
 64 65  4  0  0  0
 69 64  4  0  0  0
 64 77  1  0  0  0
 65 66  4  0  0  0
 67 66  4  0  0  0
 68 67  4  0  0  0
 69 68  4  0  0  0
 70 69  1  0  0  0
 72 70  1  0  0  0
 72 75  1  0  0  0
 76 72  1  0  0  0
 73 74  1  0  0  0
 76 73  1  0  0  0
 74 75  1  0  0  0
  3 78  1  0  0  0
  3 79  1  0  0  0
  3 80  1  0  0  0
  4 81  1  0  0  0
  5 82  1  0  0  0
  8 83  1  0  0  0
  8 84  1  0  0  0
  9 85  1  0  0  0
  9 86  1  0  0  0
 10 87  1  0  0  0
 10 88  1  0  0  0
 11 89  1  0  0  0
 13 90  1  0  0  0
 14 91  1  0  0  0
 14 92  1  0  0  0
 15 93  1  0  0  0
 16 94  1  0  0  0
 19 95  1  0  0  0
 20 96  1  0  0  0
 21 97  1  0  0  0
 21 98  1  0  0  0
 21 99  1  0  0  0
 23100  1  0  0  0
 26101  1  0  0  0
 26102  1  0  0  0
 27103  1  0  0  0
 27104  1  0  0  0
 28105  1  0  0  0
 28106  1  0  0  0
 29107  1  0  0  0
 30108  1  0  0  0
 31109  1  0  0  0
 31110  1  0  0  0
 37111  1  0  0  0
 38112  1  0  0  0
 39113  1  0  0  0
 40114  1  0  0  0
 43115  1  0  0  0
 43116  1  0  0  0
 44117  1  0  0  0
 45118  1  0  0  0
 45119  1  0  0  0
 45120  1  0  0  0
 46121  1  0  0  0
 46122  1  0  0  0
 46123  1  0  0  0
 48124  1  0  0  0
 51125  1  0  0  0
 51126  1  0  0  0
 52127  1  0  0  0
 52128  1  0  0  0
 53129  1  0  0  0
 53130  1  0  0  0
 54131  1  0  0  0
 55132  1  0  0  0
 55133  1  0  0  0
 58134  1  0  0  0
 60135  1  0  0  0
 61136  1  0  0  0
 62137  1  0  0  0
 63138  1  0  0  0
 63139  1  0  0  0
 63140  1  0  0  0
 65141  1  0  0  0
 66142  1  0  0  0
 67143  1  0  0  0
 68144  1  0  0  0
 70145  1  0  0  0
 71146  1  0  0  0
 72147  1  0  0  0
 73148  1  0  0  0
 73149  1  0  0  0
 74150  1  0  0  0
 74151  1  0  0  0
 75152  1  0  0  0
 75153  1  0  0  0
M  END
$$$$
