### 
### Created by X-TOOL on Wed Jan  1 15:39:35 2020
### 

@<TRIPOS>MOLECULE
6fau_ligand
  152   156     1     0     0
SMALL
GAST_HUCK


@<TRIPOS>ATOM
      1 C          23.1120   -4.7520  -17.7610 C.2       1 ACE         0.1751
      2 O          23.6070   -5.8040  -18.1730 O.2       1 ACE        -0.3972
      3 CH3        22.7820   -3.6050  -18.6760 C.3       1 ACE         0.0258
      4 N          22.8330   -4.5750  -16.4700 N.am      1 ARG        -0.2658
      5 CA         23.1110   -5.6220  -15.4960 C.3       1 ARG         0.1310
      6 C          22.2730   -6.8820  -15.7650 C.2       1 ARG         0.2040
      7 O          21.2700   -6.8390  -16.4880 O.2       1 ARG        -0.3944
      8 CB         22.8370   -5.1220  -14.0680 C.3       1 ARG        -0.0092
      9 CG         23.8860   -4.1650  -13.4590 C.3       1 ARG        -0.0156
     10 CD         23.7970   -4.1970  -11.9230 C.3       1 ARG         0.0627
     11 NE         24.5310   -3.1390  -11.2230 N.pl3     1 ARG        -0.2723
     12 CZ         25.7990   -3.2260  -10.8250 C.cat     1 ARG         0.2882
     13 NH1        26.3630   -2.2190  -10.1720 N.pl3     1 ARG        -0.2849
     14 NH2        26.5150   -4.3130  -11.0830 N.pl3     1 ARG        -0.2849
     15 N          22.7070   -8.0020  -15.1930 N.am      1 THR        -0.2613
     16 CA         21.9100   -9.2200  -15.2290 C.3       1 THR         0.1567
     17 C          20.5240   -8.9420  -14.6460 C.2       1 THR         0.2090
     18 O          20.4140   -8.3120  -13.5900 O.2       1 THR        -0.3941
     19 CB         22.5690  -10.3100  -14.3780 C.3       1 THR         0.0924
     20 OG1        23.9180  -10.5320  -14.8040 O.3       1 THR        -0.3874
     21 CG2        21.7910  -11.6120  -14.4840 C.3       1 THR        -0.0346
     22 N          19.4460   -9.4560  -15.2620 N.am      1 PRO        -0.2498
     23 CA         18.1040   -9.2560  -14.6790 C.3       1 PRO         0.1338
     24 C          17.8150  -10.0070  -13.3630 C.2       1 PRO         0.2042
     25 O          18.1520  -11.1820  -13.1810 O.2       1 PRO        -0.3944
     26 CB         17.1530   -9.7590  -15.7820 C.3       1 PRO        -0.0104
     27 CG         17.9570   -9.9080  -16.9980 C.3       1 PRO        -0.0281
     28 CD         19.3930  -10.0440  -16.6120 C.3       1 PRO         0.0369
     29 N          17.1810   -9.3010  -12.4360 N.am      1 SEP        -0.2613
     30 CA         16.7300   -9.8820  -11.1770 C.3       1 SEP         0.1586
     31 CB         16.9460   -8.8780  -10.0480 C.3       1 SEP         0.1184
     32 OG         16.2130   -7.7070  -10.3660 O.3       1 SEP        -0.2714
     33 C          15.2470  -10.2590  -11.2880 C.2       1 SEP         0.2065
     34 O          14.6380  -10.0950  -12.3360 O.2       1 SEP        -0.3943
     35 P          16.4500   -6.4100   -9.4560 P.3       1 SEP         0.2010
     36 O1P        15.4610   -5.3630  -10.0430 O.co2     1 SEP        -0.5537
     37 O2P        17.9410   -5.9960   -9.6380 O.co2     1 SEP        -0.5537
     38 O3P        16.1110   -6.7940   -7.9830 O.co2     1 SEP        -0.5537
     39 N          14.6700  -10.7690  -10.2080 N.am      1 LEU        -0.2636
     40 CA         13.2740  -11.1790  -10.2180 C.3       1 LEU         0.1314
     41 C          12.3940   -9.9850  -10.5950 C.2       1 LEU         0.2064
     42 O          12.5150   -8.9300   -9.9970 O.2       1 LEU        -0.3942
     43 CB         12.8930  -11.7050   -8.8380 C.3       1 LEU        -0.0101
     44 CG         11.5980  -12.5000   -8.7090 C.3       1 LEU        -0.0425
     45 CD1        11.6730  -13.8320   -9.4160 C.3       1 LEU        -0.0625
     46 CD2        11.2460  -12.6990   -7.2310 C.3       1 LEU        -0.0625
     47 N          11.4930  -10.1480  -11.5580 N.am      1 PRO        -0.2498
     48 CA         10.6810   -9.0120  -12.0210 C.3       1 PRO         0.1338
     49 C           9.4200   -8.8060  -11.1860 C.2       1 PRO         0.2039
     50 O           8.3360   -8.5310  -11.7080 O.2       1 PRO        -0.3944
     51 CB         10.3500   -9.4100  -13.4600 C.3       1 PRO        -0.0104
     52 CG         10.2460  -10.8930  -13.3900 C.3       1 PRO        -0.0281
     53 CD         11.3260  -11.3190  -12.4290 C.3       1 PRO         0.0369
     54 N           9.5720   -8.8790   -9.8760 N.am      1 GLY        -0.2664
     55 CA          8.4610   -8.8460   -8.9610 C.3       1 GLY         0.1202
     56 C           8.9440   -9.4280   -7.6630 C.2       1 GLY         0.2015
     57 O          10.1360   -9.5570   -7.4550 O.2       1 GLY        -0.3946
     58 C14         7.8920  -13.0210   -9.4900 C.ar      1 D3W        -0.0683
     59 C10         6.3580  -11.5430   -8.3530 C.ar      1 D3W        -0.0285
     60 C13         7.3540  -12.6360  -10.7110 C.ar      1 D3W        -0.0686
     61 C11         5.8150  -11.1540   -9.5840 C.ar      1 D3W        -0.0583
     62 C12         6.3320  -11.7070  -10.7690 C.ar      1 D3W        -0.0683
     63 C01         3.5610  -14.0190   -5.6820 C.3       1 D3W         0.0579
     64 C03         3.5880  -11.8200   -6.6460 C.ar      1 D3W         0.0948
     65 C04         2.1830  -11.7340   -6.5660 C.ar      1 D3W        -0.0392
     66 C05         1.5720  -10.5270   -6.8620 C.ar      1 D3W        -0.0774
     67 C06         2.3310   -9.4250   -7.2330 C.ar      1 D3W        -0.0793
     68 C07         3.7330   -9.5320   -7.3140 C.ar      1 D3W        -0.0664
     69 C08         4.3540  -10.7350   -7.0100 C.ar      1 D3W         0.0027
     70 C09         5.8540  -10.9320   -7.0500 C.3       1 D3W         0.0470
     71 C15         7.3940  -12.4570   -8.2940 C.ar      1 D3W        -0.0583
     72 C16         6.6200   -9.5780   -6.7640 C.3       1 D3W         0.0650
     73 C18         8.3910  -10.0480   -5.2000 C.3       1 D3W         0.0347
     74 C19         7.2800   -9.8420   -4.4480 C.3       1 D3W        -0.0301
     75 C20         6.2840   -9.0670   -5.3030 C.3       1 D3W        -0.0241
     76 N17         7.9280   -9.7840   -6.7320 N.am      1 D3W        -0.2646
     77 O02         4.2820  -13.0210   -6.3490 O.3       1 D3W        -0.3246
     78 H1         22.3530   -2.7795  -18.0891 H         1 ACE         0.0467
     79 H2         22.0531   -3.9358  -19.4305 H         1 ACE         0.0467
     80 H3         23.6984   -3.2607  -19.1776 H         1 ACE         0.0467
     81 H4         22.4278   -3.7128  -16.1661 H         1 ARG         0.1882
     82 H5         24.1750   -5.8895  -15.5753 H         1 ARG         0.0800
     83 H6         22.7684   -6.0030  -13.4129 H         1 ARG         0.0313
     84 H7         21.8709   -4.5961  -14.0777 H         1 ARG         0.0313
     85 H8         23.6951   -3.1415  -13.8139 H         1 ARG         0.0301
     86 H9         24.8922   -4.4801  -13.7724 H         1 ARG         0.0301
     87 H10        24.1916   -5.1653  -11.5814 H         1 ARG         0.0689
     88 H11        22.7362   -4.1143  -11.6438 H         1 ARG         0.0689
     89 H12        24.0284   -2.2623  -11.0239 H         1 ARG         0.2642
     90 H13        27.3438   -2.2890   -9.8654 H         1 ARG         0.2615
     91 H14        25.8203   -1.3669   -9.9714 H         1 ARG         0.2615
     92 H15        26.0888   -5.1022  -11.5894 H         1 ARG         0.2615
     93 H16        27.4969   -4.3676  -10.7768 H         1 ARG         0.2615
     94 H17        23.5940   -8.0074  -14.7313 H         1 THR         0.1884
     95 H18        21.8164   -9.5658  -16.2690 H         1 THR         0.0826
     96 H19        22.5752   -9.9820  -13.3281 H         1 THR         0.0639
     97 H20        24.4141   -9.7269  -14.7134 H         1 THR         0.2101
     98 H21        22.2783  -12.3816  -13.8673 H         1 THR         0.0257
     99 H22        21.7697  -11.9421  -15.5331 H         1 THR         0.0257
    100 H23        20.7621  -11.4544  -14.1282 H         1 THR         0.0257
    101 H24        17.9475   -8.1825  -14.4972 H         1 PRO         0.0802
    102 H25        16.3464   -9.0298  -15.9483 H         1 PRO         0.0313
    103 H26        16.7181  -10.7276  -15.4945 H         1 PRO         0.0313
    104 H27        17.8284   -9.0220  -17.6371 H         1 PRO         0.0287
    105 H28        17.6351  -10.8056  -17.5464 H         1 PRO         0.0287
    106 H29        19.6959  -11.1013  -16.5921 H         1 PRO         0.0524
    107 H30        20.0407   -9.4901  -17.3074 H         1 PRO         0.0524
    108 H31        17.0054   -8.3316  -12.6075 H         1 SEP         0.1884
    109 H32        17.3152  -10.7893  -10.9665 H         1 SEP         0.0827
    110 H33        18.0158   -8.6378   -9.9599 H         1 SEP         0.0662
    111 H34        16.5853   -9.2992   -9.0980 H         1 SEP         0.0662
    112 H35        15.2053  -10.8738   -9.3699 H         1 LEU         0.1883
    113 H36        13.1343  -11.9785  -10.9604 H         1 LEU         0.0800
    114 H37        12.8123  -10.8368   -8.1675 H         1 LEU         0.0315
    115 H38        13.7120  -12.3559   -8.4981 H         1 LEU         0.0315
    116 H39        10.7940  -11.9143   -9.1785 H         1 LEU         0.0298
    117 H40        10.7189  -14.3658   -9.2946 H         1 LEU         0.0232
    118 H41        12.4865  -14.4320   -8.9823 H         1 LEU         0.0232
    119 H42        11.8681  -13.6687  -10.4862 H         1 LEU         0.0232
    120 H43        11.1954  -11.7204   -6.7312 H         1 LEU         0.0232
    121 H44        12.0186  -13.3168   -6.7500 H         1 LEU         0.0232
    122 H45        10.2713  -13.2025   -7.1508 H         1 LEU         0.0232
    123 H46        11.2712   -8.0840  -12.0007 H         1 PRO         0.0802
    124 H47        11.1516   -9.1033  -14.1480 H         1 PRO         0.0313
    125 H48         9.3983   -8.9632  -13.7834 H         1 PRO         0.0313
    126 H49        10.4139  -11.3389  -14.3815 H         1 PRO         0.0287
    127 H50         9.2562  -11.1932  -13.0158 H         1 PRO         0.0287
    128 H51        11.0109  -12.1987  -11.8487 H         1 PRO         0.0524
    129 H52        12.2598  -11.5476  -12.9635 H         1 PRO         0.0524
    130 H53        10.4968   -8.9605   -9.5045 H         1 GLY         0.1881
    131 H54         7.6277   -9.4451   -9.3567 H         1 GLY         0.0763
    132 H55         8.1273   -7.8089   -8.8090 H         1 GLY         0.0763
    133 H56         8.6916  -13.7520   -9.4546 H         1 GLY         0.0600
    134 H57         7.7392  -13.0682  -11.6275 H         1 GLY         0.0560
    135 H58         5.0051  -10.4345   -9.6228 H         1 GLY         0.0560
    136 H59         5.9288  -11.4046  -11.7287 H         1 GLY         0.0600
    137 H60         4.2108  -14.8905   -5.5138 H         1 GLY         0.0575
    138 H61         2.6972  -14.3183   -6.2938 H         1 GLY         0.0575
    139 H62         3.2086  -13.6323   -4.7144 H         1 GLY         0.0575
    140 H63         1.5923  -12.5962   -6.2783 H         1 GLY         0.0522
    141 H64         0.4929  -10.4418   -6.8036 H         1 GLY         0.0533
    142 H65         1.8448   -8.4831   -7.4601 H         1 GLY         0.0506
    143 H66         4.3262   -8.6756   -7.6135 H         1 GLY         0.0530
    144 H67         6.1056  -11.6351   -6.2423 H         1 GLY         0.0619
    145 H68         7.8206  -12.7385   -7.3380 H         1 GLY         0.0560
    146 H69         6.3533   -8.8271   -7.5223 H         1 GLY         0.0604
    147 H70         8.7517  -11.0801   -5.0793 H         1 GLY         0.0522
    148 H71         9.1867   -9.3454   -4.9118 H         1 GLY         0.0522
    149 H72         7.5367   -9.2602   -3.5505 H         1 GLY         0.0285
    150 H73         6.8457  -10.8070   -4.1476 H         1 GLY         0.0285
    151 H74         5.2477   -9.3096   -5.0251 H         1 GLY         0.0291
    152 H75         6.4431   -7.9822   -5.2144 H         1 GLY         0.0291
@<TRIPOS>BOND
     1    1    2 2  
     2    1    3 1  
     3    4    1 am 
     4    5    4 1  
     5    6    5 1  
     6    5    8 1  
     7    6    7 2  
     8   15    6 am 
     9    8    9 1  
    10    9   10 1  
    11   10   11 1  
    12   11   12 ar 
    13   12   13 ar 
    14   12   14 ar 
    15   16   15 1  
    16   17   16 1  
    17   16   19 1  
    18   17   18 2  
    19   22   17 am 
    20   19   20 1  
    21   19   21 1  
    22   23   22 1  
    23   22   28 1  
    24   24   23 1  
    25   23   26 1  
    26   24   25 2  
    27   29   24 am 
    28   26   27 1  
    29   27   28 1  
    30   30   29 1  
    31   30   31 1  
    32   33   30 1  
    33   31   32 1  
    34   32   35 1  
    35   33   34 2  
    36   39   33 am 
    37   35   36 ar 
    38   35   37 ar 
    39   35   38 ar 
    40   40   39 1  
    41   41   40 1  
    42   40   43 1  
    43   41   42 2  
    44   47   41 am 
    45   43   44 1  
    46   44   45 1  
    47   44   46 1  
    48   48   47 1  
    49   47   53 1  
    50   49   48 1  
    51   48   51 1  
    52   49   50 2  
    53   54   49 am 
    54   51   52 1  
    55   52   53 1  
    56   55   54 1  
    57   56   55 1  
    58   56   57 2  
    59   76   56 am 
    60   58   60 ar 
    61   71   58 ar 
    62   59   61 ar 
    63   70   59 1  
    64   59   71 ar 
    65   62   60 ar 
    66   61   62 ar 
    67   77   63 1  
    68   64   65 ar 
    69   69   64 ar 
    70   64   77 1  
    71   65   66 ar 
    72   67   66 ar 
    73   68   67 ar 
    74   69   68 ar 
    75   70   69 1  
    76   72   70 1  
    77   72   75 1  
    78   76   72 1  
    79   73   74 1  
    80   76   73 1  
    81   74   75 1  
    82    3   78 1  
    83    3   79 1  
    84    3   80 1  
    85    4   81 1  
    86    5   82 1  
    87    8   83 1  
    88    8   84 1  
    89    9   85 1  
    90    9   86 1  
    91   10   87 1  
    92   10   88 1  
    93   11   89 1  
    94   13   90 1  
    95   13   91 1  
    96   14   92 1  
    97   14   93 1  
    98   15   94 1  
    99   16   95 1  
   100   19   96 1  
   101   20   97 1  
   102   21   98 1  
   103   21   99 1  
   104   21  100 1  
   105   23  101 1  
   106   26  102 1  
   107   26  103 1  
   108   27  104 1  
   109   27  105 1  
   110   28  106 1  
   111   28  107 1  
   112   29  108 1  
   113   30  109 1  
   114   31  110 1  
   115   31  111 1  
   116   39  112 1  
   117   40  113 1  
   118   43  114 1  
   119   43  115 1  
   120   44  116 1  
   121   45  117 1  
   122   45  118 1  
   123   45  119 1  
   124   46  120 1  
   125   46  121 1  
   126   46  122 1  
   127   48  123 1  
   128   51  124 1  
   129   51  125 1  
   130   52  126 1  
   131   52  127 1  
   132   53  128 1  
   133   53  129 1  
   134   54  130 1  
   135   55  131 1  
   136   55  132 1  
   137   58  133 1  
   138   60  134 1  
   139   61  135 1  
   140   62  136 1  
   141   63  137 1  
   142   63  138 1  
   143   63  139 1  
   144   65  140 1  
   145   66  141 1  
   146   67  142 1  
   147   68  143 1  
   148   70  144 1  
   149   71  145 1  
   150   72  146 1  
   151   73  147 1  
   152   73  148 1  
   153   74  149 1  
   154   74  150 1  
   155   75  151 1  
   156   75  152 1  
@<TRIPOS>SUBSTRUCTURE
     1 ACE         1

