5u28_ligand
  -I-interpret- 

 43 47  0  0  0  0  0  0  0  0999 V2000
  -16.8260    4.7040    8.8050 C   0  0  0  0  0
  -17.5460    2.8140    3.9970 C   0  0  0  0  0
  -16.4280    1.2390    2.5060 C   0  0  0  0  0
  -14.7690    0.2550    4.1180 C   0  0  0  0  0
  -12.6320   -1.5280    4.8440 C   0  0  0  0  0
  -11.8440   -3.7520    4.9480 C   0  0  0  0  0
  -14.6670   -1.0560    3.6650 C   0  0  0  0  0
  -19.3370    4.4520    4.1000 O   0  0  0  0  0
  -18.4040    3.8340    4.6120 C   0  0  0  0  0
  -17.9910    4.0380    6.0350 C   0  0  0  0  0
  -16.9060    3.4740    6.5540 C   0  0  0  0  0
  -16.4540    3.5810    7.9040 N   0  0  0  0  0
  -15.5710    2.5220    8.5460 C   0  0  0  0  0
  -14.9550    2.8410    9.9350 C   0  0  0  0  0
  -14.9420    4.1910   10.2190 O   0  0  0  0  0
  -16.2190    4.6840   10.2100 C   0  0  0  0  0
  -16.3250    2.3870    5.9230 O   0  0  0  0  0
  -16.5790    2.1400    4.6230 C   0  0  0  0  0
  -17.6960    2.3620    2.3330 S   0  0  0  0  0
  -15.8760    1.1720    3.7380 C   0  0  0  0  0
  -13.7410    0.6440    4.9940 C   0  0  0  0  0
  -12.6880   -0.2290    5.3500 C   0  0  0  0  0
  -11.6090   -2.3630    5.1780 O   0  0  0  0  0
  -12.5260   -4.0230    3.6500 C   0  0  0  0  0
  -13.6590   -3.2030    3.4550 O   0  0  0  0  0
  -13.6440   -1.9540    3.9800 C   0  0  0  0  0
  -17.9052    4.6356    8.9420 H   0  0  0  0  0
  -16.4517    5.6098    8.3279 H   0  0  0  0  0
  -16.0848    0.6166    1.6796 H   0  0  0  0  0
  -12.4931   -4.1145    5.7451 H   0  0  0  0  0
  -10.8758   -4.2521    4.9241 H   0  0  0  0  0
  -15.4563   -1.4153    3.0047 H   0  0  0  0  0
  -18.6049    4.6750    6.6717 H   0  0  0  0  0
  -14.7231    2.4013    7.8717 H   0  0  0  0  0
  -16.2185    1.6598    8.7052 H   0  0  0  0  0
  -13.9224    2.4919    9.9295 H   0  0  0  0  0
  -15.5654    2.3475   10.6913 H   0  0  0  0  0
  -16.8350    4.0371   10.8346 H   0  0  0  0  0
  -16.1876    5.7093   10.5787 H   0  0  0  0  0
  -13.7563    1.6506    5.4119 H   0  0  0  0  0
  -11.9090    0.1173    6.0292 H   0  0  0  0  0
  -12.8580   -5.0612    3.6541 H   0  0  0  0  0
  -11.8180   -3.8159    2.8476 H   0  0  0  0  0
 12  1  1  0  0  0
  1 16  1  0  0  0
  9  2  1  0  0  0
  2 18  4  0  0  0
  2 19  4  0  0  0
 19  3  4  0  0  0
  3 20  4  0  0  0
  4  7  4  0  0  0
 20  4  1  0  0  0
  4 21  4  0  0  0
  5 22  4  0  0  0
  5 23  1  0  0  0
 26  5  4  0  0  0
 23  6  1  0  0  0
  6 24  1  0  0  0
  7 26  4  0  0  0
  9  8  2  0  0  0
 10  9  1  0  0  0
 11 10  2  0  0  0
 11 12  1  0  0  0
 11 17  1  0  0  0
 12 13  1  0  0  0
 13 14  1  0  0  0
 14 15  1  0  0  0
 15 16  1  0  0  0
 17 18  1  0  0  0
 18 20  4  0  0  0
 21 22  4  0  0  0
 24 25  1  0  0  0
 25 26  1  0  0  0
  1 27  1  0  0  0
  1 28  1  0  0  0
  3 29  1  0  0  0
  6 30  1  0  0  0
  6 31  1  0  0  0
  7 32  1  0  0  0
 10 33  1  0  0  0
 13 34  1  0  0  0
 13 35  1  0  0  0
 14 36  1  0  0  0
 14 37  1  0  0  0
 16 38  1  0  0  0
 16 39  1  0  0  0
 21 40  1  0  0  0
 22 41  1  0  0  0
 24 42  1  0  0  0
 24 43  1  0  0  0
M  END
$$$$
