5sxk_ligand
  -I-interpret- 

 19 19  0  0  0  0  0  0  0  0999 V2000
   58.0340   43.2880   74.3140 C   0  0  0  0  0
   57.5370   43.3440   75.6190 C   0  0  0  0  0
   57.0760   44.5520   76.1650 C   0  0  0  0  0
   58.0870   44.4290   73.4910 C   0  0  0  0  0
   57.6010   45.7540   74.0250 C   0  0  0  0  0
   57.6220   47.0350   73.2020 C   0  0  0  0  0
   58.5810   44.2820   72.2310 N   0  0  0  0  0
   57.0790   45.7590   75.4380 C   0  0  0  0  0
   56.6060   46.8920   76.0460 N   0  0  0  0  0
   58.3903   42.3351   73.9228 H   0  0  0  0  0
   57.5070   42.4362   76.2216 H   0  0  0  0  0
   56.7020   44.5566   77.1888 H   0  0  0  0  0
   58.6476   47.2611   72.9102 H   0  0  0  0  0
   57.0099   46.9023   72.3099 H   0  0  0  0  0
   57.2235   47.8554   73.7989 H   0  0  0  0  0
   58.8978   43.3668   71.9110 H   0  0  0  0  0
   58.6343   45.0871   71.6070 H   0  0  0  0  0
   56.2615   46.8502   77.0052 H   0  0  0  0  0
   56.5983   47.7773   75.5395 H   0  0  0  0  0
  1  2  4  0  0  0
  1  4  4  0  0  0
  2  3  4  0  0  0
  3  8  4  0  0  0
  4  5  4  0  0  0
  4  7  1  0  0  0
  5  6  1  0  0  0
  5  8  4  0  0  0
  8  9  1  0  0  0
  1 10  1  0  0  0
  2 11  1  0  0  0
  3 12  1  0  0  0
  6 13  1  0  0  0
  6 14  1  0  0  0
  6 15  1  0  0  0
  7 16  1  0  0  0
  7 17  1  0  0  0
  9 18  1  0  0  0
  9 19  1  0  0  0
M  END
$$$$
