4q1w_ligand
  -I-interpret- 

 75 78  0  0  0  0  0  0  0  0999 V2000
   14.2590   34.7870   18.2090 N   0  0  0  0  0
   15.1400   34.1970   17.3640 C   0  0  0  0  0
   14.9820   32.8700   16.9910 C   0  0  0  0  0
   15.9240   32.2870   16.1360 C   0  0  0  0  0
   16.9950   33.0060   15.5930 C   0  0  0  0  0
   17.1280   34.3350   15.9760 C   0  0  0  0  0
   16.1980   34.9320   16.8310 C   0  0  0  0  0
   18.0600   32.2750   14.6010 S   0  0  0  0  0
   17.3870   31.1720   13.9760 O   0  0  0  0  0
   18.6040   33.2180   13.6670 O   0  0  0  0  0
   19.3420   31.6680   15.3930 N   0  0  0  0  0
   20.0120   32.6820   16.2370 C   0  0  0  0  0
   21.4950   32.3650   16.4410 C   0  0  0  0  0
   22.2420   32.2550   15.1130 C   0  0  0  0  0
   22.1990   33.4050   17.3040 C   0  0  0  0  0
   19.0370   30.4050   16.0980 C   0  0  0  0  0
   19.8980   29.2570   15.5840 C   0  0  0  0  0
   19.8550   28.1130   16.4620 O   0  0  0  0  0
   19.5350   28.8110   14.1650 C   0  0  0  0  0
   20.6350   28.0180   13.6820 N   0  0  0  0  0
   21.5240   28.3640   12.7420 C   0  0  0  0  0
   21.5990   29.4040   12.1170 O   0  0  0  0  0
   22.5190   27.3470   12.5310 O   0  0  0  0  0
   23.3850   27.4590   11.4050 C   0  0  0  0  0
   24.7090   26.9090   11.8940 C   0  0  0  0  0
   24.5310   25.4920   11.8200 O   0  0  0  0  0
   23.6640   25.1990   10.7230 C   0  0  0  0  0
   22.6440   24.2710   11.0720 O   0  0  0  0  0
   21.3520   24.8870   11.0620 C   0  0  0  0  0
   21.5020   26.1310   10.2020 C   0  0  0  0  0
   22.9800   26.4920   10.3150 C   0  0  0  0  0
   18.2580   27.9870   14.0430 C   0  0  0  0  0
   17.6940   28.6010   11.6430 C   0  0  0  0  0
   17.4880   28.2540   10.3010 C   0  0  0  0  0
   17.6250   26.9380    9.8970 C   0  0  0  0  0
   17.9630   25.9730   10.8150 C   0  0  0  0  0
   18.1480   26.3160   12.1490 C   0  0  0  0  0
   18.0230   27.6340   12.5780 C   0  0  0  0  0
   13.4706   34.2547   18.5770 H   0  0  0  0  0
   14.3846   35.7632   18.4767 H   0  0  0  0  0
   14.1359   32.2896   17.3588 H   0  0  0  0  0
   15.8196   31.2319   15.8831 H   0  0  0  0  0
   17.9694   34.9199   15.6044 H   0  0  0  0  0
   16.3011   35.9870   17.0848 H   0  0  0  0  0
   19.5266   32.6891   17.2129 H   0  0  0  0  0
   19.9345   33.6477   15.7375 H   0  0  0  0  0
   21.5164   31.4035   16.9540 H   0  0  0  0  0
   21.8011   31.4578   14.5145 H   0  0  0  0  0
   22.1652   33.1999   14.5750 H   0  0  0  0  0
   23.2909   32.0291   15.3052 H   0  0  0  0  0
   22.1260   34.3817   16.8257 H   0  0  0  0  0
   21.7246   33.4428   18.2846 H   0  0  0  0  0
   23.2481   33.1317   17.4168 H   0  0  0  0  0
   17.9901   30.1564   15.9241 H   0  0  0  0  0
   19.2433   30.5433   17.1593 H   0  0  0  0  0
   20.9105   29.6600   15.5609 H   0  0  0  0  0
   20.4082   27.4150   16.1036 H   0  0  0  0  0
   19.3498   29.7161   13.5866 H   0  0  0  0  0
   20.7495   27.0947   14.1000 H   0  0  0  0  0
   23.3864   28.4836   11.0332 H   0  0  0  0  0
   24.9549   27.2467   12.9008 H   0  0  0  0  0
   25.5515   27.2556   11.2955 H   0  0  0  0  0
   24.2655   24.7654    9.9241 H   0  0  0  0  0
   21.0204   25.1359   12.0701 H   0  0  0  0  0
   20.5922   24.2149   10.6631 H   0  0  0  0  0
   20.8550   26.9417   10.5370 H   0  0  0  0  0
   21.2006   25.9546    9.1694 H   0  0  0  0  0
   23.2402   26.9579    9.3645 H   0  0  0  0  0
   17.4138   28.5651   14.4187 H   0  0  0  0  0
   18.3572   27.0721   14.6271 H   0  0  0  0  0
   17.5944   29.6411   11.9535 H   0  0  0  0  0
   17.2197   29.0215    9.5750 H   0  0  0  0  0
   17.4653   26.6673    8.8533 H   0  0  0  0  0
   18.0861   24.9378   10.4967 H   0  0  0  0  0
   18.3954   25.5389   12.8722 H   0  0  0  0  0
  2  1  1  0  0  0
  3  2  4  0  0  0
  7  2  4  0  0  0
  4  3  4  0  0  0
  5  4  4  0  0  0
  5  6  4  0  0  0
  8  5  1  0  0  0
  6  7  4  0  0  0
  8  9  2  0  0  0
  8 10  2  0  0  0
 11  8  1  0  0  0
 11 12  1  0  0  0
 16 11  1  0  0  0
 12 13  1  0  0  0
 13 14  1  0  0  0
 13 15  1  0  0  0
 17 16  1  0  0  0
 17 18  1  0  0  0
 19 17  1  0  0  0
 19 20  1  0  0  0
 32 19  1  0  0  0
 20 21  1  0  0  0
 21 22  2  0  0  0
 21 23  1  0  0  0
 23 24  1  0  0  0
 24 25  1  0  0  0
 24 31  1  0  0  0
 25 26  1  0  0  0
 27 26  1  0  0  0
 27 28  1  0  0  0
 31 27  1  0  0  0
 29 28  1  0  0  0
 30 29  1  0  0  0
 31 30  1  0  0  0
 38 32  1  0  0  0
 33 34  4  0  0  0
 33 38  4  0  0  0
 34 35  4  0  0  0
 35 36  4  0  0  0
 36 37  4  0  0  0
 37 38  4  0  0  0
  1 39  1  0  0  0
  1 40  1  0  0  0
  3 41  1  0  0  0
  4 42  1  0  0  0
  6 43  1  0  0  0
  7 44  1  0  0  0
 12 45  1  0  0  0
 12 46  1  0  0  0
 13 47  1  0  0  0
 14 48  1  0  0  0
 14 49  1  0  0  0
 14 50  1  0  0  0
 15 51  1  0  0  0
 15 52  1  0  0  0
 15 53  1  0  0  0
 16 54  1  0  0  0
 16 55  1  0  0  0
 17 56  1  0  0  0
 18 57  1  0  0  0
 19 58  1  0  0  0
 20 59  1  0  0  0
 24 60  1  0  0  0
 25 61  1  0  0  0
 25 62  1  0  0  0
 27 63  1  0  0  0
 29 64  1  0  0  0
 29 65  1  0  0  0
 30 66  1  0  0  0
 30 67  1  0  0  0
 31 68  1  0  0  0
 32 69  1  0  0  0
 32 70  1  0  0  0
 33 71  1  0  0  0
 34 72  1  0  0  0
 35 73  1  0  0  0
 36 74  1  0  0  0
 37 75  1  0  0  0
M  END
$$$$
