3ga5_ligand
  -I-interpret- 

 35 35  0  0  0  0  0  0  0  0999 V2000
   -1.0070   -5.2180   -2.9310 O   0  0  0  0  0
   -0.1820   -4.1040   -2.5580 C   0  0  0  0  0
    0.6030   -4.4910   -1.3140 C   0  0  0  0  0
    1.7300   -3.6070   -1.2030 O   0  0  0  0  0
   -0.3480   -4.3050   -0.1340 C   0  0  0  0  0
    0.3390   -4.5460    1.0790 O   0  0  0  0  0
   -0.4170   -4.3050    2.2670 C   0  0  0  0  0
    0.3820   -4.8360    3.4550 C   0  0  0  0  0
    0.3440   -6.2730    3.4080 O   0  0  0  0  0
   -0.1860   -4.3900    4.7930 C   0  0  0  0  0
    0.7310   -4.7370    5.8490 O   0  0  0  0  0
   -0.4470   -2.8860    4.7920 C   0  0  0  0  0
    0.7970   -2.1780    4.7100 O   0  0  0  0  0
   -1.3330   -2.5080    3.6090 C   0  0  0  0  0
   -0.6890   -2.8980    2.3870 O   0  0  0  0  0
   -1.5660   -0.9960    3.5910 C   0  0  0  0  0
   -2.0770   -0.5720    2.3160 O   0  0  0  0  0
   -1.5114   -4.9925   -3.7161 H   0  0  0  0  0
   -0.8011   -3.2303   -2.3542 H   0  0  0  0  0
    0.5010   -3.8545   -3.3700 H   0  0  0  0  0
    0.9697   -5.5169   -1.3473 H   0  0  0  0  0
    2.3143   -3.7396   -1.9530 H   0  0  0  0  0
   -1.1760   -5.0081   -0.2246 H   0  0  0  0  0
   -0.7282   -3.2835   -0.1356 H   0  0  0  0  0
   -1.3776   -4.8190    2.2338 H   0  0  0  0  0
    1.3958   -4.4429    3.3789 H   0  0  0  0  0
    0.8414   -6.6295    4.1477 H   0  0  0  0  0
   -1.1347   -4.9001    4.9601 H   0  0  0  0  0
    0.3688   -4.4538    6.6917 H   0  0  0  0  0
   -0.9561   -2.6151    5.7170 H   0  0  0  0  0
    0.6268   -1.2332    4.7097 H   0  0  0  0  0
   -2.2906   -3.0198    3.7047 H   0  0  0  0  0
   -0.6167   -0.4924    3.7737 H   0  0  0  0  0
   -2.2938   -0.7439    4.3622 H   0  0  0  0  0
   -2.2153    0.3779    2.3278 H   0  0  0  0  0
  1  2  1  0  0  0
  2  3  1  0  0  0
  3  4  1  0  0  0
  3  5  1  0  0  0
  5  6  1  0  0  0
  6  7  1  0  0  0
  7  8  1  0  0  0
  7 15  1  0  0  0
  8  9  1  0  0  0
  8 10  1  0  0  0
 10 11  1  0  0  0
 10 12  1  0  0  0
 12 13  1  0  0  0
 12 14  1  0  0  0
 14 15  1  0  0  0
 14 16  1  0  0  0
 16 17  1  0  0  0
  1 18  1  0  0  0
  2 19  1  0  0  0
  2 20  1  0  0  0
  3 21  1  0  0  0
  4 22  1  0  0  0
  5 23  1  0  0  0
  5 24  1  0  0  0
  7 25  1  0  0  0
  8 26  1  0  0  0
  9 27  1  0  0  0
 10 28  1  0  0  0
 11 29  1  0  0  0
 12 30  1  0  0  0
 13 31  1  0  0  0
 14 32  1  0  0  0
 16 33  1  0  0  0
 16 34  1  0  0  0
 17 35  1  0  0  0
M  END
$$$$
