3m53_ligand
  -I-interpret- 

153153  0  0  0  0  0  0  0  0999 V2000
  -38.2610    4.9210    2.6030 C   0  0  0  0  0
  -39.2470    4.2840    2.1700 O   0  0  0  0  0
  -38.2140    5.5220    3.9740 C   0  0  0  0  0
  -37.0920    5.0450    1.9680 N   0  0  0  0  0
  -36.0320    5.8580    2.5520 C   0  0  0  0  0
  -35.0820    6.4640    1.5300 C   0  0  0  0  0
  -34.3670    7.4010    1.8580 O   0  0  0  0  0
  -35.2530    5.0850    3.6400 C   0  0  0  0  0
  -34.2320    4.2420    3.1060 O   0  0  0  0  0
  -35.0510    5.9780    0.2920 N   0  0  0  0  0
  -34.2280    6.7000   -0.6900 C   0  0  0  0  0
  -35.0310    7.7780   -1.4520 C   0  0  0  0  0
  -34.9480    7.8750   -2.6730 O   0  0  0  0  0
  -33.5280    5.7670   -1.6690 C   0  0  0  0  0
  -32.7860    4.5890   -1.0150 C   0  0  0  0  0
  -31.7810    4.0350   -2.0040 C   0  0  0  0  0
  -30.9400    2.8960   -1.4230 C   0  0  0  0  0
  -30.1300    2.3480   -2.5410 N   0  3  0  0  0
  -35.8060    8.5650   -0.7120 N   0  0  0  0  0
  -36.6320    9.6230   -1.3150 C   0  0  0  0  0
  -36.6380   10.8390   -0.3660 C   0  0  0  0  0
  -36.3010   10.6950    0.8160 O   0  0  0  0  0
  -38.0330    9.1000   -1.5680 C   0  0  0  0  0
  -38.6950    8.6750   -0.3840 O   0  0  0  0  0
  -36.9430   12.0300   -0.8850 N   0  0  0  0  0
  -37.0140   13.2210   -0.0260 C   0  0  0  0  0
  -38.2520   13.2430    0.8710 C   0  0  0  0  0
  -39.3160   12.6790    0.5500 O   0  0  0  0  0
  -37.0050   14.4850   -0.8640 C   0  0  0  0  0
  -35.8560   14.6050   -1.7770 C   0  0  0  0  0
  -36.1960   15.5640   -2.8900 C   0  0  0  0  0
  -35.1500   15.5660   -3.9530 C   0  0  0  0  0
  -35.4050   16.6550   -4.9060 N   0  3  0  0  0
  -38.0960   13.8750    2.0350 N   0  0  0  0  0
  -39.2400   14.3160    2.8190 C   0  0  0  0  0
  -40.1290   13.2080    3.3940 C   0  0  0  0  0
  -41.3160   13.4170    3.5570 O   0  0  0  0  0
  -40.0980   15.2850    1.9660 C   0  0  0  0  0
  -40.9140   16.2410    2.8100 C   0  0  0  0  0
  -40.3850   16.7170    3.8370 O   0  0  0  0  0
  -42.0930   16.5070    2.4660 O   0  0  0  0  0
  -39.5790   12.0350    3.7170 N   0  0  0  0  0
  -40.3820   11.0070    4.4170 C   0  0  0  0  0
  -40.6460   11.3300    5.9160 C   0  0  0  0  0
  -39.9290   12.1110    6.5480 O   0  0  0  0  0
  -39.7370    9.6110    4.2870 C   0  0  0  0  0
  -40.5590    8.4510    4.9420 C   0  0  0  0  0
  -41.3860    7.6280    3.9240 C   0  0  0  0  0
  -42.2810    6.6310    4.5420 N   0  0  0  0  0
  -43.4520    6.9190    5.1240 C   0  0  0  0  0
  -43.8730    8.1820    5.1880 N   0  0  0  0  0
  -44.2050    5.9580    5.6520 N   0  0  0  0  0
  -41.6740   10.7190    6.4930 N   0  0  0  0  0
  -41.9910   10.9510    7.9280 C   0  0  0  0  0
  -41.4420    9.8910    8.9100 C   0  0  0  0  0
  -42.1850    9.3410    9.7370 O   0  0  0  0  0
  -43.5040   11.1040    8.1220 C   0  0  0  0  0
  -44.0850   12.1390    7.1980 C   0  0  0  0  0
  -43.0120   13.1890    6.8990 C   0  0  0  0  0
  -43.6340   14.4750    6.3890 C   0  0  0  0  0
  -42.7930   15.6240    6.8090 N   0  3  0  0  0
  -40.1470    9.6060    8.8460 N   0  0  0  0  0
  -39.5590    8.7030    9.8230 C   0  0  0  0  0
  -40.1200    9.0340   11.1940 C   0  0  0  0  0
  -39.4523    9.7384   11.9975 O   0  0  0  0  0
  -38.0450    8.8540    9.8440 C   0  0  0  0  0
  -37.4590    8.8450    8.4630 C   0  0  0  0  0
  -37.5240    7.7020    7.6760 C   0  0  0  0  0
  -36.8710    9.9850    7.9300 C   0  0  0  0  0
  -37.0030    7.6870    6.4060 C   0  0  0  0  0
  -36.3500    9.9820    6.6570 C   0  0  0  0  0
  -36.4210    8.8310    5.9010 C   0  0  0  0  0
  -35.8960    8.8170    4.6360 O   0  0  0  0  0
  -41.2557    8.6034   11.5293 O   0  0  0  0  0
  -39.0233    6.2444    4.0806 H   0  0  0  0  0
  -38.3279    4.7343    4.7187 H   0  0  0  0  0
  -37.2567    6.0232    4.1170 H   0  0  0  0  0
  -36.9415    4.5721    1.0769 H   0  0  0  0  0
  -36.5436    6.6983    3.0213 H   0  0  0  0  0
  -35.9641    4.4498    4.1681 H   0  0  0  0  0
  -34.7719    5.8185    4.2870 H   0  0  0  0  0
  -33.7840    3.7894    3.8244 H   0  0  0  0  0
  -35.5750    5.1414    0.0352 H   0  0  0  0  0
  -33.4574    7.2049   -0.1075 H   0  0  0  0  0
  -32.7800    6.3611   -2.1940 H   0  0  0  0  0
  -34.3007    5.3399   -2.3082 H   0  0  0  0  0
  -33.4984    3.8119   -0.7380 H   0  0  0  0  0
  -32.2709    4.9299   -0.1169 H   0  0  0  0  0
  -31.1030    4.8433   -2.2780 H   0  0  0  0  0
  -32.3348    3.6393   -2.8553 H   0  0  0  0  0
  -31.5775    2.1244   -0.9915 H   0  0  0  0  0
  -30.2979    3.2586   -0.6203 H   0  0  0  0  0
  -29.5512    1.5821   -2.1964 H   0  0  0  0  0
  -30.7516    2.0034   -3.2726 H   0  0  0  0  0
  -29.5330    3.0835   -2.9191 H   0  0  0  0  0
  -35.8286    8.4321    0.2990 H   0  0  0  0  0
  -36.2217    9.9317   -2.2765 H   0  0  0  0  0
  -37.9488    8.2361   -2.2273 H   0  0  0  0  0
  -38.6165    9.9139   -1.9984 H   0  0  0  0  0
  -39.5727    8.3561   -0.6064 H   0  0  0  0  0
  -37.1281   12.1146   -1.8845 H   0  0  0  0  0
  -36.1336   13.1770    0.6151 H   0  0  0  0  0
  -36.9516   15.3257   -0.1722 H   0  0  0  0  0
  -37.9025   14.4640   -1.4822 H   0  0  0  0  0
  -35.6233   13.6271   -2.1985 H   0  0  0  0  0
  -34.9924   14.9785   -1.2268 H   0  0  0  0  0
  -36.2623   16.5680   -2.4708 H   0  0  0  0  0
  -37.1399   15.2518   -3.3368 H   0  0  0  0  0
  -35.1741   14.6133   -4.4820 H   0  0  0  0  0
  -34.1722   15.7124   -3.4940 H   0  0  0  0  0
  -34.6851   16.6483   -5.6286 H   0  0  0  0  0
  -36.3206   16.5220   -5.3353 H   0  0  0  0  0
  -35.3856   17.5479   -4.4133 H   0  0  0  0  0
  -37.1541   14.0532    2.3834 H   0  0  0  0  0
  -38.8141   14.8073    3.6938 H   0  0  0  0  0
  -40.7907   14.6862    1.3747 H   0  0  0  0  0
  -39.4212   15.8770    1.3499 H   0  0  0  0  0
  -42.3009   16.0407    1.6530 H   0  0  0  0  0
  -38.6046   11.8470    3.4812 H   0  0  0  0  0
  -41.3515   11.0101    3.9188 H   0  0  0  0  0
  -38.7785    9.6536    4.8042 H   0  0  0  0  0
  -39.6676    9.3902    3.2219 H   0  0  0  0  0
  -41.2597    8.9023    5.6444 H   0  0  0  0  0
  -39.8485    7.7713    5.4123 H   0  0  0  0  0
  -40.6786    7.0831    3.2989 H   0  0  0  0  0
  -42.0144    8.3301    3.3760 H   0  0  0  0  0
  -41.9872    5.6544    4.5247 H   0  0  0  0  0
  -44.7620    8.4011    5.6375 H   0  0  0  0  0
  -43.3062    8.9294    4.7875 H   0  0  0  0  0
  -43.8925    4.9877    5.6165 H   0  0  0  0  0
  -42.2536   10.0827    5.9456 H   0  0  0  0  0
  -41.4698   11.8745    8.1803 H   0  0  0  0  0
  -43.6870   11.4206    9.1488 H   0  0  0  0  0
  -43.9757   10.1461    7.9027 H   0  0  0  0  0
  -44.9460   12.6136    7.6687 H   0  0  0  0  0
  -44.4091   11.6668    6.2706 H   0  0  0  0  0
  -42.3439   12.7966    6.1324 H   0  0  0  0  0
  -42.4691   13.4050    7.8192 H   0  0  0  0  0
  -44.6367   14.5853    6.8020 H   0  0  0  0  0
  -43.6958   14.4452    5.3012 H   0  0  0  0  0
  -43.2085   16.4907    6.4676 H   0  0  0  0  0
  -42.7385   15.6497    7.8272 H   0  0  0  0  0
  -41.8561   15.5183    6.4198 H   0  0  0  0  0
  -39.5671   10.0183    8.1152 H   0  0  0  0  0
  -39.8013    7.6749    9.5541 H   0  0  0  0  0
  -37.6266    8.0129   10.3968 H   0  0  0  0  0
  -37.8046    9.8098   10.3096 H   0  0  0  0  0
  -37.9960    6.8033    8.0730 H   0  0  0  0  0
  -36.8218   10.8945    8.5288 H   0  0  0  0  0
  -37.0488    6.7803    5.8028 H   0  0  0  0  0
  -35.8858   10.8803    6.2500 H   0  0  0  0  0
  -35.5309    9.6813    4.4327 H   0  0  0  0  0
  -41.6269    8.0885   10.8091 H   0  0  0  0  0
  1  2  2  0  0  0
  1  3  1  0  0  0
  1  4  1  0  0  0
  4  5  1  0  0  0
  5  6  1  0  0  0
  5  8  1  0  0  0
  6  7  2  0  0  0
  6 10  1  0  0  0
  8  9  1  0  0  0
 10 11  1  0  0  0
 11 12  1  0  0  0
 11 14  1  0  0  0
 12 13  2  0  0  0
 12 19  1  0  0  0
 14 15  1  0  0  0
 15 16  1  0  0  0
 16 17  1  0  0  0
 17 18  1  0  0  0
 19 20  1  0  0  0
 20 21  1  0  0  0
 20 23  1  0  0  0
 21 22  2  0  0  0
 21 25  1  0  0  0
 23 24  1  0  0  0
 25 26  1  0  0  0
 26 27  1  0  0  0
 26 29  1  0  0  0
 27 28  2  0  0  0
 27 34  1  0  0  0
 29 30  1  0  0  0
 30 31  1  0  0  0
 31 32  1  0  0  0
 32 33  1  0  0  0
 34 35  1  0  0  0
 35 36  1  0  0  0
 35 38  1  0  0  0
 36 37  2  0  0  0
 36 42  1  0  0  0
 38 39  1  0  0  0
 39 40  2  0  0  0
 39 41  1  0  0  0
 42 43  1  0  0  0
 43 44  1  0  0  0
 43 46  1  0  0  0
 44 45  2  0  0  0
 44 53  1  0  0  0
 46 47  1  0  0  0
 47 48  1  0  0  0
 48 49  1  0  0  0
 49 50  1  0  0  0
 50 51  1  0  0  0
 50 52  2  0  0  0
 53 54  1  0  0  0
 54 55  1  0  0  0
 54 57  1  0  0  0
 55 56  2  0  0  0
 55 62  1  0  0  0
 57 58  1  0  0  0
 58 59  1  0  0  0
 59 60  1  0  0  0
 60 61  1  0  0  0
 62 63  1  0  0  0
 63 64  1  0  0  0
 63 66  1  0  0  0
 64 65  2  0  0  0
 66 67  1  0  0  0
 67 68  4  0  0  0
 67 69  4  0  0  0
 68 70  4  0  0  0
 69 71  4  0  0  0
 70 72  4  0  0  0
 71 72  4  0  0  0
 72 73  1  0  0  0
 64 74  1  0  0  0
  3 75  1  0  0  0
  3 76  1  0  0  0
  3 77  1  0  0  0
  4 78  1  0  0  0
  5 79  1  0  0  0
  8 80  1  0  0  0
  8 81  1  0  0  0
  9 82  1  0  0  0
 10 83  1  0  0  0
 11 84  1  0  0  0
 14 85  1  0  0  0
 14 86  1  0  0  0
 15 87  1  0  0  0
 15 88  1  0  0  0
 16 89  1  0  0  0
 16 90  1  0  0  0
 17 91  1  0  0  0
 17 92  1  0  0  0
 18 93  1  0  0  0
 18 94  1  0  0  0
 18 95  1  0  0  0
 19 96  1  0  0  0
 20 97  1  0  0  0
 23 98  1  0  0  0
 23 99  1  0  0  0
 24100  1  0  0  0
 25101  1  0  0  0
 26102  1  0  0  0
 29103  1  0  0  0
 29104  1  0  0  0
 30105  1  0  0  0
 30106  1  0  0  0
 31107  1  0  0  0
 31108  1  0  0  0
 32109  1  0  0  0
 32110  1  0  0  0
 33111  1  0  0  0
 33112  1  0  0  0
 33113  1  0  0  0
 34114  1  0  0  0
 35115  1  0  0  0
 38116  1  0  0  0
 38117  1  0  0  0
 41118  1  0  0  0
 42119  1  0  0  0
 43120  1  0  0  0
 46121  1  0  0  0
 46122  1  0  0  0
 47123  1  0  0  0
 47124  1  0  0  0
 48125  1  0  0  0
 48126  1  0  0  0
 49127  1  0  0  0
 51128  1  0  0  0
 51129  1  0  0  0
 52130  1  0  0  0
 53131  1  0  0  0
 54132  1  0  0  0
 57133  1  0  0  0
 57134  1  0  0  0
 58135  1  0  0  0
 58136  1  0  0  0
 59137  1  0  0  0
 59138  1  0  0  0
 60139  1  0  0  0
 60140  1  0  0  0
 61141  1  0  0  0
 61142  1  0  0  0
 61143  1  0  0  0
 62144  1  0  0  0
 63145  1  0  0  0
 66146  1  0  0  0
 66147  1  0  0  0
 68148  1  0  0  0
 69149  1  0  0  0
 70150  1  0  0  0
 71151  1  0  0  0
 73152  1  0  0  0
 74153  1  0  0  0
M  END
$$$$
