### 
### Created by X-TOOL on Mon Sep 10 21:13:03 2018
### 

@<TRIPOS>MOLECULE
3m53_ligand
  152   152     1     0     0
SMALL
GAST_HUCK


@<TRIPOS>ATOM
      1 C         -38.2610    4.9210    2.6030 C.2       1 ACE         0.1752
      2 O         -39.2470    4.2840    2.1700 O.2       1 ACE        -0.3972
      3 CH3       -38.2140    5.5220    3.9740 C.3       1 ACE         0.0258
      4 N         -37.0920    5.0450    1.9680 N.am      1 SER        -0.2637
      5 CA        -36.0320    5.8580    2.5520 C.3       1 SER         0.1538
      6 C         -35.0820    6.4640    1.5300 C.2       1 SER         0.2062
      7 O         -34.3670    7.4010    1.8580 O.2       1 SER        -0.3943
      8 CB        -35.2530    5.0850    3.6400 C.3       1 SER         0.0843
      9 OG        -34.2320    4.2420    3.1060 O.3       1 SER        -0.3903
     10 N         -35.0510    5.9780    0.2920 N.am      1 LYS        -0.2637
     11 CA        -34.2280    6.7000   -0.6900 C.3       1 LYS         0.1310
     12 C         -35.0310    7.7780   -1.4520 C.2       1 LYS         0.2040
     13 O         -34.9480    7.8750   -2.6730 O.2       1 LYS        -0.3944
     14 CB        -33.5280    5.7670   -1.6690 C.3       1 LYS        -0.0122
     15 CG        -32.7860    4.5890   -1.0150 C.3       1 LYS        -0.0440
     16 CD        -31.7810    4.0350   -2.0040 C.3       1 LYS        -0.0124
     17 CE        -30.9400    2.8960   -1.4230 C.3       1 LYS        -0.0354
     18 NZ        -30.1300    2.3480   -2.5410 N.4       1 LYS         0.2185
     19 N         -35.8060    8.5650   -0.7120 N.am      1 SER        -0.2616
     20 CA        -36.6320    9.6230   -1.3150 C.3       1 SER         0.1539
     21 C         -36.6380   10.8390   -0.3660 C.2       1 SER         0.2062
     22 O         -36.3010   10.6950    0.8160 O.2       1 SER        -0.3943
     23 CB        -38.0330    9.1000   -1.5680 C.3       1 SER         0.0843
     24 OG        -38.6950    8.6750   -0.3840 O.3       1 SER        -0.3903
     25 N         -36.9430   12.0300   -0.8850 N.am      1 LYS        -0.2637
     26 CA        -37.0140   13.2210   -0.0260 C.3       1 LYS         0.1310
     27 C         -38.2520   13.2430    0.8710 C.2       1 LYS         0.2040
     28 O         -39.3160   12.6790    0.5500 O.2       1 LYS        -0.3944
     29 CB        -37.0050   14.4850   -0.8640 C.3       1 LYS        -0.0122
     30 CG        -35.8560   14.6050   -1.7770 C.3       1 LYS        -0.0440
     31 CD        -36.1960   15.5640   -2.8900 C.3       1 LYS        -0.0124
     32 CE        -35.1500   15.5660   -3.9530 C.3       1 LYS        -0.0354
     33 NZ        -35.4050   16.6550   -4.9060 N.4       1 LYS         0.2185
     34 N         -38.0960   13.8750    2.0350 N.am      1 ASP        -0.2622
     35 CA        -39.2400   14.3160    2.8190 C.3       1 ASP         0.1423
     36 C         -40.1290   13.2080    3.3940 C.2       1 ASP         0.2056
     37 O         -41.3160   13.4170    3.5570 O.2       1 ASP        -0.3943
     38 CB        -40.0980   15.2850    1.9660 C.3       1 ASP         0.0406
     39 CG        -40.9140   16.2410    2.8100 C.2       1 ASP         0.0393
     40 OD1       -40.3850   16.7170    3.8370 O.co2     1 ASP        -0.5688
     41 OD2       -42.0930   16.5070    2.4660 O.co2     1 ASP        -0.5688
     42 N         -39.5790   12.0350    3.7170 N.am      1 ARG        -0.2636
     43 CA        -40.3820   11.0070    4.4170 C.3       1 ARG         0.1311
     44 C         -40.6460   11.3300    5.9160 C.2       1 ARG         0.2039
     45 O         -39.9290   12.1110    6.5480 O.2       1 ARG        -0.3944
     46 CB        -39.7370    9.6110    4.2870 C.3       1 ARG        -0.0092
     47 CG        -40.5590    8.4510    4.9420 C.3       1 ARG        -0.0156
     48 CD        -41.3860    7.6280    3.9240 C.3       1 ARG         0.0627
     49 NE        -42.2810    6.6310    4.5420 N.pl3     1 ARG        -0.2723
     50 CZ        -43.4520    6.9190    5.1240 C.cat     1 ARG         0.2882
     51 NH1       -43.8730    8.1820    5.1880 N.pl3     1 ARG        -0.2849
     52 NH2       -44.2050    5.9580    5.6520 N.pl3     1 ARG        -0.2849
     53 N         -41.6740   10.7190    6.4930 N.am      1 LYS        -0.2637
     54 CA        -41.9910   10.9510    7.9280 C.3       1 LYS         0.1309
     55 C         -41.4420    9.8910    8.9100 C.2       1 LYS         0.2035
     56 O         -42.1850    9.3410    9.7370 O.2       1 LYS        -0.3944
     57 CB        -43.5040   11.1040    8.1220 C.3       1 LYS        -0.0122
     58 CG        -44.0850   12.1390    7.1980 C.3       1 LYS        -0.0440
     59 CD        -43.0120   13.1890    6.8990 C.3       1 LYS        -0.0124
     60 CE        -43.6340   14.4750    6.3890 C.3       1 LYS        -0.0354
     61 NZ        -42.7930   15.6240    6.8090 N.4       1 LYS         0.2185
     62 N         -40.1470    9.6060    8.8460 N.am      1 TYR        -0.2679
     63 CA        -39.5590    8.7030    9.8230 C.3       1 TYR         0.1025
     64 C         -40.1200    9.0340   11.1940 C.2       1 TYR         0.0619
     65 O         -39.4523    9.7384   11.9975 O.co2     1 TYR        -0.5665
     66 CB        -38.0450    8.8540    9.8440 C.3       1 TYR         0.0108
     67 CG        -37.4590    8.8450    8.4630 C.ar      1 TYR        -0.0499
     68 CD1       -37.5240    7.7020    7.6760 C.ar      1 TYR        -0.0686
     69 CD2       -36.8710    9.9850    7.9300 C.ar      1 TYR        -0.0686
     70 CE1       -37.0030    7.6870    6.4060 C.ar      1 TYR        -0.0398
     71 CE2       -36.3500    9.9820    6.6570 C.ar      1 TYR        -0.0398
     72 CZ        -36.4210    8.8310    5.9010 C.ar      1 TYR         0.0805
     73 OH        -35.8960    8.8170    4.6360 O.3       1 TYR        -0.3376
     74 H         -39.0233    6.2444    4.0806 H         1 ACE         0.0467
     75 H         -38.3279    4.7343    4.7187 H         1 ACE         0.0467
     76 H         -37.2567    6.0232    4.1170 H         1 ACE         0.0467
     77 H         -36.9415    4.5721    1.0769 H         1 SER         0.1883
     78 H         -36.5436    6.6983    3.0213 H         1 SER         0.0823
     79 H         -35.9641    4.4498    4.1681 H         1 SER         0.0606
     80 H         -34.7719    5.8185    4.2870 H         1 SER         0.0606
     81 H         -33.7840    3.7894    3.8244 H         1 SER         0.2097
     82 H         -35.5750    5.1414    0.0352 H         1 LYS         0.1883
     83 H         -33.4574    7.2049   -0.1075 H         1 LYS         0.0800
     84 H         -32.7800    6.3611   -2.1940 H         1 LYS         0.0312
     85 H         -34.3007    5.3399   -2.3082 H         1 LYS         0.0312
     86 H         -33.4984    3.8119   -0.7380 H         1 LYS         0.0269
     87 H         -32.2709    4.9299   -0.1169 H         1 LYS         0.0269
     88 H         -31.1030    4.8433   -2.2780 H         1 LYS         0.0317
     89 H         -32.3348    3.6393   -2.8553 H         1 LYS         0.0317
     90 H         -31.5775    2.1244   -0.9915 H         1 LYS         0.0813
     91 H         -30.2979    3.2586   -0.6203 H         1 LYS         0.0813
     92 H         -29.5512    1.5821   -2.1964 H         1 LYS         0.1994
     93 H         -30.7516    2.0034   -3.2726 H         1 LYS         0.1994
     94 H         -29.5330    3.0835   -2.9191 H         1 LYS         0.1994
     95 H         -35.8286    8.4321    0.2990 H         1 SER         0.1884
     96 H         -36.2217    9.9317   -2.2765 H         1 SER         0.0823
     97 H         -37.9488    8.2361   -2.2273 H         1 SER         0.0606
     98 H         -38.6165    9.9139   -1.9984 H         1 SER         0.0606
     99 H         -38.1913    7.9687    0.0269 H         1 SER         0.2097
    100 H         -37.1281   12.1146   -1.8845 H         1 LYS         0.1883
    101 H         -36.1336   13.1770    0.6151 H         1 LYS         0.0800
    102 H         -36.9516   15.3257   -0.1722 H         1 LYS         0.0312
    103 H         -37.9025   14.4640   -1.4822 H         1 LYS         0.0312
    104 H         -35.6233   13.6271   -2.1985 H         1 LYS         0.0269
    105 H         -34.9924   14.9785   -1.2268 H         1 LYS         0.0269
    106 H         -36.2623   16.5680   -2.4708 H         1 LYS         0.0317
    107 H         -37.1399   15.2518   -3.3368 H         1 LYS         0.0317
    108 H         -35.1741   14.6133   -4.4820 H         1 LYS         0.0813
    109 H         -34.1722   15.7124   -3.4940 H         1 LYS         0.0813
    110 H         -34.6851   16.6483   -5.6286 H         1 LYS         0.1994
    111 H         -36.3206   16.5220   -5.3353 H         1 LYS         0.1994
    112 H         -35.3856   17.5479   -4.4133 H         1 LYS         0.1994
    113 H         -37.1541   14.0532    2.3834 H         1 ASP         0.1884
    114 H         -38.8141   14.8073    3.6938 H         1 ASP         0.0819
    115 H         -40.7907   14.6862    1.3747 H         1 ASP         0.0478
    116 H         -39.4212   15.8770    1.3499 H         1 ASP         0.0478
    117 H         -38.6046   11.8470    3.4812 H         1 ARG         0.1883
    118 H         -41.3515   11.0101    3.9188 H         1 ARG         0.0800
    119 H         -38.7785    9.6536    4.8042 H         1 ARG         0.0313
    120 H         -39.6676    9.3902    3.2219 H         1 ARG         0.0313
    121 H         -41.2597    8.9023    5.6444 H         1 ARG         0.0301
    122 H         -39.8485    7.7713    5.4123 H         1 ARG         0.0301
    123 H         -40.6786    7.0831    3.2989 H         1 ARG         0.0689
    124 H         -42.0144    8.3301    3.3760 H         1 ARG         0.0689
    125 H         -41.9872    5.6544    4.5247 H         1 ARG         0.2642
    126 H         -43.3030    8.9302    4.7934 H         1 ARG         0.2615
    127 H         -44.7652    8.4003    5.6316 H         1 ARG         0.2615
    128 H         -43.8925    4.9877    5.6165 H         1 ARG         0.2615
    129 H         -45.0950    6.1914    6.0924 H         1 ARG         0.2615
    130 H         -42.2536   10.0827    5.9456 H         1 LYS         0.1883
    131 H         -41.4698   11.8745    8.1803 H         1 LYS         0.0800
    132 H         -43.6870   11.4206    9.1488 H         1 LYS         0.0312
    133 H         -43.9757   10.1461    7.9027 H         1 LYS         0.0312
    134 H         -44.9460   12.6136    7.6687 H         1 LYS         0.0269
    135 H         -44.4091   11.6668    6.2706 H         1 LYS         0.0269
    136 H         -42.3439   12.7966    6.1324 H         1 LYS         0.0317
    137 H         -42.4691   13.4050    7.8192 H         1 LYS         0.0317
    138 H         -44.6367   14.5853    6.8020 H         1 LYS         0.0813
    139 H         -43.6958   14.4452    5.3012 H         1 LYS         0.0813
    140 H         -43.2085   16.4907    6.4676 H         1 LYS         0.1994
    141 H         -42.7385   15.6497    7.8272 H         1 LYS         0.1994
    142 H         -41.8561   15.5183    6.4198 H         1 LYS         0.1994
    143 H         -39.5671   10.0183    8.1152 H         1 TYR         0.1877
    144 H         -39.8013    7.6749    9.5541 H         1 TYR         0.0747
    145 O         -41.2557    8.6034   11.5293 O.co2     1 TYR        -0.5665
    146 H         -37.6266    8.0129   10.3968 H         1 TYR         0.0446
    147 H         -37.8046    9.8098   10.3096 H         1 TYR         0.0446
    148 H         -37.9960    6.8033    8.0730 H         1 TYR         0.0530
    149 H         -36.8218   10.8945    8.5288 H         1 TYR         0.0530
    150 H         -37.0488    6.7803    5.8028 H         1 TYR         0.0525
    151 H         -35.8858   10.8803    6.2500 H         1 TYR         0.0525
    152 H         -36.3388    9.4787    4.0996 H         1 TYR         0.2458
@<TRIPOS>BOND
     1    1    2 2  
     2    1    3 1  
     3    1    4 am 
     4    4    5 1  
     5    5    6 1  
     6    5    8 1  
     7    6    7 2  
     8    6   10 am 
     9    8    9 1  
    10   10   11 1  
    11   11   12 1  
    12   11   14 1  
    13   12   13 2  
    14   12   19 am 
    15   14   15 1  
    16   15   16 1  
    17   16   17 1  
    18   17   18 1  
    19   19   20 1  
    20   20   21 1  
    21   20   23 1  
    22   21   22 2  
    23   21   25 am 
    24   23   24 1  
    25   25   26 1  
    26   26   27 1  
    27   26   29 1  
    28   27   28 2  
    29   27   34 am 
    30   29   30 1  
    31   30   31 1  
    32   31   32 1  
    33   32   33 1  
    34   34   35 1  
    35   35   36 1  
    36   35   38 1  
    37   36   37 2  
    38   36   42 am 
    39   38   39 1  
    40   39   40 ar 
    41   39   41 ar 
    42   42   43 1  
    43   43   44 1  
    44   43   46 1  
    45   44   45 2  
    46   44   53 am 
    47   46   47 1  
    48   47   48 1  
    49   48   49 1  
    50   49   50 ar 
    51   50   51 ar 
    52   50   52 ar 
    53   53   54 1  
    54   54   55 1  
    55   54   57 1  
    56   55   56 2  
    57   55   62 am 
    58   57   58 1  
    59   58   59 1  
    60   59   60 1  
    61   60   61 1  
    62   62   63 1  
    63   63   64 1  
    64   63   66 1  
    65   64   65 ar 
    66   66   67 1  
    67   67   68 ar 
    68   67   69 ar 
    69   68   70 ar 
    70   69   71 ar 
    71   70   72 ar 
    72   71   72 ar 
    73   72   73 1  
    74    3   74 1  
    75    3   75 1  
    76    3   76 1  
    77    4   77 1  
    78    5   78 1  
    79    8   79 1  
    80    8   80 1  
    81    9   81 1  
    82   10   82 1  
    83   11   83 1  
    84   14   84 1  
    85   14   85 1  
    86   15   86 1  
    87   15   87 1  
    88   16   88 1  
    89   16   89 1  
    90   17   90 1  
    91   17   91 1  
    92   18   92 1  
    93   18   93 1  
    94   18   94 1  
    95   19   95 1  
    96   20   96 1  
    97   23   97 1  
    98   23   98 1  
    99   24   99 1  
   100   25  100 1  
   101   26  101 1  
   102   29  102 1  
   103   29  103 1  
   104   30  104 1  
   105   30  105 1  
   106   31  106 1  
   107   31  107 1  
   108   32  108 1  
   109   32  109 1  
   110   33  110 1  
   111   33  111 1  
   112   33  112 1  
   113   34  113 1  
   114   35  114 1  
   115   38  115 1  
   116   38  116 1  
   117   42  117 1  
   118   43  118 1  
   119   46  119 1  
   120   46  120 1  
   121   47  121 1  
   122   47  122 1  
   123   48  123 1  
   124   48  124 1  
   125   49  125 1  
   126   51  126 1  
   127   51  127 1  
   128   52  128 1  
   129   52  129 1  
   130   53  130 1  
   131   54  131 1  
   132   57  132 1  
   133   57  133 1  
   134   58  134 1  
   135   58  135 1  
   136   59  136 1  
   137   59  137 1  
   138   60  138 1  
   139   60  139 1  
   140   61  140 1  
   141   61  141 1  
   142   61  142 1  
   143   62  143 1  
   144   63  144 1  
   145   64  145 ar 
   146   66  146 1  
   147   66  147 1  
   148   68  148 1  
   149   69  149 1  
   150   70  150 1  
   151   71  151 1  
   152   73  152 1  
@<TRIPOS>SUBSTRUCTURE
     1 ACE         1

