1gyx_ligand
  -I-interpret- 

 15 15  0  0  0  0  0  0  0  0999 V2000
   11.3000    4.4720   23.3280 C   0  0  0  0  0
   10.9970    4.2850   22.1630 O   0  0  0  0  0
   10.8480    5.5550   23.9370 O   0  0  0  0  0
   12.1110    3.4730   24.0570 C   0  0  0  0  0
   12.7670    3.7760   25.2500 C   0  0  0  0  0
   13.5420    2.8200   25.9060 C   0  0  0  0  0
   13.6550    1.5650   25.3410 C   0  0  0  0  0
   13.0260    1.2680   24.1570 C   0  0  0  0  0
   12.2490    2.2020   23.4850 C   0  0  0  0  0
   11.1658    5.5676   24.8428 H   0  0  0  0  0
   12.6725    4.7749   25.6759 H   0  0  0  0  0
   14.0466    3.0577   26.8425 H   0  0  0  0  0
   14.2506    0.8011   25.8408 H   0  0  0  0  0
   13.1400    0.2705   23.7326 H   0  0  0  0  0
   11.7618    1.9539   22.5420 H   0  0  0  0  0
  1  4  1  0  0  0
  1  3  1  0  0  0
  1  2  2  0  0  0
  4  9  4  0  0  0
  4  5  4  0  0  0
  5  6  4  0  0  0
  6  7  4  0  0  0
  7  8  4  0  0  0
  8  9  4  0  0  0
  3 10  1  0  0  0
  5 11  1  0  0  0
  6 12  1  0  0  0
  7 13  1  0  0  0
  8 14  1  0  0  0
  9 15  1  0  0  0
M  END
$$$$
