2w7y_ligand
  -I-interpret- 

 71 73  0  0  0  0  0  0  0  0999 V2000
   16.3090    1.9070   48.3660 C   0  0  0  0  0
   17.1070    0.6710   47.9830 C   0  0  0  0  0
   18.5070    1.0900   47.5140 C   0  0  0  0  0
   18.4110    2.0100   46.2960 C   0  0  0  0  0
   17.5270    3.2110   46.6560 C   0  0  0  0  0
   17.3110    4.1380   45.4620 C   0  0  0  0  0
   16.9370   -1.5140   49.0610 C   0  0  0  0  0
   17.2070   -2.2930   50.3450 C   0  0  0  0  0
   16.2270    2.7630   47.1950 O   0  0  0  0  0
   19.3030   -0.0650   47.2410 O   0  0  0  0  0
   17.8450    1.3030   45.1850 O   0  0  0  0  0
   16.3850    5.1580   45.8420 O   0  0  0  0  0
   16.4400   -2.0620   48.0770 O   0  0  0  0  0
   17.2710   -0.2300   49.1240 N   0  0  0  0  0
   16.2640    5.6410   51.5370 C   0  0  0  0  0
   16.9550    4.4450   50.8800 C   0  0  0  0  0
   15.9750    3.6730   49.9920 C   0  0  0  0  0
   14.6530    3.3850   50.7130 C   0  0  0  0  0
   14.0990    4.6990   51.2820 C   0  0  0  0  0
   12.7680    4.5500   52.0230 C   0  0  0  0  0
   17.1040    6.1540   52.5460 O   0  0  0  0  0
   18.0360    4.9320   50.1120 O   0  0  0  0  0
   16.5750    2.4810   49.5390 O   0  0  0  0  0
   14.8800    2.4330   51.7260 O   0  0  0  0  0
   15.0510    5.2720   52.1580 O   0  0  0  0  0
   12.1110    5.8040   52.0450 O   0  0  0  0  0
   19.3040    4.2860   50.3950 C   0  0  0  0  0
   20.3890    4.8540   49.4770 C   0  0  0  0  0
   20.7520    6.2710   49.9260 C   0  0  0  0  0
   21.2180    6.2520   51.3820 C   0  0  0  0  0
   20.1370    5.6010   52.2520 C   0  0  0  0  0
   20.5720    5.4320   53.7040 C   0  0  0  0  0
   19.9200    4.8750   48.1520 O   0  0  0  0  0
   21.7260    6.8450   49.0810 O   0  0  0  0  0
   22.4360    5.5410   51.4990 O   0  0  0  0  0
   19.7380    4.3340   51.7480 O   0  0  0  0  0
   15.2999    1.5945   48.6346 H   0  0  0  0  0
   16.5621    0.1579   47.1906 H   0  0  0  0  0
   18.9955    1.6507   48.3109 H   0  0  0  0  0
   19.4071    2.3521   46.0153 H   0  0  0  0  0
   18.0528    3.7766   47.4252 H   0  0  0  0  0
   16.9160    3.5722   44.6182 H   0  0  0  0  0
   18.2581    4.5875   45.1636 H   0  0  0  0  0
   16.2696   -2.6973   50.7271 H   0  0  0  0  0
   17.8975   -3.1097   50.1346 H   0  0  0  0  0
   17.6461   -1.6265   51.0873 H   0  0  0  0  0
   19.3415   -0.6182   48.0246 H   0  0  0  0  0
   18.4035    0.5535   44.9660 H   0  0  0  0  0
   16.2395    5.7492   45.0997 H   0  0  0  0  0
   17.6535    0.1392   49.9945 H   0  0  0  0  0
   16.0610    6.3726   50.7550 H   0  0  0  0  0
   17.3153    3.7581   51.6458 H   0  0  0  0  0
   15.7349    4.2980   49.1319 H   0  0  0  0  0
   13.9151    2.9754   50.0231 H   0  0  0  0  0
   13.9066    5.3418   50.4230 H   0  0  0  0  0
   12.9506    4.2123   53.0432 H   0  0  0  0  0
   12.1434    3.8162   51.5136 H   0  0  0  0  0
   16.6778    6.9057   52.9641 H   0  0  0  0  0
   14.0550    2.2487   52.1811 H   0  0  0  0  0
   11.2748    5.7178   52.5086 H   0  0  0  0  0
   19.1294    3.2279   50.1998 H   0  0  0  0  0
   21.2776    4.2251   49.5315 H   0  0  0  0  0
   19.8617    6.8959   49.8552 H   0  0  0  0  0
   21.3851    7.2748   51.7197 H   0  0  0  0  0
   19.2922    6.2889   52.2167 H   0  0  0  0  0
   21.4593    4.8003   53.7449 H   0  0  0  0  0
   20.8001    6.4092   54.1297 H   0  0  0  0  0
   19.7663    4.9662   54.2714 H   0  0  0  0  0
   20.6019    5.2315   47.5780 H   0  0  0  0  0
   21.9320    7.7310   49.3877 H   0  0  0  0  0
   22.7161    5.5373   52.4172 H   0  0  0  0  0
  1  2  1  0  0  0
  1  9  1  0  0  0
 23  1  1  0  0  0
  2  3  1  0  0  0
  2 14  1  0  0  0
  3  4  1  0  0  0
  3 10  1  0  0  0
  5  4  1  0  0  0
  4 11  1  0  0  0
  5  6  1  0  0  0
  9  5  1  0  0  0
  6 12  1  0  0  0
  7  8  1  0  0  0
  7 13  2  0  0  0
 14  7  1  0  0  0
 16 15  1  0  0  0
 15 21  1  0  0  0
 15 25  1  0  0  0
 17 16  1  0  0  0
 16 22  1  0  0  0
 17 18  1  0  0  0
 17 23  1  0  0  0
 18 19  1  0  0  0
 18 24  1  0  0  0
 19 20  1  0  0  0
 19 25  1  0  0  0
 20 26  1  0  0  0
 22 27  1  0  0  0
 27 28  1  0  0  0
 27 36  1  0  0  0
 28 29  1  0  0  0
 28 33  1  0  0  0
 29 30  1  0  0  0
 29 34  1  0  0  0
 30 31  1  0  0  0
 30 35  1  0  0  0
 31 32  1  0  0  0
 31 36  1  0  0  0
  1 37  1  0  0  0
  2 38  1  0  0  0
  3 39  1  0  0  0
  4 40  1  0  0  0
  5 41  1  0  0  0
  6 42  1  0  0  0
  6 43  1  0  0  0
  8 44  1  0  0  0
  8 45  1  0  0  0
  8 46  1  0  0  0
 10 47  1  0  0  0
 11 48  1  0  0  0
 12 49  1  0  0  0
 14 50  1  0  0  0
 15 51  1  0  0  0
 16 52  1  0  0  0
 17 53  1  0  0  0
 18 54  1  0  0  0
 19 55  1  0  0  0
 20 56  1  0  0  0
 20 57  1  0  0  0
 21 58  1  0  0  0
 24 59  1  0  0  0
 26 60  1  0  0  0
 27 61  1  0  0  0
 28 62  1  0  0  0
 29 63  1  0  0  0
 30 64  1  0  0  0
 31 65  1  0  0  0
 32 66  1  0  0  0
 32 67  1  0  0  0
 32 68  1  0  0  0
 33 69  1  0  0  0
 34 70  1  0  0  0
 35 71  1  0  0  0
M  END
$$$$
