3poz_ligand
  -I-interpret- 

 63 66  0  0  0  0  0  0  0  0999 V2000
   14.7340   33.5590   13.1610 N   0  0  0  0  0
   20.2250   35.7750   15.3950 N   0  0  0  0  0
   15.8900   35.0340   17.2350 C   0  0  0  0  0
   14.5180   34.8540   17.0580 C   0  0  0  0  0
   18.0730   34.7880   16.0540 C   0  0  0  0  0
   18.7830   36.0320   15.5310 C   0  0  0  0  0
   20.7150   35.0010   14.4070 C   0  0  0  0  0
   17.2240   33.5270   11.8350 C   0  0  0  0  0
   17.5500   32.9210    9.0980 C   0  0  0  0  0
   18.1350   32.5430   11.4220 C   0  0  0  0  0
   18.4040   30.7430    6.4860 C   0  0  0  0  0
   16.0480   29.3940    7.1640 C   0  0  0  0  0
   16.2660   30.6950    7.6250 C   0  0  0  0  0
   14.8020   28.6230    7.5000 C   0  0  0  0  0
   24.1210   33.2280   14.0430 C   0  0  0  0  0
   13.8670   29.3560    8.0560 F   0  0  0  0  0
   14.2830   28.1180    6.3950 F   0  0  0  0  0
   15.1020   27.6320    8.3300 F   0  0  0  0  0
   17.0120   28.7820    6.3480 C   0  0  0  0  0
   18.1880   29.4520    6.0170 C   0  0  0  0  0
   17.4560   31.3660    7.3000 C   0  0  0  0  0
   17.6880   32.6400    7.7450 O   0  0  0  0  0
   16.6540   33.8950    9.5210 C   0  0  0  0  0
   15.6760   34.7660    8.3190 Cl  0  0  0  0  0
   16.4760   34.2030   10.8620 C   0  0  0  0  0
   18.3170   32.2500   10.0520 C   0  0  0  0  0
   17.0810   33.8100   13.1800 N   0  0  0  0  0
   15.8750   33.8860   13.8120 C   0  0  0  0  0
   13.5190   33.6450   13.7380 C   0  0  0  0  0
   15.7330   34.3090   15.1460 C   0  0  0  0  0
   14.4750   34.4120   15.7050 C   0  0  0  0  0
   13.3710   34.0640   15.0050 N   0  0  0  0  0
   16.5930   34.7400   16.1000 N   0  0  0  0  0
   20.0140   34.4420   13.5830 O   0  0  0  0  0
   22.2200   34.8250   14.3240 C   0  0  0  0  0
   22.6070   33.3860   13.9560 C   0  0  0  0  0
   22.0200   32.5000   14.9190 O   0  0  0  0  0
   22.1470   32.9560   12.5610 C   0  0  0  0  0
   20.8700   36.1932   16.0654 H   0  0  0  0  0
   16.3466   35.3688   18.1664 H   0  0  0  0  0
   13.7015   35.0093   17.7631 H   0  0  0  0  0
   18.3792   34.7196   17.0979 H   0  0  0  0  0
   18.3482   34.0025   15.3501 H   0  0  0  0  0
   18.3736   36.2925   14.5550 H   0  0  0  0  0
   18.6315   36.8512   16.2339 H   0  0  0  0  0
   18.7107   31.9967   12.1691 H   0  0  0  0  0
   19.3184   31.2716    6.2167 H   0  0  0  0  0
   15.5118   31.1894    8.2373 H   0  0  0  0  0
   24.5978   33.9213   13.3501 H   0  0  0  0  0
   24.4498   33.4444   15.0594 H   0  0  0  0  0
   24.3940   32.2057   13.7814 H   0  0  0  0  0
   16.8393   27.7743    5.9701 H   0  0  0  0  0
   18.9367   28.9653    5.3920 H   0  0  0  0  0
   15.7574   34.9675   11.1573 H   0  0  0  0  0
   19.0507   31.5057    9.7423 H   0  0  0  0  0
   17.9244   33.9710   13.7307 H   0  0  0  0  0
   12.6358   33.3679   13.1625 H   0  0  0  0  0
   22.6459   35.0549   15.3006 H   0  0  0  0  0
   22.6003   35.4906   13.5491 H   0  0  0  0  0
   21.0640   32.5801   14.8848 H   0  0  0  0  0
   22.6287   33.5839   11.8114 H   0  0  0  0  0
   22.4209   31.9142   12.3946 H   0  0  0  0  0
   21.0650   33.0648   12.4870 H   0  0  0  0  0
 28  1  4  0  0  0
  1 29  4  0  0  0
  2  6  1  0  0  0
  7  2  1  0  0  0
  3  4  4  0  0  0
 33  3  4  0  0  0
 31  4  4  0  0  0
  6  5  1  0  0  0
  5 33  1  0  0  0
  7 34  2  0  0  0
 35  7  1  0  0  0
  8 10  4  0  0  0
  8 25  4  0  0  0
 27  8  1  0  0  0
  9 22  1  0  0  0
 23  9  4  0  0  0
 26  9  4  0  0  0
 10 26  4  0  0  0
 11 20  4  0  0  0
 21 11  4  0  0  0
 13 12  4  0  0  0
 12 14  1  0  0  0
 12 19  4  0  0  0
 21 13  4  0  0  0
 14 16  1  0  0  0
 14 17  1  0  0  0
 14 18  1  0  0  0
 36 15  1  0  0  0
 20 19  4  0  0  0
 22 21  1  0  0  0
 23 24  1  0  0  0
 25 23  4  0  0  0
 28 27  1  0  0  0
 30 28  4  0  0  0
 32 29  4  0  0  0
 30 31  4  0  0  0
 33 30  4  0  0  0
 31 32  4  0  0  0
 35 36  1  0  0  0
 36 37  1  0  0  0
 36 38  1  0  0  0
  2 39  1  0  0  0
  3 40  1  0  0  0
  4 41  1  0  0  0
  5 42  1  0  0  0
  5 43  1  0  0  0
  6 44  1  0  0  0
  6 45  1  0  0  0
 10 46  1  0  0  0
 11 47  1  0  0  0
 13 48  1  0  0  0
 15 49  1  0  0  0
 15 50  1  0  0  0
 15 51  1  0  0  0
 19 52  1  0  0  0
 20 53  1  0  0  0
 25 54  1  0  0  0
 26 55  1  0  0  0
 27 56  1  0  0  0
 29 57  1  0  0  0
 35 58  1  0  0  0
 35 59  1  0  0  0
 37 60  1  0  0  0
 38 61  1  0  0  0
 38 62  1  0  0  0
 38 63  1  0  0  0
M  END
$$$$
