3km4_ligand
  -I-interpret- 

 82 84  0  0  0  0  0  0  0  0999 V2000
   28.6930   -7.8480  -14.3900 C   0  0  0  0  0
   27.7630   -3.8300  -12.9020 N   0  0  0  0  0
   28.1280   -7.8550  -15.7090 O   0  0  0  0  0
   33.4010   -9.2330  -12.5040 Cl  0  0  0  0  0
   30.1860   -8.0800  -14.5970 C   0  0  0  0  0
   24.6580   -7.8770   -7.3670 N   0  3  0  0  0
   25.8140  -10.9840  -10.6280 O   0  0  0  0  0
   30.7920   -7.8190  -15.8350 C   0  0  0  0  0
   26.2720   -8.7660  -10.6730 N   0  0  0  0  0
   28.2170   -1.6900  -13.4900 O   0  0  0  0  0
   30.9840   -8.5220  -13.5650 C   0  0  0  0  0
   26.1450   -9.9980  -12.5940 N   0  0  0  0  0
   32.1490   -8.0400  -16.1270 C   0  0  0  0  0
   32.3640   -8.6870  -13.8460 C   0  0  0  0  0
   32.9720   -8.4880  -15.0890 C   0  0  0  0  0
   28.3820   -6.5660  -13.6210 C   0  0  0  0  0
   29.3960   -5.4510  -13.5840 C   0  0  0  0  0
   29.1030   -4.3230  -12.5960 C   0  0  0  0  0
   27.3940   -2.5930  -13.2740 C   0  0  0  0  0
   25.9300   -2.4080  -13.4990 C   0  0  0  0  0
   26.2270   -8.6060   -9.2100 C   0  0  0  0  0
   24.7950   -8.2240   -8.7950 C   0  0  0  0  0
   27.3650   -7.6370   -8.8080 C   0  0  0  0  0
   28.7680   -8.0460   -9.2500 C   0  0  0  0  0
   29.7510   -6.9060   -9.0760 C   0  0  0  0  0
   31.1270   -7.4370   -9.4480 C   0  0  0  0  0
   31.5740   -8.5900   -8.5340 C   0  0  0  0  0
   29.2470   -9.2660   -8.4250 C   0  0  0  0  0
   30.6340   -9.7380   -8.8660 C   0  0  0  0  0
   26.0760   -9.9430  -11.2760 C   0  0  0  0  0
   27.5230  -11.5740  -13.4270 C   0  0  0  0  0
   28.2460  -10.4420  -14.2590 C   0  0  0  0  0
   28.0430   -9.0360  -13.5950 C   0  0  0  0  0
   26.5080   -8.8920  -13.5100 C   0  0  0  0  0
   26.0450  -11.2210  -13.3590 C   0  0  0  0  0
   25.1310   -8.8900   -6.4150 C   0  0  0  0  0
   27.0097   -4.5132  -12.8231 H   0  0  0  0  0
   28.3520   -8.6791  -16.1475 H   0  0  0  0  0
   23.6595   -7.7621   -7.1930 H   0  0  0  0  0
   25.2332   -7.0484   -7.2154 H   0  0  0  0  0
   30.1641   -7.4150  -16.6291 H   0  0  0  0  0
   26.4603   -7.9459  -11.2496 H   0  0  0  0  0
   30.5736   -8.7351  -12.5779 H   0  0  0  0  0
   32.5460   -7.8682  -17.1275 H   0  0  0  0  0
   34.0353   -8.6730  -15.2416 H   0  0  0  0  0
   28.2866   -6.8848  -12.5830 H   0  0  0  0  0
   27.5223   -6.1382  -14.1368 H   0  0  0  0  0
   29.3961   -5.0003  -14.5765 H   0  0  0  0  0
   30.3380   -5.9003  -13.2696 H   0  0  0  0  0
   29.1575   -4.6841  -11.5690 H   0  0  0  0  0
   29.8398   -3.5252  -12.6897 H   0  0  0  0  0
   25.5669   -1.5952  -12.8700 H   0  0  0  0  0
   25.7525   -2.1655  -14.5467 H   0  0  0  0  0
   25.4053   -3.3287  -13.2439 H   0  0  0  0  0
   26.4241   -9.5227   -8.6542 H   0  0  0  0  0
   24.5152   -7.3419   -9.3710 H   0  0  0  0  0
   24.1618   -9.0918   -8.9797 H   0  0  0  0  0
   27.3792   -7.6119   -7.7184 H   0  0  0  0  0
   27.1506   -6.6877   -9.2990 H   0  0  0  0  0
   28.7239   -8.3082  -10.3071 H   0  0  0  0  0
   29.7437   -6.5469   -8.0469 H   0  0  0  0  0
   29.4793   -6.0646   -9.7134 H   0  0  0  0  0
   31.8440   -6.6230   -9.3409 H   0  0  0  0  0
   31.0792   -7.8142  -10.4695 H   0  0  0  0  0
   31.5218   -8.3154   -7.4805 H   0  0  0  0  0
   32.6169   -8.8589   -8.7017 H   0  0  0  0  0
   28.5415  -10.0826   -8.5783 H   0  0  0  0  0
   29.3015   -8.9718   -7.3769 H   0  0  0  0  0
   30.9262  -10.6557   -8.3555 H   0  0  0  0  0
   30.6561   -9.9796   -9.9287 H   0  0  0  0  0
   27.9454  -11.6378  -12.4242 H   0  0  0  0  0
   27.6609  -12.5441  -13.9045 H   0  0  0  0  0
   27.8187  -10.4192  -15.2615 H   0  0  0  0  0
   29.3132  -10.6612  -14.2920 H   0  0  0  0  0
   28.5417   -8.9842  -12.6272 H   0  0  0  0  0
   26.1853   -7.9135  -13.1544 H   0  0  0  0  0
   26.0142   -8.9550  -14.4797 H   0  0  0  0  0
   25.5489  -11.1224  -14.3245 H   0  0  0  0  0
   25.4066  -11.9885  -12.9214 H   0  0  0  0  0
   24.5699   -9.8131   -6.5600 H   0  0  0  0  0
   26.1915   -9.0777   -6.5832 H   0  0  0  0  0
   24.9816   -8.5285   -5.3976 H   0  0  0  0  0
  1  3  1  0  0  0
  1  5  1  0  0  0
  1 16  1  0  0  0
 33  1  1  0  0  0
 18  2  1  0  0  0
  2 19  1  0  0  0
 14  4  1  0  0  0
  5  8  4  0  0  0
  5 11  4  0  0  0
 22  6  1  0  0  0
  6 36  1  0  0  0
 30  7  2  0  0  0
  8 13  4  0  0  0
  9 21  1  0  0  0
 30  9  1  0  0  0
 19 10  2  0  0  0
 11 14  4  0  0  0
 12 30  1  0  0  0
 12 34  1  0  0  0
 35 12  1  0  0  0
 13 15  4  0  0  0
 14 15  4  0  0  0
 16 17  1  0  0  0
 17 18  1  0  0  0
 19 20  1  0  0  0
 21 22  1  0  0  0
 21 23  1  0  0  0
 23 24  1  0  0  0
 24 25  1  0  0  0
 24 28  1  0  0  0
 25 26  1  0  0  0
 26 27  1  0  0  0
 29 27  1  0  0  0
 28 29  1  0  0  0
 32 31  1  0  0  0
 31 35  1  0  0  0
 32 33  1  0  0  0
 33 34  1  0  0  0
  2 37  1  0  0  0
  3 38  1  0  0  0
  6 39  1  0  0  0
  6 40  1  0  0  0
  8 41  1  0  0  0
  9 42  1  0  0  0
 11 43  1  0  0  0
 13 44  1  0  0  0
 15 45  1  0  0  0
 16 46  1  0  0  0
 16 47  1  0  0  0
 17 48  1  0  0  0
 17 49  1  0  0  0
 18 50  1  0  0  0
 18 51  1  0  0  0
 20 52  1  0  0  0
 20 53  1  0  0  0
 20 54  1  0  0  0
 21 55  1  0  0  0
 22 56  1  0  0  0
 22 57  1  0  0  0
 23 58  1  0  0  0
 23 59  1  0  0  0
 24 60  1  0  0  0
 25 61  1  0  0  0
 25 62  1  0  0  0
 26 63  1  0  0  0
 26 64  1  0  0  0
 27 65  1  0  0  0
 27 66  1  0  0  0
 28 67  1  0  0  0
 28 68  1  0  0  0
 29 69  1  0  0  0
 29 70  1  0  0  0
 31 71  1  0  0  0
 31 72  1  0  0  0
 32 73  1  0  0  0
 32 74  1  0  0  0
 33 75  1  0  0  0
 34 76  1  0  0  0
 34 77  1  0  0  0
 35 78  1  0  0  0
 35 79  1  0  0  0
 36 80  1  0  0  0
 36 81  1  0  0  0
 36 82  1  0  0  0
M  END
$$$$
