1x1z_ligand
  -I-interpret- 

 35 36  0  0  0  0  0  0  0  0999 V2000
   24.5890  -15.9930    8.7310 P   0  0  0  0  0
   25.8850  -15.2300    8.8790 O   0  0  0  0  0
   23.4250  -15.0490    8.5920 O   0  0  0  0  0
   24.6850  -16.9770    7.5900 O   0  0  0  0  0
   24.2760  -16.8040   10.0820 O   0  0  0  0  0
   25.3360  -17.3930   10.8650 C   0  0  0  0  0
   24.5700  -18.0980   11.9540 C   0  0  0  0  0
   25.4970  -18.9710   12.6590 O   0  0  0  0  0
   24.0090  -17.2220   13.0130 C   0  0  0  0  0
   22.8550  -17.8020   13.6440 O   0  0  0  0  0
   25.1330  -17.1190   14.0520 C   0  0  0  0  0
   24.6400  -16.7680   15.3100 O   0  0  0  0  0
   25.7490  -18.4970   13.9880 C   0  0  0  0  0
   27.2100  -18.6080   14.2190 N   0  0  0  0  0
   28.1140  -17.8160   13.5290 C   0  0  0  0  0
   27.7620  -17.0320   12.6790 O   0  0  0  0  0
   29.4100  -17.9790   13.8380 N   0  0  0  0  0
   29.9410  -18.8820   14.7960 C   0  0  0  0  0
   31.1580  -18.8920   14.9280 O   0  0  0  0  0
   28.9890  -19.6960   15.4790 C   0  0  0  0  0
   27.6490  -19.5780   15.1830 C   0  0  0  0  0
   26.7510  -20.2950   15.7020 O   0  0  0  0  0
   26.6123  -15.8506    8.9660 H   0  0  0  0  0
   25.4409  -17.5525    7.7280 H   0  0  0  0  0
   26.0490  -16.6610   11.2445 H   0  0  0  0  0
   25.9777  -18.0597   10.2889 H   0  0  0  0  0
   23.7436  -18.5915   11.4426 H   0  0  0  0  0
   23.6913  -16.2658   12.5972 H   0  0  0  0  0
   22.5265  -17.2040   14.3193 H   0  0  0  0  0
   25.8639  -16.3344   13.8563 H   0  0  0  0  0
   25.3678  -16.7127   15.9336 H   0  0  0  0  0
   25.3000  -19.0637   14.8037 H   0  0  0  0  0
   30.0793  -17.3966   13.3348 H   0  0  0  0  0
   29.3212  -20.4095   16.2331 H   0  0  0  0  0
   25.8954  -20.0389   15.3501 H   0  0  0  0  0
  1  2  1  0  0  0
  1  3  2  0  0  0
  1  4  1  0  0  0
  1  5  1  0  0  0
  5  6  1  0  0  0
  6  7  1  0  0  0
  7  8  1  0  0  0
  7  9  1  0  0  0
  8 13  1  0  0  0
  9 10  1  0  0  0
  9 11  1  0  0  0
 11 12  1  0  0  0
 11 13  1  0  0  0
 13 14  1  0  0  0
 14 15  1  0  0  0
 14 21  1  0  0  0
 15 16  2  0  0  0
 15 17  1  0  0  0
 17 18  1  0  0  0
 18 19  2  0  0  0
 18 20  1  0  0  0
 20 21  2  0  0  0
 21 22  1  0  0  0
  2 23  1  0  0  0
  4 24  1  0  0  0
  6 25  1  0  0  0
  6 26  1  0  0  0
  7 27  1  0  0  0
  9 28  1  0  0  0
 10 29  1  0  0  0
 11 30  1  0  0  0
 12 31  1  0  0  0
 13 32  1  0  0  0
 17 33  1  0  0  0
 20 34  1  0  0  0
 22 35  1  0  0  0
M  END
$$$$
