5ylt_ligand
  -I-interpret- 

 45 48  0  0  0  0  0  0  0  0999 V2000
  -44.5610   -0.0790  -14.5540 C   0  0  0  0  0
  -43.4210   -0.9190  -14.3810 C   0  0  0  0  0
  -43.2160   -2.1550  -15.1690 C   0  0  0  0  0
  -42.7030   -3.4300  -14.7770 C   0  0  0  0  0
  -41.9740   -3.8160  -13.5130 C   0  0  0  0  0
  -41.9600   -5.1790  -13.0490 C   0  0  0  0  0
  -41.3190   -5.6620  -11.8950 C   0  0  0  0  0
  -40.6110   -4.7040  -11.1100 C   0  0  0  0  0
  -40.6210   -3.3870  -11.5360 C   0  0  0  0  0
  -41.2560   -2.8490  -12.7170 C   0  0  0  0  0
  -41.1980   -1.3650  -13.1480 C   0  0  0  0  0
  -39.9640   -0.7700  -13.3920 C   0  0  0  0  0
  -39.7940    0.7490  -13.7950 C   0  0  0  0  0
  -38.5580    0.9370  -14.7160 C   0  0  0  0  0
  -36.2680    0.4840  -15.2170 C   0  0  0  0  0
  -37.4900   -1.0810  -13.9470 C   0  0  0  0  0
  -38.6130   -1.3710  -12.9450 C   0  0  0  0  0
  -42.4400   -0.5290  -13.3950 C   0  0  0  0  0
  -42.7520    0.6650  -12.6710 C   0  0  0  0  0
  -43.8590    1.4690  -12.8590 C   0  0  0  0  0
  -44.8030    1.0880  -13.8340 C   0  0  0  0  0
  -37.3770    0.3250  -14.1900 N   0  3  0  0  0
  -41.3180   -6.9760  -11.4760 O   0  0  0  0  0
  -45.2957   -0.3719  -15.3040 H   0  0  0  0  0
  -43.5027   -2.0808  -16.2180 H   0  0  0  0  0
  -42.8604   -4.2377  -15.4918 H   0  0  0  0  0
  -42.5000   -5.9086  -13.6524 H   0  0  0  0  0
  -40.0800   -4.9992  -10.2051 H   0  0  0  0  0
  -40.0881   -2.6732  -10.9078 H   0  0  0  0  0
  -39.6526    1.3401  -12.8902 H   0  0  0  0  0
  -40.6858    1.0734  -14.3312 H   0  0  0  0  0
  -38.3681    2.0066  -14.8059 H   0  0  0  0  0
  -38.7802    0.4658  -15.6734 H   0  0  0  0  0
  -36.5628   -0.0029  -16.1466 H   0  0  0  0  0
  -36.0935    1.5442  -15.4002 H   0  0  0  0  0
  -35.3551    0.0243  -14.8382 H   0  0  0  0  0
  -37.7190   -1.5831  -14.8870 H   0  0  0  0  0
  -36.5484   -1.4434  -13.5345 H   0  0  0  0  0
  -38.7307   -2.4521  -12.8713 H   0  0  0  0  0
  -38.3406   -0.9202  -11.9907 H   0  0  0  0  0
  -42.0481    0.9694  -11.8964 H   0  0  0  0  0
  -43.9991    2.3746  -12.2688 H   0  0  0  0  0
  -45.6942    1.6879  -14.0185 H   0  0  0  0  0
  -37.1983    0.7847  -13.2972 H   0  0  0  0  0
  -40.8126   -7.0511  -10.6633 H   0  0  0  0  0
  1  2  4  0  0  0
  1 21  4  0  0  0
  2  3  1  0  0  0
  2 18  4  0  0  0
  3  4  2  0  0  0
  4  5  1  0  0  0
  5  6  4  0  0  0
  5 10  4  0  0  0
  6  7  4  0  0  0
  7  8  4  0  0  0
  7 23  1  0  0  0
  8  9  4  0  0  0
  9 10  4  0  0  0
 10 11  1  0  0  0
 11 12  2  0  0  0
 11 18  1  0  0  0
 12 13  1  0  0  0
 12 17  1  0  0  0
 13 14  1  0  0  0
 14 22  1  0  0  0
 22 15  1  0  0  0
 17 16  1  0  0  0
 16 22  1  0  0  0
 18 19  4  0  0  0
 19 20  4  0  0  0
 20 21  4  0  0  0
  1 24  1  0  0  0
  3 25  1  0  0  0
  4 26  1  0  0  0
  6 27  1  0  0  0
  8 28  1  0  0  0
  9 29  1  0  0  0
 13 30  1  0  0  0
 13 31  1  0  0  0
 14 32  1  0  0  0
 14 33  1  0  0  0
 15 34  1  0  0  0
 15 35  1  0  0  0
 15 36  1  0  0  0
 16 37  1  0  0  0
 16 38  1  0  0  0
 17 39  1  0  0  0
 17 40  1  0  0  0
 19 41  1  0  0  0
 20 42  1  0  0  0
 21 43  1  0  0  0
 22 44  1  0  0  0
 23 45  1  0  0  0
M  END
$$$$
