3zev_ligand
  -I-interpret- 

137138  0  0  0  0  0  0  0  0999 V2000
   -2.3280  -23.5610  -41.1100 N   0  3  0  0  0
   -3.4870  -23.1440  -41.8760 C   0  0  0  0  0
   -4.7320  -23.9240  -41.5050 C   0  0  0  0  0
   -4.6480  -25.0720  -41.0680 O   0  0  0  0  0
   -5.8930  -23.3010  -41.6780 N   0  0  0  0  0
   -7.1510  -23.9440  -41.3510 C   0  0  0  0  0
   -8.3290  -22.9910  -41.3070 C   0  0  0  0  0
   -8.3550  -21.9810  -42.0110 O   0  0  0  0  0
   -9.3070  -23.3150  -40.4680 N   0  0  0  0  0
  -10.5320  -22.5320  -40.3720 C   0  0  0  0  0
  -10.3460  -21.2650  -39.5450 C   0  0  0  0  0
   -9.5470  -21.2340  -38.6090 O   0  0  0  0  0
  -11.6350  -23.3810  -39.7340 C   0  0  0  0  0
  -11.8950  -24.7090  -40.4220 C   0  0  0  0  0
  -12.8140  -25.5920  -39.5850 C   0  0  0  0  0
  -14.0730  -24.9410  -39.2320 N   0  0  0  0  0
  -15.0220  -25.5090  -38.4940 C   0  0  0  0  0
  -14.8520  -26.7370  -38.0250 N   0  0  0  0  0
  -16.1390  -24.8490  -38.2200 N   0  0  0  0  0
  -11.0860  -20.2210  -39.9030 N   0  0  0  0  0
  -11.1380  -19.0040  -39.1020 C   0  0  0  0  0
  -12.5620  -18.7930  -38.6000 C   0  0  0  0  0
  -13.5170  -18.9850  -39.3540 O   0  0  0  0  0
  -10.6620  -17.7870  -39.9000 C   0  0  0  0  0
  -10.9460  -16.4620  -39.2020 C   0  0  0  0  0
  -10.3650  -15.2740  -39.9410 C   0  0  0  0  0
   -8.9590  -15.0740  -39.6060 N   0  0  0  0  0
   -8.2910  -13.9480  -39.8310 C   0  0  0  0  0
   -8.9000  -12.9140  -40.3940 N   0  0  0  0  0
   -7.0130  -13.8560  -39.4970 N   0  0  0  0  0
  -12.7130  -18.4130  -37.3220 N   0  0  0  0  0
  -14.0330  -18.0930  -36.7700 C   0  0  0  0  0
  -14.7060  -16.9730  -37.5580 C   0  0  0  0  0
  -14.0270  -16.0520  -38.0100 O   0  0  0  0  0
  -13.7090  -17.6160  -35.3510 C   0  0  0  0  0
  -12.4320  -18.3000  -35.0120 C   0  0  0  0  0
  -11.6570  -18.3550  -36.2960 C   0  0  0  0  0
  -16.0200  -17.0660  -37.7400 N   0  0  0  0  0
  -16.7700  -16.0090  -38.4080 C   0  0  0  0  0
  -17.5700  -15.2140  -37.3820 C   0  0  0  0  0
  -18.1240  -14.1590  -37.6880 O   0  0  0  0  0
  -17.6970  -16.5840  -39.4860 C   0  0  0  0  0
  -18.6350  -17.6670  -38.9960 C   0  0  0  0  0
  -19.8820  -17.3470  -38.4710 C   0  0  0  0  0
  -18.2800  -19.0080  -39.0660 C   0  0  0  0  0
  -20.7450  -18.3290  -38.0220 C   0  0  0  0  0
  -19.1370  -20.0000  -38.6190 C   0  0  0  0  0
  -20.3680  -19.6540  -38.0980 C   0  0  0  0  0
  -21.2250  -20.6360  -37.6520 O   0  0  0  0  0
  -17.6200  -15.7350  -36.1590 N   0  0  0  0  0
  -18.3700  -15.1090  -35.0770 C   0  0  0  0  0
  -17.4930  -14.1500  -34.2740 C   0  0  0  0  0
  -16.3360  -14.4490  -33.9800 O   0  0  0  0  0
  -18.9720  -16.1800  -34.1360 C   0  0  0  0  0
  -20.0330  -16.9960  -34.8750 C   0  0  0  0  0
  -19.5740  -15.5450  -32.8900 C   0  0  0  0  0
  -20.5060  -18.2190  -34.1200 C   0  0  0  0  0
  -18.0580  -12.9990  -33.9200 N   0  0  0  0  0
  -17.3380  -11.9810  -33.1680 C   0  0  0  0  0
  -18.0960  -11.6390  -31.8900 C   0  0  0  0  0
  -17.5040  -11.2780  -30.8720 O   0  0  0  0  0
  -17.1570  -10.7220  -34.0180 C   0  0  0  0  0
  -16.3280   -9.5910  -33.4040 C   0  0  0  0  0
  -14.9120  -10.0570  -33.1050 C   0  0  0  0  0
  -16.3150   -8.3730  -34.3110 C   0  0  0  0  0
  -19.3240  -11.7250  -31.8410 O   0  0  0  0  0
   -1.5181  -23.0098  -41.3939 H   0  0  0  0  0
   -2.5083  -23.4158  -40.1166 H   0  0  0  0  0
   -2.1455  -24.5496  -41.2827 H   0  0  0  0  0
   -3.2776  -23.3226  -42.9307 H   0  0  0  0  0
   -3.6718  -22.0909  -41.6638 H   0  0  0  0  0
   -5.8994  -22.3507  -42.0485 H   0  0  0  0  0
   -7.0461  -24.3787  -40.3570 H   0  0  0  0  0
   -7.3544  -24.6778  -42.1309 H   0  0  0  0  0
   -9.1969  -24.1364  -39.8734 H   0  0  0  0  0
  -10.8068  -22.2365  -41.3846 H   0  0  0  0  0
  -12.5573  -22.8039  -39.8014 H   0  0  0  0  0
  -11.3113  -23.6089  -38.7184 H   0  0  0  0  0
  -10.9437  -25.2242  -40.5554 H   0  0  0  0  0
  -12.3760  -24.5161  -41.3809 H   0  0  0  0  0
  -12.2919  -25.8262  -38.6573 H   0  0  0  0  0
  -13.0536  -26.4748  -40.1778 H   0  0  0  0  0
  -14.2340  -23.9930  -39.5723 H   0  0  0  0  0
  -13.9927  -27.2469  -38.2302 H   0  0  0  0  0
  -16.8632  -25.2865  -37.6504 H   0  0  0  0  0
  -16.2740  -23.9038  -38.5789 H   0  0  0  0  0
  -11.6330  -20.2725  -40.7624 H   0  0  0  0  0
  -10.4646  -19.1168  -38.2523 H   0  0  0  0  0
  -11.2001  -17.7828  -40.8479 H   0  0  0  0  0
   -9.5819  -17.8724  -40.0193 H   0  0  0  0  0
  -10.4857  -16.4990  -38.2146 H   0  0  0  0  0
  -12.0274  -16.3322  -39.1585 H   0  0  0  0  0
  -10.9200  -14.3815  -39.6519 H   0  0  0  0  0
  -10.4423  -15.4611  -41.0120 H   0  0  0  0  0
   -8.4570  -15.8482  -39.1713 H   0  0  0  0  0
   -8.3843  -12.0515  -40.5685 H   0  0  0  0  0
   -9.8844  -12.9809  -40.6528 H   0  0  0  0  0
   -6.5400  -14.6504  -39.0663 H   0  0  0  0  0
  -14.7192  -18.9392  -36.8043 H   0  0  0  0  0
  -14.5036  -17.8603  -34.6459 H   0  0  0  0  0
  -13.6194  -16.5312  -35.2946 H   0  0  0  0  0
  -12.6068  -19.2966  -34.6067 H   0  0  0  0  0
  -11.8845  -17.7645  -34.2364 H   0  0  0  0  0
  -10.9921  -17.5007  -36.4236 H   0  0  0  0  0
  -10.9778  -19.2063  -36.3419 H   0  0  0  0  0
  -16.5133  -17.8937  -37.4054 H   0  0  0  0  0
  -16.0620  -15.3429  -38.9011 H   0  0  0  0  0
  -17.0599  -17.0345  -40.2471 H   0  0  0  0  0
  -18.3178  -15.7626  -39.8438 H   0  0  0  0  0
  -20.1850  -16.3016  -38.4123 H   0  0  0  0  0
  -17.3103  -19.2844  -39.4798 H   0  0  0  0  0
  -21.7173  -18.0582  -37.6105 H   0  0  0  0  0
  -18.8415  -21.0475  -38.6781 H   0  0  0  0  0
  -20.8158  -21.4958  -37.7740 H   0  0  0  0  0
  -17.1164  -16.6021  -35.9720 H   0  0  0  0  0
  -19.1799  -14.5374  -35.5302 H   0  0  0  0  0
  -18.1656  -16.8426  -33.8216 H   0  0  0  0  0
  -19.5832  -17.3442  -35.8048 H   0  0  0  0  0
  -20.8985  -16.3485  -35.0159 H   0  0  0  0  0
  -18.7983  -15.0032  -32.3489 H   0  0  0  0  0
  -20.3651  -14.8543  -33.1818 H   0  0  0  0  0
  -19.9881  -16.3245  -32.2504 H   0  0  0  0  0
  -19.6598  -18.8813  -33.9371 H   0  0  0  0  0
  -20.9407  -17.9116  -33.1688 H   0  0  0  0  0
  -21.2570  -18.7420  -34.7121 H   0  0  0  0  0
  -19.0275  -12.8237  -34.1840 H   0  0  0  0  0
  -16.3554  -12.3727  -32.9048 H   0  0  0  0  0
  -18.1568  -10.3144  -34.1673 H   0  0  0  0  0
  -16.6185  -11.0379  -34.9115 H   0  0  0  0  0
  -16.7961   -9.3051  -32.4620 H   0  0  0  0  0
  -14.9456  -10.8892  -32.4019 H   0  0  0  0  0
  -14.4343  -10.3802  -34.0299 H   0  0  0  0  0
  -14.3445   -9.2345  -32.6696 H   0  0  0  0  0
  -15.8809   -8.6431  -35.2737 H   0  0  0  0  0
  -17.3357   -8.0198  -34.4575 H   0  0  0  0  0
  -15.7191   -7.5850  -33.8505 H   0  0  0  0  0
  -19.6577  -12.0140  -32.6935 H   0  0  0  0  0
  1  2  1  0  0  0
  2  3  1  0  0  0
  3  4  2  0  0  0
  3  5  1  0  0  0
  5  6  1  0  0  0
  6  7  1  0  0  0
  7  8  2  0  0  0
  7  9  1  0  0  0
  9 10  1  0  0  0
 10 11  1  0  0  0
 10 13  1  0  0  0
 11 12  2  0  0  0
 11 20  1  0  0  0
 13 14  1  0  0  0
 14 15  1  0  0  0
 15 16  1  0  0  0
 16 17  1  0  0  0
 17 18  2  0  0  0
 17 19  1  0  0  0
 20 21  1  0  0  0
 21 22  1  0  0  0
 21 24  1  0  0  0
 22 23  2  0  0  0
 22 31  1  0  0  0
 24 25  1  0  0  0
 25 26  1  0  0  0
 26 27  1  0  0  0
 27 28  1  0  0  0
 28 29  1  0  0  0
 28 30  2  0  0  0
 31 32  1  0  0  0
 31 37  1  0  0  0
 32 33  1  0  0  0
 32 35  1  0  0  0
 33 34  2  0  0  0
 33 38  1  0  0  0
 35 36  1  0  0  0
 36 37  1  0  0  0
 38 39  1  0  0  0
 39 40  1  0  0  0
 39 42  1  0  0  0
 40 41  2  0  0  0
 40 50  1  0  0  0
 42 43  1  0  0  0
 43 44  4  0  0  0
 43 45  4  0  0  0
 44 46  4  0  0  0
 45 47  4  0  0  0
 46 48  4  0  0  0
 47 48  4  0  0  0
 48 49  1  0  0  0
 50 51  1  0  0  0
 51 52  1  0  0  0
 51 54  1  0  0  0
 52 53  2  0  0  0
 52 58  1  0  0  0
 54 55  1  0  0  0
 54 56  1  0  0  0
 55 57  1  0  0  0
 58 59  1  0  0  0
 59 60  1  0  0  0
 59 62  1  0  0  0
 60 61  2  0  0  0
 60 66  1  0  0  0
 62 63  1  0  0  0
 63 64  1  0  0  0
 63 65  1  0  0  0
  1 67  1  0  0  0
  1 68  1  0  0  0
  1 69  1  0  0  0
  2 70  1  0  0  0
  2 71  1  0  0  0
  5 72  1  0  0  0
  6 73  1  0  0  0
  6 74  1  0  0  0
  9 75  1  0  0  0
 10 76  1  0  0  0
 13 77  1  0  0  0
 13 78  1  0  0  0
 14 79  1  0  0  0
 14 80  1  0  0  0
 15 81  1  0  0  0
 15 82  1  0  0  0
 16 83  1  0  0  0
 18 84  1  0  0  0
 19 85  1  0  0  0
 19 86  1  0  0  0
 20 87  1  0  0  0
 21 88  1  0  0  0
 24 89  1  0  0  0
 24 90  1  0  0  0
 25 91  1  0  0  0
 25 92  1  0  0  0
 26 93  1  0  0  0
 26 94  1  0  0  0
 27 95  1  0  0  0
 29 96  1  0  0  0
 29 97  1  0  0  0
 30 98  1  0  0  0
 32 99  1  0  0  0
 35100  1  0  0  0
 35101  1  0  0  0
 36102  1  0  0  0
 36103  1  0  0  0
 37104  1  0  0  0
 37105  1  0  0  0
 38106  1  0  0  0
 39107  1  0  0  0
 42108  1  0  0  0
 42109  1  0  0  0
 44110  1  0  0  0
 45111  1  0  0  0
 46112  1  0  0  0
 47113  1  0  0  0
 49114  1  0  0  0
 50115  1  0  0  0
 51116  1  0  0  0
 54117  1  0  0  0
 55118  1  0  0  0
 55119  1  0  0  0
 56120  1  0  0  0
 56121  1  0  0  0
 56122  1  0  0  0
 57123  1  0  0  0
 57124  1  0  0  0
 57125  1  0  0  0
 58126  1  0  0  0
 59127  1  0  0  0
 62128  1  0  0  0
 62129  1  0  0  0
 63130  1  0  0  0
 64131  1  0  0  0
 64132  1  0  0  0
 64133  1  0  0  0
 65134  1  0  0  0
 65135  1  0  0  0
 65136  1  0  0  0
 66137  1  0  0  0
M  END
$$$$
