### 
### Created by X-TOOL on Mon Sep 10 21:13:20 2018
### 

@<TRIPOS>MOLECULE
3zev_ligand
  138   139     1     0     0
SMALL
GAST_HUCK


@<TRIPOS>ATOM
      1 N          -2.3280  -23.5610  -41.1100 N.4       1 GLY         0.2357
      2 CA         -3.4870  -23.1440  -41.8760 C.3       1 GLY         0.0545
      3 C          -4.7320  -23.9240  -41.5050 C.2       1 GLY         0.2234
      4 O          -4.6480  -25.0720  -41.0680 O.2       1 GLY        -0.3911
      5 N          -5.8930  -23.3010  -41.6780 N.am      1 GLY        -0.2639
      6 CA         -7.1510  -23.9440  -41.3510 C.3       1 GLY         0.1202
      7 C          -8.3290  -22.9910  -41.3070 C.2       1 GLY         0.2007
      8 O          -8.3550  -21.9810  -42.0110 O.2       1 GLY        -0.3947
      9 N          -9.3070  -23.3150  -40.4680 N.am      1 ARG        -0.2640
     10 CA        -10.5320  -22.5320  -40.3720 C.3       1 ARG         0.1311
     11 C         -10.3460  -21.2650  -39.5450 C.2       1 ARG         0.2039
     12 O          -9.5470  -21.2340  -38.6090 O.2       1 ARG        -0.3944
     13 CB        -11.6350  -23.3810  -39.7340 C.3       1 ARG        -0.0092
     14 CG        -11.8950  -24.7090  -40.4220 C.3       1 ARG        -0.0156
     15 CD        -12.8140  -25.5920  -39.5850 C.3       1 ARG         0.0627
     16 NE        -14.0730  -24.9410  -39.2320 N.pl3     1 ARG        -0.2723
     17 CZ        -15.0220  -25.5090  -38.4940 C.cat     1 ARG         0.2882
     18 NH1       -14.8520  -26.7370  -38.0250 N.pl3     1 ARG        -0.2849
     19 NH2       -16.1390  -24.8490  -38.2200 N.pl3     1 ARG        -0.2849
     20 N         -11.0860  -20.2210  -39.9030 N.am      1 ARG        -0.2637
     21 CA        -11.1380  -19.0040  -39.1020 C.3       1 ARG         0.1313
     22 C         -12.5620  -18.7930  -38.6000 C.2       1 ARG         0.2064
     23 O         -13.5170  -18.9850  -39.3540 O.2       1 ARG        -0.3942
     24 CB        -10.6620  -17.7870  -39.9000 C.3       1 ARG        -0.0092
     25 CG        -10.9460  -16.4620  -39.2020 C.3       1 ARG        -0.0156
     26 CD        -10.3650  -15.2740  -39.9410 C.3       1 ARG         0.0627
     27 NE         -8.9590  -15.0740  -39.6060 N.pl3     1 ARG        -0.2723
     28 CZ         -8.2910  -13.9480  -39.8310 C.cat     1 ARG         0.2882
     29 NH1        -8.9000  -12.9140  -40.3940 N.pl3     1 ARG        -0.2849
     30 NH2        -7.0130  -13.8560  -39.4970 N.pl3     1 ARG        -0.2849
     31 N         -12.7130  -18.4130  -37.3220 N.am      1 PRO        -0.2498
     32 CA        -14.0330  -18.0930  -36.7700 C.3       1 PRO         0.1338
     33 C         -14.7060  -16.9730  -37.5580 C.2       1 PRO         0.2042
     34 O         -14.0270  -16.0520  -38.0100 O.2       1 PRO        -0.3944
     35 CB        -13.7090  -17.6160  -35.3510 C.3       1 PRO        -0.0104
     36 CG        -12.4320  -18.3000  -35.0120 C.3       1 PRO        -0.0281
     37 CD        -11.6570  -18.3550  -36.2960 C.3       1 PRO         0.0369
     38 N         -16.0200  -17.0660  -37.7400 N.am      1 TYR        -0.2621
     39 CA        -16.7700  -16.0090  -38.4080 C.3       1 TYR         0.1390
     40 C         -17.5700  -15.2140  -37.3820 C.2       1 TYR         0.2057
     41 O         -18.1240  -14.1590  -37.6880 O.2       1 TYR        -0.3942
     42 CB        -17.6970  -16.5840  -39.4860 C.3       1 TYR         0.0163
     43 CG        -18.6350  -17.6670  -38.9960 C.ar      1 TYR        -0.0493
     44 CD1       -19.8820  -17.3470  -38.4710 C.ar      1 TYR        -0.0685
     45 CD2       -18.2800  -19.0080  -39.0660 C.ar      1 TYR        -0.0685
     46 CE1       -20.7450  -18.3290  -38.0220 C.ar      1 TYR        -0.0398
     47 CE2       -19.1370  -20.0000  -38.6190 C.ar      1 TYR        -0.0398
     48 CZ        -20.3680  -19.6540  -38.0980 C.ar      1 TYR         0.0805
     49 OH        -21.2250  -20.6360  -37.6520 O.3       1 TYR        -0.3376
     50 N         -17.6200  -15.7350  -36.1590 N.am      1 ILE        -0.2633
     51 CA        -18.3700  -15.1090  -35.0770 C.3       1 ILE         0.1335
     52 C         -17.4930  -14.1500  -34.2740 C.2       1 ILE         0.2036
     53 O         -16.3360  -14.4490  -33.9800 O.2       1 ILE        -0.3944
     54 CB        -18.9720  -16.1800  -34.1360 C.3       1 ILE        -0.0037
     55 CG1       -20.0330  -16.9960  -34.8750 C.3       1 ILE        -0.0491
     56 CG2       -19.5740  -15.5450  -32.8900 C.3       1 ILE        -0.0582
     57 CD1       -20.5060  -18.2190  -34.1200 C.3       1 ILE        -0.0648
     58 N         -18.0580  -12.9990  -33.9200 N.am      1 LEU        -0.2695
     59 CA        -17.3380  -11.9810  -33.1680 C.3       1 LEU         0.0946
     60 C         -18.0960  -11.6390  -31.8900 C.2       1 LEU         0.0601
     61 O         -17.5040  -11.2780  -30.8720 O.co2     1 LEU        -0.5666
     62 CB        -17.1570  -10.7220  -34.0180 C.3       1 LEU        -0.0156
     63 CG        -16.3280   -9.5910  -33.4040 C.3       1 LEU        -0.0431
     64 CD1       -14.9120  -10.0570  -33.1050 C.3       1 LEU        -0.0625
     65 CD2       -16.3150   -8.3730  -34.3110 C.3       1 LEU        -0.0625
     66 OXT       -19.3240  -11.7250  -31.8410 O.co2     1 LEU        -0.5666
     67 H          -1.5269  -23.0169  -41.3897 H         1 GLY         0.2012
     68 H          -2.1466  -24.5379  -41.2799 H         1 GLY         0.2012
     69 H          -2.5050  -23.4179  -40.1280 H         1 GLY         0.2012
     70 H          -3.2786  -23.2978  -42.9451 H         1 GLY         0.1061
     71 H          -3.6697  -22.0757  -41.6880 H         1 GLY         0.1061
     72 H          -5.8993  -22.3693  -42.0413 H         1 GLY         0.1882
     73 H          -7.0518  -24.4193  -40.3640 H         1 GLY         0.0763
     74 H          -7.3552  -24.7137  -42.1098 H         1 GLY         0.0763
     75 H          -9.1991  -24.1203  -39.8850 H         1 ARG         0.1883
     76 H         -10.8411  -22.2447  -41.3878 H         1 ARG         0.0800
     77 H         -12.5680  -22.7986  -39.7508 H         1 ARG         0.0313
     78 H         -11.3494  -23.5859  -38.6917 H         1 ARG         0.0313
     79 H         -10.9374  -25.2288  -40.5727 H         1 ARG         0.0301
     80 H         -12.3679  -24.5215  -41.3973 H         1 ARG         0.0301
     81 H         -12.2886  -25.8632  -38.6574 H         1 ARG         0.0689
     82 H         -13.0404  -26.5032  -40.1580 H         1 ARG         0.0689
     83 H         -14.2355  -23.9837  -39.5757 H         1 ARG         0.2642
     84 H         -15.5876  -27.1764  -37.4534 H         1 ARG         0.2615
     85 H         -13.9843  -27.2519  -38.2322 H         1 ARG         0.2615
     86 H         -16.2753  -23.8945  -38.5824 H         1 ARG         0.2615
     87 H         -16.8703  -25.2908  -37.6448 H         1 ARG         0.2615
     88 H         -11.6223  -20.2715  -40.7455 H         1 ARG         0.1883
     89 H         -10.4733  -19.1283  -38.2344 H         1 ARG         0.0800
     90 H         -11.1736  -17.7857  -40.8738 H         1 ARG         0.0313
     91 H          -9.5766  -17.8741  -40.0561 H         1 ARG         0.0313
     92 H         -10.5100  -16.4957  -38.1927 H         1 ARG         0.0301
     93 H         -12.0355  -16.3307  -39.1267 H         1 ARG         0.0301
     94 H         -10.9301  -14.3709  -39.6670 H         1 ARG         0.0689
     95 H         -10.4537  -15.4477  -41.0236 H         1 ARG         0.0689
     96 H          -8.4521  -15.8558  -39.1670 H         1 ARG         0.2642
     97 H          -8.3800  -12.0420  -40.5675 H         1 ARG         0.2615
     98 H          -9.8932  -12.9825  -40.6580 H         1 ARG         0.2615
     99 H          -6.5361  -14.6572  -39.0593 H         1 ARG         0.2615
    100 H          -6.4958  -12.9832  -39.6749 H         1 ARG         0.2615
    101 H         -14.6829  -18.9804  -36.7562 H         1 PRO         0.0802
    102 H         -14.5051  -17.9091  -34.6508 H         1 PRO         0.0313
    103 H         -13.5834  -16.5235  -35.3270 H         1 PRO         0.0313
    104 H         -12.6270  -19.3153  -34.6363 H         1 PRO         0.0287
    105 H         -11.8787  -17.7280  -34.2526 H         1 PRO         0.0287
    106 H         -11.0347  -17.4565  -36.4203 H         1 PRO         0.0524
    107 H         -11.0196  -19.2507  -36.3343 H         1 PRO         0.0524
    108 H         -16.5036  -17.8775  -37.4120 H         1 TYR         0.1885
    109 H         -16.0545  -15.3303  -38.8952 H         1 TYR         0.0821
    110 H         -17.0721  -17.0072  -40.2863 H         1 TYR         0.0453
    111 H         -18.3043  -15.7612  -39.8912 H         1 TYR         0.0453
    112 H         -20.1833  -16.3073  -38.4127 H         1 TYR         0.0530
    113 H         -17.3156  -19.2829  -39.4776 H         1 TYR         0.0530
    114 H         -21.7120  -18.0597  -37.6127 H         1 TYR         0.0525
    115 H         -18.8431  -21.0417  -38.6778 H         1 TYR         0.0525
    116 H         -22.0224  -20.2350  -37.3266 H         1 TYR         0.2458
    117 H         -17.1263  -16.5851  -35.9756 H         1 ILE         0.1883
    118 H         -19.1951  -14.5330  -35.5213 H         1 ILE         0.0803
    119 H         -18.1645  -16.8581  -33.8229 H         1 ILE         0.0345
    120 H         -19.6094  -17.3250  -35.8354 H         1 ILE         0.0267
    121 H         -20.9014  -16.3468  -35.0604 H         1 ILE         0.0267
    122 H         -18.8025  -14.9610  -32.3668 H         1 ILE         0.0235
    123 H         -19.9523  -16.3335  -32.2228 H         1 ILE         0.0235
    124 H         -20.4021  -14.8816  -33.1801 H         1 ILE         0.0235
    125 H         -21.2640  -18.7477  -34.7165 H         1 ILE         0.0230
    126 H         -20.9450  -17.9102  -33.1598 H         1 ILE         0.0230
    127 H         -19.6529  -18.8883  -33.9348 H         1 ILE         0.0230
    128 H         -19.0085  -12.8272  -34.1788 H         1 LEU         0.1875
    129 H         -16.3463  -12.3739  -32.8994 H         1 LEU         0.0726
    130 H         -18.1576  -10.3208  -34.2367 H         1 LEU         0.0308
    131 H         -16.6685  -11.0212  -34.9571 H         1 LEU         0.0308
    132 H         -16.7992   -9.3019  -32.4530 H         1 LEU         0.0297
    133 H         -14.3382   -9.2278  -32.6655 H         1 LEU         0.0232
    134 H         -14.4287  -10.3834  -34.0377 H         1 LEU         0.0232
    135 H         -14.9445  -10.8969  -32.3954 H         1 LEU         0.0232
    136 H         -17.3485   -8.0551  -34.5127 H         1 LEU         0.0232
    137 H         -15.8179   -8.6269  -35.2588 H         1 LEU         0.0232
    138 H         -15.7692   -7.5548  -33.8184 H         1 LEU         0.0232
@<TRIPOS>BOND
     1    1    2 1  
     2    2    3 1  
     3    3    4 2  
     4    3    5 am 
     5    5    6 1  
     6    6    7 1  
     7    7    8 2  
     8    7    9 am 
     9    9   10 1  
    10   10   11 1  
    11   10   13 1  
    12   11   12 2  
    13   11   20 am 
    14   13   14 1  
    15   14   15 1  
    16   15   16 1  
    17   16   17 ar 
    18   17   18 ar 
    19   17   19 ar 
    20   20   21 1  
    21   21   22 1  
    22   21   24 1  
    23   22   23 2  
    24   22   31 am 
    25   24   25 1  
    26   25   26 1  
    27   26   27 1  
    28   27   28 ar 
    29   28   29 ar 
    30   28   30 ar 
    31   31   32 1  
    32   31   37 1  
    33   32   33 1  
    34   32   35 1  
    35   33   34 2  
    36   33   38 am 
    37   35   36 1  
    38   36   37 1  
    39   38   39 1  
    40   39   40 1  
    41   39   42 1  
    42   40   41 2  
    43   40   50 am 
    44   42   43 1  
    45   43   44 ar 
    46   43   45 ar 
    47   44   46 ar 
    48   45   47 ar 
    49   46   48 ar 
    50   47   48 ar 
    51   48   49 1  
    52   50   51 1  
    53   51   52 1  
    54   51   54 1  
    55   52   53 2  
    56   52   58 am 
    57   54   55 1  
    58   54   56 1  
    59   55   57 1  
    60   58   59 1  
    61   59   60 1  
    62   59   62 1  
    63   60   61 ar 
    64   60   66 ar 
    65   62   63 1  
    66   63   64 1  
    67   63   65 1  
    68    1   67 1  
    69    1   68 1  
    70    1   69 1  
    71    2   70 1  
    72    2   71 1  
    73    5   72 1  
    74    6   73 1  
    75    6   74 1  
    76    9   75 1  
    77   10   76 1  
    78   13   77 1  
    79   13   78 1  
    80   14   79 1  
    81   14   80 1  
    82   15   81 1  
    83   15   82 1  
    84   16   83 1  
    85   18   84 1  
    86   18   85 1  
    87   19   86 1  
    88   19   87 1  
    89   20   88 1  
    90   21   89 1  
    91   24   90 1  
    92   24   91 1  
    93   25   92 1  
    94   25   93 1  
    95   26   94 1  
    96   26   95 1  
    97   27   96 1  
    98   29   97 1  
    99   29   98 1  
   100   30   99 1  
   101   30  100 1  
   102   32  101 1  
   103   35  102 1  
   104   35  103 1  
   105   36  104 1  
   106   36  105 1  
   107   37  106 1  
   108   37  107 1  
   109   38  108 1  
   110   39  109 1  
   111   42  110 1  
   112   42  111 1  
   113   44  112 1  
   114   45  113 1  
   115   46  114 1  
   116   47  115 1  
   117   49  116 1  
   118   50  117 1  
   119   51  118 1  
   120   54  119 1  
   121   55  120 1  
   122   55  121 1  
   123   56  122 1  
   124   56  123 1  
   125   56  124 1  
   126   57  125 1  
   127   57  126 1  
   128   57  127 1  
   129   58  128 1  
   130   59  129 1  
   131   62  130 1  
   132   62  131 1  
   133   63  132 1  
   134   64  133 1  
   135   64  134 1  
   136   64  135 1  
   137   65  136 1  
   138   65  137 1  
   139   65  138 1  
@<TRIPOS>SUBSTRUCTURE
     1 GLY         1

