3fr4_ligand
  -I-interpret- 

 45 48  0  0  0  0  0  0  0  0999 V2000
   20.3950    4.6200   -4.4170 F   0  0  0  0  0
   20.7030    4.9190   -3.1670 C   0  0  0  0  0
   21.9640    5.2030   -3.0900 F   0  0  0  0  0
   19.9950    5.9550   -2.7770 F   0  0  0  0  0
   20.4010    3.7500   -2.2880 C   0  0  0  0  0
   19.9760    2.5550   -2.8580 C   0  0  0  0  0
   19.6820    1.4850   -2.0170 C   0  0  0  0  0
   19.7740    1.5780   -0.6120 C   0  0  0  0  0
   20.1640    2.7710    0.0000 C   0  0  0  0  0
   20.4800    3.8660   -0.8070 C   0  0  0  0  0
   20.9260    5.1790   -0.2250 C   0  0  0  0  0
   21.4570    5.0260    1.1210 N   0  0  0  0  0
   22.7140    4.5740    1.3980 C   0  0  0  0  0
   23.8180    4.1210    0.4600 C   0  0  0  0  0
   24.8850    3.4450    1.3050 C   0  0  0  0  0
   25.2600    4.3070    2.5090 C   0  0  0  0  0
   24.1770    4.1370    3.5630 C   0  0  0  0  0
   22.9100    4.5650    2.8620 C   0  0  0  0  0
   20.7670    5.3270    2.2600 C   0  0  0  0  0
   21.6440    5.0790    3.4170 C   0  0  0  0  0
   21.1880    5.3230    4.7020 C   0  0  0  0  0
   19.8870    5.8090    4.8690 C   0  0  0  0  0
   19.0280    6.0820    3.8130 C   0  0  0  0  0
   19.3660    5.8490    2.4760 C   0  0  0  0  0
   18.2880    6.2340    1.4770 C   0  0  0  0  0
   17.7130    7.3010    1.6220 O   0  0  0  0  0
   17.8730    5.4740    0.4670 O   0  0  0  0  0
   19.8753    2.4581   -3.9390 H   0  0  0  0  0
   19.3690    0.5399   -2.4607 H   0  0  0  0  0
   19.5381    0.7091    0.0023 H   0  0  0  0  0
   20.2206    2.8461    1.0859 H   0  0  0  0  0
   20.0620    5.8419   -0.1774 H   0  0  0  0  0
   21.7154    5.5824   -0.8591 H   0  0  0  0  0
   24.2378    4.9729   -0.0748 H   0  0  0  0  0
   23.4257    3.4286   -0.2848 H   0  0  0  0  0
   25.7738    3.2966    0.6917 H   0  0  0  0  0
   24.4939    2.4935    1.6653 H   0  0  0  0  0
   25.3378    5.3534    2.2138 H   0  0  0  0  0
   26.2261    3.9976    2.9079 H   0  0  0  0  0
   24.3744    4.7303    4.4559 H   0  0  0  0  0
   24.1180    3.1129    3.9316 H   0  0  0  0  0
   21.8291    5.1403    5.5644 H   0  0  0  0  0
   19.5281    5.9828    5.8834 H   0  0  0  0  0
   18.0451    6.4970    4.0362 H   0  0  0  0  0
   18.3886    4.6645    0.4442 H   0  0  0  0  0
  1  2  1  0  0  0
  2  3  1  0  0  0
  2  4  1  0  0  0
  2  5  1  0  0  0
  5  6  4  0  0  0
  5 10  4  0  0  0
  6  7  4  0  0  0
  7  8  4  0  0  0
  8  9  4  0  0  0
  9 10  4  0  0  0
 10 11  1  0  0  0
 11 12  1  0  0  0
 12 13  4  0  0  0
 12 19  4  0  0  0
 13 14  1  0  0  0
 13 18  4  0  0  0
 14 15  1  0  0  0
 15 16  1  0  0  0
 16 17  1  0  0  0
 17 18  1  0  0  0
 18 20  4  0  0  0
 19 20  4  0  0  0
 19 24  4  0  0  0
 20 21  4  0  0  0
 21 22  4  0  0  0
 22 23  4  0  0  0
 23 24  4  0  0  0
 24 25  1  0  0  0
 25 26  2  0  0  0
 25 27  1  0  0  0
  6 28  1  0  0  0
  7 29  1  0  0  0
  8 30  1  0  0  0
  9 31  1  0  0  0
 11 32  1  0  0  0
 11 33  1  0  0  0
 14 34  1  0  0  0
 14 35  1  0  0  0
 15 36  1  0  0  0
 15 37  1  0  0  0
 16 38  1  0  0  0
 16 39  1  0  0  0
 17 40  1  0  0  0
 17 41  1  0  0  0
 21 42  1  0  0  0
 22 43  1  0  0  0
 23 44  1  0  0  0
 27 45  1  0  0  0
M  END
$$$$
