6a3n_ligand
  -I-interpret- 

 49 52  0  0  0  0  0  0  0  0999 V2000
  -31.4240   45.3280  -10.0570 C   0  0  0  0  0
  -29.2930   44.6900   -9.9340 C   0  0  0  0  0
  -29.3380   44.4220   -8.5580 C   0  0  0  0  0
  -30.5850   44.6380   -7.8760 C   0  0  0  0  0
  -28.0570   43.9400   -8.2540 C   0  0  0  0  0
  -32.4800   45.8760  -10.7040 N   0  0  0  0  0
  -27.4260   44.5720  -11.6880 C   0  0  0  0  0
  -33.1510   45.1730  -12.9770 C   0  0  0  0  0
  -32.5310   46.2690  -12.1020 C   0  0  0  0  0
  -30.3000   45.1420  -10.7270 N   0  0  0  0  0
  -31.5870   45.0720   -8.7230 N   0  0  0  0  0
  -28.0400   44.3900  -10.3590 N   0  0  0  0  0
  -27.2730   43.9110   -9.3240 N   0  0  0  0  0
  -34.3230   44.8800  -12.8070 O   0  0  0  0  0
  -30.7850   44.5370   -6.6550 O   0  0  0  0  0
  -27.0110   43.2690  -12.3710 C   0  0  0  0  0
  -25.8250   43.6540  -13.2650 C   0  0  0  0  0
  -25.5340   45.1300  -13.0100 C   0  0  0  0  0
  -26.1650   45.4350  -11.6820 C   0  0  0  0  0
  -33.3440   47.5480  -12.2670 C   0  0  0  0  0
  -32.4180   44.6290  -13.9740 N   0  0  0  0  0
  -32.9810   43.7080  -14.9650 C   0  0  0  0  0
  -31.7630   42.9560  -15.4820 C   0  0  0  0  0
  -30.6210   43.9120  -15.3650 C   0  0  0  0  0
  -30.9980   44.8410  -14.2570 C   0  0  0  0  0
  -29.4710   43.1910  -14.9670 F   0  0  0  0  0
  -27.7429   43.6268   -7.2583 H   0  0  0  0  0
  -33.3255   46.0284  -10.1541 H   0  0  0  0  0
  -28.2345   45.0603  -12.2321 H   0  0  0  0  0
  -31.5032   46.4355  -12.4245 H   0  0  0  0  0
  -30.1996   45.3179  -11.7267 H   0  0  0  0  0
  -27.8284   42.8350  -12.9468 H   0  0  0  0  0
  -26.7402   42.5004  -11.6472 H   0  0  0  0  0
  -26.0627   43.4838  -14.3151 H   0  0  0  0  0
  -24.9527   43.0433  -13.0322 H   0  0  0  0  0
  -25.9392   45.7611  -13.8009 H   0  0  0  0  0
  -24.4629   45.3318  -13.0009 H   0  0  0  0  0
  -25.5066   45.2116  -10.8425 H   0  0  0  0  0
  -26.3819   46.4954  -11.5532 H   0  0  0  0  0
  -33.3269   47.8555  -13.3126 H   0  0  0  0  0
  -34.3730   47.3654  -11.9574 H   0  0  0  0  0
  -32.9113   48.3344  -11.6486 H   0  0  0  0  0
  -33.5204   44.2258  -15.7581 H   0  0  0  0  0
  -33.7327   43.0437  -14.5388 H   0  0  0  0  0
  -31.9045   42.6285  -16.5120 H   0  0  0  0  0
  -31.5824   42.0474  -14.9077 H   0  0  0  0  0
  -30.4193   44.4346  -16.3000 H   0  0  0  0  0
  -30.3972   44.6417  -13.3696 H   0  0  0  0  0
  -30.8161   45.8759  -14.5469 H   0  0  0  0  0
  1  6  1  0  0  0
 10  1  1  0  0  0
  1 11  4  0  0  0
  2  3  4  0  0  0
  2 10  1  0  0  0
  2 12  4  0  0  0
  3  4  1  0  0  0
  3  5  4  0  0  0
  4 11  1  0  0  0
  4 15  2  0  0  0
  5 13  4  0  0  0
  6  9  1  0  0  0
 12  7  1  0  0  0
  7 16  1  0  0  0
  7 19  1  0  0  0
  9  8  1  0  0  0
  8 14  2  0  0  0
  8 21  1  0  0  0
  9 20  1  0  0  0
 12 13  4  0  0  0
 16 17  1  0  0  0
 17 18  1  0  0  0
 18 19  1  0  0  0
 21 22  1  0  0  0
 21 25  1  0  0  0
 22 23  1  0  0  0
 23 24  1  0  0  0
 24 25  1  0  0  0
 24 26  1  0  0  0
  5 27  1  0  0  0
  6 28  1  0  0  0
  7 29  1  0  0  0
  9 30  1  0  0  0
 10 31  1  0  0  0
 16 32  1  0  0  0
 16 33  1  0  0  0
 17 34  1  0  0  0
 17 35  1  0  0  0
 18 36  1  0  0  0
 18 37  1  0  0  0
 19 38  1  0  0  0
 19 39  1  0  0  0
 20 40  1  0  0  0
 20 41  1  0  0  0
 20 42  1  0  0  0
 22 43  1  0  0  0
 22 44  1  0  0  0
 23 45  1  0  0  0
 23 46  1  0  0  0
 24 47  1  0  0  0
 25 48  1  0  0  0
 25 49  1  0  0  0
M  END
$$$$
