5ybe_ligand
  -I-interpret- 

329330  0  0  0  0  0  0  0  0999 V2000
   43.7720   -3.7590  129.2920 N   0  3  0  0  0
   43.8260   -5.0730  128.6260 C   0  0  0  0  0
   42.7380   -5.1850  127.5540 C   0  0  0  0  0
   41.6130   -5.5840  127.8740 O   0  0  0  0  0
   43.5790   -6.0650  129.7660 C   0  0  0  0  0
   43.4750   -5.2330  131.0230 C   0  0  0  0  0
   43.1380   -3.8390  130.6120 C   0  0  0  0  0
   43.0790   -4.8130  126.3120 N   0  0  0  0  0
   42.1140   -4.6450  125.2080 C   0  0  0  0  0
   41.8750   -5.9690  124.4760 C   0  0  0  0  0
   42.2400   -6.1410  123.3060 O   0  0  0  0  0
   42.6010   -3.5870  124.2100 C   0  0  0  0  0
   43.2290   -2.3100  124.7820 C   0  0  0  0  0
   42.1960   -1.3230  125.3160 C   0  0  0  0  0
   42.8760   -0.0550  125.8040 C   0  0  0  0  0
   43.8010   -0.3700  126.9480 N   0  3  0  0  0
   41.2420   -6.9180  125.1770 N   0  0  0  0  0
   40.8260   -8.1770  124.5610 C   0  0  0  0  0
   39.3060   -8.3670  124.6040 C   0  0  0  0  0
   38.8160   -9.4980  124.5850 O   0  0  0  0  0
   41.5390   -9.3650  125.2050 C   0  0  0  0  0
   41.5060   -9.3350  126.7270 C   0  0  0  0  0
   40.7750   -8.5460  127.3200 O   0  0  0  0  0
   42.3110  -10.2130  127.3740 N   0  0  0  0  0
   38.5480   -7.2700  124.6580 N   0  0  0  0  0
   37.0930   -7.3070  124.5710 C   0  0  0  0  0
   36.6350   -6.0560  123.8310 C   0  0  0  0  0
   37.1790   -4.9640  124.0560 O   0  0  0  0  0
   36.4180   -7.3730  125.9570 C   0  0  0  0  0
   36.9110   -8.4890  126.8590 C   0  0  0  0  0
   35.9070   -8.8000  127.9420 C   0  0  0  0  0
   36.1330  -10.2060  128.5360 C   0  0  0  0  0
   34.9780  -11.0960  128.2090 N   0  3  0  0  0
   35.6360   -6.2170  122.9510 N   0  0  0  0  0
   35.2120   -5.1020  122.1070 C   0  0  0  0  0
   34.8530   -3.8760  122.9410 C   0  0  0  0  0
   35.2000   -2.7490  122.5740 O   0  0  0  0  0
   34.0280   -5.5140  121.2150 C   0  0  0  0  0
   34.1870   -4.0780  124.0810 N   0  0  0  0  0
   33.7670   -2.9500  124.9070 C   0  0  0  0  0
   34.9460   -2.1780  125.5010 C   0  0  0  0  0
   34.7680   -1.0280  125.9040 O   0  0  0  0  0
   32.8110   -3.4130  126.0160 C   0  0  0  0  0
   33.3600   -4.4980  126.9600 C   0  0  0  0  0
   32.6830   -4.4240  128.3110 C   0  0  0  0  0
   33.4060   -5.1470  129.3700 N   0  0  0  0  0
   33.2230   -6.4290  129.6640 C   0  0  0  0  0
   32.3310   -7.1670  128.9750 N   0  0  0  0  0
   33.9270   -6.9740  130.6520 N   0  0  0  0  0
   36.1540   -2.7520  125.5430 N   0  0  0  0  0
   37.2870   -1.9850  126.0590 C   0  0  0  0  0
   38.0040   -1.2050  124.9710 C   0  0  0  0  0
   38.7580   -0.2640  125.2830 O   0  0  0  0  0
   38.2780   -2.9040  126.7830 C   0  0  0  0  0
   37.6360   -3.5900  127.9690 C   0  0  0  0  0
   38.6000   -3.8910  129.1160 C   0  0  0  0  0
   39.1630   -5.2320  128.9880 N   0  0  0  0  0
   38.8750   -6.2680  129.7740 C   0  0  0  0  0
   38.0210   -6.1480  130.8010 N   0  0  0  0  0
   39.4620   -7.4380  129.5230 N   0  0  0  0  0
   37.7780   -1.5660  123.7090 N   0  0  0  0  0
   38.4010   -0.8460  122.6060 C   0  0  0  0  0
   37.6950    0.4750  122.3030 C   0  0  0  0  0
   36.5490    0.7180  122.6950 O   0  0  0  0  0
   38.4210   -1.7140  121.3670 C   0  0  0  0  0
   39.2970   -2.9090  121.5740 C   0  0  0  0  0
   39.3900   -3.6820  120.3140 C   0  0  0  0  0
   40.1020   -2.9420  119.2700 N   0  0  0  0  0
   41.4250   -2.8650  119.2060 C   0  0  0  0  0
   42.1590   -3.4750  120.1240 N   0  0  0  0  0
   42.0050   -2.1780  118.2240 N   0  0  0  0  0
   38.4220    1.3460  121.6200 N   0  0  0  0  0
   37.9130    2.6160  121.1160 C   0  0  0  0  0
   38.1560    2.5730  119.6110 C   0  0  0  0  0
   39.2110    2.9910  119.1370 O   0  0  0  0  0
   38.6150    3.8170  121.7630 C   0  0  0  0  0
   38.4380    3.7810  123.1920 O   0  0  0  0  0
   38.0560    5.1290  121.2250 C   0  0  0  0  0
   37.1840    2.0650  118.8650 N   0  0  0  0  0
   37.3850    1.8270  117.4450 C   0  0  0  0  0
   37.6210    3.1380  116.6800 C   0  0  0  0  0
   37.3440    4.2400  117.1550 O   0  0  0  0  0
   36.1890    1.0870  116.8660 C   0  0  0  0  0
   36.3960    0.8750  115.4600 O   0  0  0  0  0
   34.9370    1.9240  117.0740 C   0  0  0  0  0
   38.1540    3.0000  115.4770 N   0  0  0  0  0
   38.5910    4.1100  114.6510 C   0  0  0  0  0
   37.5920    4.3430  113.5190 C   0  0  0  0  0
   36.8520    3.4270  113.1300 O   0  0  0  0  0
   39.9940    3.7670  114.1450 C   0  0  0  0  0
   40.9120    3.9370  115.2390 O   0  0  0  0  0
   40.4160    4.6050  113.0470 C   0  0  0  0  0
   37.5120    5.5930  113.0330 N   0  0  0  0  0
   36.7210    5.8650  111.8340 C   0  0  0  0  0
   37.2080    5.0390  110.6600 C   0  0  0  0  0
   36.4020    4.4960  109.8930 O   0  0  0  0  0
   36.7890    7.3410  111.4640 C   0  0  0  0  0
   35.8400    8.2100  112.2690 C   0  0  0  0  0
   35.6940    9.5910  111.6480 C   0  0  0  0  0
   36.4510   10.4950  112.0180 O   0  0  0  0  0
   34.7440    9.7600  110.6680 N   0  0  0  0  0
   38.5290    4.9340  110.4980 N   0  0  0  0  0
   39.0710    4.1910  109.3730 C   0  0  0  0  0
   38.7440    2.7110  109.4830 C   0  0  0  0  0
   38.4610    2.0640  108.4630 O   0  0  0  0  0
   40.5750    4.4340  109.2650 C   0  0  0  0  0
   40.8770    5.7610  108.5440 C   0  0  0  0  0
   39.8840    6.0210  107.0050 S   0  0  0  0  0
   38.6610    7.2930  107.4640 C   0  0  0  0  0
   38.7510    2.1720  110.7100 N   0  0  0  0  0
   38.3370    0.7870  110.9170 C   0  0  0  0  0
   36.8980    0.5680  110.4770 C   0  0  0  0  0
   36.5560   -0.5220  110.0020 O   0  0  0  0  0
   38.4640    0.3730  112.3830 C   0  0  0  0  0
   39.8610    0.0310  112.8210 C   0  0  0  0  0
   40.0500    0.0800  114.3540 C   0  0  0  0  0
   39.1960   -0.3440  115.0810 O   0  0  0  0  0
   41.0660    0.5140  114.8290 O   0  0  0  0  0
   36.0240    1.5850  110.6260 N   0  0  0  0  0
   34.6330    1.4190  110.2070 C   0  0  0  0  0
   34.5070    1.4570  108.6810 C   0  0  0  0  0
   33.6470    0.7840  108.1090 O   0  0  0  0  0
   33.7380    2.4890  110.8530 C   0  0  0  0  0
   33.6270    2.5940  112.3960 C   0  0  0  0  0
   32.3880    3.3430  112.8100 C   0  0  0  0  0
   33.6360    1.2620  113.1020 C   0  0  0  0  0
   35.3750    2.1740  107.9980 N   0  0  0  0  0
   35.2060    2.3050  106.5580 C   0  0  0  0  0
   35.9020    1.1870  105.7730 C   0  0  0  0  0
   35.3820    0.7340  104.7350 O   0  0  0  0  0
   35.7100    3.6860  106.1150 C   0  0  0  0  0
   35.3770    4.2300  104.7150 C   0  0  0  0  0
   33.8340    4.2390  104.4650 C   0  0  0  0  0
   35.9260    5.6440  104.6090 C   0  0  0  0  0
   37.0550    0.7100  106.2430 N   0  0  0  0  0
   37.8650   -0.2520  105.4880 C   0  0  0  0  0
   38.3530   -1.4060  106.3670 C   0  0  0  0  0
   38.7900   -1.1990  107.5050 O   0  0  0  0  0
   39.0890    0.4120  104.8780 C   0  0  0  0  0
   38.8440    1.5260  103.9110 C   0  0  0  0  0
   38.3340    1.2820  102.6430 C   0  0  0  0  0
   39.2000    2.8260  104.2320 C   0  0  0  0  0
   38.1380    2.3350  101.7360 C   0  0  0  0  0
   39.0180    3.8530  103.3470 C   0  0  0  0  0
   38.4930    3.6060  102.1150 C   0  0  0  0  0
   38.2960    4.6570  101.2720 O   0  0  0  0  0
   38.2930   -2.6250  105.8270 N   0  0  0  0  0
   38.9810   -3.7390  106.4490 C   0  0  0  0  0
   39.9870   -4.2740  105.4280 C   0  0  0  0  0
   40.9290   -3.5540  105.0730 O   0  0  0  0  0
   37.9890   -4.7930  106.9520 C   0  0  0  0  0
   39.8050   -5.4960  104.9210 N   0  0  0  0  0
   40.7380   -6.0020  103.9100 C   0  0  0  0  0
   40.1460   -5.8980  102.4880 C   0  0  0  0  0
   39.0070   -5.3970  102.2860 O   0  0  0  0  0
   41.1420   -7.4510  104.2170 C   0  0  0  0  0
   42.4870   -7.8480  103.5580 C   0  0  0  0  0
   42.8350   -7.3020  102.4920 O   0  0  0  0  0
   43.2120   -8.7170  104.1050 O   0  0  0  0  0
   40.8030   -6.3050  101.5070 O   0  0  0  0  0
   43.2200   -3.1286  128.7103 H   0  0  0  0  0
   44.7275   -3.4246  129.4164 H   0  0  0  0  0
   44.7698   -5.2500  128.1103 H   0  0  0  0  0
   44.3868   -6.7932  129.8390 H   0  0  0  0  0
   42.6704   -6.6431  129.5977 H   0  0  0  0  0
   44.4170   -5.2514  131.5712 H   0  0  0  0  0
   42.7042   -5.6328  131.6819 H   0  0  0  0  0
   42.0669   -3.6375  130.5934 H   0  0  0  0  0
   43.4916   -3.0814  131.3114 H   0  0  0  0  0
   44.0646   -4.6354  126.1184 H   0  0  0  0  0
   41.1735   -4.3122  125.6470 H   0  0  0  0  0
   41.7115   -3.2606  123.6711 H   0  0  0  0  0
   43.3902   -4.0691  123.6331 H   0  0  0  0  0
   43.7717   -1.8175  123.9751 H   0  0  0  0  0
   43.8709   -2.6003  125.6138 H   0  0  0  0  0
   41.6636   -1.7828  126.1486 H   0  0  0  0  0
   41.5024   -1.0676  124.5149 H   0  0  0  0  0
   42.1166    0.6500  126.1424 H   0  0  0  0  0
   43.4531    0.3780  124.9869 H   0  0  0  0  0
   44.2508    0.4884  127.2662 H   0  0  0  0  0
   43.2656   -0.7788  127.7139 H   0  0  0  0  0
   44.5115   -1.0324  126.6367 H   0  0  0  0  0
   41.0452   -6.7587  126.1651 H   0  0  0  0  0
   41.1161   -8.1283  123.5114 H   0  0  0  0  0
   42.5841   -9.3279  124.8975 H   0  0  0  0  0
   41.0262  -10.2711  124.8824 H   0  0  0  0  0
   42.3254  -10.2358  128.3936 H   0  0  0  0  0
   42.9023  -10.8509  126.8412 H   0  0  0  0  0
   39.0069   -6.3654  124.7649 H   0  0  0  0  0
   36.8002   -8.2121  124.0389 H   0  0  0  0  0
   35.3578   -7.5556  125.7819 H   0  0  0  0  0
   36.6472   -6.4353  126.4632 H   0  0  0  0  0
   37.8418   -8.1709  127.3287 H   0  0  0  0  0
   37.0595   -9.3842  126.2551 H   0  0  0  0  0
   34.9082   -8.7655  127.5070 H   0  0  0  0  0
   36.0210   -8.0659  128.7396 H   0  0  0  0  0
   36.2257  -10.1251  129.6190 H   0  0  0  0  0
   37.0424  -10.6309  128.1111 H   0  0  0  0  0
   35.1398  -12.0211  128.6070 H   0  0  0  0  0
   34.1237  -10.7004  128.6015 H   0  0  0  0  0
   34.8849  -11.1718  127.1961 H   0  0  0  0  0
   35.1704   -7.1210  122.8705 H   0  0  0  0  0
   36.0526   -4.8348  121.4666 H   0  0  0  0  0
   34.3276   -6.3454  120.5769 H   0  0  0  0  0
   33.1909   -5.8194  121.8427 H   0  0  0  0  0
   33.7297   -4.6681  120.5957 H   0  0  0  0  0
   33.9698   -5.0295  124.3773 H   0  0  0  0  0
   33.2392   -2.2609  124.2477 H   0  0  0  0  0
   31.9455   -3.8478  125.5160 H   0  0  0  0  0
   32.6092   -2.5386  126.6347 H   0  0  0  0  0
   34.4303   -4.3405  127.0932 H   0  0  0  0  0
   33.1662   -5.4771  126.5219 H   0  0  0  0  0
   31.7006   -4.8855  128.2110 H   0  0  0  0  0
   32.6423   -3.3738  128.6001 H   0  0  0  0  0
   34.0944   -4.6279  129.9151 H   0  0  0  0  0
   32.1924   -8.1498  129.2100 H   0  0  0  0  0
   31.7943   -6.7429  128.2184 H   0  0  0  0  0
   34.5972   -6.4084  131.1730 H   0  0  0  0  0
   36.2827   -3.7108  125.2197 H   0  0  0  0  0
   36.8800   -1.2622  126.7662 H   0  0  0  0  0
   39.1094   -2.2983  127.1437 H   0  0  0  0  0
   38.6136   -3.6688  126.0826 H   0  0  0  0  0
   37.2475   -4.5454  127.6163 H   0  0  0  0  0
   36.8744   -2.9141  128.3580 H   0  0  0  0  0
   38.0537   -3.8295  130.0572 H   0  0  0  0  0
   39.4135   -3.1661  129.0884 H   0  0  0  0  0
   39.8322   -5.3884  128.2343 H   0  0  0  0  0
   37.8188   -6.9537  131.3930 H   0  0  0  0  0
   37.5736   -5.2511  130.9901 H   0  0  0  0  0
   40.1147   -7.5244  128.7439 H   0  0  0  0  0
   37.1621   -2.3550  123.5126 H   0  0  0  0  0
   39.4210   -0.6092  122.9089 H   0  0  0  0  0
   38.8118   -1.1302  120.5336 H   0  0  0  0  0
   37.4064   -2.0525  121.1570 H   0  0  0  0  0
   38.8709   -3.5392  122.3546 H   0  0  0  0  0
   40.2929   -2.5806  121.8714 H   0  0  0  0  0
   38.3785   -3.8827  119.9610 H   0  0  0  0  0
   39.9400   -4.6009  120.5168 H   0  0  0  0  0
   39.5535   -2.4619  118.5565 H   0  0  0  0  0
   41.7067   -3.9991  120.8731 H   0  0  0  0  0
   43.0221   -2.1186  118.1748 H   0  0  0  0  0
   41.4323   -1.7111  117.5209 H   0  0  0  0  0
   39.3980    1.1142  121.4351 H   0  0  0  0  0
   36.8573    2.7432  121.3558 H   0  0  0  0  0
   39.6758    3.7577  121.5195 H   0  0  0  0  0
   38.8804    4.5358  123.5872 H   0  0  0  0  0
   38.2087    5.1725  120.1466 H   0  0  0  0  0
   36.9899    5.1855  121.4448 H   0  0  0  0  0
   38.5710    5.9639  121.7002 H   0  0  0  0  0
   36.2858    1.8389  119.2923 H   0  0  0  0  0
   38.2780    1.2124  117.3314 H   0  0  0  0  0
   36.0734    0.1247  117.3647 H   0  0  0  0  0
   35.6416    0.4079  115.0935 H   0  0  0  0  0
   34.7851    2.0894  118.1406 H   0  0  0  0  0
   35.0547    2.8830  116.5695 H   0  0  0  0  0
   34.0767    1.3976  116.6605 H   0  0  0  0  0
   38.2645    2.0557  115.1076 H   0  0  0  0  0
   38.6338    5.0437  115.2117 H   0  0  0  0  0
   39.9787    2.7412  113.7769 H   0  0  0  0  0
   41.8013    3.7269  114.9446 H   0  0  0  0  0
   39.7235    4.4859  112.2137 H   0  0  0  0  0
   40.4238    5.6465  113.3686 H   0  0  0  0  0
   41.4181    4.3129  112.7330 H   0  0  0  0  0
   38.0041    6.3537  113.5015 H   0  0  0  0  0
   35.6893    5.5942  112.0584 H   0  0  0  0  0
   36.5054    7.4297  110.4153 H   0  0  0  0  0
   37.8028    7.6844  111.6698 H   0  0  0  0  0
   36.2424    8.3230  113.2757 H   0  0  0  0  0
   34.8607    7.7316  112.2854 H   0  0  0  0  0
   34.6396   10.6652  110.2096 H   0  0  0  0  0
   34.1438    8.9802  110.3996 H   0  0  0  0  0
   39.1599    5.3768  111.1661 H   0  0  0  0  0
   38.6025    4.5495  108.4564 H   0  0  0  0  0
   41.0179    3.6192  108.6922 H   0  0  0  0  0
   40.9917    4.4830  110.2710 H   0  0  0  0  0
   41.9271    5.7398  108.2525 H   0  0  0  0  0
   40.6258    6.5682  109.2321 H   0  0  0  0  0
   38.0485    6.9259  108.2875 H   0  0  0  0  0
   39.1806    8.2003  107.7723 H   0  0  0  0  0
   38.0254    7.5106  106.6056 H   0  0  0  0  0
   39.0484    2.7347  111.5071 H   0  0  0  0  0
   39.0033    0.1738  110.3103 H   0  0  0  0  0
   37.8622   -0.5266  112.5117 H   0  0  0  0  0
   38.1436    1.2254  112.9821 H   0  0  0  0  0
   40.5336    0.7681  112.3824 H   0  0  0  0  0
   40.0679   -0.9886  112.4959 H   0  0  0  0  0
   41.6453    0.8128  114.1242 H   0  0  0  0  0
   36.3333    2.4688  111.0305 H   0  0  0  0  0
   34.2963    0.4396  110.5468 H   0  0  0  0  0
   32.7306    2.2285  110.5283 H   0  0  0  0  0
   34.1888    3.4344  110.5511 H   0  0  0  0  0
   34.5214    3.1387  112.6983 H   0  0  0  0  0
   32.4190    4.3509  112.3962 H   0  0  0  0  0
   31.5074    2.8217  112.4347 H   0  0  0  0  0
   32.3439    3.3967  113.8978 H   0  0  0  0  0
   32.7924    0.6639  112.7575 H   0  0  0  0  0
   34.5672    0.7408  112.8800 H   0  0  0  0  0
   33.5549    1.4216  114.1772 H   0  0  0  0  0
   36.1546    2.6310  108.4711 H   0  0  0  0  0
   34.1433    2.2101  106.3349 H   0  0  0  0  0
   36.7954    3.5860  106.1117 H   0  0  0  0  0
   35.2183    4.3810  106.7957 H   0  0  0  0  0
   35.8304    3.5856  103.9618 H   0  0  0  0  0
   33.4484    3.2226  104.5448 H   0  0  0  0  0
   33.3504    4.8720  105.2090 H   0  0  0  0  0
   33.6311    4.6287  103.4675 H   0  0  0  0  0
   35.4648    6.2697  105.3731 H   0  0  0  0  0
   37.0059    5.6251  104.7561 H   0  0  0  0  0
   35.6995    6.0473  103.6220 H   0  0  0  0  0
   37.3840    1.0238  107.1560 H   0  0  0  0  0
   37.2133   -0.6379  104.7041 H   0  0  0  0  0
   39.5999   -0.3670  104.3122 H   0  0  0  0  0
   39.6343    0.8551  105.7113 H   0  0  0  0  0
   38.0834    0.2628  102.3490 H   0  0  0  0  0
   39.6340    3.0346  105.2099 H   0  0  0  0  0
   37.7124    2.1475  100.7502 H   0  0  0  0  0
   39.2933    4.8695  103.6280 H   0  0  0  0  0
   38.5982    5.4648  101.6935 H   0  0  0  0  0
   37.7593   -2.7738  104.9706 H   0  0  0  0  0
   39.5212   -3.4261  107.3425 H   0  0  0  0  0
   37.3226   -4.3414  107.6869 H   0  0  0  0  0
   37.4045   -5.1698  106.1127 H   0  0  0  0  0
   38.5368   -5.6149  107.4130 H   0  0  0  0  0
   39.0238   -6.0721  105.2345 H   0  0  0  0  0
   41.6296   -5.3761  103.9470 H   0  0  0  0  0
   38.6226   -5.1305  103.1243 H   0  0  0  0  0
   40.3674   -8.1064  103.8187 H   0  0  0  0  0
   41.2573   -7.5451  105.2968 H   0  0  0  0  0
   42.7888   -9.0247  104.9099 H   0  0  0  0  0
  1  2  1  0  0  0
  1  7  1  0  0  0
  2  3  1  0  0  0
  2  5  1  0  0  0
  3  4  2  0  0  0
  3  8  1  0  0  0
  5  6  1  0  0  0
  6  7  1  0  0  0
  8  9  1  0  0  0
  9 10  1  0  0  0
  9 12  1  0  0  0
 10 11  2  0  0  0
 10 17  1  0  0  0
 12 13  1  0  0  0
 13 14  1  0  0  0
 14 15  1  0  0  0
 15 16  1  0  0  0
 17 18  1  0  0  0
 18 19  1  0  0  0
 18 21  1  0  0  0
 19 20  2  0  0  0
 19 25  1  0  0  0
 21 22  1  0  0  0
 22 23  2  0  0  0
 22 24  1  0  0  0
 25 26  1  0  0  0
 26 27  1  0  0  0
 26 29  1  0  0  0
 27 28  2  0  0  0
 27 34  1  0  0  0
 29 30  1  0  0  0
 30 31  1  0  0  0
 31 32  1  0  0  0
 32 33  1  0  0  0
 34 35  1  0  0  0
 35 36  1  0  0  0
 35 38  1  0  0  0
 36 37  2  0  0  0
 36 39  1  0  0  0
 39 40  1  0  0  0
 40 41  1  0  0  0
 40 43  1  0  0  0
 41 42  2  0  0  0
 41 50  1  0  0  0
 43 44  1  0  0  0
 44 45  1  0  0  0
 45 46  1  0  0  0
 46 47  1  0  0  0
 47 48  1  0  0  0
 47 49  2  0  0  0
 50 51  1  0  0  0
 51 52  1  0  0  0
 51 54  1  0  0  0
 52 53  2  0  0  0
 52 61  1  0  0  0
 54 55  1  0  0  0
 55 56  1  0  0  0
 56 57  1  0  0  0
 57 58  1  0  0  0
 58 59  1  0  0  0
 58 60  2  0  0  0
 61 62  1  0  0  0
 62 63  1  0  0  0
 62 65  1  0  0  0
 63 64  2  0  0  0
 63 72  1  0  0  0
 65 66  1  0  0  0
 66 67  1  0  0  0
 67 68  1  0  0  0
 68 69  1  0  0  0
 69 70  2  0  0  0
 69 71  1  0  0  0
 72 73  1  0  0  0
 73 74  1  0  0  0
 73 76  1  0  0  0
 74 75  2  0  0  0
 74 79  1  0  0  0
 76 77  1  0  0  0
 76 78  1  0  0  0
 79 80  1  0  0  0
 80 81  1  0  0  0
 80 83  1  0  0  0
 81 82  2  0  0  0
 81 86  1  0  0  0
 83 84  1  0  0  0
 83 85  1  0  0  0
 86 87  1  0  0  0
 87 88  1  0  0  0
 87 90  1  0  0  0
 88 89  2  0  0  0
 88 93  1  0  0  0
 90 91  1  0  0  0
 90 92  1  0  0  0
 93 94  1  0  0  0
 94 95  1  0  0  0
 94 97  1  0  0  0
 95 96  2  0  0  0
 95102  1  0  0  0
 97 98  1  0  0  0
 98 99  1  0  0  0
 99100  2  0  0  0
 99101  1  0  0  0
102103  1  0  0  0
103104  1  0  0  0
103106  1  0  0  0
104105  2  0  0  0
104110  1  0  0  0
106107  1  0  0  0
107108  1  0  0  0
108109  1  0  0  0
110111  1  0  0  0
111112  1  0  0  0
111114  1  0  0  0
112113  2  0  0  0
112119  1  0  0  0
114115  1  0  0  0
115116  1  0  0  0
116117  2  0  0  0
116118  1  0  0  0
119120  1  0  0  0
120121  1  0  0  0
120123  1  0  0  0
121122  2  0  0  0
121127  1  0  0  0
123124  1  0  0  0
124125  1  0  0  0
124126  1  0  0  0
127128  1  0  0  0
128129  1  0  0  0
128131  1  0  0  0
129130  2  0  0  0
129135  1  0  0  0
131132  1  0  0  0
132133  1  0  0  0
132134  1  0  0  0
135136  1  0  0  0
136137  1  0  0  0
136139  1  0  0  0
137138  2  0  0  0
137147  1  0  0  0
139140  1  0  0  0
140141  4  0  0  0
140142  4  0  0  0
141143  4  0  0  0
142144  4  0  0  0
143145  4  0  0  0
144145  4  0  0  0
145146  1  0  0  0
147148  1  0  0  0
148149  1  0  0  0
148151  1  0  0  0
149150  2  0  0  0
149152  1  0  0  0
152153  1  0  0  0
153154  1  0  0  0
153156  1  0  0  0
154155  1  0  0  0
154160  2  0  0  0
156157  1  0  0  0
157158  2  0  0  0
157159  1  0  0  0
  1161  1  0  0  0
  1162  1  0  0  0
  2163  1  0  0  0
  5164  1  0  0  0
  5165  1  0  0  0
  6166  1  0  0  0
  6167  1  0  0  0
  7168  1  0  0  0
  7169  1  0  0  0
  8170  1  0  0  0
  9171  1  0  0  0
 12172  1  0  0  0
 12173  1  0  0  0
 13174  1  0  0  0
 13175  1  0  0  0
 14176  1  0  0  0
 14177  1  0  0  0
 15178  1  0  0  0
 15179  1  0  0  0
 16180  1  0  0  0
 16181  1  0  0  0
 16182  1  0  0  0
 17183  1  0  0  0
 18184  1  0  0  0
 21185  1  0  0  0
 21186  1  0  0  0
 24187  1  0  0  0
 24188  1  0  0  0
 25189  1  0  0  0
 26190  1  0  0  0
 29191  1  0  0  0
 29192  1  0  0  0
 30193  1  0  0  0
 30194  1  0  0  0
 31195  1  0  0  0
 31196  1  0  0  0
 32197  1  0  0  0
 32198  1  0  0  0
 33199  1  0  0  0
 33200  1  0  0  0
 33201  1  0  0  0
 34202  1  0  0  0
 35203  1  0  0  0
 38204  1  0  0  0
 38205  1  0  0  0
 38206  1  0  0  0
 39207  1  0  0  0
 40208  1  0  0  0
 43209  1  0  0  0
 43210  1  0  0  0
 44211  1  0  0  0
 44212  1  0  0  0
 45213  1  0  0  0
 45214  1  0  0  0
 46215  1  0  0  0
 48216  1  0  0  0
 48217  1  0  0  0
 49218  1  0  0  0
 50219  1  0  0  0
 51220  1  0  0  0
 54221  1  0  0  0
 54222  1  0  0  0
 55223  1  0  0  0
 55224  1  0  0  0
 56225  1  0  0  0
 56226  1  0  0  0
 57227  1  0  0  0
 59228  1  0  0  0
 59229  1  0  0  0
 60230  1  0  0  0
 61231  1  0  0  0
 62232  1  0  0  0
 65233  1  0  0  0
 65234  1  0  0  0
 66235  1  0  0  0
 66236  1  0  0  0
 67237  1  0  0  0
 67238  1  0  0  0
 68239  1  0  0  0
 70240  1  0  0  0
 71241  1  0  0  0
 71242  1  0  0  0
 72243  1  0  0  0
 73244  1  0  0  0
 76245  1  0  0  0
 77246  1  0  0  0
 78247  1  0  0  0
 78248  1  0  0  0
 78249  1  0  0  0
 79250  1  0  0  0
 80251  1  0  0  0
 83252  1  0  0  0
 84253  1  0  0  0
 85254  1  0  0  0
 85255  1  0  0  0
 85256  1  0  0  0
 86257  1  0  0  0
 87258  1  0  0  0
 90259  1  0  0  0
 91260  1  0  0  0
 92261  1  0  0  0
 92262  1  0  0  0
 92263  1  0  0  0
 93264  1  0  0  0
 94265  1  0  0  0
 97266  1  0  0  0
 97267  1  0  0  0
 98268  1  0  0  0
 98269  1  0  0  0
101270  1  0  0  0
101271  1  0  0  0
102272  1  0  0  0
103273  1  0  0  0
106274  1  0  0  0
106275  1  0  0  0
107276  1  0  0  0
107277  1  0  0  0
109278  1  0  0  0
109279  1  0  0  0
109280  1  0  0  0
110281  1  0  0  0
111282  1  0  0  0
114283  1  0  0  0
114284  1  0  0  0
115285  1  0  0  0
115286  1  0  0  0
118287  1  0  0  0
119288  1  0  0  0
120289  1  0  0  0
123290  1  0  0  0
123291  1  0  0  0
124292  1  0  0  0
125293  1  0  0  0
125294  1  0  0  0
125295  1  0  0  0
126296  1  0  0  0
126297  1  0  0  0
126298  1  0  0  0
127299  1  0  0  0
128300  1  0  0  0
131301  1  0  0  0
131302  1  0  0  0
132303  1  0  0  0
133304  1  0  0  0
133305  1  0  0  0
133306  1  0  0  0
134307  1  0  0  0
134308  1  0  0  0
134309  1  0  0  0
135310  1  0  0  0
136311  1  0  0  0
139312  1  0  0  0
139313  1  0  0  0
141314  1  0  0  0
142315  1  0  0  0
143316  1  0  0  0
144317  1  0  0  0
146318  1  0  0  0
147319  1  0  0  0
148320  1  0  0  0
151321  1  0  0  0
151322  1  0  0  0
151323  1  0  0  0
152324  1  0  0  0
153325  1  0  0  0
155326  1  0  0  0
156327  1  0  0  0
156328  1  0  0  0
159329  1  0  0  0
M  END
$$$$
