### 
### Created by X-TOOL on Mon Sep 10 21:13:32 2018
### 

@<TRIPOS>MOLECULE
5ybe_ligand
  329   330     1     0     0
SMALL
GAST_HUCK


@<TRIPOS>ATOM
      1 N          43.7720   -3.7590  129.2920 N.4       1 PRO         0.2461
      2 CA         43.8260   -5.0730  128.6260 C.3       1 PRO         0.0670
      3 C          42.7380   -5.1850  127.5540 C.2       1 PRO         0.2268
      4 O          41.6130   -5.5840  127.8740 O.2       1 PRO        -0.3907
      5 CB         43.5790   -6.0650  129.7660 C.3       1 PRO         0.0127
      6 CG         43.4750   -5.2330  131.0230 C.3       1 PRO        -0.0053
      7 CD         43.1380   -3.8390  130.6120 C.3       1 PRO        -0.0313
      8 N          43.0790   -4.8130  126.3120 N.am      1 LYS        -0.2610
      9 CA         42.1140   -4.6450  125.2080 C.3       1 LYS         0.1311
     10 C          41.8750   -5.9690  124.4760 C.2       1 LYS         0.2040
     11 O          42.2400   -6.1410  123.3060 O.2       1 LYS        -0.3944
     12 CB         42.6010   -3.5870  124.2100 C.3       1 LYS        -0.0122
     13 CG         43.2290   -2.3100  124.7820 C.3       1 LYS        -0.0440
     14 CD         42.1960   -1.3230  125.3160 C.3       1 LYS        -0.0124
     15 CE         42.8760   -0.0550  125.8040 C.3       1 LYS        -0.0354
     16 NZ         43.8010   -0.3700  126.9480 N.4       1 LYS         0.2185
     17 N          41.2420   -6.9180  125.1770 N.am      1 ASN        -0.2616
     18 CA         40.8260   -8.1770  124.5610 C.3       1 ASN         0.1476
     19 C          39.3060   -8.3670  124.6040 C.2       1 ASN         0.2063
     20 O          38.8160   -9.4980  124.5850 O.2       1 ASN        -0.3942
     21 CB         41.5390   -9.3650  125.2050 C.3       1 ASN         0.0773
     22 CG         41.5060   -9.3350  126.7270 C.2       1 ASN         0.1780
     23 OD1        40.7750   -8.5460  127.3200 O.2       1 ASN        -0.3970
     24 ND2        42.3110  -10.2130  127.3740 N.am      1 ASN        -0.3007
     25 N          38.5480   -7.2700  124.6580 N.am      1 LYS        -0.2636
     26 CA         37.0930   -7.3070  124.5710 C.3       1 LYS         0.1310
     27 C          36.6350   -6.0560  123.8310 C.2       1 LYS         0.2039
     28 O          37.1790   -4.9640  124.0560 O.2       1 LYS        -0.3944
     29 CB         36.4180   -7.3730  125.9570 C.3       1 LYS        -0.0122
     30 CG         36.9110   -8.4890  126.8590 C.3       1 LYS        -0.0440
     31 CD         35.9070   -8.8000  127.9420 C.3       1 LYS        -0.0124
     32 CE         36.1330  -10.2060  128.5360 C.3       1 LYS        -0.0354
     33 NZ         34.9780  -11.0960  128.2090 N.4       1 LYS         0.2185
     34 N          35.6360   -6.2170  122.9510 N.am      1 ALA        -0.2640
     35 CA         35.2120   -5.1020  122.1070 C.3       1 ALA         0.1282
     36 C          34.8530   -3.8760  122.9410 C.2       1 ALA         0.2036
     37 O          35.2000   -2.7490  122.5740 O.2       1 ALA        -0.3944
     38 CB         34.0280   -5.5140  121.2150 C.3       1 ALA        -0.0244
     39 N          34.1870   -4.0780  124.0810 N.am      1 ARG        -0.2637
     40 CA         33.7670   -2.9500  124.9070 C.3       1 ARG         0.1311
     41 C          34.9460   -2.1780  125.5010 C.2       1 ARG         0.2039
     42 O          34.7680   -1.0280  125.9040 O.2       1 ARG        -0.3944
     43 CB         32.8110   -3.4130  126.0160 C.3       1 ARG        -0.0092
     44 CG         33.3600   -4.4980  126.9600 C.3       1 ARG        -0.0156
     45 CD         32.6830   -4.4240  128.3110 C.3       1 ARG         0.0627
     46 NE         33.4060   -5.1470  129.3700 N.pl3     1 ARG        -0.2723
     47 CZ         33.2230   -6.4290  129.6640 C.cat     1 ARG         0.2882
     48 NH1        32.3310   -7.1670  128.9750 N.pl3     1 ARG        -0.2849
     49 NH2        33.9270   -6.9740  130.6520 N.pl3     1 ARG        -0.2849
     50 N          36.1540   -2.7520  125.5430 N.am      1 ARG        -0.2637
     51 CA         37.2870   -1.9850  126.0590 C.3       1 ARG         0.1311
     52 C          38.0040   -1.2050  124.9710 C.2       1 ARG         0.2039
     53 O          38.7580   -0.2640  125.2830 O.2       1 ARG        -0.3944
     54 CB         38.2780   -2.9040  126.7830 C.3       1 ARG        -0.0092
     55 CG         37.6360   -3.5900  127.9690 C.3       1 ARG        -0.0156
     56 CD         38.6000   -3.8910  129.1160 C.3       1 ARG         0.0627
     57 NE         39.1630   -5.2320  128.9880 N.pl3     1 ARG        -0.2723
     58 CZ         38.8750   -6.2680  129.7740 C.cat     1 ARG         0.2882
     59 NH1        38.0210   -6.1480  130.8010 N.pl3     1 ARG        -0.2849
     60 NH2        39.4620   -7.4380  129.5230 N.pl3     1 ARG        -0.2849
     61 N          37.7780   -1.5660  123.7090 N.am      1 ARG        -0.2637
     62 CA         38.4010   -0.8460  122.6060 C.3       1 ARG         0.1311
     63 C          37.6950    0.4750  122.3030 C.2       1 ARG         0.2040
     64 O          36.5490    0.7180  122.6950 O.2       1 ARG        -0.3944
     65 CB         38.4210   -1.7140  121.3670 C.3       1 ARG        -0.0092
     66 CG         39.2970   -2.9090  121.5740 C.3       1 ARG        -0.0156
     67 CD         39.3900   -3.6820  120.3140 C.3       1 ARG         0.0627
     68 NE         40.1020   -2.9420  119.2700 N.pl3     1 ARG        -0.2723
     69 CZ         41.4250   -2.8650  119.2060 C.cat     1 ARG         0.2882
     70 NH1        42.1590   -3.4750  120.1240 N.pl3     1 ARG        -0.2849
     71 NH2        42.0050   -2.1780  118.2240 N.pl3     1 ARG        -0.2849
     72 N          38.4220    1.3460  121.6200 N.am      1 THR        -0.2613
     73 CA         37.9130    2.6160  121.1160 C.3       1 THR         0.1565
     74 C          38.1560    2.5730  119.6110 C.2       1 THR         0.2065
     75 O          39.2110    2.9910  119.1370 O.2       1 THR        -0.3943
     76 CB         38.6150    3.8170  121.7630 C.3       1 THR         0.0924
     77 OG1        38.4380    3.7810  123.1920 O.3       1 THR        -0.3874
     78 CG2        38.0560    5.1290  121.2250 C.3       1 THR        -0.0346
     79 N          37.1840    2.0650  118.8650 N.am      1 THR        -0.2613
     80 CA         37.3850    1.8270  117.4450 C.3       1 THR         0.1565
     81 C          37.6210    3.1380  116.6800 C.2       1 THR         0.2065
     82 O          37.3440    4.2400  117.1550 O.2       1 THR        -0.3943
     83 CB         36.1890    1.0870  116.8660 C.3       1 THR         0.0924
     84 OG1        36.3960    0.8750  115.4600 O.3       1 THR        -0.3874
     85 CG2        34.9370    1.9240  117.0740 C.3       1 THR        -0.0346
     86 N          38.1540    3.0000  115.4770 N.am      1 THR        -0.2613
     87 CA         38.5910    4.1100  114.6510 C.3       1 THR         0.1565
     88 C          37.5920    4.3430  113.5190 C.2       1 THR         0.2065
     89 O          36.8520    3.4270  113.1300 O.2       1 THR        -0.3943
     90 CB         39.9940    3.7670  114.1450 C.3       1 THR         0.0924
     91 OG1        40.9120    3.9370  115.2390 O.3       1 THR        -0.3874
     92 CG2        40.4160    4.6050  113.0470 C.3       1 THR        -0.0346
     93 N          37.5120    5.5930  113.0330 N.am      1 GLN        -0.2635
     94 CA         36.7210    5.8650  111.8340 C.3       1 GLN         0.1330
     95 C          37.2080    5.0390  110.6600 C.2       1 GLN         0.2040
     96 O          36.4020    4.4960  109.8930 O.2       1 GLN        -0.3944
     97 CB         36.7890    7.3410  111.4640 C.3       1 GLN         0.0045
     98 CG         35.8400    8.2100  112.2690 C.3       1 GLN         0.0412
     99 CD         35.6940    9.5910  111.6480 C.2       1 GLN         0.1737
    100 OE1        36.4510   10.4950  112.0180 O.2       1 GLN        -0.3973
    101 NE2        34.7440    9.7600  110.6680 N.am      1 GLN        -0.3009
    102 N          38.5290    4.9340  110.4980 N.am      1 MET        -0.2637
    103 CA         39.0710    4.1910  109.3730 C.3       1 MET         0.1317
    104 C          38.7440    2.7110  109.4830 C.2       1 MET         0.2039
    105 O          38.4610    2.0640  108.4630 O.2       1 MET        -0.3944
    106 CB         40.5750    4.4340  109.2650 C.3       1 MET        -0.0034
    107 CG         40.8770    5.7610  108.5440 C.3       1 MET        -0.0024
    108 SD         39.8840    6.0210  107.0050 S.3       1 MET        -0.1639
    109 CE         38.6610    7.2930  107.4640 C.3       1 MET        -0.0181
    110 N          38.7510    2.1720  110.7100 N.am      1 GLU        -0.2636
    111 CA         38.3370    0.7870  110.9170 C.3       1 GLU         0.1325
    112 C          36.8980    0.5680  110.4770 C.2       1 GLU         0.2040
    113 O          36.5560   -0.5220  110.0020 O.2       1 GLU        -0.3944
    114 CB         38.4640    0.3730  112.3830 C.3       1 GLU        -0.0008
    115 CG         39.8610    0.0310  112.8210 C.3       1 GLU         0.0044
    116 CD         40.0500    0.0800  114.3540 C.2       1 GLU         0.0350
    117 OE1        39.1960   -0.3440  115.0810 O.co2     1 GLU        -0.5690
    118 OE2        41.0660    0.5140  114.8290 O.co2     1 GLU        -0.5690
    119 N          36.0240    1.5850  110.6260 N.am      1 LEU        -0.2637
    120 CA         34.6330    1.4190  110.2070 C.3       1 LEU         0.1312
    121 C          34.5070    1.4570  108.6810 C.2       1 LEU         0.2039
    122 O          33.6470    0.7840  108.1090 O.2       1 LEU        -0.3944
    123 CB         33.7380    2.4890  110.8530 C.3       1 LEU        -0.0101
    124 CG         33.6270    2.5940  112.3960 C.3       1 LEU        -0.0425
    125 CD1        32.3880    3.3430  112.8100 C.3       1 LEU        -0.0625
    126 CD2        33.6360    1.2620  113.1020 C.3       1 LEU        -0.0625
    127 N          35.3750    2.1740  107.9980 N.am      1 LEU        -0.2637
    128 CA         35.2060    2.3050  106.5580 C.3       1 LEU         0.1312
    129 C          35.9020    1.1870  105.7730 C.2       1 LEU         0.2040
    130 O          35.3820    0.7340  104.7350 O.2       1 LEU        -0.3944
    131 CB         35.7100    3.6860  106.1150 C.3       1 LEU        -0.0101
    132 CG         35.3770    4.2300  104.7150 C.3       1 LEU        -0.0425
    133 CD1        33.8340    4.2390  104.4650 C.3       1 LEU        -0.0625
    134 CD2        35.9260    5.6440  104.6090 C.3       1 LEU        -0.0625
    135 N          37.0550    0.7100  106.2430 N.am      1 TYR        -0.2621
    136 CA         37.8650   -0.2520  105.4880 C.3       1 TYR         0.1390
    137 C          38.3530   -1.4060  106.3670 C.2       1 TYR         0.2057
    138 O          38.7900   -1.1990  107.5050 O.2       1 TYR        -0.3942
    139 CB         39.0890    0.4120  104.8780 C.3       1 TYR         0.0163
    140 CG         38.8440    1.5260  103.9110 C.ar      1 TYR        -0.0493
    141 CD1        38.3340    1.2820  102.6430 C.ar      1 TYR        -0.0685
    142 CD2        39.2000    2.8260  104.2320 C.ar      1 TYR        -0.0685
    143 CE1        38.1380    2.3350  101.7360 C.ar      1 TYR        -0.0398
    144 CE2        39.0180    3.8530  103.3470 C.ar      1 TYR        -0.0398
    145 CZ         38.4930    3.6060  102.1150 C.ar      1 TYR         0.0805
    146 OH         38.2960    4.6570  101.2720 O.3       1 TYR        -0.3376
    147 N          38.2930   -2.6250  105.8270 N.am      1 ALA        -0.2639
    148 CA         38.9810   -3.7390  106.4490 C.3       1 ALA         0.1282
    149 C          39.9870   -4.2740  105.4280 C.2       1 ALA         0.2031
    150 O          40.9290   -3.5540  105.0730 O.2       1 ALA        -0.3944
    151 CB         37.9890   -4.7930  106.9520 C.3       1 ALA        -0.0244
    152 N          39.8050   -5.4960  104.9210 N.am      1 ASP        -0.2679
    153 CA         40.7380   -6.0020  103.9100 C.3       1 ASP         0.1057
    154 C          40.1460   -5.8980  102.4880 C.2       1 ASP         0.0618
    155 O          39.0070   -5.3970  102.2860 O.co2     1 ASP        -0.5665
    156 CB         41.1420   -7.4510  104.2170 C.3       1 ASP         0.0351
    157 CG         42.4870   -7.8480  103.5580 C.2       1 ASP         0.0387
    158 OD1        42.8350   -7.3020  102.4920 O.co2     1 ASP        -0.5688
    159 OD2        43.2120   -8.7170  104.1050 O.co2     1 ASP        -0.5688
    160 OXT        40.8030   -6.3050  101.5070 O.co2     1 ASP        -0.5665
    161 H1         43.2439   -3.1230  128.7152 H         1 PRO         0.2035
    162 H2         44.7116   -3.4111  129.4026 H         1 PRO         0.2035
    163 H3         44.8114   -5.2407  128.1669 H         1 PRO         0.1099
    164 H4         44.4164   -6.7740  129.8446 H         1 PRO         0.0347
    165 H5         42.6442   -6.6191  129.5954 H         1 PRO         0.0347
    166 H6         44.4343   -5.2442  131.5612 H         1 PRO         0.0320
    167 H7         42.6844   -5.6339  131.6743 H         1 PRO         0.0320
    168 H8         42.0499   -3.6926  130.5442 H         1 PRO         0.0814
    169 H9         43.5646   -3.1013  131.3075 H         1 PRO         0.0814
    170 H10        44.0453   -4.6389  126.1222 H         1 LYS         0.1884
    171 H11        41.1588   -4.3068  125.6361 H         1 LYS         0.0800
    172 H12        41.7357   -3.2847  123.6018 H         1 LYS         0.0312
    173 H13        43.3538   -4.0640  123.5652 H         1 LYS         0.0312
    174 H14        43.8059   -1.8166  123.9860 H         1 LYS         0.0269
    175 H15        43.9038   -2.5897  125.6044 H         1 LYS         0.0269
    176 H16        41.6506   -1.7861  126.1515 H         1 LYS         0.0317
    177 H17        41.4889   -1.0686  124.5127 H         1 LYS         0.0317
    178 H18        42.1118    0.6608  126.1410 H         1 LYS         0.0813
    179 H19        43.4548    0.3874  124.9798 H         1 LYS         0.0813
    180 H20        44.2461    0.4776  127.2633 H         1 LYS         0.1994
    181 H21        44.5037   -1.0245  126.6416 H         1 LYS         0.1994
    182 H22        43.2730   -0.7741  127.7056 H         1 LYS         0.1994
    183 H23        41.0490   -6.7618  126.1457 H         1 ASN         0.1885
    184 H24        41.1249   -8.1409  123.5030 H         1 ASN         0.0826
    185 H25        42.5894   -9.3605  124.8785 H         1 ASN         0.0551
    186 H26        41.0529  -10.2908  124.8636 H         1 ASN         0.0551
    187 H27        42.3267  -10.2339  128.3737 H         1 ASN         0.1814
    188 H28        42.8892  -10.8398  126.8516 H         1 ASN         0.1814
    189 H29        38.9979   -6.3831  124.7628 H         1 LYS         0.1883
    190 H30        36.7957   -8.1976  123.9979 H         1 LYS         0.0800
    191 H31        35.3374   -7.5105  125.8039 H         1 LYS         0.0312
    192 H32        36.5969   -6.4162  126.4694 H         1 LYS         0.0312
    193 H33        37.8582   -8.1810  127.3258 H         1 LYS         0.0269
    194 H34        37.0772   -9.3924  126.2538 H         1 LYS         0.0269
    195 H35        34.8943   -8.7509  127.5154 H         1 LYS         0.0317
    196 H36        36.0036   -8.0535  128.7441 H         1 LYS         0.0317
    197 H37        36.2330  -10.1271  129.6286 H         1 LYS         0.0813
    198 H38        37.0535  -10.6353  128.1136 H         1 LYS         0.0813
    199 H39        35.1369  -12.0106  128.6018 H         1 LYS         0.1994
    200 H40        34.8850  -11.1717  127.2082 H         1 LYS         0.1994
    201 H41        34.1331  -10.7061  128.5965 H         1 LYS         0.1994
    202 H42        35.1796   -7.1033  122.8721 H         1 ALA         0.1883
    203 H43        36.0547   -4.8326  121.4534 H         1 ALA         0.0797
    204 H44        33.7260   -4.6611  120.5895 H         1 ALA         0.0277
    205 H45        33.1824   -5.8224  121.8473 H         1 ALA         0.0277
    206 H46        34.3290   -6.3530  120.5704 H         1 ALA         0.0277
    207 H47        33.9740   -5.0109  124.3715 H         1 ARG         0.1883
    208 H48        33.2148   -2.2558  124.2565 H         1 ARG         0.0800
    209 H49        31.9039   -3.8096  125.5366 H         1 ARG         0.0313
    210 H50        32.5499   -2.5353  126.6255 H         1 ARG         0.0313
    211 H51        34.4422   -4.3497  127.0899 H         1 ARG         0.0301
    212 H52        33.1760   -5.4882  126.5177 H         1 ARG         0.0301
    213 H53        31.6755   -4.8560  128.2198 H         1 ARG         0.0689
    214 H54        32.6035   -3.3665  128.6032 H         1 ARG         0.0689
    215 H55        34.1011   -4.6228  129.9204 H         1 ARG         0.2642
    216 H56        32.1947   -8.1608  129.2089 H         1 ARG         0.2615
    217 H57        31.7854   -6.7374  128.2143 H         1 ARG         0.2615
    218 H58        34.6074   -6.4042  131.1748 H         1 ARG         0.2615
    219 H59        33.7919   -7.9659  130.8944 H         1 ARG         0.2615
    220 H60        36.2801   -3.6920  125.2261 H         1 ARG         0.1883
    221 H61        36.8951   -1.2612  126.7887 H         1 ARG         0.0800
    222 H62        39.1296   -2.3037  127.1357 H         1 ARG         0.0313
    223 H63        38.6356   -3.6693  126.0784 H         1 ARG         0.0313
    224 H64        37.2023   -4.5404  127.6246 H         1 ARG         0.0301
    225 H65        36.8361   -2.9395  128.3524 H         1 ARG         0.0301
    226 H66        38.0577   -3.8182  130.0702 H         1 ARG         0.0689
    227 H67        39.4173   -3.1549  129.1016 H         1 ARG         0.0689
    228 H68        39.8388   -5.3900  128.2269 H         1 ARG         0.2642
    229 H69        37.8131   -6.9628  131.3958 H         1 ARG         0.2615
    230 H70        37.5730   -5.2410  130.9950 H         1 ARG         0.2615
    231 H71        40.1174   -7.5265  128.7333 H         1 ARG         0.2615
    232 H72        39.2602   -8.2537  130.1187 H         1 ARG         0.2615
    233 H73        37.1742   -2.3395  123.5164 H         1 ARG         0.1883
    234 H74        39.4392   -0.6200  122.8906 H         1 ARG         0.0800
    235 H75        38.8056   -1.1264  120.5204 H         1 ARG         0.0313
    236 H76        37.3975   -2.0504  121.1450 H         1 ARG         0.0313
    237 H77        38.8683   -3.5449  122.3626 H         1 ARG         0.0301
    238 H78        40.3019   -2.5783  121.8754 H         1 ARG         0.0301
    239 H79        38.3735   -3.9076  119.9594 H         1 ARG         0.0689
    240 H80        39.9262   -4.6218  120.5122 H         1 ARG         0.0689
    241 H81        39.5482   -2.4572  118.5495 H         1 ARG         0.2642
    242 H82        43.1867   -3.4202  120.0816 H         1 ARG         0.2615
    243 H83        41.7022   -4.0043  120.8804 H         1 ARG         0.2615
    244 H84        41.4266   -1.7065  117.5140 H         1 ARG         0.2615
    245 H85        43.0321   -2.1180  118.1743 H         1 ARG         0.2615
    246 H86        39.3788    1.1188  121.4388 H         1 THR         0.1884
    247 H87        36.8345    2.6910  121.3189 H         1 THR         0.0826
    248 H88        39.6892    3.7652  121.5317 H         1 THR         0.0639
    249 H89        38.8111    2.9779  123.5361 H         1 THR         0.2101
    250 H90        38.5750    5.9724  121.7038 H         1 THR         0.0257
    251 H91        36.9801    5.1873  121.4463 H         1 THR         0.0257
    252 H92        38.2095    5.1742  120.1367 H         1 THR         0.0257
    253 H93        36.3034    1.8433  119.2839 H         1 THR         0.1884
    254 H94        38.2772    1.1948  117.3253 H         1 THR         0.0826
    255 H95        36.0734    0.1172  117.3721 H         1 THR         0.0639
    256 H96        37.1828    0.3584  115.3312 H         1 THR         0.2101
    257 H97        34.0681    1.3938  116.6571 H         1 THR         0.0257
    258 H98        35.0544    2.8922  116.5652 H         1 THR         0.0257
    259 H99        34.7825    2.0916  118.1501 H         1 THR         0.0257
    260 H100       38.2623    2.0742  115.1149 H         1 THR         0.1884
    261 H101       38.6443    5.0241  115.2606 H         1 THR         0.0826
    262 H102       40.0052    2.7187  113.8119 H         1 THR         0.0639
    263 H103       41.7920    3.7291  114.9477 H         1 THR         0.2101
    264 H104       41.4272    4.3112  112.7291 H         1 THR         0.0257
    265 H105       40.4243    5.6564  113.3703 H         1 THR         0.0257
    266 H106       39.7180    4.4857  112.2053 H         1 THR         0.0257
    267 H107       37.9945    6.3388  113.4923 H         1 GLN         0.1883
    268 H108       35.6739    5.6000  112.0420 H         1 GLN         0.0801
    269 H109       36.5374    7.4450  110.3982 H         1 GLN         0.0337
    270 H110       37.8160    7.6960  111.6346 H         1 GLN         0.0337
    271 H111       36.2316    8.3165  113.2914 H         1 GLN         0.0504
    272 H112       34.8527    7.7262  112.3030 H         1 GLN         0.0504
    273 H113       34.6220   10.6550  110.2390 H         1 GLN         0.1814
    274 H114       34.1753    8.9879  110.3845 H         1 GLN         0.1814
    275 H115       39.1475    5.3681  111.1530 H         1 MET         0.1883
    276 H116       38.5995    4.5703  108.4544 H         1 MET         0.0800
    277 H117       41.0319    3.6076  108.7008 H         1 MET         0.0320
    278 H118       41.0058    4.4697  110.2765 H         1 MET         0.0320
    279 H119       41.9433    5.7738  108.2743 H         1 MET         0.0378
    280 H120       40.6642    6.5881  109.2373 H         1 MET         0.0378
    281 H121       38.0189    7.5135  106.5985 H         1 MET         0.0340
    282 H122       39.1841    8.2092  107.7753 H         1 MET         0.0340
    283 H123       38.0421    6.9237  108.2950 H         1 MET         0.0340
    284 H124       39.0426    2.7237  111.4914 H         1 GLU         0.1883
    285 H125       38.9918    0.1420  110.3126 H         1 GLU         0.0801
    286 H126       37.8282   -0.5097  112.5460 H         1 GLU         0.0330
    287 H127       38.1036    1.2046  113.0063 H         1 GLU         0.0330
    288 H128       40.5567    0.7478  112.3604 H         1 GLU         0.0433
    289 H129       40.0973   -0.9852  112.4724 H         1 GLU         0.0433
    290 H130       36.3272    2.4515  111.0226 H         1 LEU         0.1883
    291 H131       34.2894    0.4327  110.5521 H         1 LEU         0.0800
    292 H132       32.7193    2.3185  110.4745 H         1 LEU         0.0315
    293 H133       34.1035    3.4632  110.4962 H         1 LEU         0.0315
    294 H134       34.5025    3.1616  112.7443 H         1 LEU         0.0298
    295 H135       32.3423    3.3978  113.9077 H         1 LEU         0.0232
    296 H136       31.4985    2.8179  112.4318 H         1 LEU         0.0232
    297 H137       32.4181    4.3604  112.3930 H         1 LEU         0.0232
    298 H138       34.5354    0.6992  112.8116 H         1 LEU         0.0232
    299 H139       32.7392    0.6911  112.8194 H         1 LEU         0.0232
    300 H140       33.6400    1.4237  114.1900 H         1 LEU         0.0232
    301 H141       36.1393    2.6221  108.4618 H         1 LEU         0.1883
    302 H142       34.1301    2.2441  106.3373 H         1 LEU         0.0800
    303 H143       36.8072    3.6590  106.1891 H         1 LEU         0.0315
    304 H144       35.3114    4.4130  106.8379 H         1 LEU         0.0315
    305 H145       35.8564    3.5935  103.9567 H         1 LEU         0.0298
    306 H146       33.6279    4.6321  103.4585 H         1 LEU         0.0232
    307 H147       33.3447    4.8775  105.2152 H         1 LEU         0.0232
    308 H148       33.4435    3.2138  104.5452 H         1 LEU         0.0232
    309 H149       37.0116    5.6300  104.7859 H         1 LEU         0.0232
    310 H150       35.4402    6.2833  105.3608 H         1 LEU         0.0232
    311 H151       35.7235    6.0416  103.6036 H         1 LEU         0.0232
    312 H152       37.3776    1.0177  107.1381 H         1 TYR         0.1885
    313 H153       37.2418   -0.6618  104.6795 H         1 TYR         0.0821
    314 H154       39.6607   -0.3658  104.3506 H         1 TYR         0.0453
    315 H155       39.6939    0.8156  105.7033 H         1 TYR         0.0453
    316 H156       38.0848    0.2684  102.3506 H         1 TYR         0.0530
    317 H157       39.6316    3.0335  105.2045 H         1 TYR         0.0530
    318 H158       37.7147    2.1485  100.7556 H         1 TYR         0.0525
    319 H159       39.2918    4.8639  103.6265 H         1 TYR         0.0525
    320 H160       37.9277    4.3416  100.4551 H         1 TYR         0.2458
    321 H161       37.7697   -2.7709  104.9874 H         1 ALA         0.1883
    322 H162       39.5392   -3.3683  107.3213 H         1 ALA         0.0797
    323 H163       38.5406   -5.6231  107.4175 H         1 ALA         0.0277
    324 H164       37.3985   -5.1741  106.1058 H         1 ALA         0.0277
    325 H165       37.3158   -4.3385  107.6938 H         1 ALA         0.0277
    326 H166       39.0391   -6.0608  105.2283 H         1 ASP         0.1876
    327 H167       41.6444   -5.3798  103.9460 H         1 ASP         0.0745
    328 H168       40.3551   -8.1227  103.8434 H         1 ASP         0.0471
    329 H169       41.2361   -7.5670  105.3068 H         1 ASP         0.0471
@<TRIPOS>BOND
     1    1    2 1  
     2    1    7 1  
     3    2    3 1  
     4    2    5 1  
     5    3    4 2  
     6    3    8 am 
     7    5    6 1  
     8    6    7 1  
     9    8    9 1  
    10    9   10 1  
    11    9   12 1  
    12   10   11 2  
    13   10   17 am 
    14   12   13 1  
    15   13   14 1  
    16   14   15 1  
    17   15   16 1  
    18   17   18 1  
    19   18   19 1  
    20   18   21 1  
    21   19   20 2  
    22   19   25 am 
    23   21   22 1  
    24   22   23 2  
    25   22   24 am 
    26   25   26 1  
    27   26   27 1  
    28   26   29 1  
    29   27   28 2  
    30   27   34 am 
    31   29   30 1  
    32   30   31 1  
    33   31   32 1  
    34   32   33 1  
    35   34   35 1  
    36   35   36 1  
    37   35   38 1  
    38   36   37 2  
    39   36   39 am 
    40   39   40 1  
    41   40   41 1  
    42   40   43 1  
    43   41   42 2  
    44   41   50 am 
    45   43   44 1  
    46   44   45 1  
    47   45   46 1  
    48   46   47 ar 
    49   47   48 ar 
    50   47   49 ar 
    51   50   51 1  
    52   51   52 1  
    53   51   54 1  
    54   52   53 2  
    55   52   61 am 
    56   54   55 1  
    57   55   56 1  
    58   56   57 1  
    59   57   58 ar 
    60   58   59 ar 
    61   58   60 ar 
    62   61   62 1  
    63   62   63 1  
    64   62   65 1  
    65   63   64 2  
    66   63   72 am 
    67   65   66 1  
    68   66   67 1  
    69   67   68 1  
    70   68   69 ar 
    71   69   70 ar 
    72   69   71 ar 
    73   72   73 1  
    74   73   74 1  
    75   73   76 1  
    76   74   75 2  
    77   74   79 am 
    78   76   77 1  
    79   76   78 1  
    80   79   80 1  
    81   80   81 1  
    82   80   83 1  
    83   81   82 2  
    84   81   86 am 
    85   83   84 1  
    86   83   85 1  
    87   86   87 1  
    88   87   88 1  
    89   87   90 1  
    90   88   89 2  
    91   88   93 am 
    92   90   91 1  
    93   90   92 1  
    94   93   94 1  
    95   94   95 1  
    96   94   97 1  
    97   95   96 2  
    98   95  102 am 
    99   97   98 1  
   100   98   99 1  
   101   99  100 2  
   102   99  101 am 
   103  102  103 1  
   104  103  104 1  
   105  103  106 1  
   106  104  105 2  
   107  104  110 am 
   108  106  107 1  
   109  107  108 1  
   110  108  109 1  
   111  110  111 1  
   112  111  112 1  
   113  111  114 1  
   114  112  113 2  
   115  112  119 am 
   116  114  115 1  
   117  115  116 1  
   118  116  117 ar 
   119  116  118 ar 
   120  119  120 1  
   121  120  121 1  
   122  120  123 1  
   123  121  122 2  
   124  121  127 am 
   125  123  124 1  
   126  124  125 1  
   127  124  126 1  
   128  127  128 1  
   129  128  129 1  
   130  128  131 1  
   131  129  130 2  
   132  129  135 am 
   133  131  132 1  
   134  132  133 1  
   135  132  134 1  
   136  135  136 1  
   137  136  137 1  
   138  136  139 1  
   139  137  138 2  
   140  137  147 am 
   141  139  140 1  
   142  140  141 ar 
   143  140  142 ar 
   144  141  143 ar 
   145  142  144 ar 
   146  143  145 ar 
   147  144  145 ar 
   148  145  146 1  
   149  147  148 1  
   150  148  149 1  
   151  148  151 1  
   152  149  150 2  
   153  149  152 am 
   154  152  153 1  
   155  153  154 1  
   156  153  156 1  
   157  154  155 ar 
   158  154  160 ar 
   159  156  157 1  
   160  157  158 ar 
   161  157  159 ar 
   162    1  161 1  
   163    1  162 1  
   164    2  163 1  
   165    5  164 1  
   166    5  165 1  
   167    6  166 1  
   168    6  167 1  
   169    7  168 1  
   170    7  169 1  
   171    8  170 1  
   172    9  171 1  
   173   12  172 1  
   174   12  173 1  
   175   13  174 1  
   176   13  175 1  
   177   14  176 1  
   178   14  177 1  
   179   15  178 1  
   180   15  179 1  
   181   16  180 1  
   182   16  181 1  
   183   16  182 1  
   184   17  183 1  
   185   18  184 1  
   186   21  185 1  
   187   21  186 1  
   188   24  187 1  
   189   24  188 1  
   190   25  189 1  
   191   26  190 1  
   192   29  191 1  
   193   29  192 1  
   194   30  193 1  
   195   30  194 1  
   196   31  195 1  
   197   31  196 1  
   198   32  197 1  
   199   32  198 1  
   200   33  199 1  
   201   33  200 1  
   202   33  201 1  
   203   34  202 1  
   204   35  203 1  
   205   38  204 1  
   206   38  205 1  
   207   38  206 1  
   208   39  207 1  
   209   40  208 1  
   210   43  209 1  
   211   43  210 1  
   212   44  211 1  
   213   44  212 1  
   214   45  213 1  
   215   45  214 1  
   216   46  215 1  
   217   48  216 1  
   218   48  217 1  
   219   49  218 1  
   220   49  219 1  
   221   50  220 1  
   222   51  221 1  
   223   54  222 1  
   224   54  223 1  
   225   55  224 1  
   226   55  225 1  
   227   56  226 1  
   228   56  227 1  
   229   57  228 1  
   230   59  229 1  
   231   59  230 1  
   232   60  231 1  
   233   60  232 1  
   234   61  233 1  
   235   62  234 1  
   236   65  235 1  
   237   65  236 1  
   238   66  237 1  
   239   66  238 1  
   240   67  239 1  
   241   67  240 1  
   242   68  241 1  
   243   70  242 1  
   244   70  243 1  
   245   71  244 1  
   246   71  245 1  
   247   72  246 1  
   248   73  247 1  
   249   76  248 1  
   250   77  249 1  
   251   78  250 1  
   252   78  251 1  
   253   78  252 1  
   254   79  253 1  
   255   80  254 1  
   256   83  255 1  
   257   84  256 1  
   258   85  257 1  
   259   85  258 1  
   260   85  259 1  
   261   86  260 1  
   262   87  261 1  
   263   90  262 1  
   264   91  263 1  
   265   92  264 1  
   266   92  265 1  
   267   92  266 1  
   268   93  267 1  
   269   94  268 1  
   270   97  269 1  
   271   97  270 1  
   272   98  271 1  
   273   98  272 1  
   274  101  273 1  
   275  101  274 1  
   276  102  275 1  
   277  103  276 1  
   278  106  277 1  
   279  106  278 1  
   280  107  279 1  
   281  107  280 1  
   282  109  281 1  
   283  109  282 1  
   284  109  283 1  
   285  110  284 1  
   286  111  285 1  
   287  114  286 1  
   288  114  287 1  
   289  115  288 1  
   290  115  289 1  
   291  119  290 1  
   292  120  291 1  
   293  123  292 1  
   294  123  293 1  
   295  124  294 1  
   296  125  295 1  
   297  125  296 1  
   298  125  297 1  
   299  126  298 1  
   300  126  299 1  
   301  126  300 1  
   302  127  301 1  
   303  128  302 1  
   304  131  303 1  
   305  131  304 1  
   306  132  305 1  
   307  133  306 1  
   308  133  307 1  
   309  133  308 1  
   310  134  309 1  
   311  134  310 1  
   312  134  311 1  
   313  135  312 1  
   314  136  313 1  
   315  139  314 1  
   316  139  315 1  
   317  141  316 1  
   318  142  317 1  
   319  143  318 1  
   320  144  319 1  
   321  146  320 1  
   322  147  321 1  
   323  148  322 1  
   324  151  323 1  
   325  151  324 1  
   326  151  325 1  
   327  152  326 1  
   328  153  327 1  
   329  156  328 1  
   330  156  329 1  
@<TRIPOS>SUBSTRUCTURE
     1 PRO         1

