5u7l_ligand
  -I-interpret- 

 63 67  0  0  0  0  0  0  0  0999 V2000
   16.2170    6.8400   22.0540 C   0  0  0  0  0
   14.2440    3.4850   18.0700 C   0  0  0  0  0
   14.3250    3.6920   15.4540 C   0  0  0  0  0
   13.9170    3.1930   20.6440 C   0  0  0  0  0
   15.3030    3.0330   17.2920 C   0  0  0  0  0
   12.9070    3.8610   24.0380 C   0  0  0  0  0
   17.5050    1.8590   17.8460 C   0  0  0  0  0
   15.2030    4.7120   22.2450 C   0  0  0  0  0
   11.4490    6.7600   18.9860 C   0  0  0  0  0
   11.0680    5.2580   17.1810 C   0  0  0  0  0
   17.8470    8.4690   24.3040 C   0  0  0  0  0
   16.1720    4.3110   23.1380 C   0  0  0  0  0
   15.2200    5.9690   21.7050 C   0  0  0  0  0
   17.1780    5.1880   23.5020 C   0  0  0  0  0
   12.7420    2.4380   20.8620 C   0  0  0  0  0
   17.1900    6.4590   22.9460 C   0  0  0  0  0
   14.6480    3.1270   19.3980 C   0  0  0  0  0
   14.1550    3.8350   21.8430 C   0  0  0  0  0
   13.1680    4.1050   17.4160 C   0  0  0  0  0
   10.3870    6.3540   17.9970 C   0  0  0  0  0
   12.3560    5.5450   19.1780 C   0  0  0  0  0
   11.8060    7.4520   21.3640 C   0  0  0  0  0
    9.9050    8.3530   20.1100 C   0  0  0  0  0
   18.2680    7.4420   23.2860 C   0  0  0  0  0
   12.2650    2.6040   22.1050 N   0  0  0  0  0
   15.4070    3.1030   15.9710 N   0  0  0  0  0
   13.2460    4.1930   16.0740 N   0  0  0  0  0
   15.8330    2.5280   19.4310 N   0  0  0  0  0
   13.1260    3.4610   22.6660 N   0  0  0  0  0
   16.2320    2.5010   18.1490 N   0  0  0  0  0
   12.0240    4.6150   18.0940 N   0  0  0  0  0
   10.8210    7.1860   20.2700 N   0  3  0  0  0
   16.2389    7.8405   21.6221 H   0  0  0  0  0
   14.3179    3.7782   14.3674 H   0  0  0  0  0
   13.7563    3.5493   24.6460 H   0  0  0  0  0
   12.8019    4.9448   24.0868 H   0  0  0  0  0
   11.9983    3.3893   24.4120 H   0  0  0  0  0
   17.3291    0.9827   17.2221 H   0  0  0  0  0
   18.1475    2.5615   17.3151 H   0  0  0  0  0
   17.9871    1.5544   18.7750 H   0  0  0  0  0
   12.0296    7.6093   18.6259 H   0  0  0  0  0
   11.5707    5.6694   16.3057 H   0  0  0  0  0
   10.3427    4.5408   16.7967 H   0  0  0  0  0
   16.9991    9.0348   23.9181 H   0  0  0  0  0
   17.5601    7.9666   25.2278 H   0  0  0  0  0
   18.6783    9.1462   24.5003 H   0  0  0  0  0
   16.1462    3.3050   23.5569 H   0  0  0  0  0
   14.4453    6.2748   21.0019 H   0  0  0  0  0
   17.9472    4.8859   24.2127 H   0  0  0  0  0
   12.2792    1.7980   20.1108 H   0  0  0  0  0
   10.0471    7.1863   17.3807 H   0  0  0  0  0
    9.4725    6.0105   18.4805 H   0  0  0  0  0
   12.1979    5.0855   20.1537 H   0  0  0  0  0
   13.4078    5.8293   19.1450 H   0  0  0  0  0
   12.3757    6.5451   21.5666 H   0  0  0  0  0
   12.4843    8.2473   21.0550 H   0  0  0  0  0
   11.2732    7.7567   22.2647 H   0  0  0  0  0
   10.4648    9.2013   19.7162 H   0  0  0  0  0
    9.1038    8.0922   19.4185 H   0  0  0  0  0
    9.4797    8.6149   21.0788 H   0  0  0  0  0
   19.0998    6.8810   23.7120 H   0  0  0  0  0
   18.5253    7.9750   22.3707 H   0  0  0  0  0
   10.2642    6.3797   20.5532 H   0  0  0  0  0
 13  1  4  0  0  0
  1 16  4  0  0  0
  2  5  4  0  0  0
  2 17  4  0  0  0
 19  2  4  0  0  0
  3 26  4  0  0  0
 27  3  4  0  0  0
  4 15  4  0  0  0
 17  4  1  0  0  0
  4 18  4  0  0  0
  5 26  4  0  0  0
  5 30  4  0  0  0
 29  6  1  0  0  0
 30  7  1  0  0  0
  8 12  4  0  0  0
  8 13  4  0  0  0
 18  8  1  0  0  0
 20  9  1  0  0  0
  9 21  1  0  0  0
  9 32  1  0  0  0
 10 20  1  0  0  0
 31 10  1  0  0  0
 24 11  1  0  0  0
 12 14  4  0  0  0
 14 16  4  0  0  0
 15 25  4  0  0  0
 16 24  1  0  0  0
 17 28  4  0  0  0
 18 29  4  0  0  0
 19 27  4  0  0  0
 19 31  1  0  0  0
 21 31  1  0  0  0
 32 22  1  0  0  0
 32 23  1  0  0  0
 25 29  4  0  0  0
 28 30  4  0  0  0
  1 33  1  0  0  0
  3 34  1  0  0  0
  6 35  1  0  0  0
  6 36  1  0  0  0
  6 37  1  0  0  0
  7 38  1  0  0  0
  7 39  1  0  0  0
  7 40  1  0  0  0
  9 41  1  0  0  0
 10 42  1  0  0  0
 10 43  1  0  0  0
 11 44  1  0  0  0
 11 45  1  0  0  0
 11 46  1  0  0  0
 12 47  1  0  0  0
 13 48  1  0  0  0
 14 49  1  0  0  0
 15 50  1  0  0  0
 20 51  1  0  0  0
 20 52  1  0  0  0
 21 53  1  0  0  0
 21 54  1  0  0  0
 22 55  1  0  0  0
 22 56  1  0  0  0
 22 57  1  0  0  0
 23 58  1  0  0  0
 23 59  1  0  0  0
 23 60  1  0  0  0
 24 61  1  0  0  0
 24 62  1  0  0  0
 32 63  1  0  0  0
M  END
$$$$
