6eeo_ligand
  -I-interpret- 

 39 40  0  0  0  0  0  0  0  0999 V2000
   -3.9100    8.9360   13.6370 C   0  0  0  0  0
   -2.5110   10.7220   14.3050 C   0  0  0  0  0
   -1.6840    8.4520   14.3910 C   0  0  0  0  0
   -1.4880    9.8160   14.5840 C   0  0  0  0  0
   -4.5020    0.7160   13.6640 C   0  0  0  0  0
   -4.2560    1.3150   12.4390 C   0  0  0  0  0
   -4.3760    2.7180   12.2980 C   0  0  0  0  0
   -4.6980    3.4570   13.4470 C   0  0  0  0  0
   -4.9630    2.8480   14.6040 C   0  0  0  0  0
   -4.8320    1.5300   14.7210 C   0  0  0  0  0
   -4.1290    3.3430   11.0680 O   0  0  0  0  0
   -5.0260    4.8040   13.8070 N   0  0  0  0  0
   -4.5060    6.1110   14.0250 C   0  0  0  0  0
   -3.1810    6.5930   13.6880 N   0  0  0  0  0
   -5.3440    6.8130   14.4790 O   0  0  0  0  0
   -2.9120    8.0080   13.9260 C   0  0  0  0  0
   -3.7310   10.2840   13.8370 C   0  0  0  0  0
   -0.1410   10.3280   15.1050 C   0  0  0  0  0
   -2.3280   12.0600   14.4880 F   0  0  0  0  0
   -5.2520    1.0220   16.3790 S   0  0  0  0  0
   -4.4420    1.6140   17.4390 O   0  0  0  0  0
   -6.6220    1.4160   16.6870 O   0  0  0  0  0
   -5.0270   -0.6510   16.3790 N   0  0  0  0  0
   -3.9280    0.3770   11.3750 N   0  0  0  0  0
   -3.5540   -0.7100   11.6460 O   0  0  0  0  0
   -4.1640    0.7080   10.0360 O   0  0  0  0  0
   -4.8616    8.5824   13.2403 H   0  0  0  0  0
   -0.8835    7.7430   14.6024 H   0  0  0  0  0
   -4.4360   -0.3652   13.7853 H   0  0  0  0  0
   -5.2899    3.4363   15.4614 H   0  0  0  0  0
   -4.2581    4.2898   11.1598 H   0  0  0  0  0
   -6.0317    4.8416   13.9731 H   0  0  0  0  0
   -2.4695    5.9721   13.3024 H   0  0  0  0  0
   -4.5352   10.9901   13.6303 H   0  0  0  0  0
    0.2960   11.0069   14.3728 H   0  0  0  0  0
   -0.2939   10.8561   16.0462 H   0  0  0  0  0
    0.5297    9.4839   15.2654 H   0  0  0  0  0
   -4.3992   -1.0812   17.0581 H   0  0  0  0  0
   -5.5189   -1.2317   15.6999 H   0  0  0  0  0
 16  1  4  0  0  0
  1 17  4  0  0  0
  4  2  4  0  0  0
 17  2  4  0  0  0
  2 19  1  0  0  0
  3  4  4  0  0  0
 16  3  4  0  0  0
  4 18  1  0  0  0
  6  5  4  0  0  0
 10  5  4  0  0  0
  7  6  4  0  0  0
  6 24  1  0  0  0
  8  7  4  0  0  0
  7 11  1  0  0  0
  8  9  4  0  0  0
 12  8  1  0  0  0
  9 10  4  0  0  0
 10 20  1  0  0  0
 13 12  1  0  0  0
 14 13  1  0  0  0
 13 15  2  0  0  0
 14 16  1  0  0  0
 20 21  2  0  0  0
 20 22  2  0  0  0
 20 23  1  0  0  0
 24 25  2  0  0  0
 24 26  2  0  0  0
  1 27  1  0  0  0
  3 28  1  0  0  0
  5 29  1  0  0  0
  9 30  1  0  0  0
 11 31  1  0  0  0
 12 32  1  0  0  0
 14 33  1  0  0  0
 17 34  1  0  0  0
 18 35  1  0  0  0
 18 36  1  0  0  0
 18 37  1  0  0  0
 23 38  1  0  0  0
 23 39  1  0  0  0
M  END
$$$$
