3n0h_ligand
  -I-interpret- 

 39 40  0  0  0  0  0  0  0  0999 V2000
   -3.4720  -16.8490    2.7540 C   0  0  0  0  0
   -3.2870  -17.4760    3.9080 N   0  0  0  0  0
   -2.8880  -18.7560    3.9570 C   0  0  0  0  0
   -2.6720  -19.3000    5.1860 N   0  0  0  0  0
   -2.7070  -19.4680    2.8340 N   0  0  0  0  0
   -2.8840  -18.9080    1.6270 C   0  0  0  0  0
   -2.6670  -19.6170    0.5020 N   0  0  0  0  0
   -3.2870  -17.4930    1.5600 C   0  0  0  0  0
   -3.5320  -16.7250    0.2650 C   0  0  0  0  0
   -2.2390  -16.0280   -0.2150 C   0  0  0  0  0
   -1.7110  -16.4250   -1.4560 C   0  0  0  0  0
   -0.5550  -15.8560   -1.9990 C   0  0  0  0  0
    0.0140  -16.2370   -3.1930 O   0  0  0  0  0
   -0.5820  -17.3170   -3.9080 C   0  0  0  0  0
    0.1650  -14.8360   -1.2380 C   0  0  0  0  0
    1.2660  -14.2520   -1.7630 O   0  0  0  0  0
    1.0440  -13.1810   -2.6950 C   0  0  0  0  0
   -0.3760  -14.4190    0.0620 C   0  0  0  0  0
    0.2950  -13.4150    0.7240 O   0  0  0  0  0
   -0.3350  -13.0380    1.9590 C   0  0  0  0  0
   -1.5600  -15.0430    0.5560 C   0  0  0  0  0
   -3.7767  -15.8025    2.7562 H   0  0  0  0  0
   -2.8143  -18.7375    6.0249 H   0  0  0  0  0
   -2.3679  -20.2701    5.2680 H   0  0  0  0  0
   -2.3651  -20.5894    0.5623 H   0  0  0  0  0
   -2.8046  -19.1813   -0.4099 H   0  0  0  0  0
   -4.2932  -15.9661    0.4459 H   0  0  0  0  0
   -3.8579  -17.4268   -0.5027 H   0  0  0  0  0
   -2.2229  -17.2070   -2.0168 H   0  0  0  0  0
   -0.5660  -18.2138   -3.2887 H   0  0  0  0  0
   -1.6128  -17.0627   -4.1548 H   0  0  0  0  0
   -0.0213  -17.4972   -4.8252 H   0  0  0  0  0
    0.4710  -13.5531   -3.5443 H   0  0  0  0  0
    0.4894  -12.3820   -2.2029 H   0  0  0  0  0
    2.0038  -12.7984   -3.0422 H   0  0  0  0  0
   -1.3458  -12.6838    1.7565 H   0  0  0  0  0
   -0.3774  -13.9019    2.6223 H   0  0  0  0  0
    0.2419  -12.2432    2.4319 H   0  0  0  0  0
   -1.9489  -14.7623    1.5348 H   0  0  0  0  0
  1  2  4  0  0  0
  1  8  4  0  0  0
  2  3  4  0  0  0
  3  4  1  0  0  0
  3  5  4  0  0  0
  5  6  4  0  0  0
  6  7  1  0  0  0
  6  8  4  0  0  0
  8  9  1  0  0  0
  9 10  1  0  0  0
 10 11  4  0  0  0
 10 21  4  0  0  0
 11 12  4  0  0  0
 12 13  1  0  0  0
 12 15  4  0  0  0
 13 14  1  0  0  0
 15 16  1  0  0  0
 15 18  4  0  0  0
 16 17  1  0  0  0
 18 19  1  0  0  0
 18 21  4  0  0  0
 19 20  1  0  0  0
  1 22  1  0  0  0
  4 23  1  0  0  0
  4 24  1  0  0  0
  7 25  1  0  0  0
  7 26  1  0  0  0
  9 27  1  0  0  0
  9 28  1  0  0  0
 11 29  1  0  0  0
 14 30  1  0  0  0
 14 31  1  0  0  0
 14 32  1  0  0  0
 17 33  1  0  0  0
 17 34  1  0  0  0
 17 35  1  0  0  0
 20 36  1  0  0  0
 20 37  1  0  0  0
 20 38  1  0  0  0
 21 39  1  0  0  0
M  END
$$$$
