5evk_ligand
  -I-interpret- 

 25 26  0  0  0  0  0  0  0  0999 V2000
   81.5530   95.8080   16.8180 C   0  0  0  0  0
   82.4310   94.5620   19.0550 O   0  0  0  0  0
   83.3170   95.0840   18.3660 C   0  0  0  0  0
   84.4120   95.3810   18.7840 O   0  0  0  0  0
   83.0150   95.4950   16.9220 C   0  0  0  0  0
   83.4090   94.4260   15.9660 N   0  3  0  0  0
   83.9840   94.8720   14.6720 C   0  0  0  0  0
   85.4660   94.5860   14.6260 C   0  0  0  0  0
   86.2910   95.8520   15.5660 S   0  0  0  0  0
   80.9700   94.6140   15.6610 S   0  0  0  0  0
   82.3060   93.4810   15.7570 C   0  0  0  0  0
   82.7170   92.6290   14.5500 C   0  0  0  0  0
   83.2550   93.8730   13.4380 S   0  0  0  0  0
   81.3631   96.8325   16.4980 H   0  0  0  0  0
   81.0403   95.7498   17.7781 H   0  0  0  0  0
   81.6508   94.4169   18.5147 H   0  0  0  0  0
   83.5976   96.3783   16.6602 H   0  0  0  0  0
   84.1905   93.9600   16.4271 H   0  0  0  0  0
   83.8063   95.9388   14.5365 H   0  0  0  0  0
   85.8206   94.5871   13.5953 H   0  0  0  0  0
   85.6758   93.6030   15.0477 H   0  0  0  0  0
   87.6025   95.6319   15.5477 H   0  0  0  0  0
   82.0371   92.7161   16.4856 H   0  0  0  0  0
   81.9171   92.0006   14.1584 H   0  0  0  0  0
   83.4746   91.8783   14.7751 H   0  0  0  0  0
  5  1  1  0  0  0
  1 10  1  0  0  0
  3  2  1  0  0  0
  3  4  2  0  0  0
  3  5  1  0  0  0
  5  6  1  0  0  0
  6  7  1  0  0  0
  6 11  1  0  0  0
  7  8  1  0  0  0
  7 13  1  0  0  0
  8  9  1  0  0  0
 10 11  1  0  0  0
 11 12  1  0  0  0
 12 13  1  0  0  0
  1 14  1  0  0  0
  1 15  1  0  0  0
  2 16  1  0  0  0
  5 17  1  0  0  0
  6 18  1  0  0  0
  7 19  1  0  0  0
  8 20  1  0  0  0
  8 21  1  0  0  0
  9 22  1  0  0  0
 11 23  1  0  0  0
 12 24  1  0  0  0
 12 25  1  0  0  0
M  END
$$$$
