3fv7_ligand
  -I-interpret- 

 48 49  0  0  0  0  0  0  0  0999 V2000
  107.1830   32.7590   27.1710 C   0  0  0  0  0
  106.4370   31.4620   27.1960 C   0  0  0  0  0
  105.1910   31.3880   28.0080 C   0  0  0  0  0
  104.2760   30.2960   28.2320 C   0  0  0  0  0
  103.2970   30.7160   29.0610 C   0  0  0  0  0
  103.5160   32.2150   29.4630 C   0  0  0  0  0
  105.4630   33.8310   28.7150 C   0  0  0  0  0
  106.6950   33.9550   27.9280 C   0  0  0  0  0
  102.0290   29.9080   29.6360 C   0  0  0  0  0
  102.6690   33.4110   31.7520 C   0  0  0  0  0
  103.4000   34.7670   31.9380 C   0  0  0  0  0
  101.1380   33.4170   32.2000 C   0  0  0  0  0
  100.4030   34.7550   31.8070 C   0  0  0  0  0
  101.0610   33.2140   33.7540 C   0  0  0  0  0
  109.1880   32.0920   25.6400 C   0  0  0  0  0
  109.2620   30.0030   24.3060 C   0  0  0  0  0
  104.7920   32.5420   28.7030 N   0  0  0  0  0
  102.7290   33.0200   30.3030 N   0  3  0  0  0
  108.6060   31.1760   24.7320 O   0  0  0  0  0
  101.2080   29.9700   28.4350 O   0  0  0  0  0
  103.9260   35.3930   31.0390 O   0  0  0  0  0
  103.4840   35.4070   33.3010 O   0  0  0  0  0
   98.9020   31.9120   32.0120 O   0  0  0  0  0
  101.0860   30.6210   31.4770 O   0  0  0  0  0
  108.3480   32.8110   26.4330 N   0  0  0  0  0
  110.4080   32.2400   25.7390 O   0  0  0  0  0
  100.2170   32.0610   31.3640 S   0  0  0  0  0
  106.7949   30.5976   26.6367 H   0  0  0  0  0
  104.3609   29.2975   27.8032 H   0  0  0  0  0
  102.9538   32.8953   30.1027 H   0  0  0  0  0
  105.0672   34.6713   29.2854 H   0  0  0  0  0
  107.2428   34.8968   27.8952 H   0  0  0  0  0
  101.5778   30.3138   30.5415 H   0  0  0  0  0
  102.2362   28.9087   30.0189 H   0  0  0  0  0
  103.1844   32.7019   32.3998 H   0  0  0  0  0
  100.4245   34.8752   30.7239 H   0  0  0  0  0
   99.3688   34.7138   32.1488 H   0  0  0  0  0
  100.9092   35.5979   32.2776 H   0  0  0  0  0
  100.0180   33.2312   34.0701 H   0  0  0  0  0
  101.5057   32.2540   34.0162 H   0  0  0  0  0
  101.6060   34.0163   34.2514 H   0  0  0  0  0
  110.1939   30.2700   23.8077 H   0  0  0  0  0
  109.4776   29.3746   25.1701 H   0  0  0  0  0
  108.6198   29.4607   23.6120 H   0  0  0  0  0
  101.8924   32.4366   30.2928 H   0  0  0  0  0
  103.0348   33.9225   29.9392 H   0  0  0  0  0
  100.3750   29.5203   28.5946 H   0  0  0  0  0
  103.0448   34.8459   33.9444 H   0  0  0  0  0
  1  2  1  0  0  0
  1  8  1  0  0  0
 25  1  2  0  0  0
  2  3  2  0  0  0
  3  4  1  0  0  0
  3 17  1  0  0  0
  4  5  2  0  0  0
  6  5  1  0  0  0
  5  9  1  0  0  0
 17  6  1  0  0  0
  6 18  1  0  0  0
  8  7  2  0  0  0
  7 17  1  0  0  0
  9 20  1  0  0  0
 10 11  1  0  0  0
 10 12  1  0  0  0
 18 10  1  0  0  0
 11 21  2  0  0  0
 11 22  1  0  0  0
 12 13  1  0  0  0
 12 14  1  0  0  0
 12 27  1  0  0  0
 15 19  1  0  0  0
 15 25  1  0  0  0
 15 26  2  0  0  0
 19 16  1  0  0  0
 27 23  4  0  0  0
 27 24  4  0  0  0
  2 28  1  0  0  0
  4 29  1  0  0  0
  6 30  1  0  0  0
  7 31  1  0  0  0
  8 32  1  0  0  0
  9 33  1  0  0  0
  9 34  1  0  0  0
 10 35  1  0  0  0
 13 36  1  0  0  0
 13 37  1  0  0  0
 13 38  1  0  0  0
 14 39  1  0  0  0
 14 40  1  0  0  0
 14 41  1  0  0  0
 16 42  1  0  0  0
 16 43  1  0  0  0
 16 44  1  0  0  0
 18 45  1  0  0  0
 18 46  1  0  0  0
 20 47  1  0  0  0
 22 48  1  0  0  0
M  END
$$$$
