4dfn_ligand
  -I-interpret- 

 61 66  0  0  0  0  0  0  0  0999 V2000
    0.7110   -1.1710   14.4680 C   0  0  0  0  0
   -0.0170   -0.2230   13.7530 C   0  0  0  0  0
    0.0500   -2.3280   14.8850 C   0  0  0  0  0
   -1.3630   -0.4290   13.4370 C   0  0  0  0  0
   -1.2850   -2.5360   14.5780 C   0  0  0  0  0
   -1.9960   -1.5910   13.8590 C   0  0  0  0  0
    4.8310   -0.2720   15.3800 C   0  0  0  0  0
    4.1200    0.5070   14.4820 C   0  0  0  0  0
    2.7940    0.1920   14.2170 N   0  0  0  0  0
    2.8950   -1.6720   15.6890 C   0  0  0  0  0
    2.1560   -0.8990   14.7960 C   0  0  0  0  0
    6.1690    0.0200   15.6840 N   0  0  0  0  0
   -2.1220    0.5950   12.6830 C   0  0  0  0  0
   -1.6260    1.6600   11.9790 C   0  0  0  0  0
   -3.4860    0.7130   12.5600 C   0  0  0  0  0
    4.1350    3.6590   12.1810 C   0  0  0  0  0
    3.6870    4.8710   13.0200 C   0  0  0  0  0
    3.3290    3.6560   10.8480 C   0  0  0  0  0
    1.3770    4.7410   12.0270 C   0  0  0  0  0
    3.1420    6.1690   10.9290 C   0  0  0  0  0
    1.6360    6.0570   11.2630 C   0  0  0  0  0
    5.8460    2.0550   14.0550 O   0  0  0  0  0
    4.7170    1.7030   13.8300 C   0  0  0  0  0
    3.9080    2.4270   12.9790 N   0  0  0  0  0
    3.6130    4.9690   10.0870 C   0  0  0  0  0
   -0.0010    4.5960   12.3520 O   0  0  0  0  0
    1.8170    3.5830   11.1060 C   0  0  0  0  0
    2.1860    4.7650   13.3350 C   0  0  0  0  0
    3.9230    6.1780   12.2420 C   0  0  0  0  0
    4.2150   -1.3560   15.9790 N   0  0  0  0  0
   -3.7580    1.7910   11.7990 N   0  0  0  0  0
   -2.6720    2.3350   11.4750 N   0  0  0  0  0
   -2.5610    3.5420   10.6510 C   0  0  0  0  0
    0.4722    0.6972   13.4337 H   0  0  0  0  0
    0.5921   -3.0785   15.4604 H   0  0  0  0  0
   -1.7790   -3.4508   14.9052 H   0  0  0  0  0
   -3.0475   -1.7579   13.6251 H   0  0  0  0  0
    2.4309   -2.5354   16.1657 H   0  0  0  0  0
    6.6307    0.8148   15.2418 H   0  0  0  0  0
    6.6801   -0.5625   16.3472 H   0  0  0  0  0
   -0.5737    1.9136   11.8510 H   0  0  0  0  0
   -4.2245    0.0456   13.0042 H   0  0  0  0  0
    5.1949    3.7083   11.9316 H   0  0  0  0  0
    4.2678    4.8781   13.9423 H   0  0  0  0  0
    3.6363    2.7830   10.2722 H   0  0  0  0  0
    3.3111    7.0822   10.3584 H   0  0  0  0  0
    1.3366    6.9025   11.8823 H   0  0  0  0  0
    1.0569    6.0619   10.3395 H   0  0  0  0  0
    2.9696    2.0403   12.8779 H   0  0  0  0  0
    3.0762    4.9602    9.1384 H   0  0  0  0  0
    4.6838    5.0552    9.9023 H   0  0  0  0  0
   -0.1319    3.7711   12.8253 H   0  0  0  0  0
    1.5828    2.6343   11.5889 H   0  0  0  0  0
    1.2886    3.6622   10.1559 H   0  0  0  0  0
    1.8819    5.6261   13.9301 H   0  0  0  0  0
    1.9992    3.8458   13.8902 H   0  0  0  0  0
    4.9862    6.2707   12.0205 H   0  0  0  0  0
    3.5841    7.0173   12.8494 H   0  0  0  0  0
   -2.0499    4.3209   11.2168 H   0  0  0  0  0
   -1.9927    3.3138    9.7493 H   0  0  0  0  0
   -3.5582    3.8858   10.3762 H   0  0  0  0  0
  1  2  4  0  0  0
  1  3  4  0  0  0
 11  1  1  0  0  0
  2  4  4  0  0  0
  3  5  4  0  0  0
  4  6  4  0  0  0
  4 13  1  0  0  0
  5  6  4  0  0  0
  8  7  4  0  0  0
  7 12  1  0  0  0
  7 30  4  0  0  0
  8  9  4  0  0  0
 23  8  1  0  0  0
  9 11  4  0  0  0
 11 10  4  0  0  0
 30 10  4  0  0  0
 13 14  4  0  0  0
 13 15  4  0  0  0
 14 32  4  0  0  0
 15 31  4  0  0  0
 16 17  1  0  0  0
 16 18  1  0  0  0
 24 16  1  0  0  0
 17 28  1  0  0  0
 17 29  1  0  0  0
 18 25  1  0  0  0
 18 27  1  0  0  0
 19 21  1  0  0  0
 19 26  1  0  0  0
 27 19  1  0  0  0
 28 19  1  0  0  0
 20 21  1  0  0  0
 25 20  1  0  0  0
 29 20  1  0  0  0
 23 22  2  0  0  0
 23 24  1  0  0  0
 31 32  4  0  0  0
 32 33  1  0  0  0
  2 34  1  0  0  0
  3 35  1  0  0  0
  5 36  1  0  0  0
  6 37  1  0  0  0
 10 38  1  0  0  0
 12 39  1  0  0  0
 12 40  1  0  0  0
 14 41  1  0  0  0
 15 42  1  0  0  0
 16 43  1  0  0  0
 17 44  1  0  0  0
 18 45  1  0  0  0
 20 46  1  0  0  0
 21 47  1  0  0  0
 21 48  1  0  0  0
 24 49  1  0  0  0
 25 50  1  0  0  0
 25 51  1  0  0  0
 26 52  1  0  0  0
 27 53  1  0  0  0
 27 54  1  0  0  0
 28 55  1  0  0  0
 28 56  1  0  0  0
 29 57  1  0  0  0
 29 58  1  0  0  0
 33 59  1  0  0  0
 33 60  1  0  0  0
 33 61  1  0  0  0
M  END
$$$$
