3ipu_ligand
  -I-interpret- 

 58 60  0  0  0  0  0  0  0  0999 V2000
   23.8860  -14.6880   19.1500 C   0  0  0  0  0
   23.4700  -16.0320   19.1380 C   0  0  0  0  0
   24.3600  -17.0880   19.4400 C   0  0  0  0  0
   25.6740  -16.7310   19.7580 C   0  0  0  0  0
   26.0380  -15.4030   19.7630 C   0  0  0  0  0
   25.1920  -14.3500   19.4710 C   0  0  0  0  0
   26.7150  -17.5990   20.0950 O   0  0  0  0  0
   27.8470  -16.7440   20.3400 N   0  0  0  0  0
   27.4660  -15.5330   20.1340 C   0  0  0  0  0
   14.3690  -15.5880   17.6990 C   0  0  0  0  0
   22.1560  -16.3500   18.8150 O   0  0  0  0  0
   23.9350  -18.5610   19.4280 C   0  0  0  0  0
   13.1170  -15.0330   17.4190 C   0  0  0  0  0
   28.2910  -14.2950   20.3050 C   0  0  0  0  0
   21.2410  -15.3580   18.3200 C   0  0  0  0  0
   11.9490  -15.6160   17.9250 C   0  0  0  0  0
   24.2480  -19.2300   18.0580 C   0  0  0  0  0
   12.0510  -16.7680   18.7100 C   0  0  0  0  0
   13.2990  -17.3110   18.9960 C   0  0  0  0  0
   23.4550  -18.6030   16.8840 C   0  0  0  0  0
   18.0380  -17.3630   19.1660 N   0  0  0  0  0
   18.0530  -18.8260   19.2410 C   0  0  0  0  0
   16.8560  -16.6980   18.9410 C   0  0  0  0  0
   15.7010  -17.3060   18.7770 N   0  0  0  0  0
   19.9160  -16.1040   18.0520 C   0  0  0  0  0
   19.3000  -16.6170   19.3780 C   0  0  0  0  0
   10.5570  -13.8300   16.9650 O   0  0  0  0  0
   10.5940  -15.0140   17.6070 C   0  0  0  0  0
   16.8760  -15.4860   18.8830 O   0  0  0  0  0
    9.5680  -15.6210   17.9250 O   0  0  0  0  0
   29.5530  -14.6820   20.6920 F   0  0  0  0  0
   27.6560  -13.6020   21.2920 F   0  0  0  0  0
   28.3060  -13.4750   19.2090 F   0  0  0  0  0
   14.4840  -16.7380   18.4990 C   0  0  0  0  0
   23.1722  -13.9019   18.9037 H   0  0  0  0  0
   25.5314  -13.3144   19.4918 H   0  0  0  0  0
   15.2671  -15.1233   17.2920 H   0  0  0  0  0
   22.8602  -18.6130   19.6015 H   0  0  0  0  0
   24.4885  -19.0877   20.2054 H   0  0  0  0  0
   13.0494  -14.1378   16.8008 H   0  0  0  0  0
   21.6204  -14.8858   17.4138 H   0  0  0  0  0
   21.1032  -14.5514   19.0400 H   0  0  0  0  0
   23.9635  -20.2799   18.1281 H   0  0  0  0  0
   25.3096  -19.0898   17.8544 H   0  0  0  0  0
   11.1499  -17.2421   19.0991 H   0  0  0  0  0
   13.3606  -18.2023   19.6204 H   0  0  0  0  0
   22.3865  -18.7114   17.0701 H   0  0  0  0  0
   23.7054  -17.5453   16.8020 H   0  0  0  0  0
   23.7172  -19.1127   15.9569 H   0  0  0  0  0
   17.4067  -19.1534   20.0554 H   0  0  0  0  0
   17.6919  -19.2405   18.2998 H   0  0  0  0  0
   19.0715  -19.1688   19.4235 H   0  0  0  0  0
   15.7119  -18.3219   18.8675 H   0  0  0  0  0
   20.1161  -16.9564   17.4028 H   0  0  0  0  0
   19.2139  -15.4173   17.5792 H   0  0  0  0  0
   20.0170  -17.2942   19.8421 H   0  0  0  0  0
   19.0783  -15.7517   20.0027 H   0  0  0  0  0
   11.4534  -13.5239   16.8087 H   0  0  0  0  0
  2  1  4  0  0  0
  1  6  4  0  0  0
  2  3  4  0  0  0
 11  2  1  0  0  0
  3  4  4  0  0  0
  3 12  1  0  0  0
  4  5  4  0  0  0
  4  7  4  0  0  0
  6  5  4  0  0  0
  5  9  4  0  0  0
  7  8  4  0  0  0
  8  9  4  0  0  0
  9 14  1  0  0  0
 10 13  4  0  0  0
 34 10  4  0  0  0
 15 11  1  0  0  0
 12 17  1  0  0  0
 13 16  4  0  0  0
 14 31  1  0  0  0
 14 32  1  0  0  0
 14 33  1  0  0  0
 25 15  1  0  0  0
 18 16  4  0  0  0
 16 28  1  0  0  0
 17 20  1  0  0  0
 19 18  4  0  0  0
 34 19  4  0  0  0
 21 22  1  0  0  0
 21 23  1  0  0  0
 26 21  1  0  0  0
 23 24  1  0  0  0
 23 29  2  0  0  0
 24 34  1  0  0  0
 25 26  1  0  0  0
 28 27  1  0  0  0
 28 30  2  0  0  0
  1 35  1  0  0  0
  6 36  1  0  0  0
 10 37  1  0  0  0
 12 38  1  0  0  0
 12 39  1  0  0  0
 13 40  1  0  0  0
 15 41  1  0  0  0
 15 42  1  0  0  0
 17 43  1  0  0  0
 17 44  1  0  0  0
 18 45  1  0  0  0
 19 46  1  0  0  0
 20 47  1  0  0  0
 20 48  1  0  0  0
 20 49  1  0  0  0
 22 50  1  0  0  0
 22 51  1  0  0  0
 22 52  1  0  0  0
 24 53  1  0  0  0
 25 54  1  0  0  0
 25 55  1  0  0  0
 26 56  1  0  0  0
 26 57  1  0  0  0
 27 58  1  0  0  0
M  END
$$$$
