1lrh_ligand
  -I-interpret- 

 24 25  0  0  0  0  0  0  0  0999 V2000
   67.0620   41.4120   23.3770 C   0  0  0  0  0
   67.3560   41.0350   24.7090 C   0  0  0  0  0
   68.6830   41.0750   25.1790 C   0  0  0  0  0
   69.7240   41.4490   24.2940 C   0  0  0  0  0
   69.4720   41.8320   23.0220 C   0  0  0  0  0
   68.1620   41.8330   22.5090 C   0  0  0  0  0
   67.8870   42.1940   21.1380 C   0  0  0  0  0
   66.5860   42.1760   20.6710 C   0  0  0  0  0
   65.5030   41.7940   21.5090 C   0  0  0  0  0
   65.7230   41.4250   22.8310 C   0  0  0  0  0
   66.2660   40.6060   25.7450 C   0  0  0  0  0
   66.7580   39.6240   26.7270 C   0  0  0  0  0
   66.8010   38.3250   26.4730 O   0  0  0  0  0
   67.2210   40.1640   27.8410 O   0  0  0  0  0
   68.9071   40.8204   26.2149 H   0  0  0  0  0
   70.7548   41.4275   24.6476 H   0  0  0  0  0
   70.2978   42.1453   22.3832 H   0  0  0  0  0
   68.7025   42.4797   20.4737 H   0  0  0  0  0
   66.3862   42.4608   19.6380 H   0  0  0  0  0
   64.4885   41.7904   21.1103 H   0  0  0  0  0
   64.8795   41.1432   23.4612 H   0  0  0  0  0
   65.4485   40.1420   25.1932 H   0  0  0  0  0
   65.9598   41.4974   26.2924 H   0  0  0  0  0
   66.4118   38.1554   25.6120 H   0  0  0  0  0
  1 10  4  0  0  0
  1  6  4  0  0  0
  1  2  4  0  0  0
  2 11  1  0  0  0
  2  3  4  0  0  0
  3  4  4  0  0  0
  4  5  4  0  0  0
  6  5  4  0  0  0
  6  7  4  0  0  0
  7  8  4  0  0  0
  8  9  4  0  0  0
  9 10  4  0  0  0
 11 12  1  0  0  0
 12 14  2  0  0  0
 12 13  1  0  0  0
  3 15  1  0  0  0
  4 16  1  0  0  0
  5 17  1  0  0  0
  7 18  1  0  0  0
  8 19  1  0  0  0
  9 20  1  0  0  0
 10 21  1  0  0  0
 11 22  1  0  0  0
 11 23  1  0  0  0
 13 24  1  0  0  0
M  END
$$$$
