2ph6_ligand
  -I-interpret- 

 71 73  0  0  0  0  0  0  0  0999 V2000
   31.0490   37.5600    2.4680 C   0  0  0  0  0
   30.9790   38.3830    3.7150 N   0  3  0  0  0
   30.0370   38.0530    1.4510 C   0  0  0  0  0
   29.7700   39.3470    1.6340 O   0  0  0  0  0
   29.6890   37.4030    0.4750 O   0  0  0  0  0
   30.6300   36.1510    2.9050 C   0  0  0  0  0
   32.4580   37.6230    1.8490 C   0  0  0  0  0
   32.9990   38.9670    1.3980 C   0  0  0  0  0
   33.7240   39.7720    2.2770 C   0  0  0  0  0
   33.9920   41.4690    0.5720 C   0  0  0  0  0
   33.2620   40.6680   -0.3130 C   0  0  0  0  0
   34.2200   41.0170    1.8740 C   0  0  0  0  0
   32.7730   39.4250    0.0980 C   0  0  0  0  0
   28.4770   44.2060    0.9870 C   0  0  0  0  0
   29.6870   43.6240    1.4080 C   0  0  0  0  0
   29.8630   42.2310    1.3270 C   0  0  0  0  0
   28.8240   41.4310    0.8380 C   0  0  0  0  0
   27.6390   42.0270    0.4340 C   0  0  0  0  0
   27.4410   43.3970    0.4940 C   0  0  0  0  0
   26.2370   43.8610    0.0710 N   0  0  0  0  0
   30.7580   44.5390    1.9230 C   0  0  0  0  0
   31.4770   44.0530    2.9480 N   0  0  0  0  0
   30.9440   45.6330    1.3780 O   0  0  0  0  0
   25.3650   44.9530    1.0160 S   0  0  0  0  0
   25.7200   46.4950    0.3630 C   0  0  0  0  0
   25.9870   44.8720    2.5750 O   0  0  0  0  0
   23.7320   44.6620    0.7530 O   0  0  0  0  0
   25.6280   43.3780   -1.1780 C   0  0  0  0  0
   32.5530   44.7780    3.5960 C   0  0  0  0  0
   32.1110   45.3510    4.9220 C   0  0  0  0  0
   31.7390   44.4960    5.9720 C   0  0  0  0  0
   31.3290   46.3860    7.3800 C   0  0  0  0  0
   31.6810   47.2490    6.3470 C   0  0  0  0  0
   31.3460   45.0050    7.2110 C   0  0  0  0  0
   32.0790   46.7320    5.1210 C   0  0  0  0  0
   33.8360   43.9330    3.7060 C   0  0  0  0  0
   30.9570   46.9100    8.5590 F   0  0  0  0  0
   28.8840   39.9350    0.6670 C   0  0  0  0  0
   30.0387   38.3261    4.1062 H   0  0  0  0  0
   31.6529   38.0281    4.3935 H   0  0  0  0  0
   31.1979   39.3541    3.4927 H   0  0  0  0  0
   30.6353   35.4872    2.0404 H   0  0  0  0  0
   31.3307   35.7806    3.6533 H   0  0  0  0  0
   29.6273   36.1872    3.3308 H   0  0  0  0  0
   32.3941   37.0249    0.9400 H   0  0  0  0  0
   33.1304   37.3003    2.6439 H   0  0  0  0  0
   33.9071   39.4256    3.2942 H   0  0  0  0  0
   34.3787   42.4355    0.2489 H   0  0  0  0  0
   33.0736   41.0155   -1.3288 H   0  0  0  0  0
   34.7833   41.6330    2.5749 H   0  0  0  0  0
   32.2103   38.8075   -0.6021 H   0  0  0  0  0
   28.3439   45.2864    1.0437 H   0  0  0  0  0
   30.8024   41.7775    1.6430 H   0  0  0  0  0
   26.8350   41.3955    0.0559 H   0  0  0  0  0
   31.2531   43.1188    3.2910 H   0  0  0  0  0
   25.2638   47.2653    0.9848 H   0  0  0  0  0
   26.8003   46.6381    0.3392 H   0  0  0  0  0
   25.3212   46.5600   -0.6493 H   0  0  0  0  0
   26.2910   43.6010   -2.0139 H   0  0  0  0  0
   25.4733   42.3010   -1.1125 H   0  0  0  0  0
   24.6700   43.8754   -1.3297 H   0  0  0  0  0
   32.8082   45.6255    2.9598 H   0  0  0  0  0
   31.7574   43.4172    5.8170 H   0  0  0  0  0
   31.6445   48.3277    6.4995 H   0  0  0  0  0
   31.0600   44.3383    8.0245 H   0  0  0  0  0
   32.3666   47.4053    4.3135 H   0  0  0  0  0
   33.6298   43.0361    4.2900 H   0  0  0  0  0
   34.1695   43.6494    2.7078 H   0  0  0  0  0
   34.6135   44.5176    4.1978 H   0  0  0  0  0
   27.8846   39.5241    0.8099 H   0  0  0  0  0
   29.2549   39.7097   -0.3329 H   0  0  0  0  0
  1  2  1  0  0  0
  3  1  1  0  0  0
  1  6  1  0  0  0
  1  7  1  0  0  0
  4  3  1  0  0  0
  3  5  2  0  0  0
 38  4  1  0  0  0
  7  8  1  0  0  0
  8  9  4  0  0  0
  8 13  4  0  0  0
  9 12  4  0  0  0
 11 10  4  0  0  0
 12 10  4  0  0  0
 13 11  4  0  0  0
 15 14  4  0  0  0
 14 19  4  0  0  0
 15 16  4  0  0  0
 21 15  1  0  0  0
 16 17  4  0  0  0
 17 18  4  0  0  0
 17 38  1  0  0  0
 19 18  4  0  0  0
 19 20  1  0  0  0
 20 24  1  0  0  0
 20 28  1  0  0  0
 22 21  1  0  0  0
 21 23  2  0  0  0
 29 22  1  0  0  0
 24 25  1  0  0  0
 24 26  2  0  0  0
 24 27  2  0  0  0
 30 29  1  0  0  0
 29 36  1  0  0  0
 31 30  4  0  0  0
 30 35  4  0  0  0
 34 31  4  0  0  0
 32 33  4  0  0  0
 32 34  4  0  0  0
 32 37  1  0  0  0
 33 35  4  0  0  0
  2 39  1  0  0  0
  2 40  1  0  0  0
  2 41  1  0  0  0
  6 42  1  0  0  0
  6 43  1  0  0  0
  6 44  1  0  0  0
  7 45  1  0  0  0
  7 46  1  0  0  0
  9 47  1  0  0  0
 10 48  1  0  0  0
 11 49  1  0  0  0
 12 50  1  0  0  0
 13 51  1  0  0  0
 14 52  1  0  0  0
 16 53  1  0  0  0
 18 54  1  0  0  0
 22 55  1  0  0  0
 25 56  1  0  0  0
 25 57  1  0  0  0
 25 58  1  0  0  0
 28 59  1  0  0  0
 28 60  1  0  0  0
 28 61  1  0  0  0
 29 62  1  0  0  0
 31 63  1  0  0  0
 33 64  1  0  0  0
 34 65  1  0  0  0
 35 66  1  0  0  0
 36 67  1  0  0  0
 36 68  1  0  0  0
 36 69  1  0  0  0
 38 70  1  0  0  0
 38 71  1  0  0  0
M  END
$$$$
