3b26_ligand
  -I-interpret- 

 36 39  0  0  0  0  0  0  0  0999 V2000
   -3.1480   11.3090    1.5130 C   0  0  0  0  0
   -3.9000   10.1970    2.0890 O   0  0  0  0  0
   -3.7490    9.0130    1.2290 C   0  0  0  0  0
   -2.4470    8.6980    0.7920 C   0  0  0  0  0
   -2.1160    7.3820    0.4490 C   0  0  0  0  0
   -0.8210    7.0850    0.0110 C   0  0  0  0  0
    0.1570    8.0860   -0.0230 C   0  0  0  0  0
   -0.1450    9.4190    0.3380 C   0  0  0  0  0
   -1.4700    9.7200    0.7420 C   0  0  0  0  0
   -1.8300   11.0480    1.0700 C   0  0  0  0  0
   -0.8660   12.0680    1.0440 C   0  0  0  0  0
    0.4330   11.7720    0.6130 C   0  0  0  0  0
    0.8170   10.4610    0.2730 C   0  0  0  0  0
    2.1390   10.2860   -0.1670 C   0  0  0  0  0
    3.1580   10.7770    0.5790 N   0  0  0  0  0
    2.4300    9.7690   -1.4440 C   0  0  0  0  0
    3.7660    9.6930   -1.8470 C   0  0  0  0  0
    4.1410    9.0490   -3.1980 C   0  0  0  0  0
    4.7400   10.1540   -1.0280 N   0  0  0  0  0
    4.4390   10.7120    0.1600 C   0  0  0  0  0
    5.4180   11.1680    0.9380 N   0  0  0  0  0
   -3.0481   12.0412    2.3143 H   0  0  0  0  0
   -3.7023   11.6077    0.6232 H   0  0  0  0  0
   -4.3209    9.2275    0.3262 H   0  0  0  0  0
   -4.0724    8.1650    1.8326 H   0  0  0  0  0
   -2.8637    6.5923    0.5228 H   0  0  0  0  0
   -0.5729    6.0716   -0.3046 H   0  0  0  0  0
    1.1706    7.8328   -0.3337 H   0  0  0  0  0
   -1.1258   13.0796    1.3560 H   0  0  0  0  0
    1.1648   12.5764    0.5389 H   0  0  0  0  0
    1.6298    9.4350   -2.1045 H   0  0  0  0  0
    3.8074    8.0114   -3.2095 H   0  0  0  0  0
    3.6571    9.5965   -4.0068 H   0  0  0  0  0
    5.2225    9.0858   -3.3288 H   0  0  0  0  0
    5.2000   11.5667    1.8512 H   0  0  0  0  0
    6.3862   11.1187    0.6210 H   0  0  0  0  0
  1  2  1  0  0  0
  1 10  1  0  0  0
  2  3  1  0  0  0
  3  4  1  0  0  0
  4  5  4  0  0  0
  4  9  4  0  0  0
  5  6  4  0  0  0
  6  7  4  0  0  0
  7  8  4  0  0  0
  8  9  4  0  0  0
  8 13  4  0  0  0
  9 10  4  0  0  0
 10 11  4  0  0  0
 11 12  4  0  0  0
 12 13  4  0  0  0
 13 14  1  0  0  0
 14 15  4  0  0  0
 14 16  4  0  0  0
 15 20  4  0  0  0
 16 17  4  0  0  0
 17 18  1  0  0  0
 17 19  4  0  0  0
 19 20  4  0  0  0
 20 21  1  0  0  0
  1 22  1  0  0  0
  1 23  1  0  0  0
  3 24  1  0  0  0
  3 25  1  0  0  0
  5 26  1  0  0  0
  6 27  1  0  0  0
  7 28  1  0  0  0
 11 29  1  0  0  0
 12 30  1  0  0  0
 16 31  1  0  0  0
 18 32  1  0  0  0
 18 33  1  0  0  0
 18 34  1  0  0  0
 21 35  1  0  0  0
 21 36  1  0  0  0
M  END
$$$$
