3ig6_ligand
  -I-interpret- 

 81 85  0  0  0  0  0  0  0  0999 V2000
   14.6630    2.5310   -1.6670 N   0  3  0  0  0
   16.0800    2.1570   -1.7790 C   0  0  0  0  0
   16.3480   -0.6640    0.8860 C   0  0  0  0  0
   16.7360   -1.7670    0.0510 C   0  0  0  0  0
   16.9000   -1.5950   -1.3520 C   0  0  0  0  0
   16.6820   -0.3220   -1.9450 C   0  0  0  0  0
   16.3010    0.7820   -1.1370 C   0  0  0  0  0
   16.1350    0.6150    0.2700 C   0  0  0  0  0
   16.2030   -0.8280    2.3060 C   0  0  0  0  0
   17.0310   -1.7500    3.0280 C   0  0  0  0  0
   16.8810   -1.9230    4.4540 C   0  0  0  0  0
   15.8850   -1.1760    5.1430 C   0  0  0  0  0
   15.0560   -0.2640    4.4390 C   0  0  0  0  0
   15.2130   -0.0880    3.0370 C   0  0  0  0  0
   17.7350   -2.7360    5.2120 O   0  0  0  0  0
   19.3800   -3.9960    4.0400 N   0  0  0  0  0
   19.0340   -2.8730    4.7300 C   0  0  0  0  0
   19.9720   -1.8200    4.8780 C   0  0  0  0  0
   21.2800   -1.9430    4.3020 C   0  0  0  0  0
   21.5870   -3.1510    3.5870 C   0  0  0  0  0
   20.6180   -4.1560    3.4670 C   0  0  0  0  0
   19.5910   -0.7020    5.5180 F   0  0  0  0  0
   22.1950   -0.9100    4.3660 N   0  0  0  0  0
   22.7830   -3.3390    2.9980 F   0  0  0  0  0
   20.9010   -5.2430    2.6630 O   0  0  0  0  0
   20.0530   -6.3310    2.7490 C   0  0  0  0  0
   20.4910   -7.4980    3.4310 C   0  0  0  0  0
   19.7140   -8.7030    3.4060 C   0  0  0  0  0
   20.1700   -9.8590    4.0210 N   0  0  0  0  0
   18.4670   -8.6930    2.6890 C   0  0  0  0  0
   18.0230   -7.5350    2.0120 C   0  0  0  0  0
   18.8030   -6.3500    2.0240 C   0  0  0  0  0
   18.3290   -5.1230    1.1960 C   0  0  0  0  0
   17.1170   -5.0530    0.8790 O   0  0  0  0  0
   19.1850   -4.2720    0.8550 O   0  0  0  0  0
   19.3860  -11.1220    3.9790 C   0  0  0  0  0
   21.4940   -9.9110    4.6950 C   0  0  0  0  0
   23.2270   -0.6110    3.3290 C   0  0  0  0  0
   23.9520    0.6380    3.8860 C   0  0  0  0  0
   23.7950    0.4740    5.3980 C   0  0  0  0  0
   22.3240    0.0850    5.4780 C   0  0  0  0  0
   25.4030    0.7680    3.4450 N   0  3  0  0  0
   26.2630   -0.4100    3.7870 C   0  0  0  0  0
   25.5150    1.0220    1.9880 C   0  0  0  0  0
   14.5192    3.4457   -2.0948 H   0  0  0  0  0
   14.0903    1.8363   -2.1464 H   0  0  0  0  0
   14.3996    2.5696   -0.6824 H   0  0  0  0  0
   16.6922    2.8989   -1.2662 H   0  0  0  0  0
   16.3616    2.1151   -2.8312 H   0  0  0  0  0
   16.9067   -2.7467    0.4973 H   0  0  0  0  0
   17.1934   -2.4413   -1.9731 H   0  0  0  0  0
   16.8072   -0.1930   -3.0201 H   0  0  0  0  0
   15.8434    1.4674    0.8836 H   0  0  0  0  0
   17.7842   -2.3284    2.4929 H   0  0  0  0  0
   15.7579   -1.3049    6.2179 H   0  0  0  0  0
   14.2958    0.3038    4.9755 H   0  0  0  0  0
   14.5727    0.6189    2.5094 H   0  0  0  0  0
   21.4316   -7.4770    3.9814 H   0  0  0  0  0
   17.8541   -9.5941    2.6676 H   0  0  0  0  0
   17.0738   -7.5522    1.4764 H   0  0  0  0  0
   16.6475   -5.8059    1.2455 H   0  0  0  0  0
   18.4131  -10.9598    4.4430 H   0  0  0  0  0
   19.2488  -11.4287    2.9421 H   0  0  0  0  0
   19.9234  -11.9000    4.5213 H   0  0  0  0  0
   22.2778   -9.6887    3.9709 H   0  0  0  0  0
   21.5204   -9.1749    5.4984 H   0  0  0  0  0
   21.6511  -10.9074    5.1081 H   0  0  0  0  0
   22.7909   -0.4357    2.3455 H   0  0  0  0  0
   23.9058   -1.4476    3.1633 H   0  0  0  0  0
   23.5241    1.5658    3.5061 H   0  0  0  0  0
   24.0553    1.3619    5.9741 H   0  0  0  0  0
   24.4751   -0.2526    5.8426 H   0  0  0  0  0
   22.0399   -0.3191    6.4496 H   0  0  0  0  0
   21.6497    0.9349    5.3729 H   0  0  0  0  0
   25.7497    1.5676    3.9750 H   0  0  0  0  0
   26.2705   -0.5512    4.8678 H   0  0  0  0  0
   25.8629   -1.3023    3.3055 H   0  0  0  0  0
   27.2791   -0.2306    3.4357 H   0  0  0  0  0
   25.0630    0.1949    1.4405 H   0  0  0  0  0
   24.9972    1.9489    1.7412 H   0  0  0  0  0
   26.5668    1.1082    1.7153 H   0  0  0  0  0
  2  1  1  0  0  0
  7  2  1  0  0  0
  4  3  4  0  0  0
  3  8  4  0  0  0
  3  9  1  0  0  0
  5  4  4  0  0  0
  6  5  4  0  0  0
  6  7  4  0  0  0
  7  8  4  0  0  0
  9 10  4  0  0  0
  9 14  4  0  0  0
 10 11  4  0  0  0
 11 12  4  0  0  0
 11 15  1  0  0  0
 12 13  4  0  0  0
 13 14  4  0  0  0
 15 17  1  0  0  0
 17 16  4  0  0  0
 16 21  4  0  0  0
 17 18  4  0  0  0
 18 19  4  0  0  0
 18 22  1  0  0  0
 19 20  4  0  0  0
 19 23  1  0  0  0
 20 21  4  0  0  0
 20 24  1  0  0  0
 21 25  1  0  0  0
 23 38  1  0  0  0
 23 41  1  0  0  0
 25 26  1  0  0  0
 26 27  4  0  0  0
 26 32  4  0  0  0
 27 28  4  0  0  0
 28 29  1  0  0  0
 28 30  4  0  0  0
 29 36  1  0  0  0
 29 37  1  0  0  0
 30 31  4  0  0  0
 31 32  4  0  0  0
 32 33  1  0  0  0
 33 34  1  0  0  0
 33 35  2  0  0  0
 38 39  1  0  0  0
 39 40  1  0  0  0
 39 42  1  0  0  0
 40 41  1  0  0  0
 42 43  1  0  0  0
 42 44  1  0  0  0
  1 45  1  0  0  0
  1 46  1  0  0  0
  1 47  1  0  0  0
  2 48  1  0  0  0
  2 49  1  0  0  0
  4 50  1  0  0  0
  5 51  1  0  0  0
  6 52  1  0  0  0
  8 53  1  0  0  0
 10 54  1  0  0  0
 12 55  1  0  0  0
 13 56  1  0  0  0
 14 57  1  0  0  0
 27 58  1  0  0  0
 30 59  1  0  0  0
 31 60  1  0  0  0
 34 61  1  0  0  0
 36 62  1  0  0  0
 36 63  1  0  0  0
 36 64  1  0  0  0
 37 65  1  0  0  0
 37 66  1  0  0  0
 37 67  1  0  0  0
 38 68  1  0  0  0
 38 69  1  0  0  0
 39 70  1  0  0  0
 40 71  1  0  0  0
 40 72  1  0  0  0
 41 73  1  0  0  0
 41 74  1  0  0  0
 42 75  1  0  0  0
 43 76  1  0  0  0
 43 77  1  0  0  0
 43 78  1  0  0  0
 44 79  1  0  0  0
 44 80  1  0  0  0
 44 81  1  0  0  0
M  END
$$$$
