#	Name:			6q35_ligand
#	Creating user name:	wangrx
#	Creation time:		Thu Aug  5 18:01:58 2021

#	Modifying user name:	wangrx
#	Modification time:	Thu Aug  5 18:02:30 2021

@<TRIPOS>MOLECULE
6q35_ligand
   27    28     1     0     0
SMALL
GAST_HUCK


@<TRIPOS>ATOM
      1 C14         9.7190  -10.4980  -29.9730 C.3       1 HD5        -0.0172 
      2 C13         7.3360  -10.2870  -29.2190 C.ar      1 HD5        -0.1286 
      3 C12         6.3750   -9.9740  -28.2720 C.ar      1 HD5        -0.1184 
      4 C11         6.8120   -9.5560  -27.0310 C.ar      1 HD5        -0.0422 
      5 C01         8.6810  -10.1490  -28.9110 C.ar      1 HD5        -0.0701 
      6 C02         9.1030   -9.7360  -27.6620 C.ar      1 HD5        -0.1313 
      7 C03         8.1550   -9.4290  -26.6720 C.ar      1 HD5        -0.1230 
      8 C04         8.4090   -8.9760  -25.2870 C.2       1 HD5        -0.1672 
      9 C05         7.1570   -8.7660  -24.6390 C.2       1 HD5        -0.1117 
     10 B06         6.7470   -8.2020  -23.2320 B         1 HD5         3.0000 
     11 O07         7.2020   -6.9250  -23.0940 O.3       1 HD5        -0.4105 
     12 O09         5.3980   -8.2370  -23.0490 O.3       1 HD5        -0.4105 
     13 S10         5.8990   -9.1630  -25.6890 S.3       1 HD5        -0.1399 
     14 N15        10.9130   -9.7540  -29.6260 N.4       1 HD5         0.2291 
     15 H1          9.3604  -10.2014  -30.9697 H         1 HD5         0.0955 
     16 H2          9.9261  -11.5783  -29.9643 H         1 HD5         0.0955 
     17 H3          7.0371  -10.6394  -30.1996 H         1 HD5         0.0053 
     18 H4          5.3177  -10.0544  -28.4972 H         1 HD5         0.0210 
     19 H5         10.1619   -9.6492  -27.4468 H         1 HD5         0.0027 
     20 H6          9.3896   -8.8276  -24.8372 H         1 HD5        -0.0014 
     21 H8          6.7834   -6.3692  -23.7409 H         1 HD5         0.2052 
     22 H9          6.7834   -6.3693  -23.7408 H         1 HD5         0.2052 
     23 H10         4.9773   -7.6828  -23.6958 H         1 HD5         0.2052 
     24 H11         4.9773   -7.6828  -23.6958 H         1 HD5         0.2052 
     25 H12        11.6374   -9.9481  -30.2995 H         1 HD5         0.2006 
     26 H13        11.2253  -10.0290  -28.7079 H         1 HD5         0.2006 
     27 H14        10.7069   -8.7673  -29.6293 H         1 HD5         0.2006 
@<TRIPOS>BOND
     1    5    1 1    
     2    1   14 1    
     3    2    3 ar   
     4    2    5 ar   
     5    3    4 ar   
     6    4    7 ar   
     7    4   13 1    
     8    5    6 ar   
     9    6    7 ar   
    10    7    8 1    
    11    8    9 2    
    12    9   10 1    
    13    9   13 1    
    14   10   11 1    
    15   10   12 1    
    16    1   15 1    
    17    1   16 1    
    18    2   17 1    
    19    3   18 1    
    20    6   19 1    
    21    8   20 1    
    22   11   21 1    
    23   11   22 1    
    24   12   23 1    
    25   12   24 1    
    26   14   25 1    
    27   14   26 1    
    28   14   27 1    
@<TRIPOS>SUBSTRUCTURE
     1 HD5         1 PERM              0 ****  ****    0 ROOT 
