6q35_ligand

Created by X-TOOL on Mon Aug  2 16:10:24 2021
 28 29  0  0  0  0  0  0  0  0999 V2000
    9.7190  -10.4980  -29.9730  C 0  0  0  3  0  4
    7.3360  -10.2870  -29.2190  C 0  0  0  2  0  3
    6.3750   -9.9740  -28.2720  C 0  0  0  2  0  3
    6.8120   -9.5560  -27.0310  C 0  0  0  1  0  3
    8.6810  -10.1490  -28.9110  C 0  0  0  1  0  3
    9.1030   -9.7360  -27.6620  C 0  0  0  2  0  3
    8.1550   -9.4290  -26.6720  C 0  0  0  1  0  3
    8.4090   -8.9760  -25.2870  C 0  0  0  2  0  3
    7.1570   -8.7660  -24.6390  C 0  0  0  2  0  4
    6.7470   -8.2020  -23.2320  B 0  0  0  1  0  3
    7.2020   -6.9250  -23.0940  O 0  0  0  3  0  3
    5.3980   -8.2370  -23.0490  O 0  0  0  3  0  3
    5.8990   -9.1630  -25.6890  S 0  0  0  1  0  2
   10.9130   -9.7540  -29.6260  N 0  3  0  4  0  4
    9.3604  -10.2014  -30.9697  H 0  0  0  1  0  1
    9.9261  -11.5783  -29.9643  H 0  0  0  1  0  1
    7.0371  -10.6394  -30.1996  H 0  0  0  1  0  1
    5.3177  -10.0544  -28.4972  H 0  0  0  1  0  1
   10.1619   -9.6492  -27.4468  H 0  0  0  1  0  1
    9.3896   -8.8276  -24.8372  H 0  0  0  1  0  1
    7.0319   -8.4038  -23.6196  H 0  0  0  1  0  1
    6.7834   -6.3692  -23.7409  H 0  0  0  1  0  1
    6.7834   -6.3693  -23.7408  H 0  0  0  1  0  1
    4.9773   -7.6828  -23.6958  H 0  0  0  1  0  1
    4.9773   -7.6828  -23.6958  H 0  0  0  1  0  1
   11.6374   -9.9481  -30.2995  H 0  0  0  1  0  1
   11.2253  -10.0290  -28.7079  H 0  0  0  1  0  1
   10.7069   -8.7673  -29.6293  H 0  0  0  1  0  1
  5  1  1  0  0  2
  1 14  1  0  0  2
  2  3  4  0  0  1
  2  5  4  0  0  1
  3  4  4  0  0  1
  4  7  4  0  0  1
  4 13  1  0  0  1
  5  6  4  0  0  1
  6  7  4  0  0  1
  7  8  1  0  0  1
  8  9  2  0  0  1
  9 10  1  0  0  2
  9 13  1  0  0  1
 10 11  1  0  0  2
 10 12  1  0  0  2
  1 15  1  0  0  2
  1 16  1  0  0  2
  2 17  1  0  0  2
  3 18  1  0  0  2
  6 19  1  0  0  2
  8 20  1  0  0  2
  9 21  1  0  0  2
 11 22  1  0  0  2
 11 23  1  0  0  2
 12 24  1  0  0  2
 12 25  1  0  0  2
 14 26  1  0  0  2
 14 27  1  0  0  2
 14 28  1  0  0  2
M  END
> <MOLECULAR_FORMULA>
C9H14NO2SB

> <MOLECULAR_WEIGHT>
211.0

> <NUM_HB_ATOMS>
3  

> <NUM_ROTOR>
2  

> <XLOGP2>
0.64 

$$$$
