4pee_ligand
  -I-interpret- 

 36 38  0  0  0  0  0  0  0  0999 V2000
   34.4200    9.4790   58.9590 C   0  0  0  0  0
   34.9520   10.5960   59.6060 C   0  0  0  0  0
   34.1010   11.6240   60.0280 C   0  0  0  0  0
   32.7230   11.5300   59.8020 C   0  0  0  0  0
   32.1930   10.4040   59.1500 C   0  0  0  0  0
   33.0290    9.3510   58.7270 C   0  0  0  0  0
   32.5630    8.2640   58.0480 N   0  0  0  0  0
   31.4890    8.1310   57.2470 C   0  0  0  0  0
   33.1740    7.1490   58.0000 N   0  0  0  0  0
   32.6000    6.3060   57.2820 N   0  0  0  0  0
   31.5130    6.8730   56.7970 C   0  0  0  0  0
   30.5160    6.1500   55.7880 C   0  0  0  0  0
   29.0640    6.3120   56.0150 N   0  3  0  0  0
   28.4920    4.9440   56.0290 C   0  0  0  0  0
   27.0340    4.9470   55.5930 C   0  0  0  0  0
   29.4180    4.1960   55.0580 C   0  0  0  0  0
   29.1440    4.7360   53.6790 O   0  0  0  0  0
   30.7180    4.6210   55.7130 C   0  0  0  0  0
   31.9130    4.1510   54.9620 O   0  0  0  0  0
   35.0907    8.6874   58.6248 H   0  0  0  0  0
   36.0254   10.6672   59.7817 H   0  0  0  0  0
   34.5117   12.4983   60.5330 H   0  0  0  0  0
   32.0609   12.3305   60.1319 H   0  0  0  0  0
   31.1199   10.3439   58.9687 H   0  0  0  0  0
   30.7486    8.8959   57.0127 H   0  0  0  0  0
   30.7940    6.6770   54.8753 H   0  0  0  0  0
   28.6387    6.8808   55.2829 H   0  0  0  0  0
   28.8811    6.7959   56.8941 H   0  0  0  0  0
   28.4596    4.4793   57.0145 H   0  0  0  0  0
   26.4542    5.5719   56.2724 H   0  0  0  0  0
   26.9598    5.3432   54.5803 H   0  0  0  0  0
   26.6474    3.9281   55.6152 H   0  0  0  0  0
   29.3485    3.1175   54.9158 H   0  0  0  0  0
   29.7079    4.2889   53.0436 H   0  0  0  0  0
   30.9216    4.1868   56.6918 H   0  0  0  0  0
   31.9424    3.1916   54.9775 H   0  0  0  0  0
  1  2  4  0  0  0
  1  6  4  0  0  0
  2  3  4  0  0  0
  3  4  4  0  0  0
  4  5  4  0  0  0
  5  6  4  0  0  0
  6  7  1  0  0  0
  7  8  4  0  0  0
  7  9  4  0  0  0
  8 11  4  0  0  0
  9 10  4  0  0  0
 10 11  4  0  0  0
 11 12  1  0  0  0
 12 13  1  0  0  0
 12 18  1  0  0  0
 13 14  1  0  0  0
 14 15  1  0  0  0
 14 16  1  0  0  0
 16 17  1  0  0  0
 16 18  1  0  0  0
 18 19  1  0  0  0
  1 20  1  0  0  0
  2 21  1  0  0  0
  3 22  1  0  0  0
  4 23  1  0  0  0
  5 24  1  0  0  0
  8 25  1  0  0  0
 12 26  1  0  0  0
 13 27  1  0  0  0
 13 28  1  0  0  0
 14 29  1  0  0  0
 15 30  1  0  0  0
 15 31  1  0  0  0
 15 32  1  0  0  0
 16 33  1  0  0  0
 17 34  1  0  0  0
 18 35  1  0  0  0
 19 36  1  0  0  0
M  END
$$$$
