6npt_ligand
  -I-interpret- 

 55 58  0  0  0  0  0  0  0  0999 V2000
  -19.0350  -19.4600  -12.3810 C   0  0  0  0  0
  -18.3730  -20.0820  -13.6230 C   0  0  0  0  0
  -19.3850  -20.0080  -14.7920 C   0  0  0  0  0
  -17.1160  -19.2930  -14.0060 C   0  0  0  0  0
  -17.9530  -21.4900  -13.2580 C   0  0  0  0  0
  -17.1390  -21.6670  -12.1480 C   0  0  0  0  0
  -16.7180  -22.9170  -11.7590 C   0  0  0  0  0
  -17.0960  -24.0180  -12.5150 C   0  0  0  0  0
  -16.7180  -25.3770  -12.1280 C   0  0  0  0  0
  -16.6630  -26.3210  -13.0810 N   0  0  0  0  0
  -15.3350  -28.2470  -12.2890 C   0  0  0  0  0
  -15.6360  -29.6190  -12.2070 C   0  0  0  0  0
  -18.6440  -28.3750  -13.5680 C   0  0  0  0  0
  -20.0650  -27.1930  -15.1200 C   0  0  0  0  0
  -21.0000  -28.8200  -13.6290 C   0  0  0  0  0
  -19.7500  -29.0700  -13.0890 C   0  0  0  0  0
  -12.8880  -31.4360  -10.4150 C   0  0  0  0  0
  -15.0210  -32.0130  -12.0770 C   0  0  0  0  0
  -17.9330  -23.8480  -13.6220 C   0  0  0  0  0
  -18.3360  -22.5990  -13.9950 C   0  0  0  0  0
  -16.5220  -25.6380  -10.9620 O   0  0  0  0  0
  -16.4240  -27.6520  -12.8080 C   0  0  0  0  0
  -16.8530  -29.8250  -12.6390 N   0  0  0  0  0
  -17.3730  -28.6050  -13.0350 N   0  0  0  0  0
  -18.8180  -27.4430  -14.5880 C   0  0  0  0  0
  -21.1570  -27.8850  -14.6400 C   0  0  0  0  0
  -14.7580  -30.6920  -11.7070 C   0  0  0  0  0
  -13.6830  -30.4050  -10.8690 C   0  0  0  0  0
  -13.1500  -32.7430  -10.7830 C   0  0  0  0  0
  -14.2150  -33.0320  -11.6140 C   0  0  0  0  0
  -19.9027  -20.0553  -12.0968 H   0  0  0  0  0
  -18.3192  -19.4435  -11.5592 H   0  0  0  0  0
  -19.3504  -18.4421  -12.6103 H   0  0  0  0  0
  -18.9420  -20.4527  -15.6831 H   0  0  0  0  0
  -20.2893  -20.5539  -14.5231 H   0  0  0  0  0
  -19.6338  -18.9654  -14.9900 H   0  0  0  0  0
  -16.4294  -19.2728  -13.1597 H   0  0  0  0  0
  -16.6323  -19.7732  -14.8566 H   0  0  0  0  0
  -17.3956  -18.2739  -14.2731 H   0  0  0  0  0
  -16.8265  -20.7961  -11.5719 H   0  0  0  0  0
  -16.0976  -23.0412  -10.8714 H   0  0  0  0  0
  -16.8044  -26.0412  -14.0516 H   0  0  0  0  0
  -14.4049  -27.7629  -11.9913 H   0  0  0  0  0
  -20.1867  -26.4550  -15.9129 H   0  0  0  0  0
  -21.8682  -29.3632  -13.2558 H   0  0  0  0  0
  -19.6331  -29.8064  -12.2939 H   0  0  0  0  0
  -12.0446  -31.2187   -9.7595 H   0  0  0  0  0
  -15.8630  -32.2385  -12.7315 H   0  0  0  0  0
  -18.2651  -24.7173  -14.1896 H   0  0  0  0  0
  -18.9628  -22.4729  -14.8778 H   0  0  0  0  0
  -17.9534  -26.9019  -14.9723 H   0  0  0  0  0
  -22.1463  -27.6961  -15.0568 H   0  0  0  0  0
  -13.4726  -29.3766  -10.5754 H   0  0  0  0  0
  -12.5137  -33.5483  -10.4159 H   0  0  0  0  0
  -14.4179  -34.0632  -11.9032 H   0  0  0  0  0
  2  1  1  0  0  0
  2  3  1  0  0  0
  2  4  1  0  0  0
  5  2  1  0  0  0
  6  5  4  0  0  0
 20  5  4  0  0  0
  7  6  4  0  0  0
  8  7  4  0  0  0
  9  8  1  0  0  0
  8 19  4  0  0  0
 10  9  1  0  0  0
  9 21  2  0  0  0
 22 10  1  0  0  0
 12 11  4  0  0  0
 11 22  4  0  0  0
 12 23  4  0  0  0
 27 12  1  0  0  0
 13 16  4  0  0  0
 24 13  1  0  0  0
 13 25  4  0  0  0
 25 14  4  0  0  0
 14 26  4  0  0  0
 16 15  4  0  0  0
 15 26  4  0  0  0
 28 17  4  0  0  0
 17 29  4  0  0  0
 27 18  4  0  0  0
 18 30  4  0  0  0
 19 20  4  0  0  0
 24 22  4  0  0  0
 23 24  4  0  0  0
 27 28  4  0  0  0
 29 30  4  0  0  0
  1 31  1  0  0  0
  1 32  1  0  0  0
  1 33  1  0  0  0
  3 34  1  0  0  0
  3 35  1  0  0  0
  3 36  1  0  0  0
  4 37  1  0  0  0
  4 38  1  0  0  0
  4 39  1  0  0  0
  6 40  1  0  0  0
  7 41  1  0  0  0
 10 42  1  0  0  0
 11 43  1  0  0  0
 14 44  1  0  0  0
 15 45  1  0  0  0
 16 46  1  0  0  0
 17 47  1  0  0  0
 18 48  1  0  0  0
 19 49  1  0  0  0
 20 50  1  0  0  0
 25 51  1  0  0  0
 26 52  1  0  0  0
 28 53  1  0  0  0
 29 54  1  0  0  0
 30 55  1  0  0  0
M  END
$$$$
