6g5j_ligand
  -I-interpret- 

 46 48  0  0  0  0  0  0  0  0999 V2000
   -4.2290    1.2170   -0.8940 C   0  0  0  0  0
   -4.7520    0.7330    0.4570 C   0  0  0  0  0
   -4.3810    1.7630    1.5270 C   0  0  0  0  0
   -6.3350    1.4630    2.8510 O   0  0  0  0  0
   -4.1170   -0.6150    0.6860 C   0  0  0  0  0
   -4.8850   -1.7740    0.6360 C   0  0  0  0  0
   -4.2990   -3.0140    0.8360 C   0  0  0  0  0
   -2.9380   -3.1140    1.0800 C   0  0  0  0  0
   -2.1710   -1.9550    1.1350 C   0  0  0  0  0
   -2.7610   -0.7130    0.9220 C   0  0  0  0  0
    0.1350   -2.6220    0.5700 C   0  0  0  0  0
    0.0310   -3.4450   -0.5520 C   0  0  0  0  0
    1.1840   -3.9660   -1.1140 C   0  0  0  0  0
    1.4090   -2.3340    1.1040 C   0  0  0  0  0
    1.2150   -1.4890    2.2180 C   0  0  0  0  0
   -0.1200   -1.2760    2.3400 C   0  0  0  0  0
   -0.7490   -0.4560    3.3800 C   0  0  0  0  0
   -5.1280    1.5160    2.8120 C   0  0  0  0  0
   -4.4570    1.3660    3.9560 O   0  0  0  0  0
   -0.7890   -1.9700    1.3520 N   0  0  0  0  0
    2.4360   -3.6650   -0.5860 C   0  0  0  0  0
    2.5550   -2.8720    0.5140 C   0  0  0  0  0
   -1.7210   -0.8860    3.9940 O   0  0  0  0  0
   -0.2430    0.7580    3.6600 N   0  0  0  0  0
    1.1430   -4.7710   -2.2100 O   0  0  0  0  0
   -0.0570   -5.4530   -2.5320 C   0  0  0  0  0
    0.2360   -6.3890   -3.5220 F   0  0  0  0  0
   -0.9880   -4.5340   -3.0010 F   0  0  0  0  0
   -0.5480   -6.1140   -1.4100 F   0  0  0  0  0
   -3.1424    1.2932   -0.8554 H   0  0  0  0  0
   -4.5174    0.5072   -1.6693 H   0  0  0  0  0
   -4.6553    2.1948   -1.1181 H   0  0  0  0  0
   -5.8365    0.6300    0.4933 H   0  0  0  0  0
   -4.6449    2.7544    1.1588 H   0  0  0  0  0
   -3.3125    1.6837    1.7275 H   0  0  0  0  0
   -5.9548   -1.7064    0.4382 H   0  0  0  0  0
   -4.9113   -3.9151    0.8013 H   0  0  0  0  0
   -2.4744   -4.0895    1.2270 H   0  0  0  0  0
   -2.1482    0.1882    0.9417 H   0  0  0  0  0
   -0.9447   -3.6746   -0.9802 H   0  0  0  0  0
    1.9944   -1.0821    2.8622 H   0  0  0  0  0
   -3.5147    1.4292    3.7836 H   0  0  0  0  0
    3.3314   -4.0688   -1.0586 H   0  0  0  0  0
    3.5387   -2.6581    0.9319 H   0  0  0  0  0
   -0.6672    1.3316    4.3890 H   0  0  0  0  0
    0.5650    1.1053    3.1434 H   0  0  0  0  0
  2  1  1  0  0  0
  2  3  1  0  0  0
  5  2  1  0  0  0
  3 18  1  0  0  0
 18  4  2  0  0  0
  5  6  4  0  0  0
 10  5  4  0  0  0
  7  6  4  0  0  0
  8  7  4  0  0  0
  9  8  4  0  0  0
  9 10  4  0  0  0
 20  9  1  0  0  0
 11 12  4  0  0  0
 11 14  4  0  0  0
 11 20  4  0  0  0
 12 13  4  0  0  0
 13 21  4  0  0  0
 13 25  1  0  0  0
 14 15  4  0  0  0
 14 22  4  0  0  0
 15 16  4  0  0  0
 16 17  1  0  0  0
 16 20  4  0  0  0
 17 23  2  0  0  0
 17 24  1  0  0  0
 18 19  1  0  0  0
 21 22  4  0  0  0
 25 26  1  0  0  0
 26 27  1  0  0  0
 26 28  1  0  0  0
 26 29  1  0  0  0
  1 30  1  0  0  0
  1 31  1  0  0  0
  1 32  1  0  0  0
  2 33  1  0  0  0
  3 34  1  0  0  0
  3 35  1  0  0  0
  6 36  1  0  0  0
  7 37  1  0  0  0
  8 38  1  0  0  0
 10 39  1  0  0  0
 12 40  1  0  0  0
 15 41  1  0  0  0
 19 42  1  0  0  0
 21 43  1  0  0  0
 22 44  1  0  0  0
 24 45  1  0  0  0
 24 46  1  0  0  0
M  END
$$$$
