1o4q_ligand
  -I-interpret- 

 22 22  0  0  0  0  0  0  0  0999 V2000
   19.2570   25.6420   20.2430 C   0  0  0  0  0
   18.2100   24.7790   19.9800 C   0  0  0  0  0
   17.2820   25.1710   19.0340 C   0  0  0  0  0
   17.4230   26.4420   18.4450 C   0  0  0  0  0
   18.5210   27.2830   18.6850 C   0  0  0  0  0
   19.4480   26.8930   19.6280 C   0  0  0  0  0
   16.3750   26.9920   17.5700 C   0  0  0  0  0
   16.8680   27.1890   16.0860 C   0  0  0  0  0
   16.4340   26.0580   15.3950 O   0  0  0  0  0
   15.4940   28.4450   18.0420 S   0  0  0  0  0
   14.4060   28.5190   16.8500 O   0  0  0  0  0
   17.4130   28.1450   15.5810 O   0  0  0  0  0
   16.3730   29.6100   17.9990 O   0  0  0  0  0
   14.9320   28.2490   19.3570 O   0  0  0  0  0
   19.9920   25.3291   20.9846 H   0  0  0  0  0
   18.1196   23.8249   20.4993 H   0  0  0  0  0
   16.4610   24.5123   18.7508 H   0  0  0  0  0
   18.6376   28.2198   18.1401 H   0  0  0  0  0
   20.2950   27.5284   19.8868 H   0  0  0  0  0
   15.6438   26.1912   17.6806 H   0  0  0  0  0
   16.0345   25.4409   16.0124 H   0  0  0  0  0
   13.8357   27.7478   16.8905 H   0  0  0  0  0
  1  2  4  0  0  0
  1  6  4  0  0  0
  2  3  4  0  0  0
  3  4  4  0  0  0
  4  5  4  0  0  0
  4  7  1  0  0  0
  5  6  4  0  0  0
  7  8  1  0  0  0
  7 10  1  0  0  0
  8  9  1  0  0  0
  8 12  2  0  0  0
 10 11  1  0  0  0
 10 13  2  0  0  0
 10 14  2  0  0  0
  1 15  1  0  0  0
  2 16  1  0  0  0
  3 17  1  0  0  0
  5 18  1  0  0  0
  6 19  1  0  0  0
  7 20  1  0  0  0
  9 21  1  0  0  0
 11 22  1  0  0  0
M  END
$$$$
