6b59_ligand
  -I-interpret- 

 43 45  0  0  0  0  0  0  0  0999 V2000
   -1.4820    8.4730   14.0990 C   0  0  0  0  0
   -1.0110    9.2830   12.9390 C   0  0  0  0  0
   -2.0320   11.4480   13.1060 C   0  0  0  0  0
   -0.6020   12.2780   14.4730 C   0  0  0  0  0
   -0.2680   11.0200   14.1880 C   0  0  0  0  0
    0.2470   12.9460   15.3410 C   0  0  0  0  0
   -6.0760    3.5380   15.6450 C   0  0  0  0  0
   -5.5530    4.5690   14.9240 C   0  0  0  0  0
   -4.2590    4.5210   14.5650 C   0  0  0  0  0
   -3.4620    3.4770   14.8870 C   0  0  0  0  0
   -3.9930    2.4650   15.6020 C   0  0  0  0  0
   -5.2820    2.5060   15.9840 C   0  0  0  0  0
   -3.7070    5.6610   13.7310 C   0  0  0  0  0
   -2.9870    6.6800   14.5580 C   0  0  0  0  0
    1.5470   11.1340   15.4920 C   0  0  0  0  0
   -2.4210    7.5900   13.6400 N   0  0  0  0  0
   -1.1560   10.5720   13.3880 N   0  0  0  0  0
   -1.7150   12.5340   13.7440 N   0  0  0  0  0
    1.2880   12.3620   15.8100 N   0  0  0  0  0
    0.8280   10.4630   14.7030 N   0  0  0  0  0
    0.0360   14.2950   15.7630 N   0  0  0  0  0
   -5.1690   -0.2550   16.3590 N   0  0  0  0  0
   -1.1490    8.6340   15.1780 O   0  0  0  0  0
   -5.4480    1.2760   18.1840 O   0  0  0  0  0
   -7.2100    1.1260   16.8780 O   0  0  0  0  0
   -5.9250    1.0860   16.9440 S   0  0  0  0  0
   -1.5750    9.0857   12.0274 H   0  0  0  0  0
    0.0125    9.0488   12.6461 H   0  0  0  0  0
   -2.8915   11.3130   12.4494 H   0  0  0  0  0
   -7.1243    3.5491   15.9434 H   0  0  0  0  0
   -6.1744    5.4193   14.6429 H   0  0  0  0  0
   -2.4174    3.4544   14.5765 H   0  0  0  0  0
   -3.3745    1.6090   15.8720 H   0  0  0  0  0
   -4.5456    6.1565   13.2418 H   0  0  0  0  0
   -2.9959    5.2428   13.0185 H   0  0  0  0  0
   -2.2213    6.2165   15.1801 H   0  0  0  0  0
   -3.6656    7.1826   15.2472 H   0  0  0  0  0
    2.4266   10.6586   15.9261 H   0  0  0  0  0
   -2.7044    7.5895   12.6602 H   0  0  0  0  0
   -0.7728   14.8152   15.4229 H   0  0  0  0  0
    0.6942   14.7376   16.4043 H   0  0  0  0  0
   -4.4894   -0.7501   16.9364 H   0  0  0  0  0
   -5.3804   -0.5905   15.4192 H   0  0  0  0  0
  1  2  1  0  0  0
 16  1  1  0  0  0
  1 23  2  0  0  0
  2 17  1  0  0  0
 17  3  4  0  0  0
  3 18  4  0  0  0
  5  4  4  0  0  0
  4  6  4  0  0  0
  4 18  4  0  0  0
 17  5  4  0  0  0
  5 20  4  0  0  0
  6 19  4  0  0  0
  6 21  1  0  0  0
  8  7  4  0  0  0
  7 12  4  0  0  0
  9  8  4  0  0  0
  9 10  4  0  0  0
 13  9  1  0  0  0
 10 11  4  0  0  0
 11 12  4  0  0  0
 12 26  1  0  0  0
 14 13  1  0  0  0
 14 16  1  0  0  0
 19 15  4  0  0  0
 15 20  4  0  0  0
 26 22  1  0  0  0
 26 24  2  0  0  0
 26 25  2  0  0  0
  2 27  1  0  0  0
  2 28  1  0  0  0
  3 29  1  0  0  0
  7 30  1  0  0  0
  8 31  1  0  0  0
 10 32  1  0  0  0
 11 33  1  0  0  0
 13 34  1  0  0  0
 13 35  1  0  0  0
 14 36  1  0  0  0
 14 37  1  0  0  0
 15 38  1  0  0  0
 16 39  1  0  0  0
 21 40  1  0  0  0
 21 41  1  0  0  0
 22 42  1  0  0  0
 22 43  1  0  0  0
M  END
$$$$
