### 
### Created by X-TOOL on Mon Sep 10 21:13:11 2018
### 

@<TRIPOS>MOLECULE
4ea3_ligand
   67    71     1     0     0
SMALL
GAST_HUCK


@<TRIPOS>ATOM
      1 C4          7.9640  -52.2470   -4.4300 C.ar      1 0NN        -0.0405
      2 C3          7.1050  -52.2540   -3.2070 C.ar      1 0NN        -0.0394
      3 C2          7.6100  -52.7070   -2.0060 C.ar      1 0NN        -0.0436
      4 O2         10.7760  -59.0970    4.7240 O.2       1 0NN        -0.3990
      5 C1          9.0350  -53.1980   -1.9250 C.ar      1 0NN        -0.0184
      6 O1         10.9150  -54.3840   -1.4420 O.3       1 0NN        -0.3936
      7 N1         10.4950  -54.5090    2.0090 N.4       1 0NN         0.4019
      8 C10        10.4080  -55.5080    0.9330 C.3       1 0NN        -0.1189
      9 C11        10.2280  -52.6930    0.3050 C.3       1 0NN        -0.0696
     10 C12        11.0960  -53.2540    1.4660 C.3       1 0NN        -0.1189
     11 C13        11.3050  -54.9870    3.1150 C.3       1 0NN        -0.1113
     12 C14        10.4880  -55.8360    4.0680 C.3       1 0NN        -0.0514
     13 C15        11.3950  -56.3960    5.1560 C.3       1 0NN         0.0290
     14 C16        10.3720  -58.6420    5.7750 C.2       1 0NN         0.1588
     15 C17         9.5890  -59.5630    6.7530 C.3       1 0NN        -0.0030
     16 C18        10.4290  -59.9690    7.9000 C.3       1 0NN        -0.0535
     17 C19        10.0660  -59.0180    8.9990 C.3       1 0NN        -0.0708
     18 N2         10.6430  -57.2350    6.1080 N.am      1 0NN        -0.2885
     19 C20         8.6070  -58.6660    8.7480 C.3       1 0NN        -0.1066
     20 C21         7.8240  -57.8290    6.5830 C.3       1 0NN        -0.0727
     21 C22         7.5230  -58.2130    5.1250 C.ar      1 0NN        -0.0629
     22 C23         7.5840  -57.2540    4.1460 C.ar      1 0NN        -0.0623
     23 C24         7.2910  -57.6190    2.7100 C.ar      1 0NN        -0.0686
     24 C25         6.9670  -58.9050    2.3890 C.ar      1 0NN        -0.0687
     25 C26         6.9000  -59.9590    3.4640 C.ar      1 0NN        -0.0686
     26 C27         7.1640  -59.6300    4.7700 C.ar      1 0NN        -0.0623
     27 N3          8.3820  -58.9780    7.3330 N.4       1 0NN         0.4209
     28 C5          9.2640  -52.6960   -4.3560 C.ar      1 0NN        -0.0272
     29 C6          9.8160  -53.1930   -3.0380 C.ar      1 0NN         0.0101
     30 C7         11.1640  -53.7340   -2.6510 C.3       1 0NN         0.0857
     31 C8          9.8670  -53.7470   -0.7630 C.3       1 0NN         0.0538
     32 C9          9.4350  -55.0380   -0.1110 C.3       1 0NN        -0.0696
     33 H           7.5629  -51.8876   -5.3777 H         1 0NN         0.0834
     34 H           6.0757  -51.8999   -3.2643 H         1 0NN         0.0648
     35 H           6.9805  -52.7104   -1.1162 H         1 0NN         0.0818
     36 H          10.0668  -56.4573    1.3459 H         1 0NN         0.0009
     37 H          11.3906  -55.6400    0.4801 H         1 0NN         0.0009
     38 H          10.8079  -51.9132   -0.1888 H         1 0NN         0.0167
     39 H           9.2944  -52.3349    0.7389 H         1 0NN         0.0167
     40 H          12.0942  -53.4742    1.0875 H         1 0NN         0.0009
     41 H          11.1451  -52.5114    2.2624 H         1 0NN         0.0009
     42 H          11.6907  -54.1258    3.6606 H         1 0NN         0.0018
     43 H          12.1150  -55.5964    2.7143 H         1 0NN         0.0018
     44 H          10.0292  -56.6584    3.5191 H         1 0NN         0.0265
     45 H           9.7100  -55.2235    4.5238 H         1 0NN         0.0265
     46 H          11.8337  -55.5615    5.7031 H         1 0NN         0.0519
     47 H          12.1611  -57.0112    4.6840 H         1 0NN         0.0519
     48 H           9.3021  -60.4013    6.1182 H         1 0NN         0.0296
     49 H          11.4913  -59.9238    7.6599 H         1 0NN         0.0272
     50 H          10.2501  -61.0055    8.1860 H         1 0NN         0.0272
     51 H          10.7021  -58.1328    8.9942 H         1 0NN         0.0247
     52 H          10.2109  -59.4633    9.9833 H         1 0NN         0.0247
     53 H          10.3136  -56.8428    6.9901 H         1 0NN         0.1850
     54 H           8.3991  -57.6193    8.9699 H         1 0NN         0.0023
     55 H           7.9371  -59.2287    9.3982 H         1 0NN         0.0023
     56 H           6.8947  -57.5188    7.0609 H         1 0NN         0.0185
     57 H           8.5560  -57.0214    6.5869 H         1 0NN         0.0185
     58 H           7.8442  -56.2276    4.4047 H         1 0NN         0.0556
     59 H           7.3383  -56.8570    1.9320 H         1 0NN         0.0599
     60 H           6.7562  -59.1705    1.3530 H         1 0NN         0.0559
     61 H           6.6412  -60.9853    3.2036 H         1 0NN         0.0599
     62 H           7.1137  -60.3927    5.5471 H         1 0NN         0.0556
     63 H           9.8940  -52.6933   -5.2455 H         1 0NN         0.0636
     64 H          11.5813  -54.3995   -3.4066 H         1 0NN         0.0793
     65 H          11.9187  -52.9529   -2.5594 H         1 0NN         0.0793
     66 H           8.4758  -54.8643    0.3767 H         1 0NN         0.0167
     67 H           9.3764  -55.8030   -0.8852 H         1 0NN         0.0167
@<TRIPOS>BOND
     1    2    1 ar 
     2    1   28 ar 
     3    3    2 ar 
     4    5    3 ar 
     5   14    4 2  
     6    5   29 ar 
     7   31    5 1  
     8    6   30 1  
     9   31    6 1  
    10    7    8 1  
    11    7   10 1  
    12   11    7 1  
    13    8   32 1  
    14   10    9 1  
    15    9   31 1  
    16   12   11 1  
    17   13   12 1  
    18   18   13 1  
    19   15   14 1  
    20   14   18 am 
    21   15   16 1  
    22   27   15 1  
    23   17   16 1  
    24   19   17 1  
    25   27   19 1  
    26   20   21 1  
    27   20   27 1  
    28   21   22 ar 
    29   21   26 ar 
    30   22   23 ar 
    31   23   24 ar 
    32   24   25 ar 
    33   25   26 ar 
    34   28   29 ar 
    35   29   30 1  
    36   31   32 1  
    37    1   33 1  
    38    2   34 1  
    39    3   35 1  
    40    8   36 1  
    41    8   37 1  
    42    9   38 1  
    43    9   39 1  
    44   10   40 1  
    45   10   41 1  
    46   11   42 1  
    47   11   43 1  
    48   12   44 1  
    49   12   45 1  
    50   13   46 1  
    51   13   47 1  
    52   15   48 1  
    53   16   49 1  
    54   16   50 1  
    55   17   51 1  
    56   17   52 1  
    57   18   53 1  
    58   19   54 1  
    59   19   55 1  
    60   20   56 1  
    61   20   57 1  
    62   22   58 1  
    63   23   59 1  
    64   24   60 1  
    65   25   61 1  
    66   26   62 1  
    67   28   63 1  
    68   30   64 1  
    69   30   65 1  
    70   32   66 1  
    71   32   67 1  
@<TRIPOS>SUBSTRUCTURE
     1 0NN         1

