4ea3_ligand
  -I-interpret- 

 69 73  0  0  0  0  0  0  0  0999 V2000
    7.9640  -52.2470   -4.4300 C   0  0  0  0  0
    7.1050  -52.2540   -3.2070 C   0  0  0  0  0
    7.6100  -52.7070   -2.0060 C   0  0  0  0  0
   10.7760  -59.0970    4.7240 O   0  0  0  0  0
    9.0350  -53.1980   -1.9250 C   0  0  0  0  0
   10.9150  -54.3840   -1.4420 O   0  0  0  0  0
   10.4950  -54.5090    2.0090 N   0  3  0  0  0
   10.4080  -55.5080    0.9330 C   0  0  0  0  0
   10.2280  -52.6930    0.3050 C   0  0  0  0  0
   11.0960  -53.2540    1.4660 C   0  0  0  0  0
   11.3050  -54.9870    3.1150 C   0  0  0  0  0
   10.4880  -55.8360    4.0680 C   0  0  0  0  0
   11.3950  -56.3960    5.1560 C   0  0  0  0  0
   10.3720  -58.6420    5.7750 C   0  0  0  0  0
    9.5890  -59.5630    6.7530 C   0  0  0  0  0
   10.4290  -59.9690    7.9000 C   0  0  0  0  0
   10.0660  -59.0180    8.9990 C   0  0  0  0  0
   10.6430  -57.2350    6.1080 N   0  0  0  0  0
    8.6070  -58.6660    8.7480 C   0  0  0  0  0
    7.8240  -57.8290    6.5830 C   0  0  0  0  0
    7.5230  -58.2130    5.1250 C   0  0  0  0  0
    7.5840  -57.2540    4.1460 C   0  0  0  0  0
    7.2910  -57.6190    2.7100 C   0  0  0  0  0
    6.9670  -58.9050    2.3890 C   0  0  0  0  0
    6.9000  -59.9590    3.4640 C   0  0  0  0  0
    7.1640  -59.6300    4.7700 C   0  0  0  0  0
    8.3820  -58.9780    7.3330 N   0  3  0  0  0
    9.2640  -52.6960   -4.3560 C   0  0  0  0  0
    9.8160  -53.1930   -3.0380 C   0  0  0  0  0
   11.1640  -53.7340   -2.6510 C   0  0  0  0  0
    9.8670  -53.7470   -0.7630 C   0  0  0  0  0
    9.4350  -55.0380   -0.1110 C   0  0  0  0  0
    7.5629  -51.8876   -5.3777 H   0  0  0  0  0
    6.0757  -51.8999   -3.2643 H   0  0  0  0  0
    6.9805  -52.7104   -1.1162 H   0  0  0  0  0
    9.5527  -54.3331    2.3575 H   0  0  0  0  0
   10.0668  -56.4573    1.3459 H   0  0  0  0  0
   11.3906  -55.6400    0.4801 H   0  0  0  0  0
   10.8079  -51.9132   -0.1888 H   0  0  0  0  0
    9.2944  -52.3349    0.7389 H   0  0  0  0  0
   12.0942  -53.4742    1.0875 H   0  0  0  0  0
   11.1451  -52.5114    2.2624 H   0  0  0  0  0
   11.6907  -54.1258    3.6606 H   0  0  0  0  0
   12.1150  -55.5964    2.7143 H   0  0  0  0  0
   10.0292  -56.6584    3.5191 H   0  0  0  0  0
    9.7100  -55.2235    4.5238 H   0  0  0  0  0
   11.8337  -55.5615    5.7031 H   0  0  0  0  0
   12.1611  -57.0112    4.6840 H   0  0  0  0  0
    9.3021  -60.4013    6.1182 H   0  0  0  0  0
   11.4913  -59.9238    7.6599 H   0  0  0  0  0
   10.2501  -61.0055    8.1860 H   0  0  0  0  0
   10.7021  -58.1328    8.9942 H   0  0  0  0  0
   10.2109  -59.4633    9.9833 H   0  0  0  0  0
   10.3136  -56.8428    6.9901 H   0  0  0  0  0
    8.3991  -57.6193    8.9699 H   0  0  0  0  0
    7.9371  -59.2287    9.3982 H   0  0  0  0  0
    6.8947  -57.5188    7.0609 H   0  0  0  0  0
    8.5560  -57.0214    6.5869 H   0  0  0  0  0
    7.8442  -56.2276    4.4047 H   0  0  0  0  0
    7.3383  -56.8570    1.9320 H   0  0  0  0  0
    6.7562  -59.1705    1.3530 H   0  0  0  0  0
    6.6412  -60.9853    3.2036 H   0  0  0  0  0
    7.1137  -60.3927    5.5471 H   0  0  0  0  0
    7.6540  -59.6885    7.2584 H   0  0  0  0  0
    9.8940  -52.6933   -5.2455 H   0  0  0  0  0
   11.5813  -54.3995   -3.4066 H   0  0  0  0  0
   11.9187  -52.9529   -2.5594 H   0  0  0  0  0
    8.4758  -54.8643    0.3767 H   0  0  0  0  0
    9.3764  -55.8030   -0.8852 H   0  0  0  0  0
  2  1  4  0  0  0
  1 28  4  0  0  0
  3  2  4  0  0  0
  5  3  4  0  0  0
 14  4  2  0  0  0
  5 29  4  0  0  0
 31  5  1  0  0  0
  6 30  1  0  0  0
 31  6  1  0  0  0
  7  8  1  0  0  0
  7 10  1  0  0  0
 11  7  1  0  0  0
  8 32  1  0  0  0
 10  9  1  0  0  0
  9 31  1  0  0  0
 12 11  1  0  0  0
 13 12  1  0  0  0
 18 13  1  0  0  0
 15 14  1  0  0  0
 14 18  1  0  0  0
 15 16  1  0  0  0
 27 15  1  0  0  0
 17 16  1  0  0  0
 19 17  1  0  0  0
 27 19  1  0  0  0
 20 21  1  0  0  0
 20 27  1  0  0  0
 21 22  4  0  0  0
 21 26  4  0  0  0
 22 23  4  0  0  0
 23 24  4  0  0  0
 24 25  4  0  0  0
 25 26  4  0  0  0
 28 29  4  0  0  0
 29 30  1  0  0  0
 31 32  1  0  0  0
  1 33  1  0  0  0
  2 34  1  0  0  0
  3 35  1  0  0  0
  7 36  1  0  0  0
  8 37  1  0  0  0
  8 38  1  0  0  0
  9 39  1  0  0  0
  9 40  1  0  0  0
 10 41  1  0  0  0
 10 42  1  0  0  0
 11 43  1  0  0  0
 11 44  1  0  0  0
 12 45  1  0  0  0
 12 46  1  0  0  0
 13 47  1  0  0  0
 13 48  1  0  0  0
 15 49  1  0  0  0
 16 50  1  0  0  0
 16 51  1  0  0  0
 17 52  1  0  0  0
 17 53  1  0  0  0
 18 54  1  0  0  0
 19 55  1  0  0  0
 19 56  1  0  0  0
 20 57  1  0  0  0
 20 58  1  0  0  0
 22 59  1  0  0  0
 23 60  1  0  0  0
 24 61  1  0  0  0
 25 62  1  0  0  0
 26 63  1  0  0  0
 27 64  1  0  0  0
 28 65  1  0  0  0
 30 66  1  0  0  0
 30 67  1  0  0  0
 32 68  1  0  0  0
 32 69  1  0  0  0
M  END
$$$$
