4d08_ligand
  -I-interpret- 

 61 65  0  0  0  0  0  0  0  0999 V2000
   -5.9560   26.6080   18.7600 C   0  0  0  0  0
   -5.9650   25.1050   18.5910 C   0  0  0  0  0
   -4.5730   24.4930   18.6630 C   0  0  0  0  0
   -4.5510   23.0350   18.2730 C   0  0  0  0  0
   -3.1880   22.6400   18.0350 O   0  0  0  0  0
   -2.3630   22.3810   19.1020 C   0  0  0  0  0
   -1.0570   22.0360   18.7890 C   0  0  0  0  0
   -0.1280   21.7750   19.7160 N   0  0  0  0  0
   -0.4950   21.8430   20.9990 C   0  0  0  0  0
   -2.7240   22.4490   20.4390 C   0  0  0  0  0
   -1.7790   22.1670   21.4160 C   0  0  0  0  0
   -2.1980   22.1360   22.8250 C   0  0  0  0  0
   -3.1530   21.3520   23.2720 N   0  0  0  0  0
   -3.1620   21.4210   24.6600 N   0  0  0  0  0
   -2.2070   22.2610   25.0180 C   0  0  0  0  0
   -1.7460   22.6460   26.3170 C   0  0  0  0  0
   -2.4230   22.0660   27.5150 C   0  0  0  0  0
   -0.7690   23.4690   26.4730 N   0  0  0  0  0
   -1.5840   22.7770   23.8820 N   0  0  0  0  0
   -0.5440   23.7430   24.0460 C   0  0  0  0  0
    0.0220   24.4600   22.9920 C   0  0  0  0  0
    0.9590   25.4650   23.2120 C   0  0  0  0  0
    1.3670   25.7120   24.5130 C   0  0  0  0  0
    0.8170   25.0230   25.5790 C   0  0  0  0  0
   -0.1590   24.0470   25.3660 C   0  0  0  0  0
    1.3970   26.3750   22.0860 C   0  0  0  0  0
    2.3320   25.7910   21.1070 N   0  3  0  0  0
    2.8820   24.5020   21.5440 C   0  0  0  0  0
    3.8230   23.9610   20.4980 C   0  0  0  0  0
    4.8860   24.8680   20.2280 O   0  0  0  0  0
    4.3610   26.1170   19.7960 C   0  0  0  0  0
    3.4380   26.7140   20.8220 C   0  0  0  0  0
   -5.5312   26.8606   19.7315 H   0  0  0  0  0
   -5.3535   27.0575   17.9706 H   0  0  0  0  0
   -6.9768   26.9853   18.6992 H   0  0  0  0  0
   -6.3760   24.8830   17.6062 H   0  0  0  0  0
   -6.5572   24.6821   19.4025 H   0  0  0  0  0
   -4.2301   24.5666   19.6950 H   0  0  0  0  0
   -3.9351   25.0341   17.9641 H   0  0  0  0  0
   -5.1424   22.8850   17.3698 H   0  0  0  0  0
   -4.9762   22.4314   19.0749 H   0  0  0  0  0
   -0.7737   21.9745   17.7382 H   0  0  0  0  0
    0.2556   21.6323   21.7608 H   0  0  0  0  0
   -3.7411   22.7216   20.7205 H   0  0  0  0  0
   -3.4783   22.3384   27.5018 H   0  0  0  0  0
   -2.3263   20.9805   27.4954 H   0  0  0  0  0
   -1.9568   22.4573   28.4192 H   0  0  0  0  0
   -0.2772   24.2272   21.9701 H   0  0  0  0  0
    2.1350   26.4626   24.6998 H   0  0  0  0  0
    1.1481   25.2437   26.5938 H   0  0  0  0  0
    1.9241   27.2069   22.5531 H   0  0  0  0  0
    0.4942   26.6307   21.5312 H   0  0  0  0  0
    1.7873   25.6293   20.2599 H   0  0  0  0  0
    2.0653   23.7953   21.6912 H   0  0  0  0  0
    3.4267   24.6428   22.4776 H   0  0  0  0  0
    3.2609   23.8061   19.5770 H   0  0  0  0  0
    4.2514   23.0301   20.8694 H   0  0  0  0  0
    3.7964   25.9543   18.8780 H   0  0  0  0  0
    5.1923   26.8043   19.6392 H   0  0  0  0  0
    3.9958   26.8969   21.7404 H   0  0  0  0  0
    3.0320   27.6490   20.4358 H   0  0  0  0  0
  1  2  1  0  0  0
  2  3  1  0  0  0
  3  4  1  0  0  0
  4  5  1  0  0  0
  5  6  1  0  0  0
  6  7  4  0  0  0
  6 10  4  0  0  0
  7  8  4  0  0  0
  8  9  4  0  0  0
  9 11  4  0  0  0
 10 11  4  0  0  0
 11 12  1  0  0  0
 12 13  4  0  0  0
 12 19  4  0  0  0
 13 14  4  0  0  0
 14 15  4  0  0  0
 15 16  4  0  0  0
 15 19  4  0  0  0
 16 17  1  0  0  0
 16 18  4  0  0  0
 18 25  4  0  0  0
 19 20  4  0  0  0
 20 21  4  0  0  0
 20 25  4  0  0  0
 21 22  4  0  0  0
 22 23  4  0  0  0
 22 26  1  0  0  0
 23 24  4  0  0  0
 24 25  4  0  0  0
 26 27  1  0  0  0
 27 28  1  0  0  0
 27 32  1  0  0  0
 28 29  1  0  0  0
 29 30  1  0  0  0
 30 31  1  0  0  0
 31 32  1  0  0  0
  1 33  1  0  0  0
  1 34  1  0  0  0
  1 35  1  0  0  0
  2 36  1  0  0  0
  2 37  1  0  0  0
  3 38  1  0  0  0
  3 39  1  0  0  0
  4 40  1  0  0  0
  4 41  1  0  0  0
  7 42  1  0  0  0
  9 43  1  0  0  0
 10 44  1  0  0  0
 17 45  1  0  0  0
 17 46  1  0  0  0
 17 47  1  0  0  0
 21 48  1  0  0  0
 23 49  1  0  0  0
 24 50  1  0  0  0
 26 51  1  0  0  0
 26 52  1  0  0  0
 27 53  1  0  0  0
 28 54  1  0  0  0
 28 55  1  0  0  0
 29 56  1  0  0  0
 29 57  1  0  0  0
 31 58  1  0  0  0
 31 59  1  0  0  0
 32 60  1  0  0  0
 32 61  1  0  0  0
M  END
$$$$
