6dgo_ligand
  -I-interpret- 

 58 61  0  0  0  0  0  0  0  0999 V2000
   16.2680   62.2480    9.6900 C   0  0  0  0  0
   15.0540   63.0420   10.0790 C   0  0  0  0  0
   15.1740   64.5070    9.5940 C   0  0  0  0  0
   14.0130   65.2900    9.4560 C   0  0  0  0  0
   12.6500   64.6910    9.7890 C   0  0  0  0  0
   14.1090   66.6140    9.0160 C   0  0  0  0  0
   12.9560   67.3950    8.8800 O   0  0  0  0  0
   15.3690   67.1650    8.7100 C   0  0  0  0  0
   15.4680   68.6120    8.2300 C   0  0  0  0  0
   16.5210   66.3890    8.8470 C   0  0  0  0  0
   17.8800   66.9900    8.5100 C   0  0  0  0  0
   16.4300   65.0490    9.2920 C   0  0  0  0  0
   17.6440   64.2770    9.4140 O   0  0  0  0  0
   17.5430   62.9980   10.0050 C   0  0  0  0  0
   18.7270   62.1580    9.5480 C   0  0  0  0  0
   17.6230   63.1510   11.5370 C   0  0  0  0  0
   17.7370   61.8780   12.1000 O   0  0  0  0  0
   18.2310   61.9500   13.4010 C   0  0  0  0  0
   19.5920   61.8790   13.6160 C   0  0  0  0  0
   20.0880   61.9610   14.9010 C   0  0  0  0  0
   17.3590   62.1090   14.4590 C   0  0  0  0  0
   17.8540   62.1910   15.7450 C   0  0  0  0  0
   19.2180   62.1150   15.9590 C   0  0  0  0  0
   19.7690   62.2110   17.3740 C   0  0  0  0  0
   19.4600   63.6040   17.8830 C   0  0  0  0  0
   20.8050   64.2640   18.5790 S   0  0  0  0  0
   20.4020   64.6480   20.1100 C   0  0  0  0  0
   21.0890   65.2230   20.8830 O   0  0  0  0  0
   18.9280   64.1220   20.3910 N   0  0  0  0  0
   18.3240   63.4900   19.0550 C   0  0  0  0  0
   17.2490   63.0140   18.9270 O   0  0  0  0  0
   16.2314   62.0637    8.6163 H   0  0  0  0  0
   16.2668   61.3155   10.2543 H   0  0  0  0  0
   14.9659   63.0384   11.1654 H   0  0  0  0  0
   14.1765   62.5902    9.6164 H   0  0  0  0  0
   12.4670   63.8287    9.1478 H   0  0  0  0  0
   12.6373   64.3782   10.8331 H   0  0  0  0  0
   11.8753   65.4396    9.6232 H   0  0  0  0  0
   13.1987   68.2708    8.5707 H   0  0  0  0  0
   14.8959   68.7281    7.3095 H   0  0  0  0  0
   15.0658   69.2757    8.9954 H   0  0  0  0  0
   16.5127   68.8610    8.0438 H   0  0  0  0  0
   17.8895   67.3005    7.4652 H   0  0  0  0  0
   18.0622   67.8541    9.1489 H   0  0  0  0  0
   18.6570   66.2438    8.6757 H   0  0  0  0  0
   18.7095   62.0683    8.4618 H   0  0  0  0  0
   19.6541   62.6394    9.8592 H   0  0  0  0  0
   18.6624   61.1668    9.9968 H   0  0  0  0  0
   16.7265   63.6458   11.9104 H   0  0  0  0  0
   18.4871   63.7579   11.8073 H   0  0  0  0  0
   20.2731   61.7585   12.7736 H   0  0  0  0  0
   21.1620   61.9043   15.0785 H   0  0  0  0  0
   16.2855   62.1695   14.2801 H   0  0  0  0  0
   17.1733   62.3150   16.5872 H   0  0  0  0  0
   20.8439   62.0304   17.3799 H   0  0  0  0  0
   19.3111   61.4581   18.0156 H   0  0  0  0  0
   19.1227   64.2182   17.0481 H   0  0  0  0  0
   18.4432   64.1795   21.2866 H   0  0  0  0  0
  1  2  1  0  0  0
  1 14  1  0  0  0
  2  3  1  0  0  0
  3  4  4  0  0  0
  3 12  4  0  0  0
  4  5  1  0  0  0
  4  6  4  0  0  0
  6  7  1  0  0  0
  6  8  4  0  0  0
  8  9  1  0  0  0
  8 10  4  0  0  0
 10 11  1  0  0  0
 10 12  4  0  0  0
 12 13  1  0  0  0
 13 14  1  0  0  0
 14 15  1  0  0  0
 14 16  1  0  0  0
 16 17  1  0  0  0
 17 18  1  0  0  0
 18 19  4  0  0  0
 18 21  4  0  0  0
 19 20  4  0  0  0
 20 23  4  0  0  0
 21 22  4  0  0  0
 22 23  4  0  0  0
 23 24  1  0  0  0
 24 25  1  0  0  0
 25 26  1  0  0  0
 25 30  1  0  0  0
 26 27  1  0  0  0
 27 28  2  0  0  0
 27 29  1  0  0  0
 29 30  1  0  0  0
 30 31  2  0  0  0
  1 32  1  0  0  0
  1 33  1  0  0  0
  2 34  1  0  0  0
  2 35  1  0  0  0
  5 36  1  0  0  0
  5 37  1  0  0  0
  5 38  1  0  0  0
  7 39  1  0  0  0
  9 40  1  0  0  0
  9 41  1  0  0  0
  9 42  1  0  0  0
 11 43  1  0  0  0
 11 44  1  0  0  0
 11 45  1  0  0  0
 15 46  1  0  0  0
 15 47  1  0  0  0
 15 48  1  0  0  0
 16 49  1  0  0  0
 16 50  1  0  0  0
 19 51  1  0  0  0
 20 52  1  0  0  0
 21 53  1  0  0  0
 22 54  1  0  0  0
 24 55  1  0  0  0
 24 56  1  0  0  0
 25 57  1  0  0  0
 29 58  1  0  0  0
M  END
$$$$
