4uwh_ligand
  -I-interpret- 

 54 57  0  0  0  0  0  0  0  0999 V2000
   23.0710  -10.1100  -20.9490 C   0  0  0  0  0
   21.8600  -10.6990  -20.5360 C   0  0  0  0  0
   24.0210  -10.8650  -21.6800 C   0  0  0  0  0
   21.6020  -12.0540  -20.8670 C   0  0  0  0  0
   23.7710  -12.2230  -22.0130 C   0  0  0  0  0
   22.5540  -12.8340  -21.6100 C   0  0  0  0  0
   16.7210  -15.9400  -22.6570 C   0  0  0  0  0
   17.4220  -14.7640  -22.5230 C   0  0  0  0  0
   17.4300  -17.1920  -23.0780 C   0  0  0  0  0
   19.4710  -15.8110  -23.1590 C   0  0  0  0  0
   21.0510  -18.1650  -23.3250 C   0  0  0  0  0
   19.5760  -18.2670  -23.7080 C   0  0  0  0  0
   17.6980  -12.3000  -22.0370 C   0  0  0  0  0
   15.3840  -13.2410  -22.3810 C   0  0  0  0  0
   17.0860  -11.2850  -21.0890 C   0  0  0  0  0
   14.8830  -12.1010  -21.4930 C   0  0  0  0  0
   21.6610  -16.8540  -23.8650 C   0  0  0  0  0
   21.5590  -14.4070  -23.3010 C   0  0  0  0  0
   22.3010  -14.2870  -21.9670 C   0  0  0  0  0
   21.7480  -16.8460  -25.3860 C   0  0  0  0  0
   18.7870  -14.7590  -22.7710 N   0  0  0  0  0
   16.8230  -13.5260  -22.1430 N   0  0  0  0  0
   18.8170  -17.0610  -23.3040 N   0  0  0  0  0
   20.8520  -15.6990  -23.4310 N   0  0  0  0  0
   16.8010  -18.2320  -23.1940 O   0  0  0  0  0
   15.7800  -10.9860  -21.5740 O   0  0  0  0  0
   21.5730  -14.9000  -20.9150 O   0  0  0  0  0
   22.3840  -17.9520  -25.8030 F   0  0  0  0  0
   20.5420  -16.8330  -26.0050 F   0  0  0  0  0
   22.4570  -15.7690  -25.8180 F   0  0  0  0  0
   23.2782   -9.0681  -20.7049 H   0  0  0  0  0
   21.1303  -10.1208  -19.9692 H   0  0  0  0  0
   24.9555  -10.3979  -21.9908 H   0  0  0  0  0
   20.6645  -12.5123  -20.5521 H   0  0  0  0  0
   24.5100  -12.7937  -22.5754 H   0  0  0  0  0
   15.6497  -15.9615  -22.4570 H   0  0  0  0  0
   21.5880  -19.0095  -23.7570 H   0  0  0  0  0
   21.1359  -18.1736  -22.2383 H   0  0  0  0  0
   19.1481  -19.1284  -23.1952 H   0  0  0  0  0
   19.5098  -18.3659  -24.7915 H   0  0  0  0  0
   18.6746  -12.5960  -21.6540 H   0  0  0  0  0
   17.7925  -11.8480  -23.0243 H   0  0  0  0  0
   15.2583  -12.9472  -23.4231 H   0  0  0  0  0
   14.8113  -14.1382  -22.1463 H   0  0  0  0  0
   17.6956  -10.3823  -21.0489 H   0  0  0  0  0
   17.0360  -11.6875  -20.0773 H   0  0  0  0  0
   14.8326  -12.4464  -20.4604 H   0  0  0  0  0
   13.8942  -11.7911  -21.8311 H   0  0  0  0  0
   22.6710  -16.7842  -23.4612 H   0  0  0  0  0
   22.2921  -14.3386  -24.1047 H   0  0  0  0  0
   20.8189  -13.6083  -23.3510 H   0  0  0  0  0
   23.2550  -14.8002  -22.0882 H   0  0  0  0  0
   19.2919  -13.8819  -22.6438 H   0  0  0  0  0
   22.0617  -14.8089  -20.0937 H   0  0  0  0  0
  2  1  4  0  0  0
  3  1  4  0  0  0
  4  2  4  0  0  0
  5  3  4  0  0  0
  6  4  4  0  0  0
  6  5  4  0  0  0
 19  6  1  0  0  0
  8  7  2  0  0  0
  9  7  1  0  0  0
 21  8  1  0  0  0
  8 22  1  0  0  0
 23  9  1  0  0  0
  9 25  2  0  0  0
 10 21  1  0  0  0
 10 23  4  0  0  0
 24 10  1  0  0  0
 11 12  1  0  0  0
 17 11  1  0  0  0
 23 12  1  0  0  0
 13 15  1  0  0  0
 22 13  1  0  0  0
 14 16  1  0  0  0
 22 14  1  0  0  0
 15 26  1  0  0  0
 16 26  1  0  0  0
 17 20  1  0  0  0
 24 17  1  0  0  0
 18 19  1  0  0  0
 18 24  1  0  0  0
 19 27  1  0  0  0
 20 28  1  0  0  0
 20 29  1  0  0  0
 20 30  1  0  0  0
  1 31  1  0  0  0
  2 32  1  0  0  0
  3 33  1  0  0  0
  4 34  1  0  0  0
  5 35  1  0  0  0
  7 36  1  0  0  0
 11 37  1  0  0  0
 11 38  1  0  0  0
 12 39  1  0  0  0
 12 40  1  0  0  0
 13 41  1  0  0  0
 13 42  1  0  0  0
 14 43  1  0  0  0
 14 44  1  0  0  0
 15 45  1  0  0  0
 15 46  1  0  0  0
 16 47  1  0  0  0
 16 48  1  0  0  0
 17 49  1  0  0  0
 18 50  1  0  0  0
 18 51  1  0  0  0
 19 52  1  0  0  0
 21 53  1  0  0  0
 27 54  1  0  0  0
M  END
$$$$
