5nwc_ligand
  -I-interpret- 

 29 31  0  0  0  0  0  0  0  0999 V2000
    7.4280   37.9470   12.8410 N   0  0  0  0  0
    7.4040   37.6570   14.1900 C   0  0  0  0  0
    8.1540   38.3010   14.9250 O   0  0  0  0  0
    6.5330   36.6550   14.6420 C   0  0  0  0  0
    6.4500   36.2960   15.9930 C   0  0  0  0  0
    5.5810   35.2800   16.3930 C   0  0  0  0  0
    4.8150   34.6110   15.4350 C   0  0  0  0  0
    4.8980   34.9620   14.0950 C   0  0  0  0  0
    5.7690   35.9700   13.6890 C   0  0  0  0  0
    5.8040   36.2930   12.3700 N   0  0  0  0  0
    6.6230   37.2570   11.9070 C   0  0  0  0  0
    6.6180   37.6160   10.5290 C   0  0  0  0  0
    7.0810   38.8930   10.1410 C   0  0  0  0  0
    7.0480   39.3300    8.8140 C   0  0  0  0  0
    6.5190   38.5170    7.8310 C   0  0  0  0  0
    6.0160   37.2740    8.1750 C   0  0  0  0  0
    6.0470   36.8260    9.5040 C   0  0  0  0  0
    5.5720   35.6050    9.7810 N   0  0  0  0  0
    8.0481   38.6847   12.5067 H   0  0  0  0  0
    7.0642   36.8102   16.7322 H   0  0  0  0  0
    5.5004   35.0101   17.4460 H   0  0  0  0  0
    4.1467   33.8068   15.7427 H   0  0  0  0  0
    4.2803   34.4478   13.3588 H   0  0  0  0  0
    7.4784   39.5618   10.9044 H   0  0  0  0  0
    7.4401   40.3134    8.5546 H   0  0  0  0  0
    6.4977   38.8510    6.7936 H   0  0  0  0  0
    5.5898   36.6343    7.4022 H   0  0  0  0  0
    5.6214   35.2424   10.7331 H   0  0  0  0  0
    5.1608   35.0375    9.0399 H   0  0  0  0  0
  1  2  1  0  0  0
  1 11  1  0  0  0
  2  3  2  0  0  0
  2  4  1  0  0  0
  4  5  4  0  0  0
  4  9  4  0  0  0
  5  6  4  0  0  0
  6  7  4  0  0  0
  7  8  4  0  0  0
  8  9  4  0  0  0
  9 10  1  0  0  0
 10 11  2  0  0  0
 11 12  1  0  0  0
 12 13  4  0  0  0
 12 17  4  0  0  0
 13 14  4  0  0  0
 14 15  4  0  0  0
 15 16  4  0  0  0
 16 17  4  0  0  0
 17 18  1  0  0  0
  1 19  1  0  0  0
  5 20  1  0  0  0
  6 21  1  0  0  0
  7 22  1  0  0  0
  8 23  1  0  0  0
 13 24  1  0  0  0
 14 25  1  0  0  0
 15 26  1  0  0  0
 16 27  1  0  0  0
 18 28  1  0  0  0
 18 29  1  0  0  0
M  END
$$$$
