3hqr_ligand
  -I-interpret- 

 15 14  0  0  0  0  0  0  0  0999 V2000
   20.1520   -6.2860   -6.8020 C   0  0  0  0  0
   20.1790   -6.2880   -5.3170 C   0  0  0  0  0
   19.0940   -6.1970   -3.1380 C   0  0  0  0  0
   17.7230   -6.1580   -2.5530 C   0  0  0  0  0
   19.1040   -6.2460   -7.4020 O   0  0  0  0  0
   21.3110   -6.3190   -7.4660 O   0  0  0  0  0
   21.2530   -6.3300   -4.7520 O   0  0  0  0  0
   17.5970   -6.1160   -1.2300 O   0  0  0  0  0
   19.0350   -6.2330   -4.6060 N   0  0  0  0  0
   16.7360   -6.1690   -3.2600 O   0  0  0  0  0
   19.6011   -7.0949   -2.7848 H   0  0  0  0  0
   19.6328   -5.3009   -2.8301 H   0  0  0  0  0
   22.0371   -6.3485   -6.8387 H   0  0  0  0  0
   18.4681   -6.1131   -0.8266 H   0  0  0  0  0
   18.1341   -6.2165   -5.0839 H   0  0  0  0  0
  2  1  1  0  0  0
  1  5  2  0  0  0
  1  6  1  0  0  0
  2  7  2  0  0  0
  9  2  1  0  0  0
  3  4  1  0  0  0
  3  9  1  0  0  0
  4  8  1  0  0  0
  4 10  2  0  0  0
  3 11  1  0  0  0
  3 12  1  0  0  0
  6 13  1  0  0  0
  8 14  1  0  0  0
  9 15  1  0  0  0
M  END
$$$$
