### 
### Created by X-TOOL on Mon Sep 10 21:13:03 2018
### 

@<TRIPOS>MOLECULE
2xcs_ligand
   61    65     1     0     0
SMALL
GAST_HUCK


@<TRIPOS>ATOM
      1 N11         5.9710   49.0510   44.5670 N.1       1 RXV        -0.3367
      2 C10         6.0870   49.5640   43.5200 C.1       1 RXV         0.0955
      3 C9          6.2920   50.2440   42.4510 C.ar      1 RXV         0.1205
      4 C12         6.4330   49.6200   41.2260 C.ar      1 RXV         0.0174
      5 C32         6.6500   50.4070   40.0980 C.ar      1 RXV         0.0144
      6 C33         6.7960   49.8230   38.8430 C.ar      1 RXV        -0.0168
      7 C3          7.0100   50.6260   37.7300 C.ar      1 RXV         0.0988
      8 O2          7.1600   50.0630   36.4900 O.3       1 RXV        -0.3190
      9 C1          7.3220   48.6520   36.3600 C.3       1 RXV         0.0598
     10 C4          7.0820   52.0060   37.8660 C.ar      1 RXV        -0.0213
     11 C5          6.9290   52.5930   39.1140 C.ar      1 RXV        -0.0417
     12 C6          6.7160   51.7930   40.2310 C.ar      1 RXV         0.0372
     13 N7          6.5700   52.3730   41.4430 N.ar      1 RXV        -0.3053
     14 C8          6.3630   51.6290   42.5340 C.ar      1 RXV         0.0280
     15 C13         6.3600   48.1110   41.1120 C.3       1 RXV        -0.0200
     16 C14         7.7550   47.5550   40.8320 C.3       1 RXV        -0.0977
     17 N15         7.8260   46.0890   40.9960 N.4       1 RXV         0.4050
     18 C16         7.0510   45.6470   42.1680 C.3       1 RXV        -0.1076
     19 C17         7.1890   44.1340   42.3210 C.3       1 RXV        -0.0283
     20 C18         6.6470   43.4390   41.0780 C.3       1 RXV        -0.0250
     21 C19         7.4820   43.9180   39.8990 C.3       1 RXV        -0.0283
     22 C20         7.3280   45.4310   39.7760 C.3       1 RXV        -0.1076
     23 N21         6.6730   41.9930   41.2120 N.4       1 RXV         0.2417
     24 C22         5.5030   41.3140   41.7410 C.3       1 RXV         0.0091
     25 C23         5.6990   39.8160   41.7240 C.ar      1 RXV         0.0536
     26 C24         4.9750   39.0340   40.8260 C.ar      1 RXV        -0.0237
     27 C25         5.1820   37.6610   40.8410 C.ar      1 RXV         0.0611
     28 S26         4.4060   36.5300   39.8380 S.3       1 RXV        -0.0643
     29 C27         5.3220   35.2190   40.6110 C.3       1 RXV         0.1277
     30 O28         6.1790   35.7680   41.6210 O.3       1 RXV        -0.3046
     31 C29         6.0770   37.1230   41.7220 C.ar      1 RXV         0.1247
     32 C30         6.7850   37.9240   42.6070 C.ar      1 RXV         0.0237
     33 N31         6.5800   39.2490   42.5880 N.ar      1 RXV        -0.3134
     34 H           6.7426   48.7398   38.7340 H         1 RXV         0.0561
     35 H           8.2149   48.3387   36.9010 H         1 RXV         0.0578
     36 H           6.4490   48.1476   36.7742 H         1 RXV         0.0578
     37 H           7.4255   48.3951   35.3058 H         1 RXV         0.0578
     38 H           7.2592   52.6299   36.9900 H         1 RXV         0.0641
     39 H           6.9756   53.6770   39.2182 H         1 RXV         0.0630
     40 H           6.2483   52.1158   43.5025 H         1 RXV         0.0876
     41 H           5.6897   47.8397   40.2964 H         1 RXV         0.0481
     42 H           5.9824   47.6934   42.0453 H         1 RXV         0.0481
     43 H           8.4450   48.0059   41.5452 H         1 RXV         0.0048
     44 H           8.0080   47.7893   39.7980 H         1 RXV         0.0048
     45 H           6.0012   45.9062   42.0308 H         1 RXV         0.0019
     46 H           7.4288   46.1408   43.0633 H         1 RXV         0.0019
     47 H           6.6231   43.8065   43.1931 H         1 RXV         0.0300
     48 H           8.2411   43.8786   42.4473 H         1 RXV         0.0300
     49 H           5.5983   43.6946   40.9263 H         1 RXV         0.0849
     50 H           7.1422   43.4347   38.9830 H         1 RXV         0.0300
     51 H           8.5298   43.6634   40.0586 H         1 RXV         0.0300
     52 H           7.9034   45.7815   38.9192 H         1 RXV         0.0019
     53 H           6.2740   45.6744   39.6421 H         1 RXV         0.0019
     54 H           7.4139   41.8049   41.8874 H         1 RXV         0.2031
     55 H           6.7720   41.6425   40.2593 H         1 RXV         0.2031
     56 H           4.6417   41.5629   41.1210 H         1 RXV         0.0986
     57 H           5.3449   41.6362   42.7702 H         1 RXV         0.0986
     58 H           4.2669   39.4869   40.1321 H         1 RXV         0.0568
     59 H           5.9248   34.7054   39.8620 H         1 RXV         0.0754
     60 H           4.6298   34.5108   41.0665 H         1 RXV         0.0754
     61 H           7.4959   37.4833   43.3059 H         1 RXV         0.0695
@<TRIPOS>BOND
     1    1    2 3  
     2    2    3 1  
     3    3    4 ar 
     4    3   14 ar 
     5    4    5 ar 
     6    4   15 1  
     7    5    6 ar 
     8    5   12 ar 
     9    6    7 ar 
    10    7    8 1  
    11    7   10 ar 
    12    8    9 1  
    13   10   11 ar 
    14   11   12 ar 
    15   12   13 ar 
    16   13   14 ar 
    17   15   16 1  
    18   16   17 1  
    19   17   18 1  
    20   17   22 1  
    21   18   19 1  
    22   19   20 1  
    23   20   21 1  
    24   20   23 1  
    25   21   22 1  
    26   23   24 1  
    27   24   25 1  
    28   25   26 ar 
    29   25   33 ar 
    30   26   27 ar 
    31   27   28 1  
    32   27   31 ar 
    33   28   29 1  
    34   29   30 1  
    35   30   31 1  
    36   31   32 ar 
    37   32   33 ar 
    38    6   34 1  
    39    9   35 1  
    40    9   36 1  
    41    9   37 1  
    42   10   38 1  
    43   11   39 1  
    44   14   40 1  
    45   15   41 1  
    46   15   42 1  
    47   16   43 1  
    48   16   44 1  
    49   18   45 1  
    50   18   46 1  
    51   19   47 1  
    52   19   48 1  
    53   20   49 1  
    54   21   50 1  
    55   21   51 1  
    56   22   52 1  
    57   22   53 1  
    58   23   54 1  
    59   23   55 1  
    60   24   56 1  
    61   24   57 1  
    62   26   58 1  
    63   29   59 1  
    64   29   60 1  
    65   32   61 1  
@<TRIPOS>SUBSTRUCTURE
     1 RXV         1

