2xcs_ligand
  -I-interpret- 

 62 66  0  0  0  0  0  0  0  0999 V2000
    5.9710   49.0510   44.5670 N   0  0  0  0  0
    6.0870   49.5640   43.5200 C   0  0  0  0  0
    6.2920   50.2440   42.4510 C   0  0  0  0  0
    6.4330   49.6200   41.2260 C   0  0  0  0  0
    6.6500   50.4070   40.0980 C   0  0  0  0  0
    6.7960   49.8230   38.8430 C   0  0  0  0  0
    7.0100   50.6260   37.7300 C   0  0  0  0  0
    7.1600   50.0630   36.4900 O   0  0  0  0  0
    7.3220   48.6520   36.3600 C   0  0  0  0  0
    7.0820   52.0060   37.8660 C   0  0  0  0  0
    6.9290   52.5930   39.1140 C   0  0  0  0  0
    6.7160   51.7930   40.2310 C   0  0  0  0  0
    6.5700   52.3730   41.4430 N   0  0  0  0  0
    6.3630   51.6290   42.5340 C   0  0  0  0  0
    6.3600   48.1110   41.1120 C   0  0  0  0  0
    7.7550   47.5550   40.8320 C   0  0  0  0  0
    7.8260   46.0890   40.9960 N   0  3  0  0  0
    7.0510   45.6470   42.1680 C   0  0  0  0  0
    7.1890   44.1340   42.3210 C   0  0  0  0  0
    6.6470   43.4390   41.0780 C   0  0  0  0  0
    7.4820   43.9180   39.8990 C   0  0  0  0  0
    7.3280   45.4310   39.7760 C   0  0  0  0  0
    6.6730   41.9930   41.2120 N   0  3  0  0  0
    5.5030   41.3140   41.7410 C   0  0  0  0  0
    5.6990   39.8160   41.7240 C   0  0  0  0  0
    4.9750   39.0340   40.8260 C   0  0  0  0  0
    5.1820   37.6610   40.8410 C   0  0  0  0  0
    4.4060   36.5300   39.8380 S   0  0  0  0  0
    5.3220   35.2190   40.6110 C   0  0  0  0  0
    6.1790   35.7680   41.6210 O   0  0  0  0  0
    6.0770   37.1230   41.7220 C   0  0  0  0  0
    6.7850   37.9240   42.6070 C   0  0  0  0  0
    6.5800   39.2490   42.5880 N   0  0  0  0  0
    6.7426   48.7398   38.7340 H   0  0  0  0  0
    8.2149   48.3387   36.9010 H   0  0  0  0  0
    6.4490   48.1476   36.7742 H   0  0  0  0  0
    7.4255   48.3951   35.3058 H   0  0  0  0  0
    7.2592   52.6299   36.9900 H   0  0  0  0  0
    6.9756   53.6770   39.2182 H   0  0  0  0  0
    6.2483   52.1158   43.5025 H   0  0  0  0  0
    5.6897   47.8397   40.2964 H   0  0  0  0  0
    5.9824   47.6934   42.0453 H   0  0  0  0  0
    8.4450   48.0059   41.5452 H   0  0  0  0  0
    8.0080   47.7893   39.7980 H   0  0  0  0  0
    8.7997   45.8266   41.1493 H   0  0  0  0  0
    6.0012   45.9062   42.0308 H   0  0  0  0  0
    7.4288   46.1408   43.0633 H   0  0  0  0  0
    6.6231   43.8065   43.1931 H   0  0  0  0  0
    8.2411   43.8786   42.4473 H   0  0  0  0  0
    5.5983   43.6946   40.9263 H   0  0  0  0  0
    7.1422   43.4347   38.9830 H   0  0  0  0  0
    8.5298   43.6634   40.0586 H   0  0  0  0  0
    7.9034   45.7815   38.9192 H   0  0  0  0  0
    6.2740   45.6744   39.6421 H   0  0  0  0  0
    7.4139   41.8049   41.8874 H   0  0  0  0  0
    6.7720   41.6425   40.2593 H   0  0  0  0  0
    4.6417   41.5629   41.1210 H   0  0  0  0  0
    5.3449   41.6362   42.7702 H   0  0  0  0  0
    4.2669   39.4869   40.1321 H   0  0  0  0  0
    5.9248   34.7054   39.8620 H   0  0  0  0  0
    4.6298   34.5108   41.0665 H   0  0  0  0  0
    7.4959   37.4833   43.3059 H   0  0  0  0  0
  1  2  3  0  0  0
  2  3  1  0  0  0
  3  4  4  0  0  0
  3 14  4  0  0  0
  4  5  4  0  0  0
  4 15  1  0  0  0
  5  6  4  0  0  0
  5 12  4  0  0  0
  6  7  4  0  0  0
  7  8  1  0  0  0
  7 10  4  0  0  0
  8  9  1  0  0  0
 10 11  4  0  0  0
 11 12  4  0  0  0
 12 13  4  0  0  0
 13 14  4  0  0  0
 15 16  1  0  0  0
 16 17  1  0  0  0
 17 18  1  0  0  0
 17 22  1  0  0  0
 18 19  1  0  0  0
 19 20  1  0  0  0
 20 21  1  0  0  0
 20 23  1  0  0  0
 21 22  1  0  0  0
 23 24  1  0  0  0
 24 25  1  0  0  0
 25 26  4  0  0  0
 25 33  4  0  0  0
 26 27  4  0  0  0
 27 28  1  0  0  0
 27 31  4  0  0  0
 28 29  1  0  0  0
 29 30  1  0  0  0
 30 31  1  0  0  0
 31 32  4  0  0  0
 32 33  4  0  0  0
  6 34  1  0  0  0
  9 35  1  0  0  0
  9 36  1  0  0  0
  9 37  1  0  0  0
 10 38  1  0  0  0
 11 39  1  0  0  0
 14 40  1  0  0  0
 15 41  1  0  0  0
 15 42  1  0  0  0
 16 43  1  0  0  0
 16 44  1  0  0  0
 17 45  1  0  0  0
 18 46  1  0  0  0
 18 47  1  0  0  0
 19 48  1  0  0  0
 19 49  1  0  0  0
 20 50  1  0  0  0
 21 51  1  0  0  0
 21 52  1  0  0  0
 22 53  1  0  0  0
 22 54  1  0  0  0
 23 55  1  0  0  0
 23 56  1  0  0  0
 24 57  1  0  0  0
 24 58  1  0  0  0
 26 59  1  0  0  0
 29 60  1  0  0  0
 29 61  1  0  0  0
 32 62  1  0  0  0
M  END
$$$$
