5i3y_ligand
  -I-interpret- 

 86 90  0  0  0  0  0  0  0  0999 V2000
   13.6080   37.3880  -12.7460 C   0  0  0  0  0
   12.3760   38.2950  -12.6800 C   0  0  0  0  0
   12.3710   39.3030  -13.8400 C   0  0  0  0  0
   11.1600   37.3950  -12.7420 C   0  0  0  0  0
   12.3660   39.0550  -11.3530 C   0  0  0  0  0
   11.1200   39.9290  -11.1430 C   0  0  0  0  0
   11.3270   40.7490   -9.9600 N   0  0  0  0  0
   11.5800   42.0350  -10.0380 C   0  0  0  0  0
   11.6360   42.6230  -11.1050 O   0  0  0  0  0
   11.8460   42.7400   -8.7090 C   0  0  0  0  0
   13.3350   43.0010   -8.4170 C   0  0  0  0  0
   14.1350   41.7140   -8.6100 C   0  0  0  0  0
   14.1220   40.6110   -7.7390 C   0  0  0  0  0
   14.8570   39.5230   -8.0270 N   0  0  0  0  0
   13.3860   40.6330   -6.6210 N   0  0  0  0  0
   14.9330   41.6680   -9.7600 C   0  0  0  0  0
   15.6770   40.5340  -10.0470 C   0  0  0  0  0
   16.4890   40.4830  -11.1910 C   0  0  0  0  0
   15.6070   39.4570   -9.1580 C   0  0  0  0  0
   16.3400   38.3070   -9.4570 C   0  0  0  0  0
   17.1560   38.2770  -10.5910 C   0  0  0  0  0
   17.2190   39.3360  -11.4850 C   0  0  0  0  0
   18.0870   39.2660  -12.6020 C   0  0  0  0  0
   17.8270   38.5680  -13.7870 C   0  0  0  0  0
   18.7800   38.5570  -14.8310 C   0  0  0  0  0
   20.0020   39.2310  -14.6990 C   0  0  0  0  0
   20.2710   39.9170  -13.5030 C   0  0  0  0  0
   19.3230   39.9240  -12.4540 C   0  0  0  0  0
   19.7200   40.7280  -11.1780 C   0  0  0  0  0
   20.2870   39.8310  -10.0730 C   0  0  0  0  0
   20.1750   40.4290   -8.6690 C   0  0  0  0  0
   18.9320   40.5880   -8.0700 C   0  0  0  0  0
   18.8480   41.1310   -6.7920 C   0  0  0  0  0
   21.2720   40.7740   -7.9840 N   0  0  0  0  0
   21.2380   41.2950   -6.7560 C   0  0  0  0  0
   20.0090   41.4850   -6.1020 C   0  0  0  0  0
   19.8600   42.0040   -4.8770 N   0  0  0  0  0
   20.8430   42.4090   -4.0700 C   0  0  0  0  0
   22.0360   42.3460   -4.3140 O   0  0  0  0  0
   20.4500   42.9600   -2.7070 C   0  0  0  0  0
   19.3040   42.5480   -2.0440 C   0  0  0  0  0
   19.0070   43.0610   -0.7850 C   0  0  0  0  0
   19.8540   43.9920   -0.2000 C   0  0  0  0  0
   19.5640   44.4900    1.0180 F   0  0  0  0  0
   21.0190   44.4010   -0.8540 C   0  0  0  0  0
   21.3160   43.8780   -2.1070 C   0  0  0  0  0
   14.5096   37.9959  -12.6702 H   0  0  0  0  0
   13.5780   36.6759  -11.9213 H   0  0  0  0  0
   13.6103   36.8488  -13.6933 H   0  0  0  0  0
   11.4753   39.9212  -13.7786 H   0  0  0  0  0
   13.2560   39.9358  -13.7736 H   0  0  0  0  0
   12.3781   38.7645  -14.7876 H   0  0  0  0  0
   11.1900   36.6882  -11.9128 H   0  0  0  0  0
   10.2569   38.0013  -12.6718 H   0  0  0  0  0
   11.1608   36.8499  -13.6859 H   0  0  0  0  0
   13.2304   39.7191  -11.3541 H   0  0  0  0  0
   12.3785   38.3126  -10.5550 H   0  0  0  0  0
   10.2408   39.2985  -11.0100 H   0  0  0  0  0
   10.9600   40.5649  -12.0137 H   0  0  0  0  0
   11.2740   40.3111   -9.0403 H   0  0  0  0  0
   11.4741   42.0870   -7.9195 H   0  0  0  0  0
   11.3536   43.7112   -8.7570 H   0  0  0  0  0
   13.4454   43.3424   -7.3878 H   0  0  0  0  0
   13.7079   43.7626   -9.1018 H   0  0  0  0  0
   12.8274   41.4558   -6.3943 H   0  0  0  0  0
   13.3839   39.8270   -5.9959 H   0  0  0  0  0
   14.9692   42.5261  -10.4312 H   0  0  0  0  0
   16.5478   41.3472  -11.8527 H   0  0  0  0  0
   16.2759   37.4343   -8.8071 H   0  0  0  0  0
   17.7634   37.3918  -10.7795 H   0  0  0  0  0
   16.8860   38.0308  -13.9053 H   0  0  0  0  0
   18.5615   38.0166  -15.7520 H   0  0  0  0  0
   20.7304   39.2229  -15.5098 H   0  0  0  0  0
   21.2159   40.4469  -13.3830 H   0  0  0  0  0
   18.8225   41.2111  -10.7919 H   0  0  0  0  0
   20.4916   41.4450  -11.4585 H   0  0  0  0  0
   21.3477   39.6913  -10.2818 H   0  0  0  0  0
   19.7095   38.9066  -10.0782 H   0  0  0  0  0
   18.0269   40.2888   -8.5986 H   0  0  0  0  0
   17.8731   41.2805   -6.3280 H   0  0  0  0  0
   22.1668   41.5741   -6.2585 H   0  0  0  0  0
   18.9063   42.0988   -4.5278 H   0  0  0  0  0
   18.6361   41.8227   -2.5087 H   0  0  0  0  0
   18.1106   42.7322   -0.2591 H   0  0  0  0  0
   21.6883   45.1230   -0.3862 H   0  0  0  0  0
   22.2261   44.1845   -2.6226 H   0  0  0  0  0
  1  2  1  0  0  0
  2  3  1  0  0  0
  2  4  1  0  0  0
  2  5  1  0  0  0
  5  6  1  0  0  0
  6  7  1  0  0  0
  7  8  1  0  0  0
  8  9  2  0  0  0
  8 10  1  0  0  0
 10 11  1  0  0  0
 11 12  1  0  0  0
 12 13  4  0  0  0
 12 16  4  0  0  0
 13 14  4  0  0  0
 13 15  1  0  0  0
 14 19  4  0  0  0
 16 17  4  0  0  0
 17 18  4  0  0  0
 17 19  4  0  0  0
 18 22  4  0  0  0
 19 20  4  0  0  0
 20 21  4  0  0  0
 21 22  4  0  0  0
 22 23  1  0  0  0
 23 24  4  0  0  0
 23 28  4  0  0  0
 24 25  4  0  0  0
 25 26  4  0  0  0
 26 27  4  0  0  0
 27 28  4  0  0  0
 28 29  1  0  0  0
 29 30  1  0  0  0
 30 31  1  0  0  0
 31 32  4  0  0  0
 31 34  4  0  0  0
 32 33  4  0  0  0
 33 36  4  0  0  0
 34 35  4  0  0  0
 35 36  4  0  0  0
 36 37  1  0  0  0
 37 38  1  0  0  0
 38 39  2  0  0  0
 38 40  1  0  0  0
 40 41  4  0  0  0
 40 46  4  0  0  0
 41 42  4  0  0  0
 42 43  4  0  0  0
 43 44  1  0  0  0
 43 45  4  0  0  0
 45 46  4  0  0  0
  1 47  1  0  0  0
  1 48  1  0  0  0
  1 49  1  0  0  0
  3 50  1  0  0  0
  3 51  1  0  0  0
  3 52  1  0  0  0
  4 53  1  0  0  0
  4 54  1  0  0  0
  4 55  1  0  0  0
  5 56  1  0  0  0
  5 57  1  0  0  0
  6 58  1  0  0  0
  6 59  1  0  0  0
  7 60  1  0  0  0
 10 61  1  0  0  0
 10 62  1  0  0  0
 11 63  1  0  0  0
 11 64  1  0  0  0
 15 65  1  0  0  0
 15 66  1  0  0  0
 16 67  1  0  0  0
 18 68  1  0  0  0
 20 69  1  0  0  0
 21 70  1  0  0  0
 24 71  1  0  0  0
 25 72  1  0  0  0
 26 73  1  0  0  0
 27 74  1  0  0  0
 29 75  1  0  0  0
 29 76  1  0  0  0
 30 77  1  0  0  0
 30 78  1  0  0  0
 32 79  1  0  0  0
 33 80  1  0  0  0
 35 81  1  0  0  0
 37 82  1  0  0  0
 41 83  1  0  0  0
 42 84  1  0  0  0
 45 85  1  0  0  0
 46 86  1  0  0  0
M  END
$$$$
