1aqi_ligand
  -I-interpret- 

 47 49  0  0  0  0  0  0  0  0999 V2000
   35.0980   37.2760   16.3730 N   0  3  0  0  0
   35.3680   38.1320   15.2250 C   0  0  0  0  0
   36.5500   39.0800   15.5150 C   0  0  0  0  0
   37.8990   38.4090   15.7750 C   0  0  0  0  0
   39.2560   39.5610   16.1130 S   0  0  0  0  0
   35.6260   37.3000   13.9700 C   0  0  0  0  0
   35.2830   36.0990   13.9790 O   0  0  0  0  0
   36.1650   37.8490   12.9900 O   0  0  0  0  0
   40.6340   39.3230   14.9780 C   0  0  0  0  0
   41.9160   40.0280   15.4140 C   0  0  0  0  0
   42.7480   39.1230   16.1830 O   0  0  0  0  0
   42.7300   40.4690   14.2070 C   0  0  0  0  0
   43.2890   41.7710   14.4440 O   0  0  0  0  0
   43.8370   39.4570   14.1000 C   0  0  0  0  0
   45.0400   40.0680   13.6340 O   0  0  0  0  0
   44.0060   38.9220   15.5010 C   0  0  0  0  0
   44.3670   37.5030   15.4740 N   0  0  0  0  0
   43.8860   36.5110   14.6920 C   0  0  0  0  0
   44.3970   35.3390   14.8500 N   0  0  0  0  0
   45.3340   35.5600   15.8580 C   0  0  0  0  0
   46.2170   34.7030   16.5250 C   0  0  0  0  0
   46.3490   33.4060   16.2090 N   0  0  0  0  0
   46.9830   35.2430   17.5000 N   0  0  0  0  0
   46.8690   36.5460   17.7720 C   0  0  0  0  0
   46.0790   37.4550   17.2110 N   0  0  0  0  0
   45.3240   36.8820   16.2490 C   0  0  0  0  0
   34.9296   37.8553   17.1955 H   0  0  0  0  0
   34.2744   36.7049   16.1835 H   0  0  0  0  0
   35.9017   36.6707   16.5407 H   0  0  0  0  0
   34.4835   38.7425   15.0430 H   0  0  0  0  0
   36.2944   39.6175   16.4282 H   0  0  0  0  0
   36.6790   39.6907   14.6214 H   0  0  0  0  0
   38.1629   37.8608   14.8706 H   0  0  0  0  0
   37.7805   37.7858   16.6614 H   0  0  0  0  0
   34.8900   35.8860   14.8286 H   0  0  0  0  0
   40.3410   39.7442   14.0163 H   0  0  0  0  0
   40.8457   38.2544   14.9415 H   0  0  0  0  0
   41.6237   40.8926   16.0100 H   0  0  0  0  0
   42.1272   40.5268   13.3007 H   0  0  0  0  0
   43.8009   42.0424   13.6786 H   0  0  0  0  0
   43.6054   38.6659   13.3868 H   0  0  0  0  0
   45.7316   39.4050   13.5734 H   0  0  0  0  0
   44.8110   39.4419   16.0203 H   0  0  0  0  0
   43.0999   36.6947   13.9595 H   0  0  0  0  0
   45.7922   33.0058   15.4539 H   0  0  0  0  0
   47.0062   32.8200   16.7239 H   0  0  0  0  0
   47.5161   36.9159   18.5673 H   0  0  0  0  0
  1  2  1  0  0  0
  2  3  1  0  0  0
  2  6  1  0  0  0
  3  4  1  0  0  0
  4  5  1  0  0  0
  5  9  1  0  0  0
  6  7  1  0  0  0
  6  8  2  0  0  0
  9 10  1  0  0  0
 10 11  1  0  0  0
 10 12  1  0  0  0
 11 16  1  0  0  0
 12 13  1  0  0  0
 12 14  1  0  0  0
 14 15  1  0  0  0
 14 16  1  0  0  0
 16 17  1  0  0  0
 17 18  4  0  0  0
 17 26  4  0  0  0
 18 19  4  0  0  0
 19 20  4  0  0  0
 20 21  4  0  0  0
 20 26  4  0  0  0
 21 22  1  0  0  0
 21 23  4  0  0  0
 23 24  4  0  0  0
 24 25  4  0  0  0
 25 26  4  0  0  0
  1 27  1  0  0  0
  1 28  1  0  0  0
  1 29  1  0  0  0
  2 30  1  0  0  0
  3 31  1  0  0  0
  3 32  1  0  0  0
  4 33  1  0  0  0
  4 34  1  0  0  0
  7 35  1  0  0  0
  9 36  1  0  0  0
  9 37  1  0  0  0
 10 38  1  0  0  0
 12 39  1  0  0  0
 13 40  1  0  0  0
 14 41  1  0  0  0
 15 42  1  0  0  0
 16 43  1  0  0  0
 18 44  1  0  0  0
 22 45  1  0  0  0
 22 46  1  0  0  0
 24 47  1  0  0  0
M  END
$$$$
