3ard_ligand
  -I-interpret- 

157157  0  0  0  0  0  0  0  0999 V2000
   -9.2160  -44.6340  -62.7150 C   0  0  0  0  0
   -9.8330  -45.3140  -63.9400 C   0  0  0  0  0
  -11.2870  -45.1960  -63.8010 N   0  0  0  0  0
   -9.5320  -46.8160  -64.0100 C   0  0  0  0  0
   -8.1940  -47.0770  -63.5590 O   0  0  0  0  0
   -9.7120  -47.3280  -65.4380 C   0  0  0  0  0
   -9.1300  -48.7210  -65.6670 C   0  0  0  0  0
  -10.2240  -49.7410  -65.9740 C   0  0  0  0  0
  -10.5020  -49.8830  -67.4700 C   0  0  0  0  0
   -9.8580  -51.1540  -68.0150 C   0  0  0  0  0
  -10.8610  -52.0290  -68.7590 C   0  0  0  0  0
  -10.1910  -52.7530  -69.9190 C   0  0  0  0  0
   -9.7570  -54.1630  -69.5390 C   0  0  0  0  0
   -8.4200  -54.4950  -70.1920 C   0  0  0  0  0
   -8.4630  -55.8410  -70.9050 C   0  0  0  0  0
   -7.7580  -56.9200  -70.0900 C   0  0  0  0  0
   -6.3640  -57.2100  -70.6340 C   0  0  0  0  0
   -5.2860  -56.7260  -69.6690 C   0  0  0  0  0
   -4.0240  -57.5740  -69.7850 C   0  0  0  0  0
   -2.8080  -56.7080  -70.0200 C   0  0  0  0  0
   -9.4930  -44.2460  -60.3920 C   0  0  0  0  0
   -9.8480  -45.0600  -61.5130 O   0  0  0  0  0
   -9.7640  -45.0100  -59.0970 C   0  0  0  0  0
   -9.1880  -46.3160  -59.1930 O   0  0  0  0  0
  -11.2590  -45.1380  -58.8010 C   0  0  0  0  0
  -11.9830  -43.8040  -58.9310 C   0  0  0  0  0
  -11.5880  -42.9440  -57.8560 O   0  0  0  0  0
  -11.4720  -40.7330  -60.3160 O   0  0  0  0  0
  -11.6470  -43.1610  -60.2760 C   0  0  0  0  0
  -12.3760  -41.8320  -60.4880 C   0  0  0  0  0
  -10.2230  -43.0090  -60.3890 O   0  0  0  0  0
  -12.0090  -44.1410  -64.2040 C   0  0  0  0  0
  -11.5450  -43.1400  -64.7320 O   0  0  0  0  0
  -13.4990  -44.2370  -63.9640 C   0  0  0  0  0
  -14.2550  -43.9000  -65.2410 C   0  0  0  0  0
  -14.1840  -45.0540  -66.2310 C   0  0  0  0  0
  -14.8010  -44.6800  -67.5720 C   0  0  0  0  0
  -15.2520  -45.9400  -68.2990 C   0  0  0  0  0
  -14.6620  -46.0030  -69.7010 C   0  0  0  0  0
  -15.7530  -46.0920  -70.7610 C   0  0  0  0  0
  -15.1550  -46.2190  -72.1560 C   0  0  0  0  0
  -14.9210  -44.8640  -72.8110 C   0  0  0  0  0
  -14.6480  -45.0150  -74.3010 C   0  0  0  0  0
  -13.5460  -44.0540  -74.7260 C   0  0  0  0  0
  -14.0210  -43.1170  -75.8300 C   0  0  0  0  0
  -14.2400  -41.6990  -75.3130 C   0  0  0  0  0
  -15.7180  -41.3430  -75.3990 C   0  0  0  0  0
  -15.9340  -39.9660  -76.0270 C   0  0  0  0  0
  -17.0420  -39.1780  -75.3250 C   0  0  0  0  0
  -18.4280  -39.6730  -75.7280 C   0  0  0  0  0
  -19.5280  -38.8930  -75.0260 C   0  0  0  0  0
  -20.7660  -39.7660  -74.8690 C   0  0  0  0  0
  -21.2160  -39.8490  -73.4140 C   0  0  0  0  0
  -21.7990  -41.2180  -73.0850 C   0  0  0  0  0
  -20.7260  -42.1680  -72.5650 C   0  0  0  0  0
  -21.0690  -43.6200  -72.8790 C   0  0  0  0  0
  -19.8290  -44.4990  -72.7400 C   0  0  0  0  0
  -20.2120  -45.9340  -72.4560 C   0  0  0  0  0
   -9.3483  -43.5565  -62.8132 H   0  0  0  0  0
   -8.1604  -44.9011  -62.6651 H   0  0  0  0  0
   -9.4214  -44.8376  -64.8298 H   0  0  0  0  0
  -11.7855  -45.9725  -63.3663 H   0  0  0  0  0
  -10.2316  -47.3399  -63.3587 H   0  0  0  0  0
   -8.0909  -46.7520  -62.6616 H   0  0  0  0  0
   -9.1848  -46.6411  -66.1000 H   0  0  0  0  0
  -10.7831  -47.3859  -65.6314 H   0  0  0  0  0
   -8.6124  -49.0324  -64.7597 H   0  0  0  0  0
   -8.4512  -48.6759  -66.5186 H   0  0  0  0  0
  -11.1418  -49.3988  -65.4959 H   0  0  0  0  0
   -9.8889  -50.7101  -65.6043 H   0  0  0  0  0
  -10.0830  -49.0223  -67.9912 H   0  0  0  0  0
  -11.5794  -49.9369  -67.6264 H   0  0  0  0  0
   -9.4659  -51.7252  -67.1735 H   0  0  0  0  0
   -9.0730  -50.8655  -68.7141 H   0  0  0  0  0
  -11.6562  -51.3956  -69.1522 H   0  0  0  0  0
  -11.2624  -52.7696  -68.0672 H   0  0  0  0  0
   -9.3032  -52.1890  -70.2051 H   0  0  0  0  0
  -10.9097  -52.8264  -70.7352 H   0  0  0  0  0
  -10.5088  -54.8732  -69.8833 H   0  0  0  0  0
   -9.6506  -54.2243  -68.4559 H   0  0  0  0  0
   -7.6586  -54.5418  -69.4134 H   0  0  0  0  0
   -8.1947  -53.7227  -70.9275 H   0  0  0  0  0
   -7.9554  -55.7426  -71.8646 H   0  0  0  0  0
   -9.5053  -56.1310  -71.0380 H   0  0  0  0  0
   -8.3475  -57.8351  -70.1458 H   0  0  0  0  0
   -7.6614  -56.5687  -69.0627 H   0  0  0  0  0
   -6.2438  -56.6862  -71.5823 H   0  0  0  0  0
   -6.2575  -58.2870  -70.7642 H   0  0  0  0  0
   -5.6677  -56.8063  -68.6512 H   0  0  0  0  0
   -5.0363  -55.6938  -69.9145 H   0  0  0  0  0
   -4.1367  -58.2544  -70.6291 H   0  0  0  0  0
   -3.8863  -58.1244  -68.8543 H   0  0  0  0  0
   -2.9375  -56.1453  -70.9445 H   0  0  0  0  0
   -2.6893  -56.0165  -69.1858 H   0  0  0  0  0
   -1.9233  -57.3398  -70.0986 H   0  0  0  0  0
   -8.4316  -44.0096  -60.4669 H   0  0  0  0  0
   -9.3134  -44.4472  -58.2795 H   0  0  0  0  0
   -9.3563  -46.7992  -58.3808 H   0  0  0  0  0
  -11.3745  -45.4899  -57.7758 H   0  0  0  0  0
  -11.6910  -45.8318  -59.5222 H   0  0  0  0  0
  -13.0599  -43.9654  -58.8820 H   0  0  0  0  0
  -12.0436  -42.1028  -57.9367 H   0  0  0  0  0
  -11.9436  -39.9079  -60.4520 H   0  0  0  0  0
  -11.9995  -43.8219  -61.0678 H   0  0  0  0  0
  -12.7784  -41.8055  -61.5007 H   0  0  0  0  0
  -13.1802  -41.7478  -59.7571 H   0  0  0  0  0
  -13.7825  -43.5316  -63.1828 H   0  0  0  0  0
  -13.7480  -45.2529  -63.6575 H   0  0  0  0  0
  -13.8025  -43.0185  -65.6953 H   0  0  0  0  0
  -15.2998  -43.7137  -64.9924 H   0  0  0  0  0
  -14.7397  -45.8963  -65.8189 H   0  0  0  0  0
  -13.1358  -45.3058  -66.3922 H   0  0  0  0  0
  -14.0597  -44.1590  -68.1780 H   0  0  0  0  0
  -15.6611  -44.0315  -67.4056 H   0  0  0  0  0
  -16.3391  -45.9277  -68.3777 H   0  0  0  0  0
  -14.9101  -46.8090  -67.7368 H   0  0  0  0  0
  -14.0364  -46.8927  -69.7732 H   0  0  0  0  0
  -14.0848  -45.0948  -69.8743 H   0  0  0  0  0
  -16.3529  -45.1828  -70.7206 H   0  0  0  0  0
  -16.3615  -46.9740  -70.5613 H   0  0  0  0  0
  -15.8575  -46.7768  -72.7752 H   0  0  0  0  0
  -14.1920  -46.7218  -72.0663 H   0  0  0  0  0
  -14.0548  -44.3957  -72.3435 H   0  0  0  0  0
  -15.8152  -44.2545  -72.6804 H   0  0  0  0  0
  -15.5572  -44.7883  -74.8578 H   0  0  0  0  0
  -14.3322  -46.0378  -74.5068 H   0  0  0  0  0
  -12.7055  -44.6362  -75.1038 H   0  0  0  0  0
  -13.2579  -43.4540  -73.8628 H   0  0  0  0  0
  -14.9696  -43.4924  -76.2138 H   0  0  0  0  0
  -13.2556  -43.0849  -76.6054 H   0  0  0  0  0
  -13.6645  -41.0004  -75.9203 H   0  0  0  0  0
  -13.9140  -41.6390  -74.2746 H   0  0  0  0  0
  -16.1261  -41.3268  -74.3884 H   0  0  0  0  0
  -16.2139  -42.0862  -76.0234 H   0  0  0  0  0
  -16.2268  -40.1097  -77.0671 H   0  0  0  0  0
  -15.0059  -39.4018  -75.9348 H   0  0  0  0  0
  -16.9541  -38.1304  -75.6131 H   0  0  0  0  0
  -16.9292  -39.3106  -74.2490 H   0  0  0  0  0
  -18.5148  -40.7217  -75.4438 H   0  0  0  0  0
  -18.5426  -39.5371  -76.8034 H   0  0  0  0  0
  -19.7810  -38.0153  -75.6207 H   0  0  0  0  0
  -19.1776  -38.5867  -74.0403 H   0  0  0  0  0
  -20.5230  -40.7718  -75.2115 H   0  0  0  0  0
  -21.5735  -39.3257  -75.4539 H   0  0  0  0  0
  -21.9876  -39.0971  -73.2485 H   0  0  0  0  0
  -20.3490  -39.6811  -72.7750 H   0  0  0  0  0
  -22.2249  -41.6410  -73.9948 H   0  0  0  0  0
  -22.5572  -41.0950  -72.3117 H   0  0  0  0  0
  -20.6581  -42.0546  -71.4830 H   0  0  0  0  0
  -19.7815  -41.9226  -73.0507 H   0  0  0  0  0
  -21.4385  -43.6851  -73.9024 H   0  0  0  0  0
  -21.8302  -43.9652  -72.1794 H   0  0  0  0  0
  -19.2273  -44.1267  -71.9109 H   0  0  0  0  0
  -19.2691  -44.4646  -73.6746 H   0  0  0  0  0
  -20.7801  -45.9800  -71.5269 H   0  0  0  0  0
  -20.8216  -46.3150  -73.2754 H   0  0  0  0  0
  -19.3094  -46.5378  -72.3617 H   0  0  0  0  0
  1  2  1  0  0  0
 22  1  1  0  0  0
  2  3  1  0  0  0
  2  4  1  0  0  0
  3 32  1  0  0  0
  4  5  1  0  0  0
  4  6  1  0  0  0
  6  7  1  0  0  0
  7  8  1  0  0  0
  8  9  1  0  0  0
  9 10  1  0  0  0
 10 11  1  0  0  0
 11 12  1  0  0  0
 12 13  1  0  0  0
 13 14  1  0  0  0
 14 15  1  0  0  0
 15 16  1  0  0  0
 16 17  1  0  0  0
 17 18  1  0  0  0
 18 19  1  0  0  0
 19 20  1  0  0  0
 21 22  1  0  0  0
 23 21  1  0  0  0
 21 31  1  0  0  0
 23 24  1  0  0  0
 25 23  1  0  0  0
 26 25  1  0  0  0
 26 27  1  0  0  0
 29 26  1  0  0  0
 30 28  1  0  0  0
 29 30  1  0  0  0
 29 31  1  0  0  0
 32 33  2  0  0  0
 32 34  1  0  0  0
 34 35  1  0  0  0
 35 36  1  0  0  0
 36 37  1  0  0  0
 37 38  1  0  0  0
 38 39  1  0  0  0
 39 40  1  0  0  0
 40 41  1  0  0  0
 41 42  1  0  0  0
 42 43  1  0  0  0
 43 44  1  0  0  0
 44 45  1  0  0  0
 45 46  1  0  0  0
 46 47  1  0  0  0
 47 48  1  0  0  0
 48 49  1  0  0  0
 49 50  1  0  0  0
 50 51  1  0  0  0
 51 52  1  0  0  0
 52 53  1  0  0  0
 53 54  1  0  0  0
 54 55  1  0  0  0
 55 56  1  0  0  0
 56 57  1  0  0  0
 57 58  1  0  0  0
  1 59  1  0  0  0
  1 60  1  0  0  0
  2 61  1  0  0  0
  3 62  1  0  0  0
  4 63  1  0  0  0
  5 64  1  0  0  0
  6 65  1  0  0  0
  6 66  1  0  0  0
  7 67  1  0  0  0
  7 68  1  0  0  0
  8 69  1  0  0  0
  8 70  1  0  0  0
  9 71  1  0  0  0
  9 72  1  0  0  0
 10 73  1  0  0  0
 10 74  1  0  0  0
 11 75  1  0  0  0
 11 76  1  0  0  0
 12 77  1  0  0  0
 12 78  1  0  0  0
 13 79  1  0  0  0
 13 80  1  0  0  0
 14 81  1  0  0  0
 14 82  1  0  0  0
 15 83  1  0  0  0
 15 84  1  0  0  0
 16 85  1  0  0  0
 16 86  1  0  0  0
 17 87  1  0  0  0
 17 88  1  0  0  0
 18 89  1  0  0  0
 18 90  1  0  0  0
 19 91  1  0  0  0
 19 92  1  0  0  0
 20 93  1  0  0  0
 20 94  1  0  0  0
 20 95  1  0  0  0
 21 96  1  0  0  0
 23 97  1  0  0  0
 24 98  1  0  0  0
 25 99  1  0  0  0
 25100  1  0  0  0
 26101  1  0  0  0
 27102  1  0  0  0
 28103  1  0  0  0
 29104  1  0  0  0
 30105  1  0  0  0
 30106  1  0  0  0
 34107  1  0  0  0
 34108  1  0  0  0
 35109  1  0  0  0
 35110  1  0  0  0
 36111  1  0  0  0
 36112  1  0  0  0
 37113  1  0  0  0
 37114  1  0  0  0
 38115  1  0  0  0
 38116  1  0  0  0
 39117  1  0  0  0
 39118  1  0  0  0
 40119  1  0  0  0
 40120  1  0  0  0
 41121  1  0  0  0
 41122  1  0  0  0
 42123  1  0  0  0
 42124  1  0  0  0
 43125  1  0  0  0
 43126  1  0  0  0
 44127  1  0  0  0
 44128  1  0  0  0
 45129  1  0  0  0
 45130  1  0  0  0
 46131  1  0  0  0
 46132  1  0  0  0
 47133  1  0  0  0
 47134  1  0  0  0
 48135  1  0  0  0
 48136  1  0  0  0
 49137  1  0  0  0
 49138  1  0  0  0
 50139  1  0  0  0
 50140  1  0  0  0
 51141  1  0  0  0
 51142  1  0  0  0
 52143  1  0  0  0
 52144  1  0  0  0
 53145  1  0  0  0
 53146  1  0  0  0
 54147  1  0  0  0
 54148  1  0  0  0
 55149  1  0  0  0
 55150  1  0  0  0
 56151  1  0  0  0
 56152  1  0  0  0
 57153  1  0  0  0
 57154  1  0  0  0
 58155  1  0  0  0
 58156  1  0  0  0
 58157  1  0  0  0
M  END
$$$$
