### 
### Created by X-TOOL on Mon Sep 10 21:13:07 2018
### 

@<TRIPOS>MOLECULE
3ard_ligand
  157   157     1     0     0
SMALL
GAST_HUCK


@<TRIPOS>ATOM
      1 C1         -9.2160  -44.6340  -62.7150 C.3       1 3GH         0.0761
      2 C2         -9.8330  -45.3140  -63.9400 C.3       1 3GH         0.0911
      3 N2        -11.2870  -45.1960  -63.8010 N.am      1 3GH        -0.2792
      4 C3         -9.5320  -46.8160  -64.0100 C.3       1 3GH         0.0802
      5 O3         -8.1940  -47.0770  -63.5590 O.3       1 3GH        -0.3894
      6 C4         -9.7120  -47.3280  -65.4380 C.3       1 3GH        -0.0246
      7 C5         -9.1300  -48.7210  -65.6670 C.3       1 3GH        -0.0506
      8 C6        -10.2240  -49.7410  -65.9740 C.3       1 3GH        -0.0530
      9 C7        -10.5020  -49.8830  -67.4700 C.3       1 3GH        -0.0531
     10 C8         -9.8580  -51.1540  -68.0150 C.3       1 3GH        -0.0531
     11 C9        -10.8610  -52.0290  -68.7590 C.3       1 3GH        -0.0531
     12 C10       -10.1910  -52.7530  -69.9190 C.3       1 3GH        -0.0531
     13 C11        -9.7570  -54.1630  -69.5390 C.3       1 3GH        -0.0531
     14 C12        -8.4200  -54.4950  -70.1920 C.3       1 3GH        -0.0531
     15 C13        -8.4630  -55.8410  -70.9050 C.3       1 3GH        -0.0531
     16 C14        -7.7580  -56.9200  -70.0900 C.3       1 3GH        -0.0531
     17 C15        -6.3640  -57.2100  -70.6340 C.3       1 3GH        -0.0531
     18 C16        -5.2860  -56.7260  -69.6690 C.3       1 3GH        -0.0533
     19 C17        -4.0240  -57.5740  -69.7850 C.3       1 3GH        -0.0559
     20 C18        -2.8080  -56.7080  -70.0200 C.3       1 3GH        -0.0653
     21 C1A        -9.4930  -44.2460  -60.3920 C.3       1 3GH         0.1856
     22 O1A        -9.8480  -45.0600  -61.5130 O.3       1 3GH        -0.3464
     23 C2A        -9.7640  -45.0100  -59.0970 C.3       1 3GH         0.1084
     24 O2A        -9.1880  -46.3160  -59.1930 O.3       1 3GH        -0.3867
     25 C3A       -11.2590  -45.1380  -58.8010 C.3       1 3GH         0.0066
     26 C4A       -11.9830  -43.8040  -58.9310 C.3       1 3GH         0.0861
     27 O4A       -11.5880  -42.9440  -57.8560 O.3       1 3GH        -0.3891
     28 O5A       -11.4720  -40.7330  -60.3160 O.3       1 3GH        -0.3924
     29 C5M       -11.6470  -43.1610  -60.2760 C.3       1 3GH         0.1106
     30 C6A       -12.3760  -41.8320  -60.4880 C.3       1 3GH         0.0729
     31 O6A       -10.2230  -43.0090  -60.3890 O.3       1 3GH        -0.3407
     32 CAA       -12.0090  -44.1410  -64.2040 C.2       1 3GH         0.1764
     33 OAA       -11.5450  -43.1400  -64.7320 O.2       1 3GH        -0.3971
     34 CAB       -13.4990  -44.2370  -63.9640 C.3       1 3GH         0.0372
     35 CAC       -14.2550  -43.9000  -65.2410 C.3       1 3GH        -0.0361
     36 CAD       -14.1840  -45.0540  -66.2310 C.3       1 3GH        -0.0510
     37 CAE       -14.8010  -44.6800  -67.5720 C.3       1 3GH        -0.0529
     38 CAF       -15.2520  -45.9400  -68.2990 C.3       1 3GH        -0.0531
     39 CAG       -14.6620  -46.0030  -69.7010 C.3       1 3GH        -0.0531
     40 CAH       -15.7530  -46.0920  -70.7610 C.3       1 3GH        -0.0531
     41 CAI       -15.1550  -46.2190  -72.1560 C.3       1 3GH        -0.0531
     42 CAJ       -14.9210  -44.8640  -72.8110 C.3       1 3GH        -0.0531
     43 CAK       -14.6480  -45.0150  -74.3010 C.3       1 3GH        -0.0531
     44 CAL       -13.5460  -44.0540  -74.7260 C.3       1 3GH        -0.0531
     45 CAM       -14.0210  -43.1170  -75.8300 C.3       1 3GH        -0.0531
     46 CAN       -14.2400  -41.6990  -75.3130 C.3       1 3GH        -0.0531
     47 CAO       -15.7180  -41.3430  -75.3990 C.3       1 3GH        -0.0531
     48 CAP       -15.9340  -39.9660  -76.0270 C.3       1 3GH        -0.0531
     49 CAQ       -17.0420  -39.1780  -75.3250 C.3       1 3GH        -0.0531
     50 CAR       -18.4280  -39.6730  -75.7280 C.3       1 3GH        -0.0531
     51 CAS       -19.5280  -38.8930  -75.0260 C.3       1 3GH        -0.0531
     52 CAT       -20.7660  -39.7660  -74.8690 C.3       1 3GH        -0.0531
     53 CAU       -21.2160  -39.8490  -73.4140 C.3       1 3GH        -0.0531
     54 CAV       -21.7990  -41.2180  -73.0850 C.3       1 3GH        -0.0531
     55 CAW       -20.7260  -42.1680  -72.5650 C.3       1 3GH        -0.0531
     56 CAX       -21.0690  -43.6200  -72.8790 C.3       1 3GH        -0.0533
     57 CAY       -19.8290  -44.4990  -72.7400 C.3       1 3GH        -0.0559
     58 CAZ       -20.2120  -45.9340  -72.4560 C.3       1 3GH        -0.0653
     59 H          -9.3483  -43.5565  -62.8132 H         1 3GH         0.0585
     60 H          -8.1604  -44.9011  -62.6651 H         1 3GH         0.0585
     61 H          -9.4214  -44.8376  -64.8298 H         1 3GH         0.0604
     62 H         -11.7855  -45.9725  -63.3663 H         1 3GH         0.1856
     63 H         -10.2316  -47.3399  -63.3587 H         1 3GH         0.0617
     64 H          -8.0192  -48.0197  -63.6080 H         1 3GH         0.2099
     65 H          -9.1848  -46.6411  -66.1000 H         1 3GH         0.0291
     66 H         -10.7831  -47.3859  -65.6314 H         1 3GH         0.0291
     67 H          -8.6124  -49.0324  -64.7597 H         1 3GH         0.0266
     68 H          -8.4512  -48.6759  -66.5186 H         1 3GH         0.0266
     69 H         -11.1418  -49.3988  -65.4959 H         1 3GH         0.0265
     70 H          -9.8889  -50.7101  -65.6043 H         1 3GH         0.0265
     71 H         -10.0830  -49.0223  -67.9912 H         1 3GH         0.0265
     72 H         -11.5794  -49.9369  -67.6264 H         1 3GH         0.0265
     73 H          -9.4659  -51.7252  -67.1735 H         1 3GH         0.0265
     74 H          -9.0730  -50.8655  -68.7141 H         1 3GH         0.0265
     75 H         -11.6562  -51.3956  -69.1522 H         1 3GH         0.0265
     76 H         -11.2624  -52.7696  -68.0672 H         1 3GH         0.0265
     77 H          -9.3032  -52.1890  -70.2051 H         1 3GH         0.0265
     78 H         -10.9097  -52.8264  -70.7352 H         1 3GH         0.0265
     79 H         -10.5088  -54.8732  -69.8833 H         1 3GH         0.0265
     80 H          -9.6506  -54.2243  -68.4559 H         1 3GH         0.0265
     81 H          -7.6586  -54.5418  -69.4134 H         1 3GH         0.0265
     82 H          -8.1947  -53.7227  -70.9275 H         1 3GH         0.0265
     83 H          -7.9554  -55.7426  -71.8646 H         1 3GH         0.0265
     84 H          -9.5053  -56.1310  -71.0380 H         1 3GH         0.0265
     85 H          -8.3475  -57.8351  -70.1458 H         1 3GH         0.0265
     86 H          -7.6614  -56.5687  -69.0627 H         1 3GH         0.0265
     87 H          -6.2438  -56.6862  -71.5823 H         1 3GH         0.0265
     88 H          -6.2575  -58.2870  -70.7642 H         1 3GH         0.0265
     89 H          -5.6677  -56.8063  -68.6512 H         1 3GH         0.0265
     90 H          -5.0363  -55.6938  -69.9145 H         1 3GH         0.0265
     91 H          -4.1367  -58.2544  -70.6291 H         1 3GH         0.0263
     92 H          -3.8863  -58.1244  -68.8543 H         1 3GH         0.0263
     93 H          -2.9375  -56.1453  -70.9445 H         1 3GH         0.0230
     94 H          -2.6893  -56.0165  -69.1858 H         1 3GH         0.0230
     95 H          -1.9233  -57.3398  -70.0986 H         1 3GH         0.0230
     96 H          -8.4316  -44.0096  -60.4669 H         1 3GH         0.0936
     97 H          -9.3134  -44.4472  -58.2795 H         1 3GH         0.0645
     98 H          -9.5815  -46.7845  -59.9328 H         1 3GH         0.2100
     99 H         -11.3745  -45.4899  -57.7758 H         1 3GH         0.0318
    100 H         -11.6910  -45.8318  -59.5222 H         1 3GH         0.0318
    101 H         -13.0599  -43.9654  -58.8820 H         1 3GH         0.0621
    102 H         -10.6395  -42.8005  -57.8944 H         1 3GH         0.2099
    103 H         -10.7585  -40.8041  -60.9544 H         1 3GH         0.2095
    104 H         -11.9995  -43.8219  -61.0678 H         1 3GH         0.0646
    105 H         -12.7784  -41.8055  -61.5007 H         1 3GH         0.0584
    106 H         -13.1802  -41.7478  -59.7571 H         1 3GH         0.0584
    107 H         -13.7825  -43.5316  -63.1828 H         1 3GH         0.0502
    108 H         -13.7480  -45.2529  -63.6575 H         1 3GH         0.0502
    109 H         -13.8025  -43.0185  -65.6953 H         1 3GH         0.0290
    110 H         -15.2998  -43.7137  -64.9924 H         1 3GH         0.0290
    111 H         -14.7397  -45.8963  -65.8189 H         1 3GH         0.0267
    112 H         -13.1358  -45.3058  -66.3922 H         1 3GH         0.0267
    113 H         -14.0597  -44.1590  -68.1780 H         1 3GH         0.0265
    114 H         -15.6611  -44.0315  -67.4056 H         1 3GH         0.0265
    115 H         -16.3391  -45.9277  -68.3777 H         1 3GH         0.0265
    116 H         -14.9101  -46.8090  -67.7368 H         1 3GH         0.0265
    117 H         -14.0364  -46.8927  -69.7732 H         1 3GH         0.0265
    118 H         -14.0848  -45.0948  -69.8743 H         1 3GH         0.0265
    119 H         -16.3529  -45.1828  -70.7206 H         1 3GH         0.0265
    120 H         -16.3615  -46.9740  -70.5613 H         1 3GH         0.0265
    121 H         -15.8575  -46.7768  -72.7752 H         1 3GH         0.0265
    122 H         -14.1920  -46.7218  -72.0663 H         1 3GH         0.0265
    123 H         -14.0548  -44.3957  -72.3435 H         1 3GH         0.0265
    124 H         -15.8152  -44.2545  -72.6804 H         1 3GH         0.0265
    125 H         -15.5572  -44.7883  -74.8578 H         1 3GH         0.0265
    126 H         -14.3322  -46.0378  -74.5068 H         1 3GH         0.0265
    127 H         -12.7055  -44.6362  -75.1038 H         1 3GH         0.0265
    128 H         -13.2579  -43.4540  -73.8628 H         1 3GH         0.0265
    129 H         -14.9696  -43.4924  -76.2138 H         1 3GH         0.0265
    130 H         -13.2556  -43.0849  -76.6054 H         1 3GH         0.0265
    131 H         -13.6645  -41.0004  -75.9203 H         1 3GH         0.0265
    132 H         -13.9140  -41.6390  -74.2746 H         1 3GH         0.0265
    133 H         -16.1261  -41.3268  -74.3884 H         1 3GH         0.0265
    134 H         -16.2139  -42.0862  -76.0234 H         1 3GH         0.0265
    135 H         -16.2268  -40.1097  -77.0671 H         1 3GH         0.0265
    136 H         -15.0059  -39.4018  -75.9348 H         1 3GH         0.0265
    137 H         -16.9541  -38.1304  -75.6131 H         1 3GH         0.0265
    138 H         -16.9292  -39.3106  -74.2490 H         1 3GH         0.0265
    139 H         -18.5148  -40.7217  -75.4438 H         1 3GH         0.0265
    140 H         -18.5426  -39.5371  -76.8034 H         1 3GH         0.0265
    141 H         -19.7810  -38.0153  -75.6207 H         1 3GH         0.0265
    142 H         -19.1776  -38.5867  -74.0403 H         1 3GH         0.0265
    143 H         -20.5230  -40.7718  -75.2115 H         1 3GH         0.0265
    144 H         -21.5735  -39.3257  -75.4539 H         1 3GH         0.0265
    145 H         -21.9876  -39.0971  -73.2485 H         1 3GH         0.0265
    146 H         -20.3490  -39.6811  -72.7750 H         1 3GH         0.0265
    147 H         -22.2249  -41.6410  -73.9948 H         1 3GH         0.0265
    148 H         -22.5572  -41.0950  -72.3117 H         1 3GH         0.0265
    149 H         -20.6581  -42.0546  -71.4830 H         1 3GH         0.0265
    150 H         -19.7815  -41.9226  -73.0507 H         1 3GH         0.0265
    151 H         -21.4385  -43.6851  -73.9024 H         1 3GH         0.0265
    152 H         -21.8302  -43.9652  -72.1794 H         1 3GH         0.0265
    153 H         -19.2273  -44.1267  -71.9109 H         1 3GH         0.0263
    154 H         -19.2691  -44.4646  -73.6746 H         1 3GH         0.0263
    155 H         -20.7801  -45.9800  -71.5269 H         1 3GH         0.0230
    156 H         -20.8216  -46.3150  -73.2754 H         1 3GH         0.0230
    157 H         -19.3094  -46.5378  -72.3617 H         1 3GH         0.0230
@<TRIPOS>BOND
     1    1    2 1  
     2   22    1 1  
     3    2    3 1  
     4    2    4 1  
     5    3   32 am 
     6    4    5 1  
     7    4    6 1  
     8    6    7 1  
     9    7    8 1  
    10    8    9 1  
    11    9   10 1  
    12   10   11 1  
    13   11   12 1  
    14   12   13 1  
    15   13   14 1  
    16   14   15 1  
    17   15   16 1  
    18   16   17 1  
    19   17   18 1  
    20   18   19 1  
    21   19   20 1  
    22   21   22 1  
    23   23   21 1  
    24   21   31 1  
    25   23   24 1  
    26   25   23 1  
    27   26   25 1  
    28   26   27 1  
    29   29   26 1  
    30   30   28 1  
    31   29   30 1  
    32   29   31 1  
    33   32   33 2  
    34   32   34 1  
    35   34   35 1  
    36   35   36 1  
    37   36   37 1  
    38   37   38 1  
    39   38   39 1  
    40   39   40 1  
    41   40   41 1  
    42   41   42 1  
    43   42   43 1  
    44   43   44 1  
    45   44   45 1  
    46   45   46 1  
    47   46   47 1  
    48   47   48 1  
    49   48   49 1  
    50   49   50 1  
    51   50   51 1  
    52   51   52 1  
    53   52   53 1  
    54   53   54 1  
    55   54   55 1  
    56   55   56 1  
    57   56   57 1  
    58   57   58 1  
    59    1   59 1  
    60    1   60 1  
    61    2   61 1  
    62    3   62 1  
    63    4   63 1  
    64    5   64 1  
    65    6   65 1  
    66    6   66 1  
    67    7   67 1  
    68    7   68 1  
    69    8   69 1  
    70    8   70 1  
    71    9   71 1  
    72    9   72 1  
    73   10   73 1  
    74   10   74 1  
    75   11   75 1  
    76   11   76 1  
    77   12   77 1  
    78   12   78 1  
    79   13   79 1  
    80   13   80 1  
    81   14   81 1  
    82   14   82 1  
    83   15   83 1  
    84   15   84 1  
    85   16   85 1  
    86   16   86 1  
    87   17   87 1  
    88   17   88 1  
    89   18   89 1  
    90   18   90 1  
    91   19   91 1  
    92   19   92 1  
    93   20   93 1  
    94   20   94 1  
    95   20   95 1  
    96   21   96 1  
    97   23   97 1  
    98   24   98 1  
    99   25   99 1  
   100   25  100 1  
   101   26  101 1  
   102   27  102 1  
   103   28  103 1  
   104   29  104 1  
   105   30  105 1  
   106   30  106 1  
   107   34  107 1  
   108   34  108 1  
   109   35  109 1  
   110   35  110 1  
   111   36  111 1  
   112   36  112 1  
   113   37  113 1  
   114   37  114 1  
   115   38  115 1  
   116   38  116 1  
   117   39  117 1  
   118   39  118 1  
   119   40  119 1  
   120   40  120 1  
   121   41  121 1  
   122   41  122 1  
   123   42  123 1  
   124   42  124 1  
   125   43  125 1  
   126   43  126 1  
   127   44  127 1  
   128   44  128 1  
   129   45  129 1  
   130   45  130 1  
   131   46  131 1  
   132   46  132 1  
   133   47  133 1  
   134   47  134 1  
   135   48  135 1  
   136   48  136 1  
   137   49  137 1  
   138   49  138 1  
   139   50  139 1  
   140   50  140 1  
   141   51  141 1  
   142   51  142 1  
   143   52  143 1  
   144   52  144 1  
   145   53  145 1  
   146   53  146 1  
   147   54  147 1  
   148   54  148 1  
   149   55  149 1  
   150   55  150 1  
   151   56  151 1  
   152   56  152 1  
   153   57  153 1  
   154   57  154 1  
   155   58  155 1  
   156   58  156 1  
   157   58  157 1  
@<TRIPOS>SUBSTRUCTURE
     1 3GH         1

