4n9b_ligand
  -I-interpret- 

 25 26  0  0  0  0  0  0  0  0999 V2000
   16.9700  -15.7290   -2.0610 C   0  0  0  0  0
   15.5340  -15.4500   -2.0400 N   0  0  0  0  0
   14.6860  -15.6970   -0.9890 C   0  0  0  0  0
   13.4370  -15.2700   -1.4200 C   0  0  0  0  0
   13.6310  -14.7880   -2.7210 C   0  0  0  0  0
   14.8970  -14.9240   -3.0220 N   0  0  0  0  0
   15.0330  -16.3040    0.3220 C   0  0  0  0  0
   15.9270  -17.1270    0.4080 O   0  0  0  0  0
   14.3380  -15.9280    1.4210 N   0  0  0  0  0
   14.4890  -16.3510    2.7600 C   0  0  0  0  0
   13.6150  -15.7980    3.6840 C   0  0  0  0  0
   13.6920  -16.1570    5.0120 C   0  0  0  0  0
   14.6500  -17.0690    5.3900 C   0  0  0  0  0
   15.4750  -17.5960    4.5150 N   0  0  0  0  0
   15.4210  -17.2690    3.2390 C   0  0  0  0  0
   17.4594  -15.1685   -1.2645 H   0  0  0  0  0
   17.1338  -16.7960   -1.9097 H   0  0  0  0  0
   17.3829  -15.4297   -3.0243 H   0  0  0  0  0
   12.5010  -15.3030   -0.8624 H   0  0  0  0  0
   12.8606  -14.3717   -3.3701 H   0  0  0  0  0
   13.6007  -15.2419    1.2592 H   0  0  0  0  0
   12.8649  -15.0772    3.3586 H   0  0  0  0  0
   13.0097  -15.7283    5.7460 H   0  0  0  0  0
   14.7258  -17.3602    6.4377 H   0  0  0  0  0
   16.1223  -17.7279    2.5421 H   0  0  0  0  0
  1  2  1  0  0  0
  2  3  4  0  0  0
  2  6  4  0  0  0
  3  4  4  0  0  0
  3  7  1  0  0  0
  4  5  4  0  0  0
  5  6  4  0  0  0
  7  8  2  0  0  0
  7  9  1  0  0  0
  9 10  1  0  0  0
 10 11  4  0  0  0
 10 15  4  0  0  0
 11 12  4  0  0  0
 12 13  4  0  0  0
 13 14  4  0  0  0
 14 15  4  0  0  0
  1 16  1  0  0  0
  1 17  1  0  0  0
  1 18  1  0  0  0
  4 19  1  0  0  0
  5 20  1  0  0  0
  9 21  1  0  0  0
 11 22  1  0  0  0
 12 23  1  0  0  0
 13 24  1  0  0  0
 15 25  1  0  0  0
M  END
$$$$
