5m6f_ligand
  -I-interpret- 

 67 70  0  0  0  0  0  0  0  0999 V2000
  -16.4230  -15.1370   -4.2970 C   0  0  0  0  0
  -16.2270  -16.6400   -2.4570 C   0  0  0  0  0
  -15.6590  -18.1340   -0.6580 C   0  0  0  0  0
  -16.0770  -20.5680   -0.7930 C   0  0  0  0  0
  -15.5450  -21.9070   -0.3580 C   0  0  0  0  0
  -16.6250  -19.0660   -4.2270 C   0  0  0  0  0
  -15.3310  -19.2100   -5.0310 C   0  0  0  0  0
  -16.6380  -18.4320   -6.9780 C   0  0  0  0  0
  -16.3040  -18.3110   -8.4880 C   0  0  0  0  0
  -14.8290  -18.4570   -8.5350 C   0  0  0  0  0
  -12.7010  -18.4770   -9.3950 C   0  0  0  0  0
  -12.1180  -18.8180   -8.1890 C   0  0  0  0  0
  -10.6210  -19.0190   -8.0510 C   0  0  0  0  0
  -10.2080  -20.4140   -8.4390 C   0  0  0  0  0
  -10.3770  -21.4680   -7.5630 C   0  0  0  0  0
  -10.0100  -22.7520   -7.9200 C   0  0  0  0  0
   -9.4730  -22.9970   -9.1570 C   0  0  0  0  0
   -9.2920  -21.9560  -10.0410 C   0  0  0  0  0
  -14.3400  -18.8010   -7.2620 C   0  0  0  0  0
  -15.6280  -16.1340   -3.6370 O   0  0  0  0  0
  -15.6390  -18.0150   -2.1660 C   0  0  0  0  0
  -16.1070  -20.4360   -2.3020 C   0  0  0  0  0
  -16.4630  -19.0870   -2.7710 N   0  3  0  0  0
  -14.3060  -19.6070   -4.5120 O   0  0  0  0  0
  -15.3870  -18.8830   -6.3440 N   0  0  0  0  0
  -17.0110  -19.4170   -9.2790 C   0  0  0  0  0
  -16.7650  -16.9560   -9.0110 C   0  0  0  0  0
  -14.0130  -18.2960   -9.5770 N   0  0  0  0  0
   -9.6590  -20.6720   -9.6850 C   0  0  0  0  0
  -12.9710  -18.9880   -7.1050 C   0  0  0  0  0
  -15.2120  -19.4870   -0.2250 N   0  3  0  0  0
  -17.3850  -15.5671   -4.5757 H   0  0  0  0  0
  -16.5815  -14.2955   -3.6226 H   0  0  0  0  0
  -15.9039  -14.7941   -5.1920 H   0  0  0  0  0
  -17.3058  -16.7182   -2.5920 H   0  0  0  0  0
  -16.0298  -15.9673   -1.6223 H   0  0  0  0  0
  -16.6785  -17.9731   -0.3074 H   0  0  0  0  0
  -14.9811  -17.3904   -0.2389 H   0  0  0  0  0
  -17.0994  -20.4781   -0.4258 H   0  0  0  0  0
  -16.1810  -22.6966   -0.7581 H   0  0  0  0  0
  -14.5291  -22.0321   -0.7328 H   0  0  0  0  0
  -15.5409  -21.9586    0.7308 H   0  0  0  0  0
  -17.2490  -19.9219   -4.4840 H   0  0  0  0  0
  -17.0432  -18.0919   -4.4805 H   0  0  0  0  0
  -17.4551  -19.1313   -6.8004 H   0  0  0  0  0
  -16.9812  -17.4841   -6.5636 H   0  0  0  0  0
  -12.0462  -18.3468  -10.2566 H   0  0  0  0  0
  -10.3476  -18.8575   -7.0083 H   0  0  0  0  0
  -10.1176  -18.3151   -8.7137 H   0  0  0  0  0
  -10.8052  -21.2852   -6.5775 H   0  0  0  0  0
  -10.1481  -23.5722   -7.2155 H   0  0  0  0  0
   -9.1904  -24.0110   -9.4401 H   0  0  0  0  0
   -8.8585  -22.1454  -11.0230 H   0  0  0  0  0
  -14.6373  -18.1200   -2.5826 H   0  0  0  0  0
  -16.8681  -21.1218   -2.6741 H   0  0  0  0  0
  -15.1038  -20.6542   -2.6682 H   0  0  0  0  0
  -17.3873  -18.8471   -2.4125 H   0  0  0  0  0
  -16.6786  -20.3900   -8.9171 H   0  0  0  0  0
  -18.0888  -19.3264   -9.1438 H   0  0  0  0  0
  -16.7666  -19.3185  -10.3367 H   0  0  0  0  0
  -17.8417  -16.8609   -8.8704 H   0  0  0  0  0
  -16.2544  -16.1638   -8.4635 H   0  0  0  0  0
  -16.5275  -16.8775  -10.0719 H   0  0  0  0  0
   -9.5152  -19.8542  -10.3912 H   0  0  0  0  0
  -12.5670  -19.2678   -6.1321 H   0  0  0  0  0
  -15.2693  -19.5326    0.7924 H   0  0  0  0  0
  -14.2590  -19.6312   -0.5587 H   0  0  0  0  0
 20  1  1  0  0  0
  2 20  1  0  0  0
 21  2  1  0  0  0
 21  3  1  0  0  0
  3 31  1  0  0  0
  4  5  1  0  0  0
  4 22  1  0  0  0
 31  4  1  0  0  0
  6  7  1  0  0  0
 23  6  1  0  0  0
  7 24  2  0  0  0
  7 25  1  0  0  0
  8  9  1  0  0  0
 25  8  1  0  0  0
 10  9  1  0  0  0
  9 26  1  0  0  0
  9 27  1  0  0  0
 19 10  4  0  0  0
 10 28  4  0  0  0
 12 11  4  0  0  0
 28 11  4  0  0  0
 12 13  1  0  0  0
 30 12  4  0  0  0
 13 14  1  0  0  0
 14 15  4  0  0  0
 14 29  4  0  0  0
 15 16  4  0  0  0
 16 17  4  0  0  0
 18 17  4  0  0  0
 29 18  4  0  0  0
 25 19  1  0  0  0
 19 30  4  0  0  0
 21 23  1  0  0  0
 22 23  1  0  0  0
  1 32  1  0  0  0
  1 33  1  0  0  0
  1 34  1  0  0  0
  2 35  1  0  0  0
  2 36  1  0  0  0
  3 37  1  0  0  0
  3 38  1  0  0  0
  4 39  1  0  0  0
  5 40  1  0  0  0
  5 41  1  0  0  0
  5 42  1  0  0  0
  6 43  1  0  0  0
  6 44  1  0  0  0
  8 45  1  0  0  0
  8 46  1  0  0  0
 11 47  1  0  0  0
 13 48  1  0  0  0
 13 49  1  0  0  0
 15 50  1  0  0  0
 16 51  1  0  0  0
 17 52  1  0  0  0
 18 53  1  0  0  0
 21 54  1  0  0  0
 22 55  1  0  0  0
 22 56  1  0  0  0
 23 57  1  0  0  0
 26 58  1  0  0  0
 26 59  1  0  0  0
 26 60  1  0  0  0
 27 61  1  0  0  0
 27 62  1  0  0  0
 27 63  1  0  0  0
 29 64  1  0  0  0
 30 65  1  0  0  0
 31 66  1  0  0  0
 31 67  1  0  0  0
M  END
$$$$
