4nhy_ligand
  -I-interpret- 

 17 17  0  0  0  0  0  0  0  0999 V2000
  -12.1720   42.2890  -64.5420 O   0  0  0  0  0
  -12.4570   43.3540  -63.9100 C   0  0  0  0  0
  -13.6460   43.7960  -63.8280 O   0  0  0  0  0
  -11.3480   44.1450  -63.2550 C   0  0  0  0  0
  -11.6120   45.4130  -62.8330 C   0  0  0  0  0
  -10.6220   46.1740  -62.2280 C   0  0  0  0  0
  -10.1000   43.6230  -63.0830 C   0  0  0  0  0
   -9.1130   44.3880  -62.4780 C   0  0  0  0  0
   -9.3790   45.6530  -62.0570 N   0  0  0  0  0
   -7.7180   43.8430  -62.2870 C   0  0  0  0  0
   -6.8450   44.5720  -61.7290 O   0  0  0  0  0
   -7.4340   42.6830  -62.7020 O   0  0  0  0  0
  -13.6504   44.6055  -63.3119 H   0  0  0  0  0
  -12.6083   45.8329  -62.9716 H   0  0  0  0  0
  -10.8410   47.1871  -61.8908 H   0  0  0  0  0
   -9.8789   42.6099  -63.4191 H   0  0  0  0  0
   -7.2406   45.4112  -61.4825 H   0  0  0  0  0
  1  2  2  0  0  0
  2  3  1  0  0  0
  2  4  1  0  0  0
  4  5  4  0  0  0
  4  7  4  0  0  0
  5  6  4  0  0  0
  6  9  4  0  0  0
  7  8  4  0  0  0
  8  9  4  0  0  0
  8 10  1  0  0  0
 10 11  1  0  0  0
 10 12  2  0  0  0
  3 13  1  0  0  0
  5 14  1  0  0  0
  6 15  1  0  0  0
  7 16  1  0  0  0
 11 17  1  0  0  0
M  END
$$$$
