3u6i_ligand
  -I-interpret- 

 67 71  0  0  0  0  0  0  0  0999 V2000
   20.3980   -6.2900   24.8500 C   0  0  0  0  0
   23.5170   -4.8210   21.2380 C   0  0  0  0  0
   24.2370   -4.8530   22.4350 C   0  0  0  0  0
   23.6500   -5.2180   23.5710 N   0  0  0  0  0
   22.3430   -5.5570   23.6080 C   0  0  0  0  0
   21.5740   -5.5500   22.4360 C   0  0  0  0  0
   22.1620   -5.1740   21.2330 C   0  0  0  0  0
   21.7520   -5.9300   24.8120 C   0  0  0  0  0
   19.6360   -6.2660   23.6840 C   0  0  0  0  0
   20.2220   -5.9000   22.4750 C   0  0  0  0  0
   21.3800   -5.1630   20.1030 O   0  0  0  0  0
   21.8370   -4.5110   18.9920 C   0  0  0  0  0
   21.8220   -3.1160   18.8650 C   0  0  0  0  0
   22.3050   -5.2870   17.9440 C   0  0  0  0  0
   22.7790   -4.6960   16.7760 C   0  0  0  0  0
   22.7730   -3.3070   16.6280 C   0  0  0  0  0
   22.2990   -2.5250   17.6860 C   0  0  0  0  0
   23.2770   -2.8070   15.4800 N   0  0  0  0  0
   24.5030   -2.3620   12.8740 C   0  0  0  0  0
   24.0470   -1.3510   13.7050 C   0  0  0  0  0
   23.3260   -1.5340   15.0590 C   0  0  0  0  0
   22.9040   -0.5690   15.6970 O   0  0  0  0  0
   25.0570   -0.5370   11.9200 N   0  0  0  0  0
   24.4490   -0.1830   13.0670 C   0  0  0  0  0
   25.0850   -1.7820   11.8190 N   0  0  0  0  0
   24.3570   -3.5710   13.0650 O   0  0  0  0  0
   25.6800   -2.4600   10.8340 C   0  0  0  0  0
   27.0680   -2.6220   10.9390 C   0  0  0  0  0
   24.9990   -3.0030    9.7440 C   0  0  0  0  0
   25.7200   -3.6950    8.7680 C   0  0  0  0  0
   27.7860   -3.3130    9.9640 C   0  0  0  0  0
   27.1020   -3.8510    8.8740 C   0  0  0  0  0
   22.3070   -6.6240   18.0920 F   0  0  0  0  0
   24.2090    1.2560   13.5580 C   0  0  0  0  0
   25.6720    0.4140   10.9450 C   0  0  0  0  0
   24.7660    1.0690    9.9010 C   0  0  0  0  0
   25.5780    2.0810    9.0770 C   0  0  0  0  0
   24.2000    0.0810    9.0490 O   0  0  0  0  0
   19.7840   -6.6550   26.0110 O   0  0  0  0  0
   20.6820   -7.0740   27.0560 C   0  0  0  0  0
   24.0081   -4.5225   20.3118 H   0  0  0  0  0
   25.2912   -4.5758   22.4377 H   0  0  0  0  0
   22.3437   -5.9421   25.7273 H   0  0  0  0  0
   18.5800   -6.5340   23.7181 H   0  0  0  0  0
   19.6275   -5.8866   21.5615 H   0  0  0  0  0
   21.4425   -2.4947   19.6762 H   0  0  0  0  0
   23.1584   -5.3232   15.9693 H   0  0  0  0  0
   22.3003   -1.4390   17.5929 H   0  0  0  0  0
   23.6775   -3.4946   14.8419 H   0  0  0  0  0
   27.5942   -2.2014   11.7959 H   0  0  0  0  0
   23.9186   -2.8887    9.6552 H   0  0  0  0  0
   25.1954   -4.1189    7.9118 H   0  0  0  0  0
   28.8660   -3.4311   10.0522 H   0  0  0  0  0
   27.6486   -4.3945    8.1034 H   0  0  0  0  0
   23.1373    1.4353   13.6436 H   0  0  0  0  0
   24.6800    1.3895   14.5319 H   0  0  0  0  0
   24.6404    1.9585   12.8450 H   0  0  0  0  0
   26.3838   -0.1817   10.3735 H   0  0  0  0  0
   26.0544    1.2366   11.5493 H   0  0  0  0  0
   23.9549    1.5905   10.4092 H   0  0  0  0  0
   25.9812    2.8468    9.7396 H   0  0  0  0  0
   26.3967    1.5653    8.5750 H   0  0  0  0  0
   24.9299    2.5460    8.3341 H   0  0  0  0  0
   23.6346    0.5058    8.3998 H   0  0  0  0  0
   21.2561   -7.9359   26.7160 H   0  0  0  0  0
   21.3609   -6.2567   27.2993 H   0  0  0  0  0
   20.1063   -7.3455   27.9408 H   0  0  0  0  0
  8  1  4  0  0  0
  9  1  4  0  0  0
  1 39  1  0  0  0
  2  3  4  0  0  0
  7  2  4  0  0  0
  3  4  4  0  0  0
  5  4  4  0  0  0
  6  5  4  0  0  0
  5  8  4  0  0  0
  7  6  4  0  0  0
  6 10  4  0  0  0
 11  7  1  0  0  0
 10  9  4  0  0  0
 12 11  1  0  0  0
 13 12  4  0  0  0
 14 12  4  0  0  0
 17 13  4  0  0  0
 15 14  4  0  0  0
 14 33  1  0  0  0
 16 15  4  0  0  0
 16 17  4  0  0  0
 18 16  1  0  0  0
 21 18  1  0  0  0
 20 19  1  0  0  0
 19 25  1  0  0  0
 19 26  2  0  0  0
 20 21  1  0  0  0
 20 24  2  0  0  0
 21 22  2  0  0  0
 24 23  1  0  0  0
 23 25  1  0  0  0
 23 35  1  0  0  0
 24 34  1  0  0  0
 25 27  1  0  0  0
 27 28  4  0  0  0
 27 29  4  0  0  0
 28 31  4  0  0  0
 29 30  4  0  0  0
 30 32  4  0  0  0
 31 32  4  0  0  0
 35 36  1  0  0  0
 36 37  1  0  0  0
 36 38  1  0  0  0
 39 40  1  0  0  0
  2 41  1  0  0  0
  3 42  1  0  0  0
  8 43  1  0  0  0
  9 44  1  0  0  0
 10 45  1  0  0  0
 13 46  1  0  0  0
 15 47  1  0  0  0
 17 48  1  0  0  0
 18 49  1  0  0  0
 28 50  1  0  0  0
 29 51  1  0  0  0
 30 52  1  0  0  0
 31 53  1  0  0  0
 32 54  1  0  0  0
 34 55  1  0  0  0
 34 56  1  0  0  0
 34 57  1  0  0  0
 35 58  1  0  0  0
 35 59  1  0  0  0
 36 60  1  0  0  0
 37 61  1  0  0  0
 37 62  1  0  0  0
 37 63  1  0  0  0
 38 64  1  0  0  0
 40 65  1  0  0  0
 40 66  1  0  0  0
 40 67  1  0  0  0
M  END
$$$$
