6jid_ligand
  -I-interpret- 

 48 52  0  0  0  0  0  0  0  0999 V2000
  -67.4780   32.5400  -23.0890 S   0  0  0  0  0
  -58.7190   27.8430  -27.6120 O   0  0  0  0  0
  -60.6100   29.8570  -23.7050 O   0  0  0  0  0
  -68.5950   31.5660  -22.9510 O   0  0  0  0  0
  -67.7120   33.9870  -23.1380 O   0  0  0  0  0
  -66.3370   32.2330  -21.8800 N   0  0  0  0  0
  -65.1840   31.6190  -22.3050 C   0  0  0  0  0
  -64.1190   31.1970  -21.5050 C   0  0  0  0  0
  -66.3800   31.9110  -24.4240 C   0  0  0  0  0
  -65.1480   31.4080  -23.6980 C   0  0  0  0  0
  -64.0240   30.7920  -24.3310 C   0  0  0  0  0
  -62.9350   30.3590  -23.5260 C   0  0  0  0  0
  -62.9970   30.6010  -22.1230 C   0  0  0  0  0
  -61.7780   29.5960  -24.1070 C   0  0  0  0  0
  -61.9940   28.6660  -25.0960 N   0  0  0  0  0
  -63.2690   28.0420  -25.5510 C   0  0  0  0  0
  -63.5340   28.3650  -27.0240 C   0  0  0  0  0
  -60.7830   28.2660  -25.8300 C   0  0  0  0  0
  -61.0450   28.1010  -27.3020 C   0  0  0  0  0
  -59.8520   27.8710  -28.1360 C   0  0  0  0  0
  -60.0930   27.7340  -29.5150 N   0  0  0  0  0
  -61.3290   27.7740  -29.9790 C   0  0  0  0  0
  -62.4840   27.9630  -29.2060 N   0  0  0  0  0
  -62.2930   28.1450  -27.8500 C   0  0  0  0  0
  -61.5660   27.5300  -31.4200 C   0  0  0  0  0
  -62.5910   26.5480  -31.6780 C   0  0  0  0  0
  -62.9320   26.1670  -32.9850 C   0  0  0  0  0
  -60.8140   28.1350  -32.4560 C   0  0  0  0  0
  -61.1720   27.7690  -33.7740 C   0  0  0  0  0
  -62.1990   26.8000  -34.0240 C   0  0  0  0  0
  -66.4936   32.4857  -20.9043 H   0  0  0  0  0
  -64.1532   31.3254  -20.4231 H   0  0  0  0  0
  -66.1373   32.6854  -25.1517 H   0  0  0  0  0
  -66.8579   31.1256  -25.0095 H   0  0  0  0  0
  -64.0022   30.6566  -25.4123 H   0  0  0  0  0
  -62.1469   30.3156  -21.5034 H   0  0  0  0  0
  -64.0886   28.4370  -24.9506 H   0  0  0  0  0
  -63.1931   26.9608  -25.4354 H   0  0  0  0  0
  -63.8316   29.4103  -27.1072 H   0  0  0  0  0
  -64.3227   27.7088  -27.3920 H   0  0  0  0  0
  -60.4455   27.3080  -25.4344 H   0  0  0  0  0
  -60.0336   29.0472  -25.7027 H   0  0  0  0  0
  -63.4150   27.9659  -29.6227 H   0  0  0  0  0
  -63.1132   26.0909  -30.8375 H   0  0  0  0  0
  -63.7102   25.4318  -33.1898 H   0  0  0  0  0
  -60.0084   28.8398  -32.2501 H   0  0  0  0  0
  -60.6576   28.2322  -34.6160 H   0  0  0  0  0
  -62.4273   26.5376  -35.0570 H   0  0  0  0  0
  1  4  2  0  0  0
  1  5  2  0  0  0
  6  1  1  0  0  0
  9  1  1  0  0  0
 20  2  2  0  0  0
 14  3  2  0  0  0
  7  6  1  0  0  0
  8  7  4  0  0  0
 10  7  4  0  0  0
 13  8  4  0  0  0
 10  9  1  0  0  0
 11 10  4  0  0  0
 12 11  4  0  0  0
 12 13  4  0  0  0
 14 12  1  0  0  0
 15 14  1  0  0  0
 15 16  1  0  0  0
 18 15  1  0  0  0
 16 17  1  0  0  0
 17 24  1  0  0  0
 19 18  1  0  0  0
 19 20  1  0  0  0
 19 24  2  0  0  0
 20 21  1  0  0  0
 21 22  2  0  0  0
 22 23  1  0  0  0
 22 25  1  0  0  0
 23 24  1  0  0  0
 25 26  4  0  0  0
 25 28  4  0  0  0
 26 27  4  0  0  0
 27 30  4  0  0  0
 28 29  4  0  0  0
 29 30  4  0  0  0
  6 31  1  0  0  0
  8 32  1  0  0  0
  9 33  1  0  0  0
  9 34  1  0  0  0
 11 35  1  0  0  0
 13 36  1  0  0  0
 16 37  1  0  0  0
 16 38  1  0  0  0
 17 39  1  0  0  0
 17 40  1  0  0  0
 18 41  1  0  0  0
 18 42  1  0  0  0
 23 43  1  0  0  0
 26 44  1  0  0  0
 27 45  1  0  0  0
 28 46  1  0  0  0
 29 47  1  0  0  0
 30 48  1  0  0  0
M  END
$$$$
