6mt0_ligand
  -I-interpret- 

 55 60  0  0  0  0  0  0  0  0999 V2000
  -38.0300   -4.3550    2.6360 C   0  0  0  0  0
  -37.8450   -3.1670    1.7360 C   0  0  0  0  0
  -36.9020   -3.4650    0.7220 N   0  0  0  0  0
  -37.5390   -3.3290   -0.5460 C   0  0  0  0  0
  -37.0030   -3.5210   -1.6230 O   0  0  0  0  0
  -38.9760   -2.9060   -0.2940 C   0  0  0  0  0
  -40.2150   -2.5800   -0.8810 C   0  0  0  0  0
  -41.0910   -2.2640    0.1530 C   0  0  0  0  0
  -40.4210   -2.4500    1.3000 N   0  0  0  0  0
  -39.1450   -2.8160    1.0530 C   0  0  0  0  0
  -42.4530   -1.9390    0.0460 C   0  0  0  0  0
  -43.0570   -1.8220   -1.2050 C   0  0  0  0  0
  -44.4160   -1.5480   -1.3210 C   0  0  0  0  0
  -45.2130   -1.4080   -0.1850 C   0  0  0  0  0
  -44.6240   -1.5360    1.1040 C   0  0  0  0  0
  -45.4110   -1.3990    2.2930 C   0  0  0  0  0
  -46.5990   -1.1580    2.2070 O   0  0  0  0  0
  -44.8300   -1.5350    3.5100 N   0  0  0  0  0
  -43.5090   -1.8010    3.5920 C   0  0  0  0  0
  -42.8560   -1.9310    4.8490 N   0  0  0  0  0
  -41.5160   -2.3360    4.9450 C   0  0  0  0  0
  -41.1590   -3.7840    4.6360 C   0  0  0  0  0
  -40.4760   -1.2670    4.6500 C   0  0  0  0  0
  -40.7320   -1.7160    6.0850 C   0  0  0  0  0
  -42.7520   -1.9280    2.4800 N   0  0  0  0  0
  -43.2890   -1.8030    1.2140 C   0  0  0  0  0
  -45.6370   -1.4360    4.6890 C   0  0  0  0  0
  -45.8390   -0.1250    5.4110 C   0  0  0  0  0
  -45.5580   -2.6550    5.6090 C   0  0  0  0  0
  -46.7840   -2.4530    4.7470 C   0  0  0  0  0
  -38.7781   -4.1221    3.3938 H   0  0  0  0  0
  -38.3629   -5.2084    2.0452 H   0  0  0  0  0
  -37.0829   -4.5936    3.1198 H   0  0  0  0  0
  -37.5007   -2.3356    2.3512 H   0  0  0  0  0
  -35.9294   -3.7323    0.8738 H   0  0  0  0  0
  -40.4444   -2.5761   -1.9466 H   0  0  0  0  0
  -42.4556   -1.9470   -2.1055 H   0  0  0  0  0
  -44.8624   -1.4417   -2.3097 H   0  0  0  0  0
  -46.2788   -1.2021   -0.2838 H   0  0  0  0  0
  -43.3751   -1.7245    5.7024 H   0  0  0  0  0
  -41.6944   -4.4427    5.3198 H   0  0  0  0  0
  -41.4428   -4.0157    3.6094 H   0  0  0  0  0
  -40.0853   -3.9262    4.7584 H   0  0  0  0  0
  -40.3915   -0.3394    4.0839 H   0  0  0  0  0
  -39.6319   -1.1073    3.9791 H   0  0  0  0  0
  -40.1603   -2.0391    6.9549 H   0  0  0  0  0
  -40.9230   -1.2680    7.0601 H   0  0  0  0  0
  -41.7554   -2.1217    2.5785 H   0  0  0  0  0
  -44.8739    0.2584    5.7421 H   0  0  0  0  0
  -46.3040    0.5926    4.7351 H   0  0  0  0  0
  -46.4844   -0.2832    6.2751 H   0  0  0  0  0
  -45.3241   -2.8730    6.6510 H   0  0  0  0  0
  -44.8520   -3.4515    5.8440 H   0  0  0  0  0
  -47.3984   -3.0294    4.0553 H   0  0  0  0  0
  -47.8683   -2.4536    4.8586 H   0  0  0  0  0
  1  2  1  0  0  0
  2  3  1  0  0  0
  2 10  1  0  0  0
  3  4  1  0  0  0
  4  5  2  0  0  0
  4  6  1  0  0  0
  6  7  4  0  0  0
  6 10  4  0  0  0
  7  8  4  0  0  0
  8  9  4  0  0  0
  8 11  1  0  0  0
  9 10  4  0  0  0
 11 12  4  0  0  0
 11 26  4  0  0  0
 12 13  4  0  0  0
 13 14  4  0  0  0
 14 15  4  0  0  0
 15 16  1  0  0  0
 15 26  4  0  0  0
 16 17  2  0  0  0
 16 18  1  0  0  0
 18 19  4  0  0  0
 18 27  1  0  0  0
 19 20  1  0  0  0
 19 25  1  0  0  0
 20 21  1  0  0  0
 21 22  1  0  0  0
 21 23  1  0  0  0
 21 24  1  0  0  0
 23 24  1  0  0  0
 25 26  1  0  0  0
 27 28  1  0  0  0
 27 29  1  0  0  0
 27 30  1  0  0  0
 29 30  1  0  0  0
  1 31  1  0  0  0
  1 32  1  0  0  0
  1 33  1  0  0  0
  2 34  1  0  0  0
  3 35  1  0  0  0
  7 36  1  0  0  0
 12 37  1  0  0  0
 13 38  1  0  0  0
 14 39  1  0  0  0
 20 40  1  0  0  0
 22 41  1  0  0  0
 22 42  1  0  0  0
 22 43  1  0  0  0
 23 44  1  0  0  0
 23 45  1  0  0  0
 24 46  1  0  0  0
 24 47  1  0  0  0
 25 48  1  0  0  0
 28 49  1  0  0  0
 28 50  1  0  0  0
 28 51  1  0  0  0
 29 52  1  0  0  0
 29 53  1  0  0  0
 30 54  1  0  0  0
 30 55  1  0  0  0
M  END
$$$$
