5ei3_ligand
  -I-interpret- 

 53 56  0  0  0  0  0  0  0  0999 V2000
    5.2880  -10.4850   -4.5380 C   0  0  0  0  0
    4.7020  -11.1250   -5.6210 C   0  0  0  0  0
    3.3410  -11.3880   -5.6290 C   0  0  0  0  0
    6.8280  -10.9050   -6.0030 C   0  0  0  0  0
    2.5830  -10.9960   -4.5270 N   0  0  0  0  0
    2.5110   -9.9760   -2.4020 N   0  0  0  0  0
    4.5430  -10.1160   -3.4870 N   0  0  0  0  0
    7.1270  -13.9760   -7.7510 C   0  0  0  0  0
    7.4020  -15.3270   -7.5710 C   0  0  0  0  0
    6.3820  -16.2060   -7.2230 C   0  0  0  0  0
    5.0850  -15.7350   -7.0540 C   0  0  0  0  0
    4.8110  -14.3840   -7.2350 C   0  0  0  0  0
    5.8310  -13.5040   -7.5830 C   0  0  0  0  0
    5.5200  -12.0220   -7.7790 C   0  0  0  0  0
    5.6770  -11.3540   -6.4840 N   0  3  0  0  0
    2.8150  -11.9540   -6.5850 O   0  0  0  0  0
    3.2230  -10.3550   -3.4590 C   0  0  0  0  0
    6.5880  -10.3680   -4.8080 N   0  0  0  0  0
    7.6350   -9.7540   -3.9530 C   0  0  0  0  0
    8.4810  -10.8450   -3.4570 O   0  0  0  0  0
    7.1490   -8.9640   -2.7740 C   0  0  0  0  0
    8.1290   -7.9860   -2.4170 O   0  0  0  0  0
    7.0940  -10.0480   -1.6980 C   0  0  0  0  0
    7.4390   -9.4590   -0.4630 O   0  0  0  0  0
    8.2070  -11.0500   -2.0520 C   0  0  0  0  0
    7.8220  -12.5420   -1.7650 C   0  0  0  0  0
    6.3540  -12.6650   -1.9260 N   0  0  0  0  0
    5.8750  -13.7260   -3.1000 S   0  0  0  0  0
    6.8760  -13.7370   -4.2170 O   0  0  0  0  0
    4.5270  -13.3310   -3.6260 O   0  0  0  0  0
    5.7830  -15.3750   -2.3340 C   0  0  0  0  0
    6.9820  -15.7160   -1.8720 F   0  0  0  0  0
    4.9130  -15.3480   -1.3300 F   0  0  0  0  0
    5.3880  -16.2640   -3.2400 F   0  0  0  0  0
    7.7976  -10.9647   -6.4973 H   0  0  0  0  0
    1.5068  -10.1528   -2.3735 H   0  0  0  0  0
    4.9858   -9.6467   -2.6970 H   0  0  0  0  0
    7.9272  -13.2879   -8.0236 H   0  0  0  0  0
    8.4185  -15.6977   -7.7028 H   0  0  0  0  0
    6.5996  -17.2648   -7.0827 H   0  0  0  0  0
    4.2851  -16.4230   -6.7803 H   0  0  0  0  0
    3.7944  -14.0132   -7.1039 H   0  0  0  0  0
    4.5023  -11.8954   -8.1483 H   0  0  0  0  0
    6.1989  -11.5875   -8.5128 H   0  0  0  0  0
    8.1540   -9.0306   -4.5818 H   0  0  0  0  0
    6.2113   -8.4323   -2.9356 H   0  0  0  0  0
    7.8161   -7.4817   -1.6625 H   0  0  0  0  0
    6.1103  -10.5140   -1.6403 H   0  0  0  0  0
    7.4101  -10.1255    0.2273 H   0  0  0  0  0
    9.0811  -10.8717   -1.4257 H   0  0  0  0  0
    8.1185  -12.8235   -0.7546 H   0  0  0  0  0
    8.3375  -13.2076   -2.4574 H   0  0  0  0  0
    5.6917  -12.1370   -1.3577 H   0  0  0  0  0
  2  1  4  0  0  0
  1  7  1  0  0  0
 18  1  4  0  0  0
  2  3  1  0  0  0
 15  2  4  0  0  0
  3  5  1  0  0  0
  3 16  2  0  0  0
 15  4  4  0  0  0
  4 18  4  0  0  0
  5 17  4  0  0  0
 17  6  2  0  0  0
  7 17  1  0  0  0
  8  9  4  0  0  0
 13  8  4  0  0  0
  9 10  4  0  0  0
 11 10  4  0  0  0
 12 11  4  0  0  0
 13 12  4  0  0  0
 14 13  1  0  0  0
 14 15  1  0  0  0
 18 19  1  0  0  0
 19 20  1  0  0  0
 19 21  1  0  0  0
 20 25  1  0  0  0
 21 22  1  0  0  0
 21 23  1  0  0  0
 23 24  1  0  0  0
 23 25  1  0  0  0
 25 26  1  0  0  0
 26 27  1  0  0  0
 27 28  1  0  0  0
 28 29  2  0  0  0
 28 30  2  0  0  0
 28 31  1  0  0  0
 31 32  1  0  0  0
 31 33  1  0  0  0
 31 34  1  0  0  0
  4 35  1  0  0  0
  6 36  1  0  0  0
  7 37  1  0  0  0
  8 38  1  0  0  0
  9 39  1  0  0  0
 10 40  1  0  0  0
 11 41  1  0  0  0
 12 42  1  0  0  0
 14 43  1  0  0  0
 14 44  1  0  0  0
 19 45  1  0  0  0
 21 46  1  0  0  0
 22 47  1  0  0  0
 23 48  1  0  0  0
 24 49  1  0  0  0
 25 50  1  0  0  0
 26 51  1  0  0  0
 26 52  1  0  0  0
 27 53  1  0  0  0
M  END
$$$$
