### 
### Created by X-TOOL on Mon Sep 10 21:12:49 2018
### 

@<TRIPOS>MOLECULE
1eb1_ligand
  158   161     1     0     0
SMALL
GAST_HUCK


@<TRIPOS>ATOM
      1 N          21.7210  -12.0310   33.9490 N.4       1 ASP         0.2391
      2 CA         23.0490  -11.4830   34.3430 C.3       1 ASP         0.0765
      3 C          23.0570   -9.9550   34.3220 C.2       1 ASP         0.2285
      4 O          24.0620   -9.3360   33.9760 O.2       1 ASP        -0.3906
      5 CB         24.1410  -12.0370   33.4140 C.3       1 ASP         0.0607
      6 CG         23.8920  -11.7160   31.9430 C.2       1 ASP         0.0425
      7 OD1        22.7130  -11.6730   31.5290 O.co2     1 ASP        -0.5686
      8 OD2        24.8790  -11.5280   31.1950 O.co2     1 ASP        -0.5686
      9 N          21.9320   -9.3570   34.7070 N.am      1 TYR        -0.2593
     10 CA         21.8020   -7.9050   34.7330 C.3       1 TYR         0.1391
     11 C          21.9040   -7.3090   36.1330 C.2       1 TYR         0.2057
     12 O          21.1750   -7.7020   37.0450 O.2       1 TYR        -0.3942
     13 CB         20.4620   -7.4620   34.1140 C.3       1 TYR         0.0164
     14 CG         20.4100   -7.5680   32.6020 C.ar      1 TYR        -0.0493
     15 CD1        20.0760   -8.7710   31.9780 C.ar      1 TYR        -0.0685
     16 CD2        20.7710   -6.4820   31.7950 C.ar      1 TYR        -0.0685
     17 CE1        20.1110   -8.9000   30.5850 C.ar      1 TYR        -0.0398
     18 CE2        20.8120   -6.5970   30.4020 C.ar      1 TYR        -0.0398
     19 CZ         20.4860   -7.8110   29.8050 C.ar      1 TYR         0.0805
     20 OH         20.5760   -7.9510   28.4410 O.3       1 TYR        -0.3376
     21 N          22.8050   -6.3500   36.2960 N.am      1 GLU        -0.2635
     22 CA         22.9570   -5.6820   37.5700 C.3       1 GLU         0.1327
     23 C          21.6350   -4.9780   37.8680 C.2       1 GLU         0.2065
     24 O          21.0470   -4.3330   37.0050 O.2       1 GLU        -0.3942
     25 CB         24.1130   -4.6900   37.4960 C.3       1 GLU        -0.0008
     26 CG         24.0460   -3.5720   38.4970 C.3       1 GLU         0.0044
     27 CD         25.3360   -2.7640   38.5300 C.2       1 GLU         0.0350
     28 OE1        26.0110   -2.6730   37.4880 O.co2     1 GLU        -0.5690
     29 OE2        25.6730   -2.2160   39.6030 O.co2     1 GLU        -0.5690
     30 N          21.1340   -5.1140   39.1020 N.am      1 PRO        -0.2498
     31 CA         19.8660   -4.4810   39.4700 C.3       1 PRO         0.1338
     32 C          19.8100   -2.9610   39.3880 C.2       1 PRO         0.2041
     33 O          20.7620   -2.2580   39.7300 O.2       1 PRO        -0.3944
     34 CB         19.6130   -5.0110   40.8860 C.3       1 PRO        -0.0104
     35 CG         20.9960   -5.2600   41.4140 C.3       1 PRO        -0.0281
     36 CD         21.6730   -5.9090   40.2200 C.3       1 PRO         0.0369
     37 N          18.6790   -2.4630   38.9120 N.am      1 ILE        -0.2634
     38 CA         18.4680   -1.0320   38.7960 C.3       1 ILE         0.1337
     39 C          18.0270   -0.5040   40.1610 C.2       1 ILE         0.2067
     40 O          16.8810   -0.6880   40.5770 O.2       1 ILE        -0.3942
     41 CB         17.3900   -0.7310   37.7450 C.3       1 ILE        -0.0037
     42 CG1        17.7910   -1.3700   36.4070 C.3       1 ILE        -0.0491
     43 CG2        17.1950    0.7630   37.6120 C.3       1 ILE        -0.0582
     44 CD1        16.7610   -1.1820   35.3250 C.3       1 ILE        -0.0648
     45 N          18.9310    0.1790   40.8720 N.am      1 PRO        -0.2498
     46 CA         18.6290    0.7270   42.1980 C.3       1 PRO         0.1338
     47 C          17.4290    1.6580   42.2190 C.2       1 PRO         0.2041
     48 O          17.2400    2.4370   41.2880 O.2       1 PRO        -0.3944
     49 CB         19.9200    1.4540   42.5610 C.3       1 PRO        -0.0104
     50 CG         20.4020    1.9410   41.2350 C.3       1 PRO        -0.0281
     51 CD         20.2080    0.7190   40.3690 C.3       1 PRO         0.0369
     52 N          16.6130    1.5750   43.2720 N.am      1 GLU        -0.2636
     53 CA         15.4570    2.4610   43.3940 C.3       1 GLU         0.1325
     54 C          16.0290    3.8600   43.2620 C.2       1 GLU         0.2040
     55 O          17.2400    4.0210   43.1120 O.2       1 GLU        -0.3944
     56 CB         14.7900    2.3270   44.7630 C.3       1 GLU        -0.0008
     57 CG         13.3940    1.7340   44.7400 C.3       1 GLU         0.0044
     58 CD         13.4180    0.2250   44.7170 C.2       1 GLU         0.0350
     59 OE1        14.1620   -0.3550   45.5400 O.co2     1 GLU        -0.5690
     60 OE2        12.6940   -0.3810   43.8930 O.co2     1 GLU        -0.5690
     61 N          15.1850    4.8750   43.3710 N.am      1 GLU        -0.2636
     62 CA         15.6520    6.2460   43.1940 C.3       1 GLU         0.1325
     63 C          15.6980    6.3780   41.6690 C.2       1 GLU         0.2040
     64 O          15.0310    7.2370   41.0940 O.2       1 GLU        -0.3944
     65 CB         17.0680    6.4560   43.7630 C.3       1 GLU        -0.0008
     66 CG         17.2730    6.0240   45.2040 C.3       1 GLU         0.0044
     67 CD         18.7410    5.9960   45.5880 C.2       1 GLU         0.0350
     68 OE1        19.3970    7.0550   45.5110 O.co2     1 GLU        -0.5690
     69 OE2        19.2410    4.9130   45.9630 O.co2     1 GLU        -0.5690
     70 N          16.4680    5.4980   41.0250 N.am      1 ALA        -0.2640
     71 CA         16.6010    5.5010   39.5690 C.3       1 ALA         0.1282
     72 C          15.2400    5.3610   38.8900 C.2       1 ALA         0.2032
     73 O          14.9770    6.0110   37.8800 O.2       1 ALA        -0.3944
     74 CB         17.5370    4.3810   39.1180 C.3       1 ALA        -0.0244
     75 N          14.3760    4.5120   39.4370 N.am      1 PHE        -0.2677
     76 CA         13.0450    4.3310   38.8740 C.3       1 PHE         0.1039
     77 C          12.2860    5.6450   39.0220 C.2       1 PHE         0.0621
     78 O          11.7830    6.1560   38.0070 O.co2     1 PHE        -0.5664
     79 CB         12.2850    3.2130   39.6050 C.3       1 PHE         0.0159
     80 CG         12.7480    1.8250   39.2610 C.ar      1 PHE        -0.0392
     81 CD1        14.0280    1.4000   39.5930 C.ar      1 PHE        -0.0602
     82 CD2        11.8970    0.9420   38.6070 C.ar      1 PHE        -0.0602
     83 CE1        14.4530    0.1120   39.2830 C.ar      1 PHE        -0.0686
     84 CE2        12.3120   -0.3490   38.2920 C.ar      1 PHE        -0.0686
     85 CZ         13.5920   -0.7630   38.6290 C.ar      1 PHE        -0.0687
     86 O''        12.1970    6.1460   40.1630 O.co2     1 PHE        -0.5664
     87 H1         21.7524  -13.0382   33.9739 H         1 ASP         0.2016
     88 H2         21.4947  -11.7249   33.0157 H         1 ASP         0.2016
     89 H3         21.0174  -11.7008   34.5908 H         1 ASP         0.2016
     90 H4         23.2657  -11.8121   35.3700 H         1 ASP         0.1117
     91 H5         24.1806  -13.1299   33.5324 H         1 ASP         0.0512
     92 H6         25.1067  -11.6009   33.7092 H         1 ASP         0.0512
     93 H7         21.1538   -9.9195   34.9864 H         1 TYR         0.1886
     94 H8         22.6206   -7.4894   34.1270 H         1 TYR         0.0821
     95 H9         20.2835   -6.4129   34.3925 H         1 TYR         0.0453
     96 H10        19.6637   -8.0932   34.5316 H         1 TYR         0.0453
     97 H11        19.7840   -9.6212   32.5837 H         1 TYR         0.0530
     98 H12        21.0232   -5.5351   32.2585 H         1 TYR         0.0530
     99 H13        19.8478   -9.8418   30.1172 H         1 TYR         0.0525
    100 H14        21.0955   -5.7470   29.7919 H         1 TYR         0.0525
    101 H15        20.3205   -8.8328   28.1967 H         1 TYR         0.2458
    102 H16        23.3875   -6.0849   35.5276 H         1 GLU         0.1883
    103 H17        23.1672   -6.4203   38.3578 H         1 GLU         0.0801
    104 H18        24.1212   -4.2479   36.4888 H         1 GLU         0.0330
    105 H19        25.0497   -5.2424   37.6616 H         1 GLU         0.0330
    106 H20        23.8673   -3.9981   39.4952 H         1 GLU         0.0433
    107 H21        23.2142   -2.9038   38.2293 H         1 GLU         0.0433
    108 H22        19.0819   -4.8591   38.7975 H         1 PRO         0.0802
    109 H23        19.0279   -5.9421   40.8595 H         1 PRO         0.0313
    110 H24        19.0862   -4.2641   41.4980 H         1 PRO         0.0313
    111 H25        20.9778   -5.9370   42.2807 H         1 PRO         0.0287
    112 H26        21.4932   -4.3195   41.6937 H         1 PRO         0.0287
    113 H27        22.7677   -5.8213   40.2832 H         1 PRO         0.0524
    114 H28        21.3947   -6.9693   40.1288 H         1 PRO         0.0524
    115 H29        17.9529   -3.0881   38.6256 H         1 ILE         0.1883
    116 H30        19.4082   -0.5451   38.4979 H         1 ILE         0.0803
    117 H31        16.4396   -1.1765   38.0741 H         1 ILE         0.0345
    118 H32        17.9382   -2.4485   36.5653 H         1 ILE         0.0267
    119 H33        18.7355   -0.9162   36.0725 H         1 ILE         0.0267
    120 H34        16.9095    1.1837   38.5874 H         1 ILE         0.0235
    121 H35        16.4004    0.9653   36.8787 H         1 ILE         0.0235
    122 H36        18.1333    1.2266   37.2733 H         1 ILE         0.0235
    123 H37        17.1104   -1.6617   34.3988 H         1 ILE         0.0230
    124 H38        16.6088   -0.1073   35.1464 H         1 ILE         0.0230
    125 H39        15.8114   -1.6397   35.6392 H         1 ILE         0.0230
    126 H40        18.4393   -0.0918   42.9076 H         1 PRO         0.0802
    127 H41        20.6467    0.7678   43.0203 H         1 PRO         0.0313
    128 H42        19.7247    2.2929   43.2452 H         1 PRO         0.0313
    129 H43        21.4603    2.2379   41.2777 H         1 PRO         0.0287
    130 H44        19.7981    2.7870   40.8752 H         1 PRO         0.0287
    131 H45        20.1345    0.9915   39.3058 H         1 PRO         0.0524
    132 H46        21.0276   -0.0016   40.5071 H         1 PRO         0.0524
    133 H47        16.7947    0.8987   43.9858 H         1 GLU         0.1883
    134 H48        14.7242    2.2543   42.6001 H         1 GLU         0.0801
    135 H49        14.7277    3.3293   45.2120 H         1 GLU         0.0330
    136 H50        15.4241    1.6830   45.3901 H         1 GLU         0.0330
    137 H51        12.8705    2.0940   43.8420 H         1 GLU         0.0433
    138 H52        12.8527    2.0664   45.6380 H         1 GLU         0.0433
    139 H53        14.2219    4.7006   43.5759 H         1 GLU         0.1883
    140 H54        14.9555    6.9666   43.6475 H         1 GLU         0.0801
    141 H55        17.3029    7.5285   43.6958 H         1 GLU         0.0330
    142 H56        17.7709    5.8867   43.1370 H         1 GLU         0.0330
    143 H57        16.8527    5.0160   45.3354 H         1 GLU         0.0433
    144 H58        16.7471    6.7295   45.8641 H         1 GLU         0.0433
    145 H59        16.9699    4.8148   41.5554 H         1 ALA         0.1883
    146 H60        17.0396    6.4631   39.2656 H         1 ALA         0.0797
    147 H61        17.6262    4.3969   38.0217 H         1 ALA         0.0277
    148 H62        17.1293    3.4110   39.4386 H         1 ALA         0.0277
    149 H63        18.5294    4.5287   39.5688 H         1 ALA         0.0277
    150 H64        14.6437    3.9899   40.2468 H         1 PHE         0.1877
    151 H65        13.1312    4.0707   37.8087 H         1 PHE         0.0749
    152 H66        11.2189    3.2947   39.3465 H         1 PHE         0.0467
    153 H67        12.4122    3.3604   40.6876 H         1 PHE         0.0467
    154 H68        14.7036    2.0797   40.0995 H         1 PHE         0.0557
    155 H69        10.8969    1.2628   38.3386 H         1 PHE         0.0557
    156 H70        15.4532   -0.2090   39.5506 H         1 PHE         0.0599
    157 H71        11.6367   -1.0286   37.7849 H         1 PHE         0.0599
    158 H72        13.9207   -1.7663   38.3833 H         1 PHE         0.0559
@<TRIPOS>BOND
     1    1    2 1  
     2    2    3 1  
     3    2    5 1  
     4    3    4 2  
     5    3    9 am 
     6    5    6 1  
     7    6    7 ar 
     8    6    8 ar 
     9    9   10 1  
    10   10   11 1  
    11   10   13 1  
    12   11   12 2  
    13   11   21 am 
    14   13   14 1  
    15   14   15 ar 
    16   14   16 ar 
    17   15   17 ar 
    18   16   18 ar 
    19   17   19 ar 
    20   18   19 ar 
    21   19   20 1  
    22   21   22 1  
    23   22   23 1  
    24   22   25 1  
    25   23   24 2  
    26   23   30 am 
    27   25   26 1  
    28   26   27 1  
    29   27   28 ar 
    30   27   29 ar 
    31   30   31 1  
    32   30   36 1  
    33   31   32 1  
    34   31   34 1  
    35   32   33 2  
    36   32   37 am 
    37   34   35 1  
    38   35   36 1  
    39   37   38 1  
    40   38   39 1  
    41   38   41 1  
    42   39   40 2  
    43   39   45 am 
    44   41   42 1  
    45   41   43 1  
    46   42   44 1  
    47   45   46 1  
    48   45   51 1  
    49   46   47 1  
    50   46   49 1  
    51   47   48 2  
    52   47   52 am 
    53   49   50 1  
    54   50   51 1  
    55   52   53 1  
    56   53   54 1  
    57   53   56 1  
    58   54   55 2  
    59   54   61 am 
    60   56   57 1  
    61   57   58 1  
    62   58   59 ar 
    63   58   60 ar 
    64   61   62 1  
    65   62   63 1  
    66   62   65 1  
    67   63   64 2  
    68   63   70 am 
    69   65   66 1  
    70   66   67 1  
    71   67   68 ar 
    72   67   69 ar 
    73   70   71 1  
    74   71   72 1  
    75   71   74 1  
    76   72   73 2  
    77   72   75 am 
    78   75   76 1  
    79   76   77 1  
    80   76   79 1  
    81   77   78 ar 
    82   77   86 ar 
    83   79   80 1  
    84   80   81 ar 
    85   80   82 ar 
    86   81   83 ar 
    87   82   84 ar 
    88   83   85 ar 
    89   84   85 ar 
    90    1   87 1  
    91    1   88 1  
    92    1   89 1  
    93    2   90 1  
    94    5   91 1  
    95    5   92 1  
    96    9   93 1  
    97   10   94 1  
    98   13   95 1  
    99   13   96 1  
   100   15   97 1  
   101   16   98 1  
   102   17   99 1  
   103   18  100 1  
   104   20  101 1  
   105   21  102 1  
   106   22  103 1  
   107   25  104 1  
   108   25  105 1  
   109   26  106 1  
   110   26  107 1  
   111   31  108 1  
   112   34  109 1  
   113   34  110 1  
   114   35  111 1  
   115   35  112 1  
   116   36  113 1  
   117   36  114 1  
   118   37  115 1  
   119   38  116 1  
   120   41  117 1  
   121   42  118 1  
   122   42  119 1  
   123   43  120 1  
   124   43  121 1  
   125   43  122 1  
   126   44  123 1  
   127   44  124 1  
   128   44  125 1  
   129   46  126 1  
   130   49  127 1  
   131   49  128 1  
   132   50  129 1  
   133   50  130 1  
   134   51  131 1  
   135   51  132 1  
   136   52  133 1  
   137   53  134 1  
   138   56  135 1  
   139   56  136 1  
   140   57  137 1  
   141   57  138 1  
   142   61  139 1  
   143   62  140 1  
   144   65  141 1  
   145   65  142 1  
   146   66  143 1  
   147   66  144 1  
   148   70  145 1  
   149   71  146 1  
   150   74  147 1  
   151   74  148 1  
   152   74  149 1  
   153   75  150 1  
   154   76  151 1  
   155   79  152 1  
   156   79  153 1  
   157   81  154 1  
   158   82  155 1  
   159   83  156 1  
   160   84  157 1  
   161   85  158 1  
@<TRIPOS>SUBSTRUCTURE
     1 ASP         1

