1eb1_ligand
  -I-interpret- 

163166  0  0  0  0  0  0  0  0999 V2000
   21.7210  -12.0310   33.9490 N   0  3  0  0  0
   23.0490  -11.4830   34.3430 C   0  0  0  0  0
   23.0570   -9.9550   34.3220 C   0  0  0  0  0
   24.0620   -9.3360   33.9760 O   0  0  0  0  0
   24.1410  -12.0370   33.4140 C   0  0  0  0  0
   23.8920  -11.7160   31.9430 C   0  0  0  0  0
   22.7130  -11.6730   31.5290 O   0  0  0  0  0
   24.8790  -11.5280   31.1950 O   0  0  0  0  0
   21.9320   -9.3570   34.7070 N   0  0  0  0  0
   21.8020   -7.9050   34.7330 C   0  0  0  0  0
   21.9040   -7.3090   36.1330 C   0  0  0  0  0
   21.1750   -7.7020   37.0450 O   0  0  0  0  0
   20.4620   -7.4620   34.1140 C   0  0  0  0  0
   20.4100   -7.5680   32.6020 C   0  0  0  0  0
   20.0760   -8.7710   31.9780 C   0  0  0  0  0
   20.7710   -6.4820   31.7950 C   0  0  0  0  0
   20.1110   -8.9000   30.5850 C   0  0  0  0  0
   20.8120   -6.5970   30.4020 C   0  0  0  0  0
   20.4860   -7.8110   29.8050 C   0  0  0  0  0
   20.5760   -7.9510   28.4410 O   0  0  0  0  0
   22.8050   -6.3500   36.2960 N   0  0  0  0  0
   22.9570   -5.6820   37.5700 C   0  0  0  0  0
   21.6350   -4.9780   37.8680 C   0  0  0  0  0
   21.0470   -4.3330   37.0050 O   0  0  0  0  0
   24.1130   -4.6900   37.4960 C   0  0  0  0  0
   24.0460   -3.5720   38.4970 C   0  0  0  0  0
   25.3360   -2.7640   38.5300 C   0  0  0  0  0
   26.0110   -2.6730   37.4880 O   0  0  0  0  0
   25.6730   -2.2160   39.6030 O   0  0  0  0  0
   21.1340   -5.1140   39.1020 N   0  0  0  0  0
   19.8660   -4.4810   39.4700 C   0  0  0  0  0
   19.8100   -2.9610   39.3880 C   0  0  0  0  0
   20.7620   -2.2580   39.7300 O   0  0  0  0  0
   19.6130   -5.0110   40.8860 C   0  0  0  0  0
   20.9960   -5.2600   41.4140 C   0  0  0  0  0
   21.6730   -5.9090   40.2200 C   0  0  0  0  0
   18.6790   -2.4630   38.9120 N   0  0  0  0  0
   18.4680   -1.0320   38.7960 C   0  0  0  0  0
   18.0270   -0.5040   40.1610 C   0  0  0  0  0
   16.8810   -0.6880   40.5770 O   0  0  0  0  0
   17.3900   -0.7310   37.7450 C   0  0  0  0  0
   17.7910   -1.3700   36.4070 C   0  0  0  0  0
   17.1950    0.7630   37.6120 C   0  0  0  0  0
   16.7610   -1.1820   35.3250 C   0  0  0  0  0
   18.9310    0.1790   40.8720 N   0  0  0  0  0
   18.6290    0.7270   42.1980 C   0  0  0  0  0
   17.4290    1.6580   42.2190 C   0  0  0  0  0
   17.2400    2.4370   41.2880 O   0  0  0  0  0
   19.9200    1.4540   42.5610 C   0  0  0  0  0
   20.4020    1.9410   41.2350 C   0  0  0  0  0
   20.2080    0.7190   40.3690 C   0  0  0  0  0
   16.6130    1.5750   43.2720 N   0  0  0  0  0
   15.4570    2.4610   43.3940 C   0  0  0  0  0
   16.0290    3.8600   43.2620 C   0  0  0  0  0
   17.2400    4.0210   43.1120 O   0  0  0  0  0
   14.7900    2.3270   44.7630 C   0  0  0  0  0
   13.3940    1.7340   44.7400 C   0  0  0  0  0
   13.4180    0.2250   44.7170 C   0  0  0  0  0
   14.1620   -0.3550   45.5400 O   0  0  0  0  0
   12.6940   -0.3810   43.8930 O   0  0  0  0  0
   15.1850    4.8750   43.3710 N   0  0  0  0  0
   15.6520    6.2460   43.1940 C   0  0  0  0  0
   15.6980    6.3780   41.6690 C   0  0  0  0  0
   15.0310    7.2370   41.0940 O   0  0  0  0  0
   17.0680    6.4560   43.7630 C   0  0  0  0  0
   17.2730    6.0240   45.2040 C   0  0  0  0  0
   18.7410    5.9960   45.5880 C   0  0  0  0  0
   19.3970    7.0550   45.5110 O   0  0  0  0  0
   19.2410    4.9130   45.9630 O   0  0  0  0  0
   16.4680    5.4980   41.0250 N   0  0  0  0  0
   16.6010    5.5010   39.5690 C   0  0  0  0  0
   15.2400    5.3610   38.8900 C   0  0  0  0  0
   14.9770    6.0110   37.8800 O   0  0  0  0  0
   17.5370    4.3810   39.1180 C   0  0  0  0  0
   14.3760    4.5120   39.4370 N   0  0  0  0  0
   13.0450    4.3310   38.8740 C   0  0  0  0  0
   12.2860    5.6450   39.0220 C   0  0  0  0  0
   11.7830    6.1560   38.0070 O   0  0  0  0  0
   12.2850    3.2130   39.6050 C   0  0  0  0  0
   12.7480    1.8250   39.2610 C   0  0  0  0  0
   14.0280    1.4000   39.5930 C   0  0  0  0  0
   11.8970    0.9420   38.6070 C   0  0  0  0  0
   14.4530    0.1120   39.2830 C   0  0  0  0  0
   12.3120   -0.3490   38.2920 C   0  0  0  0  0
   13.5920   -0.7630   38.6290 C   0  0  0  0  0
   12.1970    6.1460   40.1630 O   0  0  0  0  0
   21.0029  -11.6584   34.5702 H   0  0  0  0  0
   21.5144  -11.7602   32.9876 H   0  0  0  0  0
   21.7396  -13.0483   34.0204 H   0  0  0  0  0
   23.2528  -11.7979   35.3664 H   0  0  0  0  0
   24.1485  -13.1218   33.5204 H   0  0  0  0  0
   25.0858  -11.5744   33.6994 H   0  0  0  0  0
   25.6869  -11.6044   31.7079 H   0  0  0  0  0
   21.1383   -9.9308   34.9919 H   0  0  0  0  0
   22.6414   -7.5314   34.1465 H   0  0  0  0  0
   20.3226   -6.4111   34.3676 H   0  0  0  0  0
   19.6910   -8.1234   34.5093 H   0  0  0  0  0
   19.7824   -9.6259   32.5871 H   0  0  0  0  0
   21.0246   -5.5299   32.2611 H   0  0  0  0  0
   19.8463   -9.8470   30.1146 H   0  0  0  0  0
   21.0971   -5.7423   29.7885 H   0  0  0  0  0
   20.8440   -7.1154   28.0517 H   0  0  0  0  0
   23.3991   -6.0796   35.5122 H   0  0  0  0  0
   23.1882   -6.3879   38.3677 H   0  0  0  0  0
   24.0760   -4.2330   36.5071 H   0  0  0  0  0
   25.0248   -5.2492   37.7056 H   0  0  0  0  0
   23.8881   -4.0055   39.4845 H   0  0  0  0  0
   23.2317   -2.9057   38.2122 H   0  0  0  0  0
   25.0192   -2.4093   40.2789 H   0  0  0  0  0
   19.0907   -4.7376   38.7480 H   0  0  0  0  0
   18.9932   -5.9076   40.8939 H   0  0  0  0  0
   19.0487   -4.3105   41.5016 H   0  0  0  0  0
   21.0123   -5.8793   42.3108 H   0  0  0  0  0
   21.4978   -4.3555   41.7578 H   0  0  0  0  0
   22.7614   -5.8957   40.2775 H   0  0  0  0  0
   21.4692   -6.9762   40.1321 H   0  0  0  0  0
   17.9384   -3.1006   38.6199 H   0  0  0  0  0
   19.3915   -0.5462   38.4809 H   0  0  0  0  0
   16.4380   -1.1597   38.0582 H   0  0  0  0  0
   17.9019   -2.4414   36.5737 H   0  0  0  0  0
   18.7103   -0.8881   36.0741 H   0  0  0  0  0
   16.8836    1.1744   38.5721 H   0  0  0  0  0
   18.1334    1.2247   37.3047 H   0  0  0  0  0
   16.4281    0.9628   36.8637 H   0  0  0  0  0
   15.8206   -1.6358   35.6376 H   0  0  0  0  0
   16.6110   -0.1168   35.1490 H   0  0  0  0  0
   17.1084   -1.6577   34.4079 H   0  0  0  0  0
   18.3441   -0.0505   42.9069 H   0  0  0  0  0
   20.6418    0.8139   43.0684 H   0  0  0  0  0
   19.7687    2.2579   43.2814 H   0  0  0  0  0
   21.4306    2.3013   41.2528 H   0  0  0  0  0
   19.8654    2.8183   40.8738 H   0  0  0  0  0
   20.1880    0.9466   39.3032 H   0  0  0  0  0
   21.0317    0.0085   40.4380 H   0  0  0  0  0
   16.7983    0.8851   44.0001 H   0  0  0  0  0
   14.7011    2.2252   42.6449 H   0  0  0  0  0
   14.6974    3.3347   45.1682 H   0  0  0  0  0
   15.4101    1.6499   45.3505 H   0  0  0  0  0
   12.8928    2.0797   43.8359 H   0  0  0  0  0
   12.8748    2.0519   45.6441 H   0  0  0  0  0
   12.2106    0.2573   43.3634 H   0  0  0  0  0
   14.2026    4.6971   43.5799 H   0  0  0  0  0
   15.0167    6.9701   43.7041 H   0  0  0  0  0
   17.2548    7.5295   43.7343 H   0  0  0  0  0
   17.7360    5.8412   43.1597 H   0  0  0  0  0
   16.8726    5.0166   45.3173 H   0  0  0  0  0
   16.7663    6.7414   45.8495 H   0  0  0  0  0
   18.5674    4.2292   45.9495 H   0  0  0  0  0
   16.9800    4.8012   41.5660 H   0  0  0  0  0
   17.0288    6.4587   39.2724 H   0  0  0  0  0
   18.5200    4.5285   39.5654 H   0  0  0  0  0
   17.1319    3.4204   39.4363 H   0  0  0  0  0
   17.6246    4.3978   38.0317 H   0  0  0  0  0
   14.6490    3.9795   40.2630 H   0  0  0  0  0
   13.1308    4.0481   37.8249 H   0  0  0  0  0
   11.2395    3.2863   39.3055 H   0  0  0  0  0
   12.4557    3.3533   40.6724 H   0  0  0  0  0
   14.7074    2.0835   40.1023 H   0  0  0  0  0
   10.8914    1.2645   38.3372 H   0  0  0  0  0
   15.4587   -0.2108   39.5521 H   0  0  0  0  0
   11.6330   -1.0323   37.7820 H   0  0  0  0  0
   13.9226   -1.7718   38.3819 H   0  0  0  0  0
   12.6566    5.5868   40.7936 H   0  0  0  0  0
  1  2  1  0  0  0
  2  3  1  0  0  0
  2  5  1  0  0  0
  3  4  2  0  0  0
  3  9  1  0  0  0
  5  6  1  0  0  0
  6  7  2  0  0  0
  6  8  1  0  0  0
  9 10  1  0  0  0
 10 11  1  0  0  0
 10 13  1  0  0  0
 11 12  2  0  0  0
 11 21  1  0  0  0
 13 14  1  0  0  0
 14 15  4  0  0  0
 14 16  4  0  0  0
 15 17  4  0  0  0
 16 18  4  0  0  0
 17 19  4  0  0  0
 18 19  4  0  0  0
 19 20  1  0  0  0
 21 22  1  0  0  0
 22 23  1  0  0  0
 22 25  1  0  0  0
 23 24  2  0  0  0
 23 30  1  0  0  0
 25 26  1  0  0  0
 26 27  1  0  0  0
 27 28  2  0  0  0
 27 29  1  0  0  0
 30 31  1  0  0  0
 30 36  1  0  0  0
 31 32  1  0  0  0
 31 34  1  0  0  0
 32 33  2  0  0  0
 32 37  1  0  0  0
 34 35  1  0  0  0
 35 36  1  0  0  0
 37 38  1  0  0  0
 38 39  1  0  0  0
 38 41  1  0  0  0
 39 40  2  0  0  0
 39 45  1  0  0  0
 41 42  1  0  0  0
 41 43  1  0  0  0
 42 44  1  0  0  0
 45 46  1  0  0  0
 45 51  1  0  0  0
 46 47  1  0  0  0
 46 49  1  0  0  0
 47 48  2  0  0  0
 47 52  1  0  0  0
 49 50  1  0  0  0
 50 51  1  0  0  0
 52 53  1  0  0  0
 53 54  1  0  0  0
 53 56  1  0  0  0
 54 55  2  0  0  0
 54 61  1  0  0  0
 56 57  1  0  0  0
 57 58  1  0  0  0
 58 59  2  0  0  0
 58 60  1  0  0  0
 61 62  1  0  0  0
 62 63  1  0  0  0
 62 65  1  0  0  0
 63 64  2  0  0  0
 63 70  1  0  0  0
 65 66  1  0  0  0
 66 67  1  0  0  0
 67 68  2  0  0  0
 67 69  1  0  0  0
 70 71  1  0  0  0
 71 72  1  0  0  0
 71 74  1  0  0  0
 72 73  2  0  0  0
 72 75  1  0  0  0
 75 76  1  0  0  0
 76 77  1  0  0  0
 76 79  1  0  0  0
 77 78  2  0  0  0
 77 86  1  0  0  0
 79 80  1  0  0  0
 80 81  4  0  0  0
 80 82  4  0  0  0
 81 83  4  0  0  0
 82 84  4  0  0  0
 83 85  4  0  0  0
 84 85  4  0  0  0
  1 87  1  0  0  0
  1 88  1  0  0  0
  1 89  1  0  0  0
  2 90  1  0  0  0
  5 91  1  0  0  0
  5 92  1  0  0  0
  8 93  1  0  0  0
  9 94  1  0  0  0
 10 95  1  0  0  0
 13 96  1  0  0  0
 13 97  1  0  0  0
 15 98  1  0  0  0
 16 99  1  0  0  0
 17100  1  0  0  0
 18101  1  0  0  0
 20102  1  0  0  0
 21103  1  0  0  0
 22104  1  0  0  0
 25105  1  0  0  0
 25106  1  0  0  0
 26107  1  0  0  0
 26108  1  0  0  0
 29109  1  0  0  0
 31110  1  0  0  0
 34111  1  0  0  0
 34112  1  0  0  0
 35113  1  0  0  0
 35114  1  0  0  0
 36115  1  0  0  0
 36116  1  0  0  0
 37117  1  0  0  0
 38118  1  0  0  0
 41119  1  0  0  0
 42120  1  0  0  0
 42121  1  0  0  0
 43122  1  0  0  0
 43123  1  0  0  0
 43124  1  0  0  0
 44125  1  0  0  0
 44126  1  0  0  0
 44127  1  0  0  0
 46128  1  0  0  0
 49129  1  0  0  0
 49130  1  0  0  0
 50131  1  0  0  0
 50132  1  0  0  0
 51133  1  0  0  0
 51134  1  0  0  0
 52135  1  0  0  0
 53136  1  0  0  0
 56137  1  0  0  0
 56138  1  0  0  0
 57139  1  0  0  0
 57140  1  0  0  0
 60141  1  0  0  0
 61142  1  0  0  0
 62143  1  0  0  0
 65144  1  0  0  0
 65145  1  0  0  0
 66146  1  0  0  0
 66147  1  0  0  0
 69148  1  0  0  0
 70149  1  0  0  0
 71150  1  0  0  0
 74151  1  0  0  0
 74152  1  0  0  0
 74153  1  0  0  0
 75154  1  0  0  0
 76155  1  0  0  0
 79156  1  0  0  0
 79157  1  0  0  0
 81158  1  0  0  0
 82159  1  0  0  0
 83160  1  0  0  0
 84161  1  0  0  0
 85162  1  0  0  0
 86163  1  0  0  0
M  END
$$$$
