2zfs_ligand
  -I-interpret- 

 63 65  0  0  0  0  0  0  0  0999 V2000
   28.6330   -1.0330   16.7230 C   0  0  0  0  0
   27.5260   -0.7840   17.2090 O   0  0  0  0  0
   29.7830   -1.2450   17.6730 C   0  0  0  0  0
   29.5330   -0.5000   18.9370 N   0  3  0  0  0
   29.8540    0.9440   18.9280 C   0  0  0  0  0
   31.2790    1.1990   19.2940 C   0  0  0  0  0
   31.3910    1.2800   20.7990 C   0  0  0  0  0
   31.2250    2.6480   21.3890 C   0  0  0  0  0
   29.9080    3.2210   21.1430 C   0  0  0  0  0
   29.4170    2.7770   19.8420 C   0  0  0  0  0
   28.7690    1.4960   19.5650 C   0  0  0  0  0
   28.7020   -1.0400   15.4270 N   0  0  0  0  0
   27.7440   -0.7940   14.6310 C   0  0  0  0  0
   26.6100   -1.7090   14.5000 C   0  0  0  0  0
   26.6790   -2.8940   14.8240 O   0  0  0  0  0
   28.3430   -0.6200   13.2310 C   0  0  0  0  0
   29.6590   -1.3350   13.2780 C   0  0  0  0  0
   29.9930   -1.3170   14.7630 C   0  0  0  0  0
   25.4700   -1.3260   14.0110 N   0  0  0  0  0
   24.3470   -2.1350   13.6570 C   0  0  0  0  0
   23.2520   -2.0120   14.7090 C   0  0  0  0  0
   23.3090   -2.4080   16.0240 C   0  0  0  0  0
   22.1860   -2.2110   16.8550 C   0  0  0  0  0
   20.9650   -1.6340   16.4790 C   0  0  0  0  0
   19.8400   -1.4820   17.4860 C   0  0  0  0  0
   19.0160   -0.4670   17.2910 N   0  0  0  0  0
   19.6820   -2.3110   18.5070 N   0  0  0  0  0
   20.9130   -1.2380   15.1660 C   0  0  0  0  0
   22.0300   -1.4310   14.3260 C   0  0  0  0  0
   30.7024   -0.8807   17.2146 H   0  0  0  0  0
   29.8787   -2.3083   17.8930 H   0  0  0  0  0
   30.1437   -0.9203   19.6376 H   0  0  0  0  0
   28.5297   -0.5648   19.1088 H   0  0  0  0  0
   29.9234    1.4788   17.9808 H   0  0  0  0  0
   31.6116    2.1367   18.8488 H   0  0  0  0  0
   31.9058    0.3890   18.9210 H   0  0  0  0  0
   32.4001    0.9545   21.0519 H   0  0  0  0  0
   30.5834    0.6692   21.2025 H   0  0  0  0  0
   31.9626    3.3013   20.9229 H   0  0  0  0  0
   31.3518    2.5608   22.4681 H   0  0  0  0  0
   29.9785    4.3087   21.1519 H   0  0  0  0  0
   29.2190    2.8935   21.9215 H   0  0  0  0  0
   30.3400    2.6926   19.2683 H   0  0  0  0  0
   28.6105    3.4848   19.6507 H   0  0  0  0  0
   28.3637    0.9506   20.4173 H   0  0  0  0  0
   27.8304    1.5243   19.0116 H   0  0  0  0  0
   27.2860    0.0789   15.0961 H   0  0  0  0  0
   28.4648    0.4319   12.9726 H   0  0  0  0  0
   27.6899   -1.0280   12.4596 H   0  0  0  0  0
   30.4240   -0.8609   12.6631 H   0  0  0  0  0
   29.6121   -2.3421   12.8637 H   0  0  0  0  0
   30.4308   -2.2582   15.0956 H   0  0  0  0  0
   30.7465   -0.5672   15.0041 H   0  0  0  0  0
   25.3628   -0.3228   13.8609 H   0  0  0  0  0
   24.6645   -3.1759   13.5948 H   0  0  0  0  0
   23.9561   -1.7994   12.6964 H   0  0  0  0  0
   24.2131   -2.8698   16.4209 H   0  0  0  0  0
   22.2766   -2.5395   17.8904 H   0  0  0  0  0
   19.1571    0.1595   16.4985 H   0  0  0  0  0
   18.9124   -2.1726   19.1620 H   0  0  0  0  0
   20.3299   -3.0878   18.6382 H   0  0  0  0  0
   20.0086   -0.7743   14.7721 H   0  0  0  0  0
   21.9379   -1.1014   13.2911 H   0  0  0  0  0
  1  2  2  0  0  0
  1  3  1  0  0  0
  1 12  1  0  0  0
  3  4  1  0  0  0
  4  5  1  0  0  0
  5  6  1  0  0  0
  5 11  1  0  0  0
  6  7  1  0  0  0
  7  8  1  0  0  0
  8  9  1  0  0  0
  9 10  1  0  0  0
 10 11  1  0  0  0
 12 13  1  0  0  0
 12 18  1  0  0  0
 13 14  1  0  0  0
 13 16  1  0  0  0
 14 15  2  0  0  0
 14 19  1  0  0  0
 16 17  1  0  0  0
 17 18  1  0  0  0
 19 20  1  0  0  0
 20 21  1  0  0  0
 21 22  4  0  0  0
 21 29  4  0  0  0
 22 23  4  0  0  0
 23 24  4  0  0  0
 24 25  1  0  0  0
 24 28  4  0  0  0
 25 26  2  0  0  0
 25 27  1  0  0  0
 28 29  4  0  0  0
  3 30  1  0  0  0
  3 31  1  0  0  0
  4 32  1  0  0  0
  4 33  1  0  0  0
  5 34  1  0  0  0
  6 35  1  0  0  0
  6 36  1  0  0  0
  7 37  1  0  0  0
  7 38  1  0  0  0
  8 39  1  0  0  0
  8 40  1  0  0  0
  9 41  1  0  0  0
  9 42  1  0  0  0
 10 43  1  0  0  0
 10 44  1  0  0  0
 11 45  1  0  0  0
 11 46  1  0  0  0
 13 47  1  0  0  0
 16 48  1  0  0  0
 16 49  1  0  0  0
 17 50  1  0  0  0
 17 51  1  0  0  0
 18 52  1  0  0  0
 18 53  1  0  0  0
 19 54  1  0  0  0
 20 55  1  0  0  0
 20 56  1  0  0  0
 22 57  1  0  0  0
 23 58  1  0  0  0
 26 59  1  0  0  0
 27 60  1  0  0  0
 27 61  1  0  0  0
 28 62  1  0  0  0
 29 63  1  0  0  0
M  END
$$$$
