1jpl_ligand
  -I-interpret- 

130130  0  0  0  0  0  0  0  0999 V2000
   58.5760   53.1330   23.4270 N   0  3  0  0  0
   58.8110   51.9560   24.2570 C   0  0  0  0  0
   57.5330   51.1390   24.4750 C   0  0  0  0  0
   56.7980   51.3600   25.4460 O   0  0  0  0  0
   59.3910   52.3750   25.6140 C   0  0  0  0  0
   59.7310   51.2480   26.4070 O   0  0  0  0  0
   57.2760   50.2110   23.5540 N   0  0  0  0  0
   56.1220   49.3060   23.6080 C   0  0  0  0  0
   56.0990   48.4940   22.3190 C   0  0  0  0  0
   56.4960   48.9930   21.2670 O   0  0  0  0  0
   54.7970   50.0720   23.7440 C   0  0  0  0  0
   53.6130   49.1490   24.0510 C   0  0  0  0  0
   53.8390   47.9500   24.3290 O   0  0  0  0  0
   52.4550   49.6220   24.0240 O   0  0  0  0  0
   55.6490   47.2450   22.3970 N   0  0  0  0  0
   55.5880   46.4100   21.2070 C   0  0  0  0  0
   54.2920   46.6500   20.4360 C   0  0  0  0  0
   53.4050   47.3670   20.9040 O   0  0  0  0  0
   55.7390   44.9250   21.5740 C   0  0  0  0  0
   54.7620   44.3820   22.6060 C   0  0  0  0  0
   55.0770   42.9300   22.9920 C   0  0  0  0  0
   56.2320   42.6640   23.4010 O   0  0  0  0  0
   54.1810   42.0570   22.8910 O   0  0  0  0  0
   54.1990   46.0720   19.2420 N   0  0  0  0  0
   53.0100   46.2280   18.4130 C   0  0  0  0  0
   51.9650   45.2330   18.8740 C   0  0  0  0  0
   52.3030   44.2030   19.4550 O   0  0  0  0  0
   53.3360   45.9480   16.9420 C   0  0  0  0  0
   54.4600   46.8180   16.4120 C   0  0  0  0  0
   54.3050   48.0620   16.4140 O   0  0  0  0  0
   55.4970   46.2530   15.9940 O   0  0  0  0  0
   50.6990   45.5420   18.6150 N   0  0  0  0  0
   49.6090   44.6470   18.9830 C   0  0  0  0  0
   49.8600   43.2610   18.3700 C   0  0  0  0  0
   50.2370   43.1440   17.2020 O   0  0  0  0  0
   48.2810   45.2220   18.4880 C   0  0  0  0  0
   47.0050   44.4030   18.6980 C   0  0  0  0  0
   46.8700   43.9900   20.1490 C   0  0  0  0  0
   45.8060   45.2300   18.2650 C   0  0  0  0  0
   49.6600   42.2180   19.1730 N   0  0  0  0  0
   49.8690   40.8380   18.7390 C   0  0  0  0  0
   48.7500   40.3640   17.8250 C   0  0  0  0  0
   47.8380   39.6680   18.2740 O   0  0  0  0  0
   49.9410   39.9050   19.9540 C   0  0  0  0  0
   50.1320   38.4090   19.6760 C   0  0  0  0  0
   51.5740   38.1600   19.2660 C   0  0  0  0  0
   49.7930   37.5890   20.9170 C   0  0  0  0  0
   48.8180   40.7260   16.5470 N   0  0  0  0  0
   47.7830   40.3130   15.6110 C   0  0  0  0  0
   47.7220   38.7960   15.4710 C   0  0  0  0  0
   48.6490   38.1630   14.9610 O   0  0  0  0  0
   47.9920   40.9770   14.2440 C   0  0  0  0  0
   47.7100   42.4500   14.2470 C   0  0  0  0  0
   48.5600   43.3720   14.8240 N   0  0  0  0  0
   46.6510   43.1570   13.7820 C   0  0  0  0  0
   48.0360   44.5820   14.7150 C   0  0  0  0  0
   46.8780   44.4790   14.0870 N   0  0  0  0  0
   46.6160   38.2300   15.9490 N   0  0  0  0  0
   46.3760   36.7920   15.9130 C   0  0  0  0  0
   45.5280   36.4070   14.6970 C   0  0  0  0  0
   45.1790   37.3210   13.9170 O   0  0  0  0  0
   45.6660   36.3290   17.2170 C   0  0  0  0  0
   44.4360   37.1940   17.4990 C   0  0  0  0  0
   46.6070   36.4580   18.3930 C   0  0  0  0  0
   43.2190   36.8030   16.7240 C   0  0  0  0  0
   45.2250   35.2050   14.5320 O   0  0  0  0  0
   58.1908   52.8424   22.5283 H   0  0  0  0  0
   57.9159   53.7526   23.8969 H   0  0  0  0  0
   59.4576   53.6238   23.2777 H   0  0  0  0  0
   59.5242   51.3242   23.7275 H   0  0  0  0  0
   58.6377   52.9560   26.1460 H   0  0  0  0  0
   60.2953   52.9572   25.4371 H   0  0  0  0  0
   60.0897   51.5452   27.2464 H   0  0  0  0  0
   57.9182   50.1247   22.7663 H   0  0  0  0  0
   56.2224   48.6643   24.4834 H   0  0  0  0  0
   54.5977   50.5695   22.7949 H   0  0  0  0  0
   54.8985   50.7745   24.5712 H   0  0  0  0  0
   54.7846   47.7877   24.2958 H   0  0  0  0  0
   55.3450   46.8704   23.2957 H   0  0  0  0  0
   56.4200   46.6860   20.5592 H   0  0  0  0  0
   56.7317   44.8203   22.0118 H   0  0  0  0  0
   55.5534   44.3657   20.6570 H   0  0  0  0  0
   53.7615   44.4095   22.1743 H   0  0  0  0  0
   54.8388   44.9964   23.5030 H   0  0  0  0  0
   53.3758   42.4630   22.5617 H   0  0  0  0  0
   54.9761   45.5075   18.8989 H   0  0  0  0  0
   52.6444   47.2506   18.5069 H   0  0  0  0  0
   52.4428   46.1635   16.3557 H   0  0  0  0  0
   53.6535   44.9083   16.8629 H   0  0  0  0  0
   53.4416   48.2752   16.7755 H   0  0  0  0  0
   50.4854   46.4238   18.1490 H   0  0  0  0  0
   49.5613   44.5494   20.0676 H   0  0  0  0  0
   48.3918   45.3035   17.4067 H   0  0  0  0  0
   48.1324   46.1335   19.0670 H   0  0  0  0  0
   47.0551   43.4960   18.0955 H   0  0  0  0  0
   47.7302   43.3845   20.4346 H   0  0  0  0  0
   46.8264   44.8803   20.7763 H   0  0  0  0  0
   45.9566   43.4090   20.2766 H   0  0  0  0  0
   45.7600   46.1410   18.8618 H   0  0  0  0  0
   45.9066   45.4893   17.2111 H   0  0  0  0  0
   44.8944   44.6509   18.4126 H   0  0  0  0  0
   49.3485   42.3888   20.1291 H   0  0  0  0  0
   50.8088   40.8108   18.1876 H   0  0  0  0  0
   48.9761   39.9931   20.4533 H   0  0  0  0  0
   50.8213   40.2171   20.5159 H   0  0  0  0  0
   49.4633   38.1045   18.8709 H   0  0  0  0  0
   51.7986   38.7326   18.3661 H   0  0  0  0  0
   52.2385   38.4718   20.0718 H   0  0  0  0  0
   51.7156   37.0977   19.0671 H   0  0  0  0  0
   50.4482   37.8846   21.7364 H   0  0  0  0  0
   48.7551   37.7686   21.1972 H   0  0  0  0  0
   49.9343   36.5300   20.7010 H   0  0  0  0  0
   49.5990   41.2956   16.2215 H   0  0  0  0  0
   46.8255   40.6431   16.0139 H   0  0  0  0  0
   47.2986   40.5115   13.5435 H   0  0  0  0  0
   49.0388   40.8438   13.9710 H   0  0  0  0  0
   45.7816   42.7532   13.2631 H   0  0  0  0  0
   48.4833   45.5062   15.0809 H   0  0  0  0  0
   45.9019   38.8311   16.3603 H   0  0  0  0  0
   47.3418   36.2929   15.8339 H   0  0  0  0  0
   45.5206   38.1597   14.2355 H   0  0  0  0  0
   45.3648   35.2903   17.0814 H   0  0  0  0  0
   44.6875   38.2140   17.2085 H   0  0  0  0  0
   44.1956   37.0754   18.5555 H   0  0  0  0  0
   47.4862   35.8365   18.2230 H   0  0  0  0  0
   46.9116   37.4990   18.5005 H   0  0  0  0  0
   46.0993   36.1311   19.3005 H   0  0  0  0  0
   43.4281   36.8825   15.6572 H   0  0  0  0  0
   42.9497   35.7752   16.9671 H   0  0  0  0  0
   42.3950   37.4672   16.9845 H   0  0  0  0  0
  1  2  1  0  0  0
  2  3  1  0  0  0
  2  5  1  0  0  0
  3  4  2  0  0  0
  3  7  1  0  0  0
  5  6  1  0  0  0
  7  8  1  0  0  0
  8  9  1  0  0  0
  8 11  1  0  0  0
  9 10  2  0  0  0
  9 15  1  0  0  0
 11 12  1  0  0  0
 12 13  1  0  0  0
 12 14  2  0  0  0
 15 16  1  0  0  0
 16 17  1  0  0  0
 16 19  1  0  0  0
 17 18  2  0  0  0
 17 24  1  0  0  0
 19 20  1  0  0  0
 20 21  1  0  0  0
 21 22  2  0  0  0
 21 23  1  0  0  0
 24 25  1  0  0  0
 25 26  1  0  0  0
 25 28  1  0  0  0
 26 27  2  0  0  0
 26 32  1  0  0  0
 28 29  1  0  0  0
 29 30  1  0  0  0
 29 31  2  0  0  0
 32 33  1  0  0  0
 33 34  1  0  0  0
 33 36  1  0  0  0
 34 35  2  0  0  0
 34 40  1  0  0  0
 36 37  1  0  0  0
 37 38  1  0  0  0
 37 39  1  0  0  0
 40 41  1  0  0  0
 41 42  1  0  0  0
 41 44  1  0  0  0
 42 43  2  0  0  0
 42 48  1  0  0  0
 44 45  1  0  0  0
 45 46  1  0  0  0
 45 47  1  0  0  0
 48 49  1  0  0  0
 49 50  1  0  0  0
 49 52  1  0  0  0
 50 51  2  0  0  0
 50 58  1  0  0  0
 52 53  1  0  0  0
 53 54  4  0  0  0
 53 55  4  0  0  0
 54 56  4  0  0  0
 55 57  4  0  0  0
 56 57  4  0  0  0
 58 59  1  0  0  0
 59 60  1  0  0  0
 59 62  1  0  0  0
 60 61  1  0  0  0
 60 66  2  0  0  0
 62 63  1  0  0  0
 62 64  1  0  0  0
 63 65  1  0  0  0
  1 67  1  0  0  0
  1 68  1  0  0  0
  1 69  1  0  0  0
  2 70  1  0  0  0
  5 71  1  0  0  0
  5 72  1  0  0  0
  6 73  1  0  0  0
  7 74  1  0  0  0
  8 75  1  0  0  0
 11 76  1  0  0  0
 11 77  1  0  0  0
 13 78  1  0  0  0
 15 79  1  0  0  0
 16 80  1  0  0  0
 19 81  1  0  0  0
 19 82  1  0  0  0
 20 83  1  0  0  0
 20 84  1  0  0  0
 23 85  1  0  0  0
 24 86  1  0  0  0
 25 87  1  0  0  0
 28 88  1  0  0  0
 28 89  1  0  0  0
 30 90  1  0  0  0
 32 91  1  0  0  0
 33 92  1  0  0  0
 36 93  1  0  0  0
 36 94  1  0  0  0
 37 95  1  0  0  0
 38 96  1  0  0  0
 38 97  1  0  0  0
 38 98  1  0  0  0
 39 99  1  0  0  0
 39100  1  0  0  0
 39101  1  0  0  0
 40102  1  0  0  0
 41103  1  0  0  0
 44104  1  0  0  0
 44105  1  0  0  0
 45106  1  0  0  0
 46107  1  0  0  0
 46108  1  0  0  0
 46109  1  0  0  0
 47110  1  0  0  0
 47111  1  0  0  0
 47112  1  0  0  0
 48113  1  0  0  0
 49114  1  0  0  0
 52115  1  0  0  0
 52116  1  0  0  0
 55117  1  0  0  0
 56118  1  0  0  0
 58119  1  0  0  0
 59120  1  0  0  0
 61121  1  0  0  0
 62122  1  0  0  0
 63123  1  0  0  0
 63124  1  0  0  0
 64125  1  0  0  0
 64126  1  0  0  0
 64127  1  0  0  0
 65128  1  0  0  0
 65129  1  0  0  0
 65130  1  0  0  0
M  END
$$$$
