### 
### Created by X-TOOL on Mon Sep 10 21:12:49 2018
### 

@<TRIPOS>MOLECULE
1jpl_ligand
  127   127     1     0     0
SMALL
GAST_HUCK


@<TRIPOS>ATOM
      1 N          58.5760   53.1330   23.4270 N.4       1 SER         0.2396
      2 CA         58.8110   51.9560   24.2570 C.3       1 SER         0.0885
      3 C          57.5330   51.1390   24.4750 C.2       1 SER         0.2291
      4 O          56.7980   51.3600   25.4460 O.2       1 SER        -0.3906
      5 CB         59.3910   52.3750   25.6140 C.3       1 SER         0.1041
      6 OG         59.7310   51.2480   26.4070 O.3       1 SER        -0.3870
      7 N          57.2760   50.2110   23.5540 N.am      1 ASP        -0.2594
      8 CA         56.1220   49.3060   23.6080 C.3       1 ASP         0.1424
      9 C          56.0990   48.4940   22.3190 C.2       1 ASP         0.2056
     10 O          56.4960   48.9930   21.2670 O.2       1 ASP        -0.3943
     11 CB         54.7970   50.0720   23.7440 C.3       1 ASP         0.0406
     12 CG         53.6130   49.1490   24.0510 C.2       1 ASP         0.0393
     13 OD1        53.8390   47.9500   24.3290 O.co2     1 ASP        -0.5688
     14 OD2        52.4550   49.6220   24.0240 O.co2     1 ASP        -0.5688
     15 N          55.6490   47.2450   22.3970 N.am      1 GLU        -0.2635
     16 CA         55.5880   46.4100   21.2070 C.3       1 GLU         0.1325
     17 C          54.2920   46.6500   20.4360 C.2       1 GLU         0.2041
     18 O          53.4050   47.3670   20.9040 O.2       1 GLU        -0.3944
     19 CB         55.7390   44.9250   21.5740 C.3       1 GLU        -0.0008
     20 CG         54.7620   44.3820   22.6060 C.3       1 GLU         0.0044
     21 CD         55.0770   42.9300   22.9920 C.2       1 GLU         0.0350
     22 OE1        56.2320   42.6640   23.4010 O.co2     1 GLU        -0.5690
     23 OE2        54.1810   42.0570   22.8910 O.co2     1 GLU        -0.5690
     24 N          54.1990   46.0720   19.2420 N.am      1 ASP        -0.2622
     25 CA         53.0100   46.2280   18.4130 C.3       1 ASP         0.1423
     26 C          51.9650   45.2330   18.8740 C.2       1 ASP         0.2056
     27 O          52.3030   44.2030   19.4550 O.2       1 ASP        -0.3943
     28 CB         53.3360   45.9480   16.9420 C.3       1 ASP         0.0406
     29 CG         54.4600   46.8180   16.4120 C.2       1 ASP         0.0393
     30 OD1        54.3050   48.0620   16.4140 O.co2     1 ASP        -0.5688
     31 OD2        55.4970   46.2530   15.9940 O.co2     1 ASP        -0.5688
     32 N          50.6990   45.5420   18.6150 N.am      1 LEU        -0.2636
     33 CA         49.6090   44.6470   18.9830 C.3       1 LEU         0.1312
     34 C          49.8600   43.2610   18.3700 C.2       1 LEU         0.2039
     35 O          50.2370   43.1440   17.2020 O.2       1 LEU        -0.3944
     36 CB         48.2810   45.2220   18.4880 C.3       1 LEU        -0.0101
     37 CG         47.0050   44.4030   18.6980 C.3       1 LEU        -0.0425
     38 CD1        46.8700   43.9900   20.1490 C.3       1 LEU        -0.0625
     39 CD2        45.8060   45.2300   18.2650 C.3       1 LEU        -0.0625
     40 N          49.6600   42.2180   19.1730 N.am      1 LEU        -0.2637
     41 CA         49.8690   40.8380   18.7390 C.3       1 LEU         0.1312
     42 C          48.7500   40.3640   17.8250 C.2       1 LEU         0.2040
     43 O          47.8380   39.6680   18.2740 O.2       1 LEU        -0.3944
     44 CB         49.9410   39.9050   19.9540 C.3       1 LEU        -0.0101
     45 CG         50.1320   38.4090   19.6760 C.3       1 LEU        -0.0425
     46 CD1        51.5740   38.1600   19.2660 C.3       1 LEU        -0.0625
     47 CD2        49.7930   37.5890   20.9170 C.3       1 LEU        -0.0625
     48 N          48.8180   40.7260   16.5470 N.am      1 HIS        -0.2619
     49 CA         47.7830   40.3130   15.6110 C.3       1 HIS         0.1421
     50 C          47.7220   38.7960   15.4710 C.2       1 HIS         0.2055
     51 O          48.6490   38.1630   14.9610 O.2       1 HIS        -0.3942
     52 CB         47.9920   40.9770   14.2440 C.3       1 HIS         0.0427
     53 CG         47.7100   42.4500   14.2470 C.2       1 HIS         0.0561
     54 ND1        48.5600   43.3720   14.8240 N.pl3     1 HIS        -0.2623
     55 CD2        46.6510   43.1570   13.7820 C.2       1 HIS        -0.0276
     56 CE1        48.0360   44.5820   14.7150 C.2       1 HIS         0.0875
     57 NE2        46.8780   44.4790   14.0870 N.2       1 HIS        -0.3437
     58 N          46.6160   38.2300   15.9490 N.am      1 ILE        -0.2691
     59 CA         46.3760   36.7920   15.9130 C.3       1 ILE         0.0969
     60 C          45.5280   36.4070   14.6970 C.2       1 ILE         0.0604
     61 O          45.1790   37.3210   13.9170 O.co2     1 ILE        -0.5666
     62 CB         45.6660   36.3290   17.2170 C.3       1 ILE        -0.0092
     63 CG1        44.4360   37.1940   17.4990 C.3       1 ILE        -0.0497
     64 CG2        46.6070   36.4580   18.3930 C.3       1 ILE        -0.0588
     65 CD1        43.2190   36.8030   16.7240 C.3       1 ILE        -0.0649
     66 OXT        45.2250   35.2050   14.5320 O.co2     1 ILE        -0.5666
     67 H1         59.4397   53.6393   23.3097 H         1 SER         0.2016
     68 H2         57.8956   53.7282   23.8729 H         1 SER         0.2016
     69 H3         58.2305   52.8446   22.5251 H         1 SER         0.2016
     70 H4         59.5445   51.3167   23.7440 H         1 SER         0.1122
     71 H5         58.6435   52.9771   26.1513 H         1 SER         0.0640
     72 H6         60.2951   52.9784   25.4449 H         1 SER         0.0640
     73 H7         58.9534   50.7245   26.5613 H         1 SER         0.2099
     74 H8         57.9056   50.1264   22.7817 H         1 ASP         0.1886
     75 H9         56.2334   48.6310   24.4694 H         1 ASP         0.0819
     76 H10        54.5967   50.6002   22.8002 H         1 ASP         0.0478
     77 H11        54.8947   50.8033   24.5599 H         1 ASP         0.0478
     78 H12        55.3510   46.8778   23.2781 H         1 GLU         0.1883
     79 H13        56.4286   46.6867   20.5537 H         1 GLU         0.0801
     80 H14        56.7562   44.7787   21.9663 H         1 GLU         0.0330
     81 H15        55.6134   44.3377   20.6524 H         1 GLU         0.0330
     82 H16        53.7451   44.4254   22.1889 H         1 GLU         0.0433
     83 H17        54.8151   45.0084   23.5087 H         1 GLU         0.0433
     84 H18        54.9609   45.5185   18.9056 H         1 ASP         0.1884
     85 H19        52.6229   47.2526   18.5150 H         1 ASP         0.0819
     86 H20        52.4340   46.1346   16.3406 H         1 ASP         0.0478
     87 H21        53.6315   44.8931   16.8423 H         1 ASP         0.0478
     88 H22        50.4896   46.4065   18.1581 H         1 LEU         0.1883
     89 H23        49.5717   44.5533   20.0784 H         1 LEU         0.0800
     90 H24        48.3837   45.3906   17.4059 H         1 LEU         0.0315
     91 H25        48.1351   46.1861   18.9971 H         1 LEU         0.0315
     92 H26        47.0564   43.4963   18.0773 H         1 LEU         0.0298
     93 H27        45.9485   43.4035   20.2790 H         1 LEU         0.0232
     94 H28        46.8258   44.8877   20.7832 H         1 LEU         0.0232
     95 H29        47.7375   43.3788   20.4385 H         1 LEU         0.0232
     96 H30        45.9222   45.5199   17.2103 H         1 LEU         0.0232
     97 H31        45.7395   46.1338   18.8885 H         1 LEU         0.0232
     98 H32        44.8884   44.6350   18.3827 H         1 LEU         0.0232
     99 H33        49.3546   42.3854   20.1104 H         1 LEU         0.1883
    100 H34        50.8206   40.7857   18.1898 H         1 LEU         0.0800
    101 H35        49.0027   40.0203   20.5163 H         1 LEU         0.0315
    102 H36        50.7849   40.2366   20.5768 H         1 LEU         0.0315
    103 H37        49.4649   38.1068   18.8552 H         1 LEU         0.0298
    104 H38        51.7181   37.0882   19.0649 H         1 LEU         0.0232
    105 H39        52.2457   38.4742   20.0784 H         1 LEU         0.0232
    106 H40        51.8019   38.7373   18.3578 H         1 LEU         0.0232
    107 H41        48.7481   37.7758   21.2057 H         1 LEU         0.0232
    108 H42        50.4592   37.8805   21.7424 H         1 LEU         0.0232
    109 H43        49.9271   36.5195   20.6977 H         1 LEU         0.0232
    110 H44        49.5837   41.2844   16.2279 H         1 HIS         0.1885
    111 H45        46.8153   40.6526   16.0088 H         1 HIS         0.0824
    112 H46        47.3220   40.4954   13.5165 H         1 HIS         0.0491
    113 H47        49.0372   40.8229   13.9379 H         1 HIS         0.0491
    114 H48        49.4620   43.1522   15.2701 H         1 HIS         0.2386
    115 H49        45.7824   42.7536   13.2636 H         1 HIS         0.0324
    116 H50        48.4829   45.5054   15.0805 H         1 HIS         0.1149
    117 H51        45.9159   38.8193   16.3522 H         1 ILE         0.1876
    118 H52        47.3464   36.2793   15.8393 H         1 ILE         0.0729
    119 H53        45.3578   35.2791   17.1047 H         1 ILE         0.0338
    120 H54        44.6832   38.2364   17.2495 H         1 ILE         0.0267
    121 H55        44.2006   37.1194   18.5709 H         1 ILE         0.0267
    122 H56        47.5023   35.8441   18.2153 H         1 ILE         0.0234
    123 H57        46.1013   36.1129   19.3069 H         1 ILE         0.0234
    124 H58        46.9023   37.5108   18.5126 H         1 ILE         0.0234
    125 H59        42.3866   37.4727   16.9861 H         1 ILE         0.0230
    126 H60        42.9461   35.7658   16.9685 H         1 ILE         0.0230
    127 H61        43.4287   36.8829   15.6471 H         1 ILE         0.0230
@<TRIPOS>BOND
     1    1    2 1  
     2    2    3 1  
     3    2    5 1  
     4    3    4 2  
     5    3    7 am 
     6    5    6 1  
     7    7    8 1  
     8    8    9 1  
     9    8   11 1  
    10    9   10 2  
    11    9   15 am 
    12   11   12 1  
    13   12   13 ar 
    14   12   14 ar 
    15   15   16 1  
    16   16   17 1  
    17   16   19 1  
    18   17   18 2  
    19   17   24 am 
    20   19   20 1  
    21   20   21 1  
    22   21   22 ar 
    23   21   23 ar 
    24   24   25 1  
    25   25   26 1  
    26   25   28 1  
    27   26   27 2  
    28   26   32 am 
    29   28   29 1  
    30   29   30 ar 
    31   29   31 ar 
    32   32   33 1  
    33   33   34 1  
    34   33   36 1  
    35   34   35 2  
    36   34   40 am 
    37   36   37 1  
    38   37   38 1  
    39   37   39 1  
    40   40   41 1  
    41   41   42 1  
    42   41   44 1  
    43   42   43 2  
    44   42   48 am 
    45   44   45 1  
    46   45   46 1  
    47   45   47 1  
    48   48   49 1  
    49   49   50 1  
    50   49   52 1  
    51   50   51 2  
    52   50   58 am 
    53   52   53 1  
    54   53   54 1  
    55   53   55 2  
    56   54   56 1  
    57   55   57 1  
    58   56   57 2  
    59   58   59 1  
    60   59   60 1  
    61   59   62 1  
    62   60   61 ar 
    63   60   66 ar 
    64   62   63 1  
    65   62   64 1  
    66   63   65 1  
    67    1   67 1  
    68    1   68 1  
    69    1   69 1  
    70    2   70 1  
    71    5   71 1  
    72    5   72 1  
    73    6   73 1  
    74    7   74 1  
    75    8   75 1  
    76   11   76 1  
    77   11   77 1  
    78   15   78 1  
    79   16   79 1  
    80   19   80 1  
    81   19   81 1  
    82   20   82 1  
    83   20   83 1  
    84   24   84 1  
    85   25   85 1  
    86   28   86 1  
    87   28   87 1  
    88   32   88 1  
    89   33   89 1  
    90   36   90 1  
    91   36   91 1  
    92   37   92 1  
    93   38   93 1  
    94   38   94 1  
    95   38   95 1  
    96   39   96 1  
    97   39   97 1  
    98   39   98 1  
    99   40   99 1  
   100   41  100 1  
   101   44  101 1  
   102   44  102 1  
   103   45  103 1  
   104   46  104 1  
   105   46  105 1  
   106   46  106 1  
   107   47  107 1  
   108   47  108 1  
   109   47  109 1  
   110   48  110 1  
   111   49  111 1  
   112   52  112 1  
   113   52  113 1  
   114   54  114 1  
   115   55  115 1  
   116   56  116 1  
   117   58  117 1  
   118   59  118 1  
   119   62  119 1  
   120   63  120 1  
   121   63  121 1  
   122   64  122 1  
   123   64  123 1  
   124   64  124 1  
   125   65  125 1  
   126   65  126 1  
   127   65  127 1  
@<TRIPOS>SUBSTRUCTURE
     1 SER         1

