6oxl_ligand
  -I-interpret- 

 74 73  0  0  0  0  0  0  0  0999 V2000
  154.1220  194.8000  125.3590 N   0  3  0  0  0
  153.0950  194.5010  126.3480 C   0  0  0  0  0
  153.3550  195.2820  127.6190 C   0  0  0  0  0
  154.3120  196.0460  127.6840 O   0  0  0  0  0
  153.0490  193.0050  126.6490 C   0  0  0  0  0
  152.5120  195.0800  128.6250 N   0  0  0  0  0
  152.6370  195.7980  129.8870 C   0  0  0  0  0
  151.9570  195.0530  131.0300 C   0  0  0  0  0
  150.7510  195.1670  131.2290 O   0  0  0  0  0
  152.0500  197.2060  129.7680 C   0  0  0  0  0
  152.7400  194.2970  131.7870 N   0  0  0  0  0
  152.2110  193.5500  132.9130 C   0  0  0  0  0
  151.9180  194.4750  134.0780 C   0  0  0  0  0
  152.7320  194.5830  134.9870 O   0  0  0  0  0
  153.1970  192.4670  133.3450 C   0  0  0  0  0
  150.7630  195.1280  134.0550 N   0  0  0  0  0
  150.3820  196.0470  135.1220 C   0  0  0  0  0
  150.0900  195.3030  136.4170 C   0  0  0  0  0
  148.9350  195.0180  136.7200 O   0  0  0  0  0
  149.1630  196.8700  134.7100 C   0  0  0  0  0
  151.1450  194.9980  137.1680 N   0  0  0  0  0
  151.0370  194.2750  138.4310 C   0  0  0  0  0
  150.3230  195.1060  139.4790 C   0  0  0  0  0
  150.3130  196.3270  139.4000 O   0  0  0  0  0
  152.4210  193.8790  138.9420 C   0  0  0  0  0
  149.7230  194.4440  140.4580 N   0  0  0  0  0
  148.9440  195.1370  141.4680 C   0  0  0  0  0
  149.5650  194.9710  142.8440 C   0  0  0  0  0
  150.3390  194.0440  143.0820 O   0  0  0  0  0
  147.5030  194.6300  141.4740 C   0  0  0  0  0
  149.2190  195.8800  143.7480 N   0  0  0  0  0
  149.7480  195.8570  145.1030 C   0  0  0  0  0
  148.6220  195.8780  146.1290 C   0  0  0  0  0
  147.4980  196.2750  145.8210 O   0  0  0  0  0
  150.6840  197.0430  145.3290 C   0  0  0  0  0
  148.8400  195.4960  147.2780 O   0  0  0  0  0
  154.1333  195.8032  125.1750 H   0  0  0  0  0
  155.0317  194.5084  125.7165 H   0  0  0  0  0
  153.9175  194.2970  124.4955 H   0  0  0  0  0
  152.1285  194.7966  125.9397 H   0  0  0  0  0
  154.0032  192.6914  127.0725 H   0  0  0  0  0
  152.2497  192.8036  127.3622 H   0  0  0  0  0
  152.8614  192.4557  125.7264 H   0  0  0  0  0
  151.7566  194.4041  128.5113 H   0  0  0  0  0
  153.7011  195.8691  130.1124 H   0  0  0  0  0
  150.9805  197.1368  129.5694 H   0  0  0  0  0
  152.2135  197.7464  130.7004 H   0  0  0  0  0
  152.5393  197.7343  128.9497 H   0  0  0  0  0
  153.7357  194.2392  131.5733 H   0  0  0  0  0
  151.2806  193.0767  132.5994 H   0  0  0  0  0
  153.3699  191.7827  132.5144 H   0  0  0  0  0
  154.1390  192.9308  133.6375 H   0  0  0  0  0
  152.7834  191.9172  134.1904 H   0  0  0  0  0
  150.1257  194.9838  133.2718 H   0  0  0  0  0
  151.2240  196.7171  135.2955 H   0  0  0  0  0
  149.4000  197.4449  133.8148 H   0  0  0  0  0
  148.3276  196.2011  134.5032 H   0  0  0  0  0
  148.8945  197.5493  135.5191 H   0  0  0  0  0
  152.0704  195.2821  136.8467 H   0  0  0  0  0
  150.4521  193.3739  138.2469 H   0  0  0  0  0
  152.9084  193.2380  138.2074 H   0  0  0  0  0
  153.0199  194.7763  139.0975 H   0  0  0  0  0
  152.3187  193.3411  139.8845 H   0  0  0  0  0
  149.8103  193.4287  140.5026 H   0  0  0  0  0
  148.9414  196.1985  141.2205 H   0  0  0  0  0
  147.0532  194.8059  140.4968 H   0  0  0  0  0
  147.4959  193.5620  141.6917 H   0  0  0  0  0
  146.9353  195.1616  142.2377 H   0  0  0  0  0
  148.5633  196.6157  143.4848 H   0  0  0  0  0
  150.3105  194.9319  145.2293 H   0  0  0  0  0
  147.4938  196.5349  144.8969 H   0  0  0  0  0
  151.5125  196.9901  144.6227 H   0  0  0  0  0
  150.1344  197.9720  145.1774 H   0  0  0  0  0
  151.0706  197.0102  146.3476 H   0  0  0  0  0
  1  2  1  0  0  0
  2  3  1  0  0  0
  2  5  1  0  0  0
  3  4  2  0  0  0
  3  6  1  0  0  0
  6  7  1  0  0  0
  7  8  1  0  0  0
  7 10  1  0  0  0
  8  9  2  0  0  0
  8 11  1  0  0  0
 11 12  1  0  0  0
 12 13  1  0  0  0
 12 15  1  0  0  0
 13 14  2  0  0  0
 13 16  1  0  0  0
 16 17  1  0  0  0
 17 18  1  0  0  0
 17 20  1  0  0  0
 18 19  2  0  0  0
 18 21  1  0  0  0
 21 22  1  0  0  0
 22 23  1  0  0  0
 22 25  1  0  0  0
 23 24  2  0  0  0
 23 26  1  0  0  0
 26 27  1  0  0  0
 27 28  1  0  0  0
 27 30  1  0  0  0
 28 29  2  0  0  0
 28 31  1  0  0  0
 31 32  1  0  0  0
 32 33  1  0  0  0
 32 35  1  0  0  0
 33 34  1  0  0  0
 33 36  2  0  0  0
  1 37  1  0  0  0
  1 38  1  0  0  0
  1 39  1  0  0  0
  2 40  1  0  0  0
  5 41  1  0  0  0
  5 42  1  0  0  0
  5 43  1  0  0  0
  6 44  1  0  0  0
  7 45  1  0  0  0
 10 46  1  0  0  0
 10 47  1  0  0  0
 10 48  1  0  0  0
 11 49  1  0  0  0
 12 50  1  0  0  0
 15 51  1  0  0  0
 15 52  1  0  0  0
 15 53  1  0  0  0
 16 54  1  0  0  0
 17 55  1  0  0  0
 20 56  1  0  0  0
 20 57  1  0  0  0
 20 58  1  0  0  0
 21 59  1  0  0  0
 22 60  1  0  0  0
 25 61  1  0  0  0
 25 62  1  0  0  0
 25 63  1  0  0  0
 26 64  1  0  0  0
 27 65  1  0  0  0
 30 66  1  0  0  0
 30 67  1  0  0  0
 30 68  1  0  0  0
 31 69  1  0  0  0
 32 70  1  0  0  0
 34 71  1  0  0  0
 35 72  1  0  0  0
 35 73  1  0  0  0
 35 74  1  0  0  0
M  END
$$$$
