5ewm_ligand
  -I-interpret- 

 36 38  0  0  0  0  0  0  0  0999 V2000
   78.8000    6.8880  -32.8320 N   0  0  0  0  0
   80.2790   10.8180  -34.2510 C   0  0  0  0  0
   81.2600   10.1780  -33.5190 N   0  0  0  0  0
   81.5010    6.5210  -32.9140 C   0  0  0  0  0
   80.9110    7.7160  -33.2800 C   0  0  0  0  0
   79.3310    5.7090  -32.4940 C   0  0  0  0  0
   82.4260    1.7770  -31.2910 C   0  0  0  0  0
   80.7020    5.4540  -32.5290 C   0  0  0  0  0
   80.3470    0.4800  -32.0010 C   0  0  0  0  0
   82.6840   10.7370  -31.5250 C   0  0  0  0  0
   81.6100   11.0310  -32.4960 C   0  0  0  0  0
   80.9020   12.1470  -32.5370 N   0  0  0  0  0
   80.0740   12.0090  -33.6430 C   0  0  0  0  0
   81.7730    8.8350  -33.8180 C   0  0  0  0  0
   79.5980    7.8900  -33.2330 N   0  0  0  0  0
   81.2930    4.1800  -32.0440 C   0  0  0  0  0
   82.5970    4.1230  -31.5570 C   0  0  0  0  0
   83.1570    2.9270  -31.1470 C   0  0  0  0  0
   81.1460    1.7500  -31.8200 C   0  0  0  0  0
   80.5910    2.9800  -32.1730 C   0  0  0  0  0
   79.7020    0.2480  -30.8310 F   0  0  0  0  0
   79.3410    0.6440  -32.9010 F   0  0  0  0  0
   82.9760    0.6130  -30.8670 F   0  0  0  0  0
   79.7724   10.4399  -35.1390 H   0  0  0  0  0
   82.5860    6.4175  -32.9277 H   0  0  0  0  0
   78.6617    4.9096  -32.1762 H   0  0  0  0  0
   81.0309   -0.3064  -32.3203 H   0  0  0  0  0
   82.4453    9.8190  -30.9880 H   0  0  0  0  0
   83.6281   10.6140  -32.0556 H   0  0  0  0  0
   82.7682   11.5619  -30.8175 H   0  0  0  0  0
   79.3562   12.7586  -33.9762 H   0  0  0  0  0
   82.7503    8.7482  -33.3431 H   0  0  0  0  0
   81.7982    8.7318  -34.9028 H   0  0  0  0  0
   83.1866    5.0379  -31.4981 H   0  0  0  0  0
   84.1588    2.8996  -30.7183 H   0  0  0  0  0
   79.5736    3.0053  -32.5633 H   0  0  0  0  0
  6  1  4  0  0  0
  1 15  4  0  0  0
  3  2  4  0  0  0
  2 13  4  0  0  0
  3 11  4  0  0  0
 14  3  1  0  0  0
  4  5  4  0  0  0
  8  4  4  0  0  0
  5 14  1  0  0  0
  5 15  4  0  0  0
  8  6  4  0  0  0
 18  7  4  0  0  0
  7 19  4  0  0  0
  7 23  1  0  0  0
 16  8  1  0  0  0
 19  9  1  0  0  0
  9 21  1  0  0  0
  9 22  1  0  0  0
 11 10  1  0  0  0
 11 12  4  0  0  0
 12 13  4  0  0  0
 17 16  4  0  0  0
 16 20  4  0  0  0
 17 18  4  0  0  0
 19 20  4  0  0  0
  2 24  1  0  0  0
  4 25  1  0  0  0
  6 26  1  0  0  0
  9 27  1  0  0  0
 10 28  1  0  0  0
 10 29  1  0  0  0
 10 30  1  0  0  0
 13 31  1  0  0  0
 14 32  1  0  0  0
 14 33  1  0  0  0
 17 34  1  0  0  0
 18 35  1  0  0  0
 20 36  1  0  0  0
M  END
$$$$
