3sv7_ligand
  -I-interpret- 

104108  0  0  0  0  0  0  0  0999 V2000
  -23.8730   -9.2040   13.2750 C   0  0  0  0  0
  -25.4500  -10.5990   12.3170 C   0  0  0  0  0
  -26.0850   -9.4860   11.7580 C   0  0  0  0  0
  -22.6080   -9.0100   14.1290 C   0  0  0  0  0
  -24.5140   -8.1000   12.7110 C   0  0  0  0  0
  -22.2640   -7.8860   14.5030 O   0  0  0  0  0
  -24.3600  -10.4400   13.0570 N   0  0  0  0  0
  -25.6040   -8.2670   11.9700 N   0  0  0  0  0
  -21.9580  -10.1360   14.4080 N   0  0  0  0  0
  -20.6890  -10.1580   15.1740 C   0  0  0  0  0
  -19.5460  -10.1090   14.1640 C   0  0  0  0  0
  -19.4390  -10.9700   13.2920 O   0  0  0  0  0
  -20.5810  -11.4000   16.0770 C   0  0  0  0  0
  -21.7240  -11.4240   17.1070 C   0  0  0  0  0
  -21.6230  -12.6650   17.9990 C   0  0  0  0  0
  -20.2640  -12.7180   18.7100 C   0  0  0  0  0
  -19.1070  -12.6770   17.7060 C   0  0  0  0  0
  -19.2220  -11.4510   16.8000 C   0  0  0  0  0
  -18.7500   -9.0580   14.2920 N   0  0  0  0  0
  -17.5980   -8.8340   13.4010 C   0  0  0  0  0
  -17.7250   -7.4650   12.6920 C   0  0  0  0  0
  -17.7690   -6.2500   13.6480 C   0  0  0  0  0
  -19.0190   -7.4810   11.8390 C   0  0  0  0  0
  -16.5090   -7.2970   11.7630 C   0  0  0  0  0
  -16.3040   -8.9400   14.2070 C   0  0  0  0  0
  -16.1180   -8.1830   15.1670 O   0  0  0  0  0
  -13.2110   -8.7970   14.1280 C   0  0  0  0  0
  -15.3740   -9.8290   13.8460 N   0  0  0  0  0
  -13.1730   -8.4150   12.9540 O   0  0  0  0  0
  -14.0760   -9.9800   14.5380 C   0  0  0  0  0
  -13.4740  -11.2880   14.0360 C   0  0  0  0  0
  -14.1470  -11.5370   12.6820 C   0  0  0  0  0
  -13.8810  -12.4750   14.9040 C   0  0  0  0  0
  -13.8540  -13.6430   13.9200 C   0  0  0  0  0
  -15.4900  -10.7860   12.7230 C   0  0  0  0  0
  -14.3900  -13.0430   12.6140 C   0  0  0  0  0
   -9.3210   -6.0730   13.1230 N   0  0  0  0  0
  -12.5200   -8.1990   15.0950 N   0  0  0  0  0
  -11.7870   -6.9770   14.7710 C   0  0  0  0  0
  -10.2940   -7.1160   15.0360 C   0  0  0  0  0
  -12.3970   -5.8250   15.5780 C   0  0  0  0  0
  -13.8320   -5.5530   15.0990 C   0  0  0  0  0
  -14.2380   -4.1250   15.4330 C   0  0  0  0  0
   -9.5100   -5.9640   14.4240 C   0  0  0  0  0
   -8.6180   -5.0410   12.3590 C   0  0  0  0  0
   -7.1380   -5.3250   12.1390 C   0  0  0  0  0
   -8.1330   -5.4910   10.9830 C   0  0  0  0  0
   -9.8020   -8.3470   14.5090 O   0  0  0  0  0
   -9.0630   -5.0520   15.1170 O   0  0  0  0  0
  -25.8505  -11.5980   12.1449 H   0  0  0  0  0
  -26.9774   -9.6195   11.1465 H   0  0  0  0  0
  -24.1192   -7.0980   12.8789 H   0  0  0  0  0
  -22.3483  -11.0201   14.0818 H   0  0  0  0  0
  -20.6473   -9.2987   15.8434 H   0  0  0  0  0
  -20.6614  -12.2787   15.4370 H   0  0  0  0  0
  -22.6759  -11.4479   16.5765 H   0  0  0  0  0
  -21.6536  -10.5340   17.7323 H   0  0  0  0  0
  -21.7284  -13.5538   17.3769 H   0  0  0  0  0
  -22.4109  -12.6217   18.7509 H   0  0  0  0  0
  -20.2028  -13.6503   19.2715 H   0  0  0  0  0
  -20.1830  -11.8525   19.3677 H   0  0  0  0  0
  -19.1428  -13.5754   17.0898 H   0  0  0  0  0
  -18.1663  -12.6235   18.2540 H   0  0  0  0  0
  -19.1289  -10.5581   17.4182 H   0  0  0  0  0
  -18.4353  -11.5059   16.0475 H   0  0  0  0  0
  -18.9407   -8.3818   15.0314 H   0  0  0  0  0
  -17.5782   -9.5987   12.6245 H   0  0  0  0  0
  -18.6269   -6.3440   14.3137 H   0  0  0  0  0
  -16.8522   -6.2192   14.2368 H   0  0  0  0  0
  -17.8587   -5.3335   13.0648 H   0  0  0  0  0
  -18.9568   -8.2815   11.1018 H   0  0  0  0  0
  -19.8784   -7.6490   12.4880 H   0  0  0  0  0
  -19.1286   -6.5237   11.3294 H   0  0  0  0  0
  -15.5940   -7.3323   12.3543 H   0  0  0  0  0
  -16.5001   -8.1028   11.0290 H   0  0  0  0  0
  -16.5749   -6.3374   11.2502 H   0  0  0  0  0
  -14.1630  -10.0021   15.6243 H   0  0  0  0  0
  -12.3872  -11.2064   14.0217 H   0  0  0  0  0
  -13.5607  -11.2046   11.8253 H   0  0  0  0  0
  -14.8549  -12.3407   15.3747 H   0  0  0  0  0
  -13.2171  -12.6238   15.7556 H   0  0  0  0  0
  -14.4540  -14.4857   14.2635 H   0  0  0  0  0
  -12.8539  -14.0601   13.8023 H   0  0  0  0  0
  -15.6904  -10.2745   11.7816 H   0  0  0  0  0
  -16.3261  -11.4705   12.8664 H   0  0  0  0  0
  -13.8819  -13.4772   11.7530 H   0  0  0  0  0
  -15.4524  -13.2575   12.4985 H   0  0  0  0  0
   -9.6737   -6.8975   12.6369 H   0  0  0  0  0
  -12.5023   -8.5841   16.0394 H   0  0  0  0  0
  -11.8807   -6.7733   13.7043 H   0  0  0  0  0
  -10.1562   -7.0992   16.1171 H   0  0  0  0  0
  -11.7944   -4.9279   15.4358 H   0  0  0  0  0
  -12.4157   -6.0959   16.6336 H   0  0  0  0  0
  -14.5113   -6.2427   15.6000 H   0  0  0  0  0
  -13.8795   -5.6933   14.0191 H   0  0  0  0  0
  -14.1881   -3.9773   16.5118 H   0  0  0  0  0
  -13.5592   -3.4304   14.9381 H   0  0  0  0  0
  -15.2565   -3.9479   15.0875 H   0  0  0  0  0
   -9.1951   -4.1951   12.7325 H   0  0  0  0  0
   -6.3335   -5.8872   12.6131 H   0  0  0  0  0
   -6.1764   -4.8481   12.3287 H   0  0  0  0  0
   -8.2351   -5.1930    9.9395 H   0  0  0  0  0
   -8.3916   -6.2282   10.2229 H   0  0  0  0  0
   -8.8609   -8.4160   14.6857 H   0  0  0  0  0
  4  1  1  0  0  0
  1  5  4  0  0  0
  1  7  4  0  0  0
  2  3  4  0  0  0
  7  2  4  0  0  0
  8  3  4  0  0  0
  4  6  2  0  0  0
  9  4  1  0  0  0
  5  8  4  0  0  0
 10  9  1  0  0  0
 11 10  1  0  0  0
 10 13  1  0  0  0
 11 12  2  0  0  0
 19 11  1  0  0  0
 13 14  1  0  0  0
 13 18  1  0  0  0
 14 15  1  0  0  0
 15 16  1  0  0  0
 17 16  1  0  0  0
 18 17  1  0  0  0
 20 19  1  0  0  0
 20 21  1  0  0  0
 25 20  1  0  0  0
 21 22  1  0  0  0
 21 23  1  0  0  0
 21 24  1  0  0  0
 25 26  2  0  0  0
 28 25  1  0  0  0
 27 29  2  0  0  0
 27 30  1  0  0  0
 38 27  1  0  0  0
 30 28  1  0  0  0
 28 35  1  0  0  0
 30 31  1  0  0  0
 31 32  1  0  0  0
 31 33  1  0  0  0
 32 35  1  0  0  0
 32 36  1  0  0  0
 33 34  1  0  0  0
 34 36  1  0  0  0
 44 37  1  0  0  0
 37 45  1  0  0  0
 39 38  1  0  0  0
 40 39  1  0  0  0
 39 41  1  0  0  0
 40 44  1  0  0  0
 40 48  1  0  0  0
 41 42  1  0  0  0
 42 43  1  0  0  0
 44 49  2  0  0  0
 45 46  1  0  0  0
 45 47  1  0  0  0
 46 47  1  0  0  0
  2 50  1  0  0  0
  3 51  1  0  0  0
  5 52  1  0  0  0
  9 53  1  0  0  0
 10 54  1  0  0  0
 13 55  1  0  0  0
 14 56  1  0  0  0
 14 57  1  0  0  0
 15 58  1  0  0  0
 15 59  1  0  0  0
 16 60  1  0  0  0
 16 61  1  0  0  0
 17 62  1  0  0  0
 17 63  1  0  0  0
 18 64  1  0  0  0
 18 65  1  0  0  0
 19 66  1  0  0  0
 20 67  1  0  0  0
 22 68  1  0  0  0
 22 69  1  0  0  0
 22 70  1  0  0  0
 23 71  1  0  0  0
 23 72  1  0  0  0
 23 73  1  0  0  0
 24 74  1  0  0  0
 24 75  1  0  0  0
 24 76  1  0  0  0
 30 77  1  0  0  0
 31 78  1  0  0  0
 32 79  1  0  0  0
 33 80  1  0  0  0
 33 81  1  0  0  0
 34 82  1  0  0  0
 34 83  1  0  0  0
 35 84  1  0  0  0
 35 85  1  0  0  0
 36 86  1  0  0  0
 36 87  1  0  0  0
 37 88  1  0  0  0
 38 89  1  0  0  0
 39 90  1  0  0  0
 40 91  1  0  0  0
 41 92  1  0  0  0
 41 93  1  0  0  0
 42 94  1  0  0  0
 42 95  1  0  0  0
 43 96  1  0  0  0
 43 97  1  0  0  0
 43 98  1  0  0  0
 45 99  1  0  0  0
 46100  1  0  0  0
 46101  1  0  0  0
 47102  1  0  0  0
 47103  1  0  0  0
 48104  1  0  0  0
M  END
$$$$
