3sha_ligand
  -I-interpret- 

 51 53  0  0  0  0  0  0  0  0999 V2000
  -16.4730  -15.2100  -23.0850 N   0  3  0  0  0
  -17.7530  -14.5200  -23.0690 C   0  0  0  0  0
  -17.5340  -13.1460  -22.4830 C   0  0  0  0  0
  -16.5920  -12.4510  -22.8500 O   0  0  0  0  0
  -18.2930  -14.4790  -24.5010 C   0  0  0  0  0
  -19.7100  -13.9460  -24.5650 C   0  0  0  0  0
  -20.7670  -14.6060  -23.9410 C   0  0  0  0  0
  -19.9890  -12.7930  -25.2820 C   0  0  0  0  0
  -22.0590  -14.0890  -24.0320 C   0  0  0  0  0
  -21.2770  -12.2680  -25.3650 C   0  0  0  0  0
  -22.3340  -12.9260  -24.7400 C   0  0  0  0  0
  -18.3800  -12.7030  -21.5680 N   0  0  0  0  0
  -18.1560  -11.3840  -20.9760 C   0  0  0  0  0
  -16.8050  -11.3500  -20.3040 C   0  0  0  0  0
  -16.4070  -12.2900  -19.6140 O   0  0  0  0  0
  -19.2840  -11.2030  -19.9640 C   0  0  0  0  0
  -20.3080  -12.2870  -20.2840 C   0  0  0  0  0
  -19.5420  -13.3950  -20.9960 C   0  0  0  0  0
  -16.0440  -10.2740  -20.5320 N   0  0  0  0  0
  -14.7080  -10.1080  -19.9520 C   0  0  0  0  0
  -13.6680  -10.9010  -20.7100 C   0  0  0  0  0
  -13.3470  -12.2020  -20.3320 C   0  0  0  0  0
  -12.4230  -12.8960  -21.0100 N   0  0  0  0  0
  -11.7800  -12.3770  -22.0650 C   0  0  0  0  0
  -12.0560  -11.0840  -22.4840 C   0  0  0  0  0
  -13.0080  -10.3610  -21.7820 C   0  0  0  0  0
  -13.3970   -8.7080  -22.3060 Cl  0  0  0  0  0
  -16.0965  -15.2475  -22.1378 H   0  0  0  0  0
  -16.6035  -16.1580  -23.4381 H   0  0  0  0  0
  -15.8244  -14.7068  -23.6903 H   0  0  0  0  0
  -18.4944  -15.0297  -22.4537 H   0  0  0  0  0
  -18.2962  -15.4969  -24.8909 H   0  0  0  0  0
  -17.6550  -13.8153  -25.0846 H   0  0  0  0  0
  -20.5843  -15.5243  -23.3830 H   0  0  0  0  0
  -19.1758  -12.2813  -25.7967 H   0  0  0  0  0
  -22.8754  -14.6119  -23.5339 H   0  0  0  0  0
  -21.4570  -11.3456  -25.9171 H   0  0  0  0  0
  -23.3506  -12.5382  -24.8049 H   0  0  0  0  0
  -18.1591  -10.5840  -21.7163 H   0  0  0  0  0
  -19.7244  -10.2084  -20.0350 H   0  0  0  0  0
  -18.9174  -11.2936  -18.9415 H   0  0  0  0  0
  -21.1107  -11.8979  -20.9104 H   0  0  0  0  0
  -20.7851  -12.6582  -19.3770 H   0  0  0  0  0
  -19.2549  -14.2017  -20.3215 H   0  0  0  0  0
  -20.1436  -13.8947  -21.7553 H   0  0  0  0  0
  -16.4090   -9.5371  -21.1355 H   0  0  0  0  0
  -14.7326  -10.4681  -18.9235 H   0  0  0  0  0
  -14.4399   -9.0527  -20.0027 H   0  0  0  0  0
  -13.8503  -12.6585  -19.4797 H   0  0  0  0  0
  -11.0376  -12.9731  -22.5956 H   0  0  0  0  0
  -11.5397  -10.6492  -23.3399 H   0  0  0  0  0
  1  2  1  0  0  0
  2  3  1  0  0  0
  2  5  1  0  0  0
  3  4  2  0  0  0
  3 12  1  0  0  0
  5  6  1  0  0  0
  6  7  4  0  0  0
  6  8  4  0  0  0
  7  9  4  0  0  0
  8 10  4  0  0  0
  9 11  4  0  0  0
 10 11  4  0  0  0
 12 13  1  0  0  0
 12 18  1  0  0  0
 13 14  1  0  0  0
 13 16  1  0  0  0
 14 15  2  0  0  0
 14 19  1  0  0  0
 16 17  1  0  0  0
 17 18  1  0  0  0
 19 20  1  0  0  0
 20 21  1  0  0  0
 21 22  4  0  0  0
 21 26  4  0  0  0
 22 23  4  0  0  0
 23 24  4  0  0  0
 24 25  4  0  0  0
 25 26  4  0  0  0
 26 27  1  0  0  0
  1 28  1  0  0  0
  1 29  1  0  0  0
  1 30  1  0  0  0
  2 31  1  0  0  0
  5 32  1  0  0  0
  5 33  1  0  0  0
  7 34  1  0  0  0
  8 35  1  0  0  0
  9 36  1  0  0  0
 10 37  1  0  0  0
 11 38  1  0  0  0
 13 39  1  0  0  0
 16 40  1  0  0  0
 16 41  1  0  0  0
 17 42  1  0  0  0
 17 43  1  0  0  0
 18 44  1  0  0  0
 18 45  1  0  0  0
 19 46  1  0  0  0
 20 47  1  0  0  0
 20 48  1  0  0  0
 22 49  1  0  0  0
 24 50  1  0  0  0
 25 51  1  0  0  0
M  END
$$$$
