4qy3_ligand
  -I-interpret- 

 31 32  0  0  0  0  0  0  0  0999 V2000
    6.4690   -8.5960    6.1710 C   0  0  0  0  0
    5.4160   -8.2950    7.0430 C   0  0  0  0  0
    4.7780   -9.3490    7.7090 C   0  0  0  0  0
    5.1720  -10.6560    7.5020 C   0  0  0  0  0
    6.8570   -9.9150    5.9680 C   0  0  0  0  0
    6.2250   -7.2390    3.7660 C   0  0  0  0  0
    5.7110   -4.7960    3.5230 C   0  0  0  0  0
    5.7020   -3.6310    2.7830 C   0  0  0  0  0
    6.2620   -3.6010    1.5210 C   0  0  0  0  0
    6.8360   -4.7470    1.0080 C   0  0  0  0  0
    6.8490   -5.9170    1.7420 C   0  0  0  0  0
    5.7050   -6.0100    6.6820 O   0  0  0  0  0
    5.0340   -6.8760    7.2830 C   0  0  0  0  0
    4.0830   -6.6730    8.0680 O   0  0  0  0  0
    6.2010  -10.9380    6.6430 C   0  0  0  0  0
    7.3730   -7.3550    5.2120 S   0  0  0  0  0
    8.6280   -8.0390    4.7860 O   0  0  0  0  0
    6.2800   -5.9560    3.0100 C   0  0  0  0  0
    3.9613   -9.1351    8.3984 H   0  0  0  0  0
    4.6625  -11.4661    8.0239 H   0  0  0  0  0
    7.6722  -10.1464    5.2824 H   0  0  0  0  0
    5.2135   -7.3239    4.1632 H   0  0  0  0  0
    6.5199   -8.0242    3.0698 H   0  0  0  0  0
    5.2679   -4.8066    4.5188 H   0  0  0  0  0
    5.2503   -2.7295    3.1970 H   0  0  0  0  0
    6.2509   -2.6815    0.9357 H   0  0  0  0  0
    7.2832   -4.7283    0.0142 H   0  0  0  0  0
    7.3074   -6.8138    1.3253 H   0  0  0  0  0
    3.7479   -7.5141    8.3872 H   0  0  0  0  0
    6.5078  -11.9723    6.4875 H   0  0  0  0  0
    9.2268   -8.1013    5.5338 H   0  0  0  0  0
  1  2  4  0  0  0
  1  5  4  0  0  0
 16  1  1  0  0  0
  2  3  4  0  0  0
  2 13  1  0  0  0
  3  4  4  0  0  0
 15  4  4  0  0  0
  5 15  4  0  0  0
  6 16  1  0  0  0
 18  6  1  0  0  0
  7  8  4  0  0  0
  7 18  4  0  0  0
  8  9  4  0  0  0
  9 10  4  0  0  0
 10 11  4  0  0  0
 11 18  4  0  0  0
 13 12  2  0  0  0
 13 14  1  0  0  0
 16 17  1  0  0  0
  3 19  1  0  0  0
  4 20  1  0  0  0
  5 21  1  0  0  0
  6 22  1  0  0  0
  6 23  1  0  0  0
  7 24  1  0  0  0
  8 25  1  0  0  0
  9 26  1  0  0  0
 10 27  1  0  0  0
 11 28  1  0  0  0
 14 29  1  0  0  0
 15 30  1  0  0  0
 17 31  1  0  0  0
M  END
$$$$
