2xch_ligand
  -I-interpret- 

 54 58  0  0  0  0  0  0  0  0999 V2000
  -45.1620   17.3950   10.8320 O   0  0  0  0  0
  -44.3920   18.1550   11.3860 C   0  0  0  0  0
  -44.6700   19.4620   11.5330 N   0  0  0  0  0
  -43.0880   17.7000   11.9450 C   0  0  0  0  0
  -42.4930   16.4490   11.7980 C   0  0  0  0  0
  -42.9630   15.2100   11.0590 C   0  0  0  0  0
  -42.2970   18.4730   12.7020 N   0  0  0  0  0
  -41.1770   17.7010   13.0310 N   0  0  0  0  0
  -40.1900   18.3530   13.8980 C   0  0  0  0  0
  -39.2850   19.3540   13.1810 C   0  0  0  0  0
  -38.9710   18.8840   11.7640 C   0  0  0  0  0
  -38.1290   19.9240   11.0470 C   0  0  0  0  0
  -38.6790   21.2690   11.1590 N   0  3  0  0  0
  -39.0910   21.7520   12.4720 C   0  0  0  0  0
  -39.9840   20.7270   13.1480 C   0  0  0  0  0
  -41.2980   16.4620   12.5140 C   0  0  0  0  0
  -40.4220   15.3860   12.5380 C   0  0  0  0  0
  -39.1250   15.5270   12.8810 N   0  0  0  0  0
  -38.2640   14.4670   12.8250 C   0  0  0  0  0
  -38.7170   13.2550   12.4260 N   0  0  0  0  0
  -39.9980   13.0930   12.0610 C   0  0  0  0  0
  -40.8830   14.1520   12.1070 C   0  0  0  0  0
  -42.3380   13.9620   11.7070 C   0  0  0  0  0
  -36.9650   14.5230   13.1860 N   0  0  0  0  0
  -36.2230   15.5310   13.7280 C   0  0  0  0  0
  -36.7030   16.8210   13.9440 C   0  0  0  0  0
  -35.8420   17.7990   14.4930 C   0  0  0  0  0
  -34.5070   17.4990   14.8110 C   0  0  0  0  0
  -34.0290   16.2070   14.5860 C   0  0  0  0  0
  -34.8970   15.2380   14.0540 C   0  0  0  0  0
  -45.5470   19.8403   11.1750 H   0  0  0  0  0
  -44.0039   20.0754   12.0026 H   0  0  0  0  0
  -43.6378   15.2047   10.2030 H   0  0  0  0  0
  -39.5469   17.5688   14.2974 H   0  0  0  0  0
  -40.7451   18.9078   14.6544 H   0  0  0  0  0
  -38.3417   19.4351   13.7212 H   0  0  0  0  0
  -39.9038   18.7398   11.2189 H   0  0  0  0  0
  -38.4184   17.9457   11.8115 H   0  0  0  0  0
  -38.1018   19.6609    9.9896 H   0  0  0  0  0
  -37.1403   19.9279   11.5059 H   0  0  0  0  0
  -39.5340   21.2522   10.6031 H   0  0  0  0  0
  -37.9207   21.8893   10.8750 H   0  0  0  0  0
  -39.6428   22.6845   12.3533 H   0  0  0  0  0
  -38.2060   21.9164   13.0867 H   0  0  0  0  0
  -40.1879   21.0488   14.1692 H   0  0  0  0  0
  -40.9156   20.6404   12.5887 H   0  0  0  0  0
  -40.3436   12.1154   11.7247 H   0  0  0  0  0
  -42.8849   13.0323   11.8640 H   0  0  0  0  0
  -36.4466   13.6594   13.0252 H   0  0  0  0  0
  -37.7329   17.0740   13.6921 H   0  0  0  0  0
  -36.2214   18.8049   14.6729 H   0  0  0  0  0
  -33.8531   18.2650   15.2279 H   0  0  0  0  0
  -32.9952   15.9527   14.8200 H   0  0  0  0  0
  -34.5238   14.2269   13.8909 H   0  0  0  0  0
  1  2  2  0  0  0
  2  3  1  0  0  0
  2  4  1  0  0  0
  4  5  4  0  0  0
  4  7  4  0  0  0
  5  6  4  0  0  0
  5 16  4  0  0  0
  6 23  4  0  0  0
  7  8  4  0  0  0
  8  9  1  0  0  0
  8 16  4  0  0  0
  9 10  1  0  0  0
 10 11  1  0  0  0
 10 15  1  0  0  0
 11 12  1  0  0  0
 12 13  1  0  0  0
 13 14  1  0  0  0
 14 15  1  0  0  0
 16 17  4  0  0  0
 17 18  4  0  0  0
 17 22  4  0  0  0
 18 19  4  0  0  0
 19 20  4  0  0  0
 19 24  1  0  0  0
 20 21  4  0  0  0
 21 22  4  0  0  0
 22 23  4  0  0  0
 24 25  1  0  0  0
 25 26  4  0  0  0
 25 30  4  0  0  0
 26 27  4  0  0  0
 27 28  4  0  0  0
 28 29  4  0  0  0
 29 30  4  0  0  0
  3 31  1  0  0  0
  3 32  1  0  0  0
  6 33  1  0  0  0
  9 34  1  0  0  0
  9 35  1  0  0  0
 10 36  1  0  0  0
 11 37  1  0  0  0
 11 38  1  0  0  0
 12 39  1  0  0  0
 12 40  1  0  0  0
 13 41  1  0  0  0
 13 42  1  0  0  0
 14 43  1  0  0  0
 14 44  1  0  0  0
 15 45  1  0  0  0
 15 46  1  0  0  0
 21 47  1  0  0  0
 23 48  1  0  0  0
 24 49  1  0  0  0
 26 50  1  0  0  0
 27 51  1  0  0  0
 28 52  1  0  0  0
 29 53  1  0  0  0
 30 54  1  0  0  0
M  END
$$$$
