3ggv_ligand
  -I-interpret- 

126130  0  0  0  0  0  0  0  0999 V2000
   11.5840    2.9970    3.8200 C   0  0  0  0  0
   12.0460   -0.2580    5.0850 N   0  0  0  0  0
   11.8920    1.6060    3.8300 O   0  0  0  0  0
   11.9290    1.1090    5.1000 C   0  0  0  0  0
   11.8890    1.7880    6.1230 O   0  0  0  0  0
   12.6350   -0.8680    6.2580 C   0  0  0  0  0
   13.8870   -1.5470    5.7570 C   0  0  0  0  0
   13.8590   -2.5160    5.0140 O   0  0  0  0  0
   15.0230   -0.9100    6.2450 N   0  0  0  0  0
   16.3710   -1.1300    5.7740 C   0  0  0  0  0
   16.9310   -2.4730    6.2100 C   0  0  0  0  0
   16.5860   -2.9440    7.6180 C   0  0  0  0  0
   17.3590   -2.2010    8.5650 O   0  0  0  0  0
   16.8120   -4.4650    7.7490 C   0  0  0  0  0
   16.1400   -5.0100    8.9840 C   0  0  0  0  0
   16.3780   -6.4660    9.2230 C   0  0  0  0  0
   15.6780   -7.4290    8.5320 C   0  0  0  0  0
   15.9140   -8.7660    8.7800 C   0  0  0  0  0
   16.8420   -9.1680    9.7160 C   0  0  0  0  0
   17.5330   -8.2050   10.4110 C   0  0  0  0  0
   17.3010   -6.8670   10.1660 C   0  0  0  0  0
   18.1940   -4.9060    7.7250 N   0  0  0  0  0
   18.6420   -5.7400    6.7170 C   0  0  0  0  0
   17.9440   -6.2230    5.8330 O   0  0  0  0  0
   20.1250   -6.0030    6.8110 C   0  0  0  0  0
   20.2080   -7.3540    7.3600 N   0  0  0  0  0
   19.5460   -8.4630    6.8920 C   0  0  0  0  0
   19.8510   -9.4980    7.6760 C   0  0  0  0  0
   20.6950   -9.0350    8.6360 N   0  0  0  0  0
   21.2480   -9.8700    9.6790 C   0  0  0  0  0
   20.2530  -10.4530   10.6470 C   0  0  0  0  0
   19.9820   -9.8290   11.8510 C   0  0  0  0  0
   19.0680  -10.3880   12.7240 C   0  0  0  0  0
   18.4530  -11.5620   12.3610 C   0  0  0  0  0
   18.7740  -12.1280   11.1430 C   0  0  0  0  0
   19.6580  -11.5970   10.2890 N   0  0  0  0  0
   18.1420  -13.4050   10.6860 C   0  0  0  0  0
   17.5300  -13.1750    9.3230 C   0  0  0  0  0
   17.1230  -13.9520   11.6670 C   0  0  0  0  0
   19.1460  -14.3970   10.5490 O   0  0  0  0  0
   20.9450   -7.6860    8.4730 C   0  0  0  0  0
   21.6470   -6.9470    9.1480 O   0  0  0  0  0
   20.8100   -5.7000    5.4750 C   0  0  0  0  0
   20.2940   -4.3750    4.9470 C   0  0  0  0  0
   22.3000   -5.6120    5.6830 C   0  0  0  0  0
   20.6160   -6.7550    4.4120 C   0  0  0  0  0
   16.5240   -1.0740    4.2580 C   0  0  0  0  0
   15.8370    0.0340    3.5180 C   0  0  0  0  0
   15.2600   -0.2240    2.2910 C   0  0  0  0  0
   14.6280    0.7650    1.5680 C   0  0  0  0  0
   14.5470    2.0550    2.0570 C   0  0  0  0  0
   15.1240    2.2950    3.2890 C   0  0  0  0  0
   15.7640    1.3130    4.0140 C   0  0  0  0  0
   13.9180    3.1500    1.3050 C   0  0  0  0  0
   13.9940    4.4520    1.7720 C   0  0  0  0  0
   13.4180    5.4560    1.0250 C   0  0  0  0  0
   12.7790    5.1410   -0.1580 C   0  0  0  0  0
   12.7410    3.8250   -0.5560 C   0  0  0  0  0
   13.3000    2.8320    0.1450 N   0  0  0  0  0
   11.6560   -1.7450    7.0350 C   0  0  0  0  0
   10.8450   -2.6570    6.1590 C   0  0  0  0  0
   12.3830   -2.6100    8.0360 C   0  0  0  0  0
   10.6820   -0.8520    7.7620 C   0  0  0  0  0
   10.6089    3.1552    4.2806 H   0  0  0  0  0
   12.3446    3.5403    4.3807 H   0  0  0  0  0
   11.5637    3.3559    2.7910 H   0  0  0  0  0
   11.7344   -0.8149    4.2893 H   0  0  0  0  0
   12.8997   -0.1391    7.0240 H   0  0  0  0  0
   14.8939   -0.2325    6.9965 H   0  0  0  0  0
   16.9216   -0.3052    6.2264 H   0  0  0  0  0
   18.0153   -2.3631    6.1908 H   0  0  0  0  0
   16.4953   -3.2098    5.5352 H   0  0  0  0  0
   15.5308   -2.7624    7.8224 H   0  0  0  0  0
   17.1440   -2.4953    9.4531 H   0  0  0  0  0
   16.3575   -4.8687    6.8442 H   0  0  0  0  0
   15.0664   -4.8788    8.8489 H   0  0  0  0  0
   16.5543   -4.4733    9.8375 H   0  0  0  0  0
   14.9369   -7.1354    7.7886 H   0  0  0  0  0
   15.3551   -9.5190    8.2244 H   0  0  0  0  0
   17.0239  -10.2267    9.9010 H   0  0  0  0  0
   18.2683   -8.4995   11.1598 H   0  0  0  0  0
   17.8561   -6.1150   10.7267 H   0  0  0  0  0
   18.8377   -4.5997    8.4545 H   0  0  0  0  0
   20.6920   -5.3482    7.4727 H   0  0  0  0  0
   18.8838   -8.4922    6.0267 H   0  0  0  0  0
   19.4916  -10.5213    7.5676 H   0  0  0  0  0
   21.9109   -9.2330   10.2647 H   0  0  0  0  0
   21.7223  -10.7143    9.1788 H   0  0  0  0  0
   20.4878   -8.8990   12.1107 H   0  0  0  0  0
   18.8406   -9.9096   13.6767 H   0  0  0  0  0
   17.7268  -12.0367   13.0208 H   0  0  0  0  0
   16.7770  -12.3899    9.3920 H   0  0  0  0  0
   18.3087  -12.8727    8.6228 H   0  0  0  0  0
   17.0645  -14.0971    8.9749 H   0  0  0  0  0
   17.6094  -14.1482   12.6225 H   0  0  0  0  0
   16.3264  -13.2213   11.8067 H   0  0  0  0  0
   16.7034  -14.8783   11.2744 H   0  0  0  0  0
   18.7448  -15.2184   10.2558 H   0  0  0  0  0
   19.2155   -4.4381    4.8026 H   0  0  0  0  0
   20.5202   -3.5864    5.6647 H   0  0  0  0  0
   20.7768   -4.1516    3.9956 H   0  0  0  0  0
   22.5199   -4.8154    6.3937 H   0  0  0  0  0
   22.6677   -6.5609    6.0736 H   0  0  0  0  0
   22.7863   -5.3964    4.7316 H   0  0  0  0  0
   21.0198   -7.7037    4.7655 H   0  0  0  0  0
   19.5521   -6.8669    4.2028 H   0  0  0  0  0
   21.1365   -6.4532    3.5031 H   0  0  0  0  0
   16.0682   -1.9926    3.8886 H   0  0  0  0  0
   17.5887   -0.9210    4.0817 H   0  0  0  0  0
   15.3051   -1.2341    1.8839 H   0  0  0  0  0
   14.1873    0.5269    0.5999 H   0  0  0  0  0
   15.0710    3.3014    3.7044 H   0  0  0  0  0
   16.2114    1.5507    4.9791 H   0  0  0  0  0
   14.4992    4.6774    2.7112 H   0  0  0  0  0
   13.4662    6.4905    1.3649 H   0  0  0  0  0
   12.3144    5.9191   -0.7637 H   0  0  0  0  0
   12.2309    3.5792   -1.4874 H   0  0  0  0  0
   11.5094   -3.3551    5.6498 H   0  0  0  0  0
   10.1347   -3.2112    6.7726 H   0  0  0  0  0
   10.3045   -2.0641    5.4212 H   0  0  0  0  0
   11.6568   -3.1647    8.6301 H   0  0  0  0  0
   13.0314   -3.3087    7.5073 H   0  0  0  0  0
   12.9839   -1.9790    8.6908 H   0  0  0  0  0
   10.1057   -0.2782    7.0362 H   0  0  0  0  0
   10.0077   -1.4638    8.3613 H   0  0  0  0  0
   11.2311   -0.1708    8.4121 H   0  0  0  0  0
  3  1  1  0  0  0
  4  2  1  0  0  0
  2  6  1  0  0  0
  3  4  1  0  0  0
  4  5  2  0  0  0
  6  7  1  0  0  0
  6 60  1  0  0  0
  7  8  2  0  0  0
  7  9  1  0  0  0
  9 10  1  0  0  0
 10 11  1  0  0  0
 10 47  1  0  0  0
 11 12  1  0  0  0
 12 13  1  0  0  0
 12 14  1  0  0  0
 14 15  1  0  0  0
 14 22  1  0  0  0
 15 16  1  0  0  0
 16 17  4  0  0  0
 16 21  4  0  0  0
 17 18  4  0  0  0
 18 19  4  0  0  0
 19 20  4  0  0  0
 20 21  4  0  0  0
 22 23  1  0  0  0
 23 24  2  0  0  0
 23 25  1  0  0  0
 25 26  1  0  0  0
 25 43  1  0  0  0
 26 27  1  0  0  0
 26 41  1  0  0  0
 27 28  2  0  0  0
 28 29  1  0  0  0
 29 30  1  0  0  0
 29 41  1  0  0  0
 30 31  1  0  0  0
 31 32  4  0  0  0
 31 36  4  0  0  0
 32 33  4  0  0  0
 33 34  4  0  0  0
 34 35  4  0  0  0
 35 36  4  0  0  0
 35 37  1  0  0  0
 37 38  1  0  0  0
 37 39  1  0  0  0
 37 40  1  0  0  0
 41 42  2  0  0  0
 43 44  1  0  0  0
 43 45  1  0  0  0
 43 46  1  0  0  0
 47 48  1  0  0  0
 48 49  4  0  0  0
 48 53  4  0  0  0
 49 50  4  0  0  0
 50 51  4  0  0  0
 51 52  4  0  0  0
 51 54  1  0  0  0
 52 53  4  0  0  0
 54 55  4  0  0  0
 54 59  4  0  0  0
 55 56  4  0  0  0
 56 57  4  0  0  0
 57 58  4  0  0  0
 58 59  4  0  0  0
 60 61  1  0  0  0
 60 62  1  0  0  0
 60 63  1  0  0  0
  1 64  1  0  0  0
  1 65  1  0  0  0
  1 66  1  0  0  0
  2 67  1  0  0  0
  6 68  1  0  0  0
  9 69  1  0  0  0
 10 70  1  0  0  0
 11 71  1  0  0  0
 11 72  1  0  0  0
 12 73  1  0  0  0
 13 74  1  0  0  0
 14 75  1  0  0  0
 15 76  1  0  0  0
 15 77  1  0  0  0
 17 78  1  0  0  0
 18 79  1  0  0  0
 19 80  1  0  0  0
 20 81  1  0  0  0
 21 82  1  0  0  0
 22 83  1  0  0  0
 25 84  1  0  0  0
 27 85  1  0  0  0
 28 86  1  0  0  0
 30 87  1  0  0  0
 30 88  1  0  0  0
 32 89  1  0  0  0
 33 90  1  0  0  0
 34 91  1  0  0  0
 38 92  1  0  0  0
 38 93  1  0  0  0
 38 94  1  0  0  0
 39 95  1  0  0  0
 39 96  1  0  0  0
 39 97  1  0  0  0
 40 98  1  0  0  0
 44 99  1  0  0  0
 44100  1  0  0  0
 44101  1  0  0  0
 45102  1  0  0  0
 45103  1  0  0  0
 45104  1  0  0  0
 46105  1  0  0  0
 46106  1  0  0  0
 46107  1  0  0  0
 47108  1  0  0  0
 47109  1  0  0  0
 49110  1  0  0  0
 50111  1  0  0  0
 52112  1  0  0  0
 53113  1  0  0  0
 55114  1  0  0  0
 56115  1  0  0  0
 57116  1  0  0  0
 58117  1  0  0  0
 61118  1  0  0  0
 61119  1  0  0  0
 61120  1  0  0  0
 62121  1  0  0  0
 62122  1  0  0  0
 62123  1  0  0  0
 63124  1  0  0  0
 63125  1  0  0  0
 63126  1  0  0  0
M  END
$$$$
