3w33_ligand
  -I-interpret- 

 57 61  0  0  0  0  0  0  0  0999 V2000
   18.1380   29.6370    6.3460 C   0  0  0  0  0
   17.5280   32.8280   11.2660 C   0  0  0  0  0
   18.0650   30.9560    6.7410 C   0  0  0  0  0
   17.5790   32.4710    9.9370 C   0  0  0  0  0
   17.0580   28.7870    6.4820 C   0  0  0  0  0
   14.5340   30.9960    7.9760 C   0  0  0  0  0
   15.9490   34.5580   10.7240 C   0  0  0  0  0
   13.6320   29.9650    8.0080 C   0  0  0  0  0
   13.2060   33.8790   13.8920 C   0  0  0  0  0
   15.8170   30.6690    7.4450 C   0  0  0  0  0
   15.4160   34.8310   15.0410 C   0  0  0  0  0
   16.7100   33.8780   11.6700 C   0  0  0  0  0
   16.9090   31.4830    7.2940 C   0  0  0  0  0
   16.8110   33.1500    9.0120 C   0  0  0  0  0
   15.9180   29.3400    7.0420 C   0  0  0  0  0
   15.9940   34.1970    9.3990 C   0  0  0  0  0
   14.1950   34.8430   15.7160 C   0  0  0  0  0
   15.4230   34.3190   13.7540 C   0  0  0  0  0
   16.6660   35.4100   15.5710 C   0  0  0  0  0
   17.0560   35.4950   16.8450 C   0  0  0  0  0
   18.3500   36.1810   17.1170 C   0  0  0  0  0
   16.2420   34.9900   17.9680 C   0  0  0  0  0
   14.9810   35.8450   17.9060 C   0  0  0  0  0
   20.2410   37.0910   15.8830 C   0  0  0  0  0
   21.6500   36.6330   16.1700 C   0  0  0  0  0
   13.0870   34.3590   15.1270 N   0  0  0  0  0
   14.3310   33.8280   13.1710 N   0  0  0  0  0
   13.9540   35.3000   17.0250 N   0  0  0  0  0
   16.6390   34.2990   13.0000 N   0  0  0  0  0
   19.2900   36.0320   16.1340 N   0  0  0  0  0
   18.5380   36.8390   18.1370 O   0  0  0  0  0
   21.7000   36.2510   17.5370 O   0  0  0  0  0
   16.8660   32.8250    7.6660 O   0  0  0  0  0
   14.4040   28.5880    7.3480 S   0  0  0  0  0
   15.0450   35.0360    8.2210 Cl  0  0  0  0  0
   19.0660   29.2578    5.9181 H   0  0  0  0  0
   18.1273   32.2890   11.9998 H   0  0  0  0  0
   18.9364   31.5987    6.6154 H   0  0  0  0  0
   18.2246   31.6537    9.6158 H   0  0  0  0  0
   17.1001   27.7441    6.1677 H   0  0  0  0  0
   14.2882   31.9966    8.3316 H   0  0  0  0  0
   15.3113   35.3847   11.0370 H   0  0  0  0  0
   12.6103   30.0132    8.3847 H   0  0  0  0  0
   12.3014   33.4908   13.4238 H   0  0  0  0  0
   17.3551   35.8182   14.8317 H   0  0  0  0  0
   16.7554   35.0715   18.9260 H   0  0  0  0  0
   16.0289   33.9244   17.8836 H   0  0  0  0  0
   15.2653   36.8217   17.5143 H   0  0  0  0  0
   14.5627   35.8868   18.9117 H   0  0  0  0  0
   20.1742   37.3792   14.8339 H   0  0  0  0  0
   20.0074   37.9323   16.5355 H   0  0  0  0  0
   22.3612   37.4344   15.9702 H   0  0  0  0  0
   21.9181   35.7939   15.5280 H   0  0  0  0  0
   12.9995   35.2467   17.3807 H   0  0  0  0  0
   17.4972   34.6077   13.4567 H   0  0  0  0  0
   19.3195   35.1761   15.5800 H   0  0  0  0  0
   22.5868   35.9533   17.7527 H   0  0  0  0  0
  3  1  4  0  0  0
  1  5  4  0  0  0
  2  4  4  0  0  0
 12  2  4  0  0  0
 13  3  4  0  0  0
  4 14  4  0  0  0
 15  5  4  0  0  0
  6  8  4  0  0  0
 10  6  4  0  0  0
 12  7  4  0  0  0
  7 16  4  0  0  0
 34  8  4  0  0  0
 26  9  4  0  0  0
 27  9  4  0  0  0
 13 10  4  0  0  0
 10 15  4  0  0  0
 11 17  4  0  0  0
 11 18  4  0  0  0
 19 11  1  0  0  0
 29 12  1  0  0  0
 33 13  1  0  0  0
 16 14  4  0  0  0
 14 33  1  0  0  0
 15 34  4  0  0  0
 16 35  1  0  0  0
 17 26  4  0  0  0
 28 17  1  0  0  0
 18 27  4  0  0  0
 18 29  1  0  0  0
 20 19  2  0  0  0
 21 20  1  0  0  0
 20 22  1  0  0  0
 30 21  1  0  0  0
 21 31  2  0  0  0
 22 23  1  0  0  0
 23 28  1  0  0  0
 24 25  1  0  0  0
 24 30  1  0  0  0
 25 32  1  0  0  0
  1 36  1  0  0  0
  2 37  1  0  0  0
  3 38  1  0  0  0
  4 39  1  0  0  0
  5 40  1  0  0  0
  6 41  1  0  0  0
  7 42  1  0  0  0
  8 43  1  0  0  0
  9 44  1  0  0  0
 19 45  1  0  0  0
 22 46  1  0  0  0
 22 47  1  0  0  0
 23 48  1  0  0  0
 23 49  1  0  0  0
 24 50  1  0  0  0
 24 51  1  0  0  0
 25 52  1  0  0  0
 25 53  1  0  0  0
 28 54  1  0  0  0
 29 55  1  0  0  0
 30 56  1  0  0  0
 32 57  1  0  0  0
M  END
$$$$
