4whl_ligand
  -I-interpret- 

110112  0  0  0  0  0  0  0  0999 V2000
   12.0920   62.6110  150.4120 C   0  0  0  0  0
   12.5970   63.7320  150.5490 O   0  0  0  0  0
   11.2610   62.2610  149.2290 C   0  0  0  0  0
   10.9030   63.5570  148.5580 C   0  0  0  0  0
    9.5570   63.8880  149.1340 C   0  0  0  0  0
    9.5370   65.2170  149.6850 N   0  0  0  0  0
    8.5510   65.4100  150.5400 C   0  0  0  0  0
    7.7490   64.4960  150.7910 O   0  0  0  0  0
    8.4270   66.6750  151.1010 C   0  0  0  0  0
    9.3630   67.6560  150.8870 C   0  0  0  0  0
    9.1810   68.9000  151.4530 C   0  0  0  0  0
    8.0590   69.1840  152.2160 C   0  0  0  0  0
    7.1040   68.1960  152.4160 C   0  0  0  0  0
    7.2970   66.9450  151.8550 C   0  0  0  0  0
   13.7370   60.2060  152.5860 C   0  0  0  0  0
   12.3520   61.5390  151.1720 N   0  0  0  0  0
   12.9570   59.2760  152.3730 O   0  0  0  0  0
   13.3410   61.6210  152.2230 C   0  0  0  0  0
   12.9380   62.4460  153.3990 C   0  0  0  0  0
   11.6080   62.1270  154.0500 C   0  0  0  0  0
   10.4410   64.3240  153.4550 C   0  0  0  0  0
   11.0620   65.3900  154.3660 C   0  0  0  0  0
   11.0380   66.7740  153.6880 C   0  0  0  0  0
   11.7060   67.7740  154.6390 C   0  0  0  0  0
   11.4290   69.2300  154.2670 C   0  0  0  0  0
   11.7950   70.1130  155.4790 C   0  0  0  0  0
   13.3440   70.2080  155.5770 C   0  0  0  0  0
   13.7170   71.5020  156.3160 C   0  0  0  0  0
   13.5900   72.5980  155.4910 C   0  0  0  0  0
   12.6100   73.5450  155.7450 C   0  0  0  0  0
   12.4810   74.6700  154.9490 C   0  0  0  0  0
   13.3410   74.8740  153.8590 C   0  0  0  0  0
   14.3240   73.9350  153.6140 C   0  0  0  0  0
   14.4470   72.8130  154.4300 C   0  0  0  0  0
   10.5760   62.9690  154.0920 N   0  0  0  0  0
   11.3530   61.0590  154.7750 C   0  0  0  0  0
    9.6440   62.3780  154.8320 C   0  0  0  0  0
   10.1240   61.2120  155.2540 N   0  0  0  0  0
   15.0130   60.0770  153.0540 N   0  0  0  0  0
   15.5670   58.7550  153.3900 C   0  0  0  0  0
   14.6690   58.1430  154.4540 C   0  0  0  0  0
   13.6860   58.7320  154.9150 O   0  0  0  0  0
   17.0030   58.8540  153.8460 C   0  0  0  0  0
   16.8590   59.4880  155.1080 O   0  0  0  0  0
   14.9780   56.9070  154.7870 N   0  0  0  0  0
   14.1280   56.2030  155.7610 C   0  0  0  0  0
   14.2600   54.6720  155.5220 C   0  0  0  0  0
   13.6280   53.8500  156.6560 C   0  0  0  0  0
   15.6380   54.3080  155.3710 O   0  0  0  0  0
   16.2440   53.8110  153.9910 P   0  0  0  0  0
   15.3510   53.2210  152.9680 O   0  0  0  0  0
   17.1120   55.1480  153.4300 O   0  0  0  0  0
   17.2380   52.6930  154.5910 O   0  0  0  0  0
   14.4330   56.7750  157.1750 C   0  0  0  0  0
   15.5730   57.1290  157.5270 O   0  0  0  0  0
   13.3220   57.0660  157.8640 N   0  0  0  0  0
   10.3652   61.7174  149.5293 H   0  0  0  0  0
   11.8075   61.6080  148.5485 H   0  0  0  0  0
   10.8841   63.4742  147.4713 H   0  0  0  0  0
   11.6397   64.3396  148.7397 H   0  0  0  0  0
    9.3366   63.1783  149.9314 H   0  0  0  0  0
    8.8151   63.8313  148.3375 H   0  0  0  0  0
   10.2164   65.9371  149.4394 H   0  0  0  0  0
   10.2421   67.4534  150.2752 H   0  0  0  0  0
    9.9327   69.6739  151.2978 H   0  0  0  0  0
    7.9277   70.1732  152.6546 H   0  0  0  0  0
    6.2125   68.4030  153.0080 H   0  0  0  0  0
    6.5518   66.1644  152.0083 H   0  0  0  0  0
   11.8521   60.6649  151.0091 H   0  0  0  0  0
   14.2055   62.1685  151.8474 H   0  0  0  0  0
   12.8462   63.4660  153.0257 H   0  0  0  0  0
   13.6925   62.2583  154.1630 H   0  0  0  0  0
   10.9578   64.3244  152.4953 H   0  0  0  0  0
    9.3849   64.5484  153.3053 H   0  0  0  0  0
   12.0975   65.1172  154.5697 H   0  0  0  0  0
   10.4849   65.4417  155.2892 H   0  0  0  0  0
   10.0113   67.0763  153.4816 H   0  0  0  0  0
   11.5728   66.7395  152.7389 H   0  0  0  0  0
   12.7831   67.6165  154.5827 H   0  0  0  0  0
   11.3014   67.6039  155.6367 H   0  0  0  0  0
   10.3770   69.3590  154.0124 H   0  0  0  0  0
   12.0249   69.5161  153.4003 H   0  0  0  0  0
   11.3925   69.6740  156.3919 H   0  0  0  0  0
   11.3702   71.1089  155.3533 H   0  0  0  0  0
   13.7768   70.2170  154.5766 H   0  0  0  0  0
   13.7324   69.3474  156.1217 H   0  0  0  0  0
   14.7541   71.4302  156.6437 H   0  0  0  0  0
   13.0451   71.6249  157.1654 H   0  0  0  0  0
   11.9302   73.4014  156.5849 H   0  0  0  0  0
   11.7054   75.4031  155.1705 H   0  0  0  0  0
   13.2359   75.7518  153.2214 H   0  0  0  0  0
   15.0079   74.0730  152.7766 H   0  0  0  0  0
   15.2364   72.0894  154.2267 H   0  0  0  0  0
   12.0198   60.2144  154.9484 H   0  0  0  0  0
    8.6556   62.7800  155.0549 H   0  0  0  0  0
   15.5911   60.9089  153.1726 H   0  0  0  0  0
   15.5849   58.1150  152.5079 H   0  0  0  0  0
   17.6427   59.4019  153.1541 H   0  0  0  0  0
   17.5106   57.8908  153.8981 H   0  0  0  0  0
   17.7247   59.6079  155.5052 H   0  0  0  0  0
   15.7908   56.4462  154.3778 H   0  0  0  0  0
   13.0581   56.3756  155.6443 H   0  0  0  0  0
   13.7172   54.4439  154.6047 H   0  0  0  0  0
   14.1234   54.0901  157.5967 H   0  0  0  0  0
   12.5676   54.0912  156.7304 H   0  0  0  0  0
   13.7462   52.7877  156.4424 H   0  0  0  0  0
   17.6701   55.4845  154.1349 H   0  0  0  0  0
   17.8078   53.0942  155.2513 H   0  0  0  0  0
   13.3840   57.6055  158.7274 H   0  0  0  0  0
   12.4139   56.7481  157.5253 H   0  0  0  0  0
  1  2  2  0  0  0
  1  3  1  0  0  0
 16  1  1  0  0  0
  3  4  1  0  0  0
  4  5  1  0  0  0
  5  6  1  0  0  0
  6  7  1  0  0  0
  7  8  2  0  0  0
  7  9  1  0  0  0
  9 10  4  0  0  0
  9 14  4  0  0  0
 10 11  4  0  0  0
 11 12  4  0  0  0
 13 12  4  0  0  0
 14 13  4  0  0  0
 15 17  2  0  0  0
 18 15  1  0  0  0
 15 39  1  0  0  0
 18 16  1  0  0  0
 19 18  1  0  0  0
 20 19  1  0  0  0
 35 20  4  0  0  0
 20 36  4  0  0  0
 21 22  1  0  0  0
 21 35  1  0  0  0
 22 23  1  0  0  0
 23 24  1  0  0  0
 24 25  1  0  0  0
 25 26  1  0  0  0
 26 27  1  0  0  0
 27 28  1  0  0  0
 28 29  1  0  0  0
 29 30  4  0  0  0
 29 34  4  0  0  0
 30 31  4  0  0  0
 31 32  4  0  0  0
 32 33  4  0  0  0
 33 34  4  0  0  0
 35 37  4  0  0  0
 36 38  4  0  0  0
 37 38  4  0  0  0
 39 40  1  0  0  0
 40 41  1  0  0  0
 40 43  1  0  0  0
 41 42  2  0  0  0
 41 45  1  0  0  0
 43 44  1  0  0  0
 45 46  1  0  0  0
 46 47  1  0  0  0
 46 54  1  0  0  0
 47 48  1  0  0  0
 47 49  1  0  0  0
 49 50  1  0  0  0
 50 51  2  0  0  0
 50 52  1  0  0  0
 50 53  1  0  0  0
 54 55  2  0  0  0
 54 56  1  0  0  0
  3 57  1  0  0  0
  3 58  1  0  0  0
  4 59  1  0  0  0
  4 60  1  0  0  0
  5 61  1  0  0  0
  5 62  1  0  0  0
  6 63  1  0  0  0
 10 64  1  0  0  0
 11 65  1  0  0  0
 12 66  1  0  0  0
 13 67  1  0  0  0
 14 68  1  0  0  0
 16 69  1  0  0  0
 18 70  1  0  0  0
 19 71  1  0  0  0
 19 72  1  0  0  0
 21 73  1  0  0  0
 21 74  1  0  0  0
 22 75  1  0  0  0
 22 76  1  0  0  0
 23 77  1  0  0  0
 23 78  1  0  0  0
 24 79  1  0  0  0
 24 80  1  0  0  0
 25 81  1  0  0  0
 25 82  1  0  0  0
 26 83  1  0  0  0
 26 84  1  0  0  0
 27 85  1  0  0  0
 27 86  1  0  0  0
 28 87  1  0  0  0
 28 88  1  0  0  0
 30 89  1  0  0  0
 31 90  1  0  0  0
 32 91  1  0  0  0
 33 92  1  0  0  0
 34 93  1  0  0  0
 36 94  1  0  0  0
 37 95  1  0  0  0
 39 96  1  0  0  0
 40 97  1  0  0  0
 43 98  1  0  0  0
 43 99  1  0  0  0
 44100  1  0  0  0
 45101  1  0  0  0
 46102  1  0  0  0
 47103  1  0  0  0
 48104  1  0  0  0
 48105  1  0  0  0
 48106  1  0  0  0
 52107  1  0  0  0
 53108  1  0  0  0
 56109  1  0  0  0
 56110  1  0  0  0
M  END
$$$$
