### 
### Created by X-TOOL on Mon Sep 10 21:13:18 2018
### 

@<TRIPOS>MOLECULE
4whl_ligand
  108   110     1     0     0
SMALL
GAST_HUCK


@<TRIPOS>ATOM
      1 CBR        12.0920   62.6110  150.4120 C.2       1 KAC         0.1784
      2 OAD        12.5970   63.7320  150.5490 O.2       1 KAC        -0.3969
      3 CBG        11.2610   62.2610  149.2290 C.3       1 KAC         0.0392
      4 CBC        10.9030   63.5570  148.5580 C.3       1 KAC        -0.0158
      5 CBE         9.5570   63.8880  149.1340 C.3       1 KAC         0.0325
      6 NBL         9.5370   65.2170  149.6850 N.am      1 KAC        -0.2860
      7 CBS         8.5510   65.4100  150.5400 C.2       1 KAC         0.2049
      8 OAE         7.7490   64.4960  150.7910 O.2       1 KAC        -0.3847
      9 CBW         8.4270   66.6750  151.1010 C.ar      1 KAC         0.0498
     10 CAT         9.3630   67.6560  150.8870 C.ar      1 KAC        -0.0419
     11 CAP         9.1810   68.9000  151.4530 C.ar      1 KAC        -0.0562
     12 CAM         8.0590   69.1840  152.2160 C.ar      1 KAC        -0.0575
     13 CAQ         7.1040   68.1960  152.4160 C.ar      1 KAC        -0.0562
     14 CAU         7.2970   66.9450  151.8550 C.ar      1 KAC        -0.0419
     15 C          13.7370   60.2060  152.5860 C.2       1 56A         0.2061
     16 N          12.3520   61.5390  151.1720 N.am      1 56A        -0.2638
     17 O          12.9570   59.2760  152.3730 O.2       1 56A        -0.3942
     18 CA         13.3410   61.6210  152.2230 C.3       1 56A         0.1420
     19 CB         12.9380   62.4460  153.3990 C.3       1 56A         0.0429
     20 CG         11.6080   62.1270  154.0500 C.2       1 56A         0.0589
     21 C27        10.4410   64.3240  153.4550 C.3       1 56A         0.0580
     22 C28        11.0620   65.3900  154.3660 C.3       1 56A        -0.0249
     23 C29        11.0380   66.7740  153.6880 C.3       1 56A        -0.0505
     24 C30        11.7060   67.7740  154.6390 C.3       1 56A        -0.0530
     25 C31        11.4290   69.2300  154.2670 C.3       1 56A        -0.0529
     26 C32        11.7950   70.1130  155.4790 C.3       1 56A        -0.0513
     27 C33        13.3440   70.2080  155.5770 C.3       1 56A        -0.0433
     28 C34        13.7170   71.5020  156.3160 C.3       1 56A        -0.0192
     29 C35        13.5900   72.5980  155.4910 C.ar      1 56A        -0.0430
     30 C36        12.6100   73.5450  155.7450 C.ar      1 56A        -0.0603
     31 C37        12.4810   74.6700  154.9490 C.ar      1 56A        -0.0686
     32 C38        13.3410   74.8740  153.8590 C.ar      1 56A        -0.0687
     33 C39        14.3240   73.9350  153.6140 C.ar      1 56A        -0.0686
     34 C40        14.4470   72.8130  154.4300 C.ar      1 56A        -0.0603
     35 ND1        10.5760   62.9690  154.0920 N.pl3     1 56A        -0.2480
     36 CD2        11.3530   61.0590  154.7750 C.2       1 56A        -0.0274
     37 CE1         9.6440   62.3780  154.8320 C.2       1 56A         0.0900
     38 NE2        10.1240   61.2120  155.2540 N.2       1 56A        -0.3436
     39 N          15.0130   60.0770  153.0540 N.am      1 SER        -0.2614
     40 CA         15.5670   58.7550  153.3900 C.3       1 SER         0.1539
     41 C          14.6690   58.1430  154.4540 C.2       1 SER         0.2063
     42 O          13.6860   58.7320  154.9150 O.2       1 SER        -0.3943
     43 CB         17.0030   58.8540  153.8460 C.3       1 SER         0.0843
     44 OG         16.8590   59.4880  155.1080 O.3       1 SER        -0.3903
     45 N          14.9780   56.9070  154.7870 N.am      1 TPO        -0.2610
     46 CA         14.1280   56.2030  155.7610 C.3       1 TPO         0.1608
     47 CB         14.2600   54.6720  155.5220 C.3       1 TPO         0.1262
     48 CG2        13.6280   53.8500  156.6560 C.3       1 TPO        -0.0298
     49 OG1        15.6380   54.3080  155.3710 O.3       1 TPO        -0.2685
     50 P          16.2440   53.8110  153.9910 P.3       1 TPO         0.2014
     51 O1P        15.3510   53.2210  152.9680 O.co2     1 TPO        -0.5537
     52 O2P        17.1120   55.1480  153.4300 O.co2     1 TPO        -0.5537
     53 O3P        17.2380   52.6930  154.5910 O.co2     1 TPO        -0.5537
     54 C          14.4330   56.7750  157.1750 C.2       1 TPO         0.2021
     55 O          15.5730   57.1290  157.5270 O.2       1 TPO        -0.3946
     56 N          13.3220   57.0660  157.8640 N.am      1 NH2        -0.2989
     57 H          10.3495   61.7341  149.5478 H         1 KAC         0.0503
     58 H          11.8320   61.6217  148.5396 H         1 KAC         0.0503
     59 H          10.8439   63.4319  147.4667 H         1 KAC         0.0309
     60 H          11.6370   64.3403  148.7981 H         1 KAC         0.0309
     61 H           9.3205   63.1665  149.9299 H         1 KAC         0.0521
     62 H           8.8000   63.8183  148.3390 H         1 KAC         0.0521
     63 H          10.2031   65.9229  149.4442 H         1 KAC         0.1845
     64 H          10.2372   67.4545  150.2786 H         1 KAC         0.0669
     65 H           9.9286   69.6697  151.2986 H         1 KAC         0.0629
     66 H           7.9284   70.1677  152.6522 H         1 KAC         0.0653
     67 H           6.2174   68.4018  153.0047 H         1 KAC         0.0629
     68 H           6.5559   66.1687  152.0075 H         1 KAC         0.0669
     69 H          11.8619   60.6821  151.0123 H         1 56A         0.1884
     70 H          14.2279   62.1127  151.7969 H         1 56A         0.0824
     71 H          12.9011   63.4948  153.0695 H         1 56A         0.0491
     72 H          13.7174   62.3299  154.1664 H         1 56A         0.0491
     73 H          10.9600   64.3250  152.4852 H         1 56A         0.0620
     74 H           9.3757   64.5507  153.3010 H         1 56A         0.0620
     75 H          12.1041   65.1142  154.5849 H         1 56A         0.0293
     76 H          10.4907   65.4388  155.3047 H         1 56A         0.0293
     77 H           9.9986   67.0782  153.4952 H         1 56A         0.0266
     78 H          11.5909   66.7348  152.7379 H         1 56A         0.0266
     79 H          12.7930   67.6072  154.6156 H         1 56A         0.0265
     80 H          11.3293   67.5948  155.6568 H         1 56A         0.0265
     81 H          10.3641   69.3561  154.0221 H         1 56A         0.0265
     82 H          12.0413   69.5160  153.3991 H         1 56A         0.0265
     83 H          11.3928   69.6639  156.3991 H         1 56A         0.0267
     84 H          11.3702   71.1189  155.3459 H         1 56A         0.0267
     85 H          13.7779   70.2218  154.5663 H         1 56A         0.0287
     86 H          13.7329   69.3410  156.1312 H         1 56A         0.0287
     87 H          14.7590   71.4310  156.6613 H         1 56A         0.0426
     88 H          13.0510   71.6256  157.1827 H         1 56A         0.0426
     89 H          11.9340   73.4022  156.5803 H         1 56A         0.0557
     90 H          11.7097   75.3991  155.1693 H         1 56A         0.0599
     91 H          13.2365   75.7470  153.2249 H         1 56A         0.0559
     92 H          15.0042   74.0723  152.7812 H         1 56A         0.0599
     93 H          15.2321   72.0934  154.2278 H         1 56A         0.0557
     94 H          12.0192   60.2151  154.9482 H         1 56A         0.0324
     95 H           8.6566   62.7796  155.0547 H         1 56A         0.1150
     96 H          15.5798   60.8926  153.1703 H         1 SER         0.1884
     97 H          15.5388   58.1184  152.4934 H         1 SER         0.0823
     98 H          17.6021   59.4659  153.1556 H         1 SER         0.0606
     99 H          17.4616   57.8593  153.9467 H         1 SER         0.0606
    100 H          17.7157   59.6067  155.5011 H         1 SER         0.2097
    101 H          15.7749   56.4553  154.3859 H         1 TPO         0.1884
    102 H          13.0787   56.4553  155.5484 H         1 TPO         0.0830
    103 H          13.7316   54.4281  154.5886 H         1 TPO         0.0695
    104 H          13.7466   52.7776  156.4416 H         1 TPO         0.0260
    105 H          12.5578   54.0924  156.7322 H         1 TPO         0.0260
    106 H          14.1272   54.0913  157.6060 H         1 TPO         0.0260
    107 H          13.3908   57.4412  158.7884 H         1 NH2         0.1815
    108 H          12.4237   56.9081  157.4541 H         1 NH2         0.1815
@<TRIPOS>BOND
     1    1    2 2  
     2    1    3 1  
     3   16    1 am 
     4    3    4 1  
     5    4    5 1  
     6    5    6 1  
     7    6    7 am 
     8    7    8 2  
     9    7    9 1  
    10    9   10 ar 
    11    9   14 ar 
    12   10   11 ar 
    13   11   12 ar 
    14   13   12 ar 
    15   14   13 ar 
    16   15   17 2  
    17   18   15 1  
    18   15   39 am 
    19   18   16 1  
    20   19   18 1  
    21   20   19 1  
    22   35   20 1  
    23   20   36 2  
    24   21   22 1  
    25   21   35 1  
    26   22   23 1  
    27   23   24 1  
    28   24   25 1  
    29   25   26 1  
    30   26   27 1  
    31   27   28 1  
    32   28   29 1  
    33   29   30 ar 
    34   29   34 ar 
    35   30   31 ar 
    36   31   32 ar 
    37   32   33 ar 
    38   33   34 ar 
    39   35   37 1  
    40   36   38 1  
    41   37   38 2  
    42   39   40 1  
    43   40   41 1  
    44   40   43 1  
    45   41   42 2  
    46   41   45 am 
    47   43   44 1  
    48   45   46 1  
    49   46   47 1  
    50   46   54 1  
    51   47   48 1  
    52   47   49 1  
    53   49   50 1  
    54   50   51 ar 
    55   50   52 ar 
    56   50   53 ar 
    57   54   55 2  
    58   54   56 am 
    59    3   57 1  
    60    3   58 1  
    61    4   59 1  
    62    4   60 1  
    63    5   61 1  
    64    5   62 1  
    65    6   63 1  
    66   10   64 1  
    67   11   65 1  
    68   12   66 1  
    69   13   67 1  
    70   14   68 1  
    71   16   69 1  
    72   18   70 1  
    73   19   71 1  
    74   19   72 1  
    75   21   73 1  
    76   21   74 1  
    77   22   75 1  
    78   22   76 1  
    79   23   77 1  
    80   23   78 1  
    81   24   79 1  
    82   24   80 1  
    83   25   81 1  
    84   25   82 1  
    85   26   83 1  
    86   26   84 1  
    87   27   85 1  
    88   27   86 1  
    89   28   87 1  
    90   28   88 1  
    91   30   89 1  
    92   31   90 1  
    93   32   91 1  
    94   33   92 1  
    95   34   93 1  
    96   36   94 1  
    97   37   95 1  
    98   39   96 1  
    99   40   97 1  
   100   43   98 1  
   101   43   99 1  
   102   44  100 1  
   103   45  101 1  
   104   46  102 1  
   105   47  103 1  
   106   48  104 1  
   107   48  105 1  
   108   48  106 1  
   109   56  107 1  
   110   56  108 1  
@<TRIPOS>SUBSTRUCTURE
     1 KAC         1

