3tdj_ligand
  -I-interpret- 

 26 27  0  0  0  0  0  0  0  0999 V2000
   76.3260   21.0600   27.1780 C   0  0  0  0  0
   73.4220   16.4640   30.4290 O   0  0  0  0  0
   75.6990   16.8530   31.8970 O   0  0  0  0  0
   78.0100   14.4980   27.6530 F   0  0  0  0  0
   77.2390   16.6730   26.7250 C   0  0  0  0  0
   76.4900   17.8160   26.8850 C   0  0  0  0  0
   76.5480   15.7950   28.9630 C   0  0  0  0  0
   74.9760   20.3490   27.2950 C   0  0  0  0  0
   73.9850   19.4250   29.4530 C   0  0  0  0  0
   74.5690   18.8030   30.6960 N   0  0  0  0  0
   77.2620   15.6210   27.8020 C   0  0  0  0  0
   75.7570   18.0000   28.0630 C   0  0  0  0  0
   75.7960   16.9650   29.1100 C   0  0  0  0  0
   74.9030   19.2740   28.2660 N   0  0  0  0  0
   74.8400   17.2720   30.5800 S   0  0  0  0  0
   76.5866   21.5027   28.1394 H   0  0  0  0  0
   77.0910   20.3392   26.8892 H   0  0  0  0  0
   76.2587   21.8427   26.4224 H   0  0  0  0  0
   77.8190   16.5282   25.8135 H   0  0  0  0  0
   76.4677   18.5723   26.1004 H   0  0  0  0  0
   76.5672   15.0404   29.7494 H   0  0  0  0  0
   74.7846   19.8954   26.3225 H   0  0  0  0  0
   74.2606   21.1040   27.6211 H   0  0  0  0  0
   73.8382   20.4889   29.6391 H   0  0  0  0  0
   73.0461   18.9199   29.2261 H   0  0  0  0  0
   74.7697   19.3382   31.5408 H   0  0  0  0  0
  8  1  1  0  0  0
 15  2  2  0  0  0
 15  3  2  0  0  0
 11  4  1  0  0  0
  6  5  4  0  0  0
  5 11  4  0  0  0
 12  6  4  0  0  0
  7 11  4  0  0  0
 13  7  4  0  0  0
 14  8  1  0  0  0
  9 10  1  0  0  0
 14  9  1  0  0  0
 10 15  1  0  0  0
 12 13  4  0  0  0
 12 14  1  0  0  0
 13 15  1  0  0  0
  1 16  1  0  0  0
  1 17  1  0  0  0
  1 18  1  0  0  0
  5 19  1  0  0  0
  6 20  1  0  0  0
  7 21  1  0  0  0
  8 22  1  0  0  0
  8 23  1  0  0  0
  9 24  1  0  0  0
  9 25  1  0  0  0
 10 26  1  0  0  0
M  END
$$$$
