2ohp_ligand
  -I-interpret- 

 32 34  0  0  0  0  0  0  0  0999 V2000
   65.9590   48.6240    6.1440 N   0  0  0  0  0
   66.8150   48.4670    7.1260 C   0  0  0  0  0
   66.7820   47.3350    7.9340 C   0  0  0  0  0
   67.6920   47.1950    8.9600 C   0  0  0  0  0
   68.6210   48.1910    9.1960 C   0  0  0  0  0
   68.6360   49.3310    8.4000 C   0  0  0  0  0
   69.6430   50.4290    8.6230 C   0  0  0  0  0
   70.4360   50.7520    7.3720 C   0  0  0  0  0
   71.3270   49.6250    6.9150 C   0  0  0  0  0
   72.3880   49.2050    7.7140 C   0  0  0  0  0
   73.2320   48.1870    7.3060 C   0  0  0  0  0
   73.0220   47.5880    6.0700 C   0  0  0  0  0
   73.6720   46.5570    5.3590 C   0  0  0  0  0
   73.0020   46.3900    4.1450 C   0  0  0  0  0
   71.9850   47.2750    4.0950 N   0  0  0  0  0
   71.9680   48.0130    5.2590 C   0  0  0  0  0
   71.1180   49.0320    5.6730 C   0  0  0  0  0
   67.7260   49.4530    7.3860 N   0  0  0  0  0
   65.9772   49.4756    5.5828 H   0  0  0  0  0
   66.0372   46.5593    7.7560 H   0  0  0  0  0
   67.6790   46.3011    9.5836 H   0  0  0  0  0
   69.3420   48.0827   10.0063 H   0  0  0  0  0
   70.3433   50.0930    9.3877 H   0  0  0  0  0
   69.1012   51.3273    8.9191 H   0  0  0  0  0
   71.0771   51.6030    7.6019 H   0  0  0  0  0
   69.7209   50.9480    6.5731 H   0  0  0  0  0
   72.5564   49.6865    8.6773 H   0  0  0  0  0
   74.0511   47.8592    7.9461 H   0  0  0  0  0
   74.5410   45.9923    5.6966 H   0  0  0  0  0
   73.2574   45.6675    3.3698 H   0  0  0  0  0
   70.2991   49.3622    5.0339 H   0  0  0  0  0
   67.7270   50.2964    6.8123 H   0  0  0  0  0
  1  2  2  0  0  0
  2  3  1  0  0  0
  2 18  1  0  0  0
  3  4  2  0  0  0
  4  5  1  0  0  0
  5  6  2  0  0  0
  6  7  1  0  0  0
  6 18  1  0  0  0
  7  8  1  0  0  0
  8  9  1  0  0  0
  9 10  4  0  0  0
  9 17  4  0  0  0
 10 11  4  0  0  0
 11 12  4  0  0  0
 12 13  4  0  0  0
 12 16  4  0  0  0
 13 14  4  0  0  0
 14 15  4  0  0  0
 15 16  4  0  0  0
 16 17  4  0  0  0
  1 19  1  0  0  0
  3 20  1  0  0  0
  4 21  1  0  0  0
  5 22  1  0  0  0
  7 23  1  0  0  0
  7 24  1  0  0  0
  8 25  1  0  0  0
  8 26  1  0  0  0
 10 27  1  0  0  0
 11 28  1  0  0  0
 13 29  1  0  0  0
 14 30  1  0  0  0
 17 31  1  0  0  0
 18 32  1  0  0  0
M  END
$$$$
