### 
### Created by X-TOOL on Mon Sep 10 21:12:56 2018
### 

@<TRIPOS>MOLECULE
2ohp_ligand
   33    35     1     0     0
SMALL
GAST_HUCK


@<TRIPOS>ATOM
      1 N1         65.9590   48.6240    6.1440 N.2       1 6IP        -0.4403
      2 C2         66.8150   48.4670    7.1260 C.2       1 6IP         0.0858
      3 C3         66.7820   47.3350    7.9340 C.2       1 6IP        -0.0267
      4 C4         67.6920   47.1950    8.9600 C.2       1 6IP        -0.0653
      5 C5         68.6210   48.1910    9.1960 C.2       1 6IP        -0.0199
      6 C6         68.6360   49.3310    8.4000 C.2       1 6IP         0.0959
      7 C7         69.6430   50.4290    8.6230 C.3       1 6IP         0.0367
      8 C8         70.4360   50.7520    7.3720 C.3       1 6IP        -0.0051
      9 C9         71.3270   49.6250    6.9150 C.ar      1 6IP        -0.0536
     10 C10        72.3880   49.2050    7.7140 C.ar      1 6IP        -0.0751
     11 C11        73.2320   48.1870    7.3060 C.ar      1 6IP        -0.0792
     12 C12        73.0220   47.5880    6.0700 C.ar      1 6IP        -0.0332
     13 C13        73.6720   46.5570    5.3590 C.2       1 6IP        -0.0680
     14 C14        73.0020   46.3900    4.1450 C.2       1 6IP         0.0181
     15 N15        71.9850   47.2750    4.0950 N.pl3     1 6IP        -0.2830
     16 C16        71.9680   48.0130    5.2590 C.ar      1 6IP         0.0565
     17 C17        71.1180   49.0320    5.6730 C.ar      1 6IP        -0.0425
     18 N18        67.7260   49.4530    7.3860 N.pl3     1 6IP        -0.2279
     19 H1         65.2834   47.9031    5.9442 H         1 6IP         0.0230
     20 H2         66.0379   46.5601    7.7561 H         1 6IP         0.0441
     21 H3         67.6790   46.3019    9.5830 H         1 6IP         0.0738
     22 H4         69.3413   48.0828   10.0055 H         1 6IP         0.0420
     23 H5         70.3415   50.1123    9.4115 H         1 6IP         0.0580
     24 H6         69.1107   51.3354    8.9471 H         1 6IP         0.0580
     25 H7         71.0645   51.6314    7.5759 H         1 6IP         0.0448
     26 H8         69.7288   50.9863    6.5627 H         1 6IP         0.0448
     27 H9         72.5554   49.6839    8.6720 H         1 6IP         0.0472
     28 H10        74.0466   47.8611    7.9426 H         1 6IP         0.0528
     29 H11        74.5402   45.9928    5.6963 H         1 6IP         0.0276
     30 H12        73.2571   45.6682    3.3705 H         1 6IP         0.0905
     31 H13        71.3256   47.3822    3.3110 H         1 6IP         0.2255
     32 H14        70.3036   49.3604    5.0374 H         1 6IP         0.0470
     33 H15        67.7270   50.3047    6.8067 H         1 6IP         0.2479
@<TRIPOS>BOND
     1    1    2 2  
     2    2    3 1  
     3    2   18 1  
     4    3    4 2  
     5    4    5 1  
     6    5    6 2  
     7    6    7 1  
     8    6   18 1  
     9    7    8 1  
    10    8    9 1  
    11    9   10 ar 
    12    9   17 ar 
    13   10   11 ar 
    14   11   12 ar 
    15   12   13 1  
    16   12   16 ar 
    17   13   14 2  
    18   14   15 1  
    19   15   16 1  
    20   16   17 ar 
    21    1   19 1  
    22    3   20 1  
    23    4   21 1  
    24    5   22 1  
    25    7   23 1  
    26    7   24 1  
    27    8   25 1  
    28    8   26 1  
    29   10   27 1  
    30   11   28 1  
    31   13   29 1  
    32   14   30 1  
    33   15   31 1  
    34   17   32 1  
    35   18   33 1  
@<TRIPOS>SUBSTRUCTURE
     1 6IP         1

