2r1y_ligand
  -I-interpret- 

 65 66  0  0  0  0  0  0  0  0999 V2000
   31.9460   -0.7020    0.3070 C   0  0  0  0  0
   31.7980    0.5390    0.3810 O   0  0  0  0  0
   32.9890   -1.3070   -0.0320 O   0  0  0  0  0
   30.6940   -1.5530    0.5950 C   0  0  0  0  0
   29.7720   -1.3750   -0.6290 C   0  0  0  0  0
   28.5930   -2.3400   -0.5460 C   0  0  0  0  0
   27.8430   -2.2760   -1.7870 O   0  0  0  0  0
   29.0710   -3.7740   -0.2970 C   0  0  0  0  0
   29.9000   -4.1850   -1.3900 O   0  0  0  0  0
   29.9330   -3.7940    0.9700 C   0  0  0  0  0
   31.0760   -2.9430    0.7920 O   0  0  0  0  0
   30.4880   -5.1760    1.3340 C   0  0  0  0  0
   29.3970   -6.0600    1.4880 O   0  0  0  0  0
   31.2860   -5.1370    2.6460 C   0  0  0  0  0
   30.4120   -4.8610    3.7470 O   0  0  0  0  0
   34.5380   -4.1020    3.5750 C   0  0  0  0  0
   34.4710   -2.8800    4.2650 C   0  0  0  0  0
   33.5560   -2.6680    5.3170 C   0  0  0  0  0
   32.1390   -3.0570    5.2190 O   0  0  0  0  0
   31.0660   -2.0460    5.3590 C   0  0  0  0  0
   30.1860   -2.4990    6.5280 C   0  0  0  0  0
   28.9560   -2.5140    6.4380 O   0  0  0  0  0
   30.1770   -1.9700    4.0900 C   0  0  0  0  0
   31.5280   -0.6920    5.7320 O   0  0  0  0  0
   32.1290    0.1240    4.6860 C   0  0  0  0  0
   32.6780    1.4470    5.2730 C   0  0  0  0  0
   33.3190    2.2310    4.2490 O   0  0  0  0  0
   33.6790    1.1860    6.4070 C   0  0  0  0  0
   32.9800    0.6150    7.5220 O   0  0  0  0  0
   31.1110    0.2610    3.5400 C   0  0  0  0  0
   29.8710    0.8390    3.9650 O   0  0  0  0  0
   30.8330   -1.1280    2.9820 C   0  0  0  0  0
   29.9980   -1.0470    1.7510 O   0  0  0  0  0
   32.8319   -2.2536   -0.0042 H   0  0  0  0  0
   30.3395   -1.5826   -1.5362 H   0  0  0  0  0
   29.3953   -0.3523   -0.6460 H   0  0  0  0  0
   27.9571   -2.0494    0.2902 H   0  0  0  0  0
   27.5476   -1.3746   -1.9349 H   0  0  0  0  0
   28.2099   -4.4344   -0.1942 H   0  0  0  0  0
   29.3846   -4.1819   -2.1999 H   0  0  0  0  0
   29.2674   -3.4633    1.7673 H   0  0  0  0  0
   31.1598   -5.5049    0.5411 H   0  0  0  0  0
   29.7239   -6.9332    1.7167 H   0  0  0  0  0
   32.0397   -4.3521    2.5826 H   0  0  0  0  0
   31.7636   -6.1042    2.8026 H   0  0  0  0  0
   30.9211   -4.8391    4.5606 H   0  0  0  0  0
   33.8708   -4.9195    3.8483 H   0  0  0  0  0
   35.2572   -4.2326    2.7664 H   0  0  0  0  0
   35.1454   -2.0728    3.9791 H   0  0  0  0  0
   33.5154   -1.5821    5.4027 H   0  0  0  0  0
   33.9382   -3.3021    6.1170 H   0  0  0  0  0
   30.3820   -1.7594    7.3043 H   0  0  0  0  0
   30.4508   -3.5477    6.6631 H   0  0  0  0  0
   28.5796   -2.8249    7.2646 H   0  0  0  0  0
   29.2313   -1.5012    4.3619 H   0  0  0  0  0
   30.0333   -2.9820    3.7114 H   0  0  0  0  0
   33.0119   -0.3465    4.2532 H   0  0  0  0  0
   31.8275    1.9971    5.6755 H   0  0  0  0  0
   33.6519    3.0456    4.6326 H   0  0  0  0  0
   34.1482    2.1230    6.7071 H   0  0  0  0  0
   34.4518    0.4975    6.0650 H   0  0  0  0  0
   33.6000    0.4488    8.2358 H   0  0  0  0  0
   31.5406    0.9253    2.7902 H   0  0  0  0  0
   29.2748    0.9015    3.2152 H   0  0  0  0  0
   31.7620   -1.6124    2.6813 H   0  0  0  0  0
  1  2  2  0  0  0
  1  3  1  0  0  0
  4  1  1  0  0  0
  4  5  1  0  0  0
  4 11  1  0  0  0
 33  4  1  0  0  0
  5  6  1  0  0  0
  6  7  1  0  0  0
  6  8  1  0  0  0
  8  9  1  0  0  0
 10  8  1  0  0  0
 11 10  1  0  0  0
 10 12  1  0  0  0
 12 13  1  0  0  0
 12 14  1  0  0  0
 14 15  1  0  0  0
 17 16  2  0  0  0
 18 17  1  0  0  0
 19 18  1  0  0  0
 20 19  1  0  0  0
 20 21  1  0  0  0
 23 20  1  0  0  0
 20 24  1  0  0  0
 21 22  1  0  0  0
 32 23  1  0  0  0
 25 24  1  0  0  0
 25 26  1  0  0  0
 30 25  1  0  0  0
 26 27  1  0  0  0
 26 28  1  0  0  0
 28 29  1  0  0  0
 30 31  1  0  0  0
 32 30  1  0  0  0
 32 33  1  0  0  0
  3 34  1  0  0  0
  5 35  1  0  0  0
  5 36  1  0  0  0
  6 37  1  0  0  0
  7 38  1  0  0  0
  8 39  1  0  0  0
  9 40  1  0  0  0
 10 41  1  0  0  0
 12 42  1  0  0  0
 13 43  1  0  0  0
 14 44  1  0  0  0
 14 45  1  0  0  0
 15 46  1  0  0  0
 16 47  1  0  0  0
 16 48  1  0  0  0
 17 49  1  0  0  0
 18 50  1  0  0  0
 18 51  1  0  0  0
 21 52  1  0  0  0
 21 53  1  0  0  0
 22 54  1  0  0  0
 23 55  1  0  0  0
 23 56  1  0  0  0
 25 57  1  0  0  0
 26 58  1  0  0  0
 27 59  1  0  0  0
 28 60  1  0  0  0
 28 61  1  0  0  0
 29 62  1  0  0  0
 30 63  1  0  0  0
 31 64  1  0  0  0
 32 65  1  0  0  0
M  END
$$$$
