6peb_ligand
  -I-interpret- 

 51 55  0  0  0  0  0  0  0  0999 V2000
   14.4720   -4.6180   16.1320 C   0  0  0  0  0
   15.1790   -5.8200   16.2680 C   0  0  0  0  0
    8.5710   -6.1880   13.7100 C   0  0  0  0  0
    7.2620   -4.9650   11.9170 C   0  0  0  0  0
    7.2130   -3.6770   11.3320 C   0  0  0  0  0
    6.6400   -3.4920   10.0550 C   0  0  0  0  0
    6.1260   -4.5890    9.3340 C   0  0  0  0  0
    6.2470   -5.8870    9.8610 C   0  0  0  0  0
    6.8250   -6.0680   11.1360 C   0  0  0  0  0
    5.5660   -4.3640    7.9320 C   0  0  0  0  0
    3.4880   -2.9840    7.9460 C   0  0  0  0  0
    2.0140   -3.1880    7.7410 C   0  0  0  0  0
    1.8460   -4.5590    7.5100 C   0  0  0  0  0
    3.2250   -5.1660    7.5990 C   0  0  0  0  0
    0.9330   -2.2980    7.7740 C   0  0  0  0  0
   -0.3440   -2.8400    7.5170 C   0  0  0  0  0
   -0.5120   -4.2190    7.2560 C   0  0  0  0  0
    0.5810   -5.1110    7.2540 C   0  0  0  0  0
   14.5040   -6.9980   16.2890 N   0  0  0  0  0
   13.1360   -7.0380   16.2040 C   0  0  0  0  0
   12.3680   -5.8630   16.0540 C   0  0  0  0  0
   13.0740   -4.6380   16.0450 C   0  0  0  0  0
   10.8190   -5.9070   16.0620 C   0  0  0  0  0
    9.9170   -4.8310   15.3750 C   0  0  0  0  0
    9.4120   -6.0570   14.7940 N   0  0  0  0  0
   10.0570   -7.1340   15.4980 C   0  0  0  0  0
    7.9930   -5.0910   13.1370 N   0  0  0  0  0
    8.3340   -7.3260   13.3070 O   0  0  0  0  0
    4.1230   -4.1860    7.9000 N   0  0  0  0  0
    3.4270   -6.3620    7.4340 O   0  0  0  0  0
    3.9540   -1.8770    8.1850 O   0  0  0  0  0
   15.0084   -3.6699   16.0940 H   0  0  0  0  0
   16.2654   -5.8095   16.3565 H   0  0  0  0  0
    7.6206   -2.8219   11.8713 H   0  0  0  0  0
    6.5946   -2.4924    9.6228 H   0  0  0  0  0
    5.8972   -6.7467    9.2894 H   0  0  0  0  0
    6.9386   -7.0778   11.5304 H   0  0  0  0  0
    5.7980   -5.2509    7.3424 H   0  0  0  0  0
    6.0157   -3.4498    7.5444 H   0  0  0  0  0
    1.0716   -1.2382    7.9878 H   0  0  0  0  0
   -1.2151   -2.1848    7.5198 H   0  0  0  0  0
   -1.5113   -4.6029    7.0511 H   0  0  0  0  0
    0.4497   -6.1761    7.0631 H   0  0  0  0  0
   12.6287   -8.0015   16.2535 H   0  0  0  0  0
   12.5248   -3.6995   15.9696 H   0  0  0  0  0
   10.9112   -5.8072   17.1435 H   0  0  0  0  0
   10.2479   -3.9393   14.8425 H   0  0  0  0  0
    9.3374   -4.0492   15.8659 H   0  0  0  0  0
    9.5684   -7.9185   16.0759 H   0  0  0  0  0
   10.4984   -8.0277   15.0568 H   0  0  0  0  0
    8.1007   -4.2245   13.6642 H   0  0  0  0  0
  1  2  4  0  0  0
 22  1  4  0  0  0
 19  2  4  0  0  0
 25  3  1  0  0  0
  3 27  1  0  0  0
  3 28  2  0  0  0
  4  5  4  0  0  0
  4  9  4  0  0  0
 27  4  1  0  0  0
  5  6  4  0  0  0
  6  7  4  0  0  0
  8  7  4  0  0  0
  7 10  1  0  0  0
  9  8  4  0  0  0
 10 29  1  0  0  0
 11 12  1  0  0  0
 29 11  1  0  0  0
 11 31  2  0  0  0
 13 12  4  0  0  0
 12 15  4  0  0  0
 14 13  1  0  0  0
 13 18  4  0  0  0
 29 14  1  0  0  0
 14 30  2  0  0  0
 15 16  4  0  0  0
 17 16  4  0  0  0
 18 17  4  0  0  0
 20 19  4  0  0  0
 21 20  4  0  0  0
 21 22  4  0  0  0
 23 21  1  0  0  0
 24 23  1  0  0  0
 23 26  1  0  0  0
 24 25  1  0  0  0
 25 26  1  0  0  0
  1 32  1  0  0  0
  2 33  1  0  0  0
  5 34  1  0  0  0
  6 35  1  0  0  0
  8 36  1  0  0  0
  9 37  1  0  0  0
 10 38  1  0  0  0
 10 39  1  0  0  0
 15 40  1  0  0  0
 16 41  1  0  0  0
 17 42  1  0  0  0
 18 43  1  0  0  0
 20 44  1  0  0  0
 22 45  1  0  0  0
 23 46  1  0  0  0
 24 47  1  0  0  0
 24 48  1  0  0  0
 26 49  1  0  0  0
 26 50  1  0  0  0
 27 51  1  0  0  0
M  END
$$$$
