1aku_ligand
  -I-interpret- 

 54 56  0  0  0  0  0  0  0  0999 V2000
    0.5740   40.2350   22.2290 N   0  0  0  0  0
    1.6070   41.0320   21.7920 C   0  0  0  0  0
    1.4650   41.6470   20.6030 O   0  0  0  0  0
    2.7210   41.2670   22.5540 N   0  0  0  0  0
    2.8890   40.6220   23.8080 C   0  0  0  0  0
    4.0490   40.8080   24.5510 O   0  0  0  0  0
    1.8440   39.7700   24.2690 C   0  0  0  0  0
    2.0030   39.1120   25.4900 N   0  0  0  0  0
    0.8820   38.4580   26.0710 C   0  0  0  0  0
    0.9450   37.9630   27.4120 C   0  0  0  0  0
   -0.1800   37.3360   27.9880 C   0  0  0  0  0
   -0.2220   36.8010   29.3400 C   0  0  0  0  0
   -1.3370   37.1990   27.2070 C   0  0  0  0  0
   -2.5290   36.5820   27.7010 C   0  0  0  0  0
   -1.3880   37.6930   25.8620 C   0  0  0  0  0
   -0.2780   38.3420   25.2690 C   0  0  0  0  0
   -0.3620   38.7880   23.9140 N   0  0  0  0  0
    0.6940   39.5900   23.4670 C   0  0  0  0  0
   -1.5070   38.6690   23.0910 C   0  0  0  0  0
   -1.6290   37.2830   22.4530 C   0  0  0  0  0
   -0.5390   37.0060   21.5770 O   0  0  0  0  0
   -2.8930   37.3070   21.5720 C   0  0  0  0  0
   -3.9890   37.1580   22.4940 O   0  0  0  0  0
   -2.9540   36.3010   20.4740 C   0  0  0  0  0
   -4.2430   36.5140   19.7800 O   0  0  0  0  0
   -2.8950   34.9450   20.9080 C   0  0  0  0  0
   -2.9500   34.1110   19.7880 O   0  0  0  0  0
   -3.0820   32.4680   19.7500 P   0  0  0  0  0
   -2.0370   31.6610   20.7580 O   0  0  0  0  0
   -2.7910   31.8840   18.1950 O   0  0  0  0  0
   -4.6380   32.0550   20.1390 O   0  0  0  0  0
   -0.2650   40.1158   21.6613 H   0  0  0  0  0
    3.4365   41.9113   22.2175 H   0  0  0  0  0
    2.9092   39.1006   25.9580 H   0  0  0  0  0
    1.8633   38.0705   27.9893 H   0  0  0  0  0
    0.5385   36.0275   29.4471 H   0  0  0  0  0
   -0.0294   37.6028   30.0528 H   0  0  0  0  0
   -1.2064   36.3732   29.5297 H   0  0  0  0  0
   -2.3117   35.5534   27.9888 H   0  0  0  0  0
   -2.8901   37.1348   28.5683 H   0  0  0  0  0
   -3.2904   36.5893   26.9211 H   0  0  0  0  0
   -2.3024   37.5660   25.2825 H   0  0  0  0  0
   -1.4222   39.4021   22.2888 H   0  0  0  0  0
   -2.3869   38.8312   23.7136 H   0  0  0  0  0
   -1.6537   36.5347   23.2452 H   0  0  0  0  0
   -0.6496   36.1314   21.1970 H   0  0  0  0  0
   -2.9145   38.2421   21.0123 H   0  0  0  0  0
   -4.8172   37.1645   22.0086 H   0  0  0  0  0
   -2.0797   36.4480   19.8400 H   0  0  0  0  0
   -4.3257   35.8838   19.0605 H   0  0  0  0  0
   -3.7351   34.7318   21.5690 H   0  0  0  0  0
   -1.9669   34.7715   21.4526 H   0  0  0  0  0
   -1.1334   31.8975   20.5361 H   0  0  0  0  0
   -1.8942   32.1055   17.9338 H   0  0  0  0  0
  1  2  1  0  0  0
  1 18  1  0  0  0
  2  3  2  0  0  0
  2  4  1  0  0  0
  4  5  1  0  0  0
  5  6  2  0  0  0
  5  7  1  0  0  0
  7  8  1  0  0  0
  7 18  2  0  0  0
  8  9  1  0  0  0
  9 10  4  0  0  0
  9 16  4  0  0  0
 10 11  4  0  0  0
 11 12  1  0  0  0
 11 13  4  0  0  0
 13 14  1  0  0  0
 13 15  4  0  0  0
 15 16  4  0  0  0
 16 17  1  0  0  0
 17 18  1  0  0  0
 17 19  1  0  0  0
 19 20  1  0  0  0
 20 21  1  0  0  0
 20 22  1  0  0  0
 22 23  1  0  0  0
 22 24  1  0  0  0
 24 25  1  0  0  0
 24 26  1  0  0  0
 26 27  1  0  0  0
 27 28  1  0  0  0
 28 29  1  0  0  0
 28 30  1  0  0  0
 28 31  2  0  0  0
  1 32  1  0  0  0
  4 33  1  0  0  0
  8 34  1  0  0  0
 10 35  1  0  0  0
 12 36  1  0  0  0
 12 37  1  0  0  0
 12 38  1  0  0  0
 14 39  1  0  0  0
 14 40  1  0  0  0
 14 41  1  0  0  0
 15 42  1  0  0  0
 19 43  1  0  0  0
 19 44  1  0  0  0
 20 45  1  0  0  0
 21 46  1  0  0  0
 22 47  1  0  0  0
 23 48  1  0  0  0
 24 49  1  0  0  0
 25 50  1  0  0  0
 26 51  1  0  0  0
 26 52  1  0  0  0
 29 53  1  0  0  0
 30 54  1  0  0  0
M  END
$$$$
