3vrw_ligand
  -I-interpret- 

 91 93  0  0  0  0  0  0  0  0999 V2000
  -16.5250   29.6780    0.2300 C   0  0  0  0  0
  -17.0580   29.7140    1.6800 C   0  0  0  0  0
  -18.4610   29.8360    1.6620 O   0  0  0  0  0
  -16.6680   28.5780    2.3940 C   0  0  0  0  0
  -16.0210   28.7190    3.6310 C   0  0  0  0  0
  -16.8740   27.3260    1.8350 C   0  0  0  0  0
  -16.3680   26.3250    2.7020 O   0  0  0  0  0
  -16.1550   27.2480    0.4500 C   0  0  0  0  0
  -16.4620   28.3970   -0.3480 C   0  0  0  0  0
  -16.8280   28.2850   -1.6890 C   0  0  0  0  0
  -16.2930   27.0360   -2.4250 C   0  0  0  0  0
  -16.6050   26.8300   -3.7790 C   0  0  0  0  0
  -16.7910   27.9200   -4.6130 C   0  0  0  0  0
  -15.6380   28.0100   -5.6040 C   0  0  0  0  0
  -15.2180   26.6400   -6.2040 C   0  0  0  0  0
  -15.1000   25.5780   -5.1480 C   0  0  0  0  0
  -13.8870   25.8920   -4.1980 C   0  0  0  0  0
  -16.4550   25.5880   -4.4750 C   0  0  0  0  0
  -16.5070   24.2850   -3.6850 C   0  0  0  0  0
  -15.5660   23.3010   -4.4870 C   0  0  0  0  0
  -15.0380   24.1140   -5.6900 C   0  0  0  0  0
  -13.6200   23.6140   -6.1570 C   0  0  0  0  0
  -13.1000   24.4760   -7.3190 C   0  0  0  0  0
  -13.5890   22.1300   -6.6340 C   0  0  0  0  0
  -12.1300   21.6790   -6.9640 C   0  0  0  0  0
  -11.7340   20.2500   -6.5280 C   0  0  0  0  0
  -10.2080   20.1110   -6.5340 C   0  0  0  0  0
   -9.5530   21.4420   -6.1500 C   0  0  0  0  0
  -12.1730   19.2780   -7.4570 O   0  0  0  0  0
  -12.3200   19.9320   -5.1360 C   0  0  0  0  0
  -11.7910   18.5850   -4.6030 C   0  0  0  0  0
  -14.4220   21.9400   -7.8930 C   0  0  0  0  0
  -15.8900   22.0360   -7.5260 C   0  0  0  0  0
  -16.7760   21.3960   -8.6000 C   0  0  0  0  0
  -17.8020   20.5860   -7.8100 C   0  0  0  0  0
  -15.5048   30.0605    0.2599 H   0  0  0  0  0
  -17.2181   30.2627   -0.3749 H   0  0  0  0  0
  -16.6291   30.5781    2.1873 H   0  0  0  0  0
  -18.7065   30.6213    1.1674 H   0  0  0  0  0
  -15.6720   27.8365    4.1672 H   0  0  0  0  0
  -15.8674   29.7110    4.0558 H   0  0  0  0  0
  -17.9424   27.1634    1.6930 H   0  0  0  0  0
  -16.8156   26.3811    3.5494 H   0  0  0  0  0
  -16.4967   26.3551   -0.0735 H   0  0  0  0  0
  -15.0781   27.2120    0.6146 H   0  0  0  0  0
  -17.4505   29.0295   -2.1853 H   0  0  0  0  0
  -16.7569   26.1960   -1.9080 H   0  0  0  0  0
  -15.2096   27.1549   -2.4105 H   0  0  0  0  0
  -17.4848   26.5281   -3.2107 H   0  0  0  0  0
  -16.8259   28.8308   -4.0152 H   0  0  0  0  0
  -17.7277   27.8026   -5.1579 H   0  0  0  0  0
  -14.7771   28.4066   -5.0657 H   0  0  0  0  0
  -15.9684   28.6391   -6.4305 H   0  0  0  0  0
  -14.2442   26.7592   -6.6790 H   0  0  0  0  0
  -15.9827   26.3301   -6.9162 H   0  0  0  0  0
  -12.9672   25.9197   -4.7823 H   0  0  0  0  0
  -14.0435   26.8582   -3.7183 H   0  0  0  0  0
  -13.8124   25.1150   -3.4372 H   0  0  0  0  0
  -17.3314   25.5807   -5.1230 H   0  0  0  0  0
  -17.5228   23.8996   -3.5975 H   0  0  0  0  0
  -16.1774   24.4176   -2.6545 H   0  0  0  0  0
  -16.1065   22.4128   -4.8142 H   0  0  0  0  0
  -14.7489   22.9368   -3.8642 H   0  0  0  0  0
  -15.6140   24.0105   -6.6096 H   0  0  0  0  0
  -12.9915   23.6993   -5.2706 H   0  0  0  0  0
  -13.7931   24.4095   -8.1576 H   0  0  0  0  0
  -13.0205   25.5131   -6.9931 H   0  0  0  0  0
  -12.1190   24.1144   -7.6272 H   0  0  0  0  0
  -13.9965   21.5315   -5.8193 H   0  0  0  0  0
  -11.4740   22.3545   -6.4150 H   0  0  0  0  0
  -12.0474   21.6966   -8.0507 H   0  0  0  0  0
   -9.8798   19.8276   -7.5340 H   0  0  0  0  0
   -9.9166   19.3487   -5.8114 H   0  0  0  0  0
   -9.8445   22.2092   -6.8673 H   0  0  0  0  0
   -9.8812   21.7324   -5.1520 H   0  0  0  0  0
   -8.4690   21.3279   -6.1585 H   0  0  0  0  0
  -11.9101   18.4058   -7.1542 H   0  0  0  0  0
  -13.4050   19.8708   -5.2208 H   0  0  0  0  0
  -12.0228   20.7207   -4.4448 H   0  0  0  0  0
  -12.0734   17.7876   -5.2904 H   0  0  0  0  0
  -10.7049   18.6290   -4.5221 H   0  0  0  0  0
  -12.2222   18.3897   -3.6211 H   0  0  0  0  0
  -14.2135   20.9636   -8.3303 H   0  0  0  0  0
  -14.1720   22.7113   -8.6215 H   0  0  0  0  0
  -16.1574   23.0891   -7.4382 H   0  0  0  0  0
  -16.0477   21.5072   -6.5860 H   0  0  0  0  0
  -16.2029   20.7734   -9.2870 H   0  0  0  0  0
  -17.2472   22.1414   -9.2407 H   0  0  0  0  0
  -17.2865   19.8385   -7.2070 H   0  0  0  0  0
  -18.3667   21.2534   -7.1590 H   0  0  0  0  0
  -18.4824   20.0900   -8.5022 H   0  0  0  0  0
  1  2  1  0  0  0
  1  9  1  0  0  0
  2  3  1  0  0  0
  2  4  1  0  0  0
  4  5  2  0  0  0
  4  6  1  0  0  0
  6  7  1  0  0  0
  6  8  1  0  0  0
  8  9  1  0  0  0
  9 10  2  0  0  0
 10 11  1  0  0  0
 11 12  1  0  0  0
 12 13  1  0  0  0
 12 18  1  0  0  0
 13 14  1  0  0  0
 14 15  1  0  0  0
 15 16  1  0  0  0
 16 17  1  0  0  0
 16 18  1  0  0  0
 16 21  1  0  0  0
 18 19  1  0  0  0
 19 20  1  0  0  0
 20 21  1  0  0  0
 21 22  1  0  0  0
 22 23  1  0  0  0
 22 24  1  0  0  0
 24 25  1  0  0  0
 24 32  1  0  0  0
 25 26  1  0  0  0
 26 27  1  0  0  0
 26 29  1  0  0  0
 26 30  1  0  0  0
 27 28  1  0  0  0
 30 31  1  0  0  0
 32 33  1  0  0  0
 33 34  1  0  0  0
 34 35  1  0  0  0
  1 36  1  0  0  0
  1 37  1  0  0  0
  2 38  1  0  0  0
  3 39  1  0  0  0
  5 40  1  0  0  0
  5 41  1  0  0  0
  6 42  1  0  0  0
  7 43  1  0  0  0
  8 44  1  0  0  0
  8 45  1  0  0  0
 10 46  1  0  0  0
 11 47  1  0  0  0
 11 48  1  0  0  0
 12 49  1  0  0  0
 13 50  1  0  0  0
 13 51  1  0  0  0
 14 52  1  0  0  0
 14 53  1  0  0  0
 15 54  1  0  0  0
 15 55  1  0  0  0
 17 56  1  0  0  0
 17 57  1  0  0  0
 17 58  1  0  0  0
 18 59  1  0  0  0
 19 60  1  0  0  0
 19 61  1  0  0  0
 20 62  1  0  0  0
 20 63  1  0  0  0
 21 64  1  0  0  0
 22 65  1  0  0  0
 23 66  1  0  0  0
 23 67  1  0  0  0
 23 68  1  0  0  0
 24 69  1  0  0  0
 25 70  1  0  0  0
 25 71  1  0  0  0
 27 72  1  0  0  0
 27 73  1  0  0  0
 28 74  1  0  0  0
 28 75  1  0  0  0
 28 76  1  0  0  0
 29 77  1  0  0  0
 30 78  1  0  0  0
 30 79  1  0  0  0
 31 80  1  0  0  0
 31 81  1  0  0  0
 31 82  1  0  0  0
 32 83  1  0  0  0
 32 84  1  0  0  0
 33 85  1  0  0  0
 33 86  1  0  0  0
 34 87  1  0  0  0
 34 88  1  0  0  0
 35 89  1  0  0  0
 35 90  1  0  0  0
 35 91  1  0  0  0
M  END
$$$$
