### 
### Created by X-TOOL on Wed Jan  1 15:39:36 2020
### 

@<TRIPOS>MOLECULE
6fcl_ligand
   35    37     1     0     0
SMALL
GAST_HUCK


@<TRIPOS>ATOM
      1 P         -16.8960   12.3700    8.3060 P.3       1 AMP         0.2008
      2 O1P       -15.9690   13.4440    7.7510 O.co2     1 AMP        -0.5537
      3 O2P       -16.5430   11.9540    9.7140 O.co2     1 AMP        -0.5537
      4 O3P       -18.3610   12.7260    8.1340 O.co2     1 AMP        -0.5537
      5 O5'       -16.6570   11.1510    7.3240 O.3       1 AMP        -0.2734
      6 C5'       -17.1290    9.8920    7.7390 C.3       1 AMP         0.1072
      7 C4'       -17.5250    9.1040    6.5060 C.3       1 AMP         0.1182
      8 O4'       -16.5450    9.1500    5.4480 O.3       1 AMP        -0.3365
      9 C3'       -17.5860    7.6810    6.9680 C.3       1 AMP         0.1149
     10 O3'       -18.5210    7.0200    6.1240 O.3       1 AMP        -0.3864
     11 C2'       -16.1690    7.1860    6.7500 C.3       1 AMP         0.1385
     12 O2'       -16.2090    5.7950    6.4280 O.3       1 AMP        -0.3836
     13 C1'       -15.6920    8.0010    5.5430 C.3       1 AMP         0.2010
     14 N9        -14.2650    8.4430    5.5770 N.pl3     1 AMP        -0.1919
     15 C8        -13.8220    9.7000    5.7920 C.2       1 AMP         0.1123
     16 N7        -12.4680    9.7660    5.7120 N.2       1 AMP        -0.2958
     17 C5        -12.0500    8.5100    5.4170 C.ar      1 AMP         0.1045
     18 C6        -10.7460    7.9210    5.2340 C.ar      1 AMP         0.1298
     19 N6         -9.6170    8.6590    5.2850 N.pl3     1 AMP        -0.3152
     20 N1        -10.7140    6.5370    4.9750 N.ar      1 AMP        -0.2698
     21 C2        -11.8440    5.8010    4.8970 C.ar      1 AMP         0.0533
     22 N3        -13.0620    6.3360    5.0760 N.ar      1 AMP        -0.2714
     23 C4        -13.1730    7.6650    5.3430 C.ar      1 AMP         0.1613
     24 H1        -18.0023   10.0197    8.3955 H         1 AMP         0.0639
     25 H2        -16.3361    9.3580    8.2832 H         1 AMP         0.0639
     26 H3        -18.4983    9.4515    6.1292 H         1 AMP         0.0650
     27 H4        -17.8838    7.5923    8.0232 H         1 AMP         0.0648
     28 H5        -18.5912    6.1089    6.3835 H         1 AMP         0.2100
     29 H6        -15.5339    7.3588    7.6313 H         1 AMP         0.0676
     30 H7        -16.6101    5.3167    7.1442 H         1 AMP         0.2101
     31 H8        -15.8221    7.3798    4.6445 H         1 AMP         0.0996
     32 H9        -14.4674   10.5515    6.0025 H         1 AMP         0.1349
     33 H10        -8.7007    8.2084    5.1502 H         1 AMP         0.1820
     34 H11        -9.6718    9.6728    5.4587 H         1 AMP         0.1820
     35 H12       -11.7644    4.7414    4.6824 H         1 AMP         0.0996
@<TRIPOS>BOND
     1    1    2 ar 
     2    1    3 ar 
     3    1    4 ar 
     4    1    5 1  
     5    5    6 1  
     6    6    7 1  
     7    7    8 1  
     8    7    9 1  
     9    8   13 1  
    10    9   10 1  
    11    9   11 1  
    12   11   12 1  
    13   11   13 1  
    14   13   14 1  
    15   14   15 1  
    16   14   23 1  
    17   15   16 2  
    18   16   17 1  
    19   17   18 ar 
    20   17   23 ar 
    21   18   19 1  
    22   18   20 ar 
    23   20   21 ar 
    24   21   22 ar 
    25   22   23 ar 
    26    6   24 1  
    27    6   25 1  
    28    7   26 1  
    29    9   27 1  
    30   10   28 1  
    31   11   29 1  
    32   12   30 1  
    33   13   31 1  
    34   15   32 1  
    35   19   33 1  
    36   19   34 1  
    37   21   35 1  
@<TRIPOS>SUBSTRUCTURE
     1 AMP         1

