6fcl_ligand
  -I-interpret- 

 37 39  0  0  0  0  0  0  0  0999 V2000
  -16.8960   12.3700    8.3060 P   0  0  0  0  0
  -15.9690   13.4440    7.7510 O   0  0  0  0  0
  -16.5430   11.9540    9.7140 O   0  0  0  0  0
  -18.3610   12.7260    8.1340 O   0  0  0  0  0
  -16.6570   11.1510    7.3240 O   0  0  0  0  0
  -17.1290    9.8920    7.7390 C   0  0  0  0  0
  -17.5250    9.1040    6.5060 C   0  0  0  0  0
  -16.5450    9.1500    5.4480 O   0  0  0  0  0
  -17.5860    7.6810    6.9680 C   0  0  0  0  0
  -18.5210    7.0200    6.1240 O   0  0  0  0  0
  -16.1690    7.1860    6.7500 C   0  0  0  0  0
  -16.2090    5.7950    6.4280 O   0  0  0  0  0
  -15.6920    8.0010    5.5430 C   0  0  0  0  0
  -14.2650    8.4430    5.5770 N   0  0  0  0  0
  -13.8220    9.7000    5.7920 C   0  0  0  0  0
  -12.4680    9.7660    5.7120 N   0  0  0  0  0
  -12.0500    8.5100    5.4170 C   0  0  0  0  0
  -10.7460    7.9210    5.2340 C   0  0  0  0  0
   -9.6170    8.6590    5.2850 N   0  0  0  0  0
  -10.7140    6.5370    4.9750 N   0  0  0  0  0
  -11.8440    5.8010    4.8970 C   0  0  0  0  0
  -13.0620    6.3360    5.0760 N   0  0  0  0  0
  -13.1730    7.6650    5.3430 C   0  0  0  0  0
  -16.2396   13.6682    6.8576 H   0  0  0  0  0
  -18.5223   12.9809    7.2226 H   0  0  0  0  0
  -17.9886   10.0130    8.3982 H   0  0  0  0  0
  -16.3503    9.3624    8.2878 H   0  0  0  0  0
  -18.4519    9.5147    6.1056 H   0  0  0  0  0
  -17.8996    7.5238    8.0000 H   0  0  0  0  0
  -18.5919    6.0992    6.3862 H   0  0  0  0  0
  -15.5193    7.3015    7.6176 H   0  0  0  0  0
  -15.3150    5.4742    6.2885 H   0  0  0  0  0
  -15.7490    7.3426    4.6762 H   0  0  0  0  0
  -14.4680   10.5523    6.0027 H   0  0  0  0  0
   -9.6713    9.6629    5.4570 H   0  0  0  0  0
   -8.7095    8.2128    5.1516 H   0  0  0  0  0
  -11.7640    4.7356    4.6812 H   0  0  0  0  0
  1  2  1  0  0  0
  1  3  2  0  0  0
  1  4  1  0  0  0
  1  5  1  0  0  0
  5  6  1  0  0  0
  6  7  1  0  0  0
  7  8  1  0  0  0
  7  9  1  0  0  0
  8 13  1  0  0  0
  9 10  1  0  0  0
  9 11  1  0  0  0
 11 12  1  0  0  0
 11 13  1  0  0  0
 13 14  1  0  0  0
 14 15  4  0  0  0
 14 23  4  0  0  0
 15 16  4  0  0  0
 16 17  4  0  0  0
 17 18  4  0  0  0
 17 23  4  0  0  0
 18 19  1  0  0  0
 18 20  4  0  0  0
 20 21  4  0  0  0
 21 22  4  0  0  0
 22 23  4  0  0  0
  2 24  1  0  0  0
  4 25  1  0  0  0
  6 26  1  0  0  0
  6 27  1  0  0  0
  7 28  1  0  0  0
  9 29  1  0  0  0
 10 30  1  0  0  0
 11 31  1  0  0  0
 12 32  1  0  0  0
 13 33  1  0  0  0
 15 34  1  0  0  0
 19 35  1  0  0  0
 19 36  1  0  0  0
 21 37  1  0  0  0
M  END
$$$$
