3fat_ligand
  -I-interpret- 

 24 24  0  0  0  0  0  0  0  0999 V2000
   11.8850   49.7560   20.0440 N   0  3  0  0  0
   12.3460   51.0730   20.5210 C   0  0  0  0  0
   13.2510   50.8730   21.7330 C   0  0  0  0  0
   13.7100   51.9090   22.2670 O   0  0  0  0  0
   13.5060   49.6970   22.0790 O   0  0  0  0  0
   11.1220   51.9450   20.8920 C   0  0  0  0  0
   10.2720   52.2340   19.6490 C   0  0  0  0  0
   10.4890   53.2840   18.7620 C   0  0  0  0  0
    9.1610   51.5580   19.1560 C   0  0  0  0  0
    8.5040   50.3170   19.7590 C   0  0  0  0  0
   11.4920   54.2050   18.8710 O   0  0  0  0  0
    9.5960   53.2650   17.7810 N   0  0  0  0  0
    8.7320   52.1650   18.0160 O   0  0  0  0  0
   12.6924   49.1824   19.7999 H   0  0  0  0  0
   11.3506   49.2966   20.7814 H   0  0  0  0  0
   11.2943   49.8812   19.2219 H   0  0  0  0  0
   12.9084   51.5811   19.7377 H   0  0  0  0  0
   13.3607   52.6815   21.8166 H   0  0  0  0  0
   11.4730   52.8892   21.3083 H   0  0  0  0  0
   10.5134   51.4094   21.6205 H   0  0  0  0  0
    9.2288   49.5035   19.7921 H   0  0  0  0  0
    8.1628   50.5427   20.7693 H   0  0  0  0  0
    7.6534   50.0227   19.1442 H   0  0  0  0  0
    9.5409   53.9206   17.0015 H   0  0  0  0  0
  1  2  1  0  0  0
  2  3  1  0  0  0
  2  6  1  0  0  0
  3  4  1  0  0  0
  3  5  2  0  0  0
  6  7  1  0  0  0
  7  8  1  0  0  0
  7  9  2  0  0  0
  8 11  2  0  0  0
  8 12  1  0  0  0
  9 10  1  0  0  0
  9 13  1  0  0  0
 12 13  1  0  0  0
  1 14  1  0  0  0
  1 15  1  0  0  0
  1 16  1  0  0  0
  2 17  1  0  0  0
  4 18  1  0  0  0
  6 19  1  0  0  0
  6 20  1  0  0  0
 10 21  1  0  0  0
 10 22  1  0  0  0
 10 23  1  0  0  0
 12 24  1  0  0  0
M  END
$$$$
