2zcs_ligand
  -I-interpret- 

 43 44  0  0  0  0  0  0  0  0999 V2000
   57.9210   19.1690   54.4000 C   0  0  0  0  0
   58.1900   20.5080   54.6620 C   0  0  0  0  0
   57.9480   21.4740   53.6910 C   0  0  0  0  0
   57.4420   21.0900   52.4550 C   0  0  0  0  0
   57.1740   19.7500   52.1930 C   0  0  0  0  0
   57.4050   18.7850   53.1670 C   0  0  0  0  0
   57.0680   17.4590   52.9220 C   0  0  0  0  0
   56.2100   17.1510   51.8720 C   0  0  0  0  0
   55.8650   15.8290   51.6100 C   0  0  0  0  0
   57.5740   16.4360   53.7150 C   0  0  0  0  0
   57.2300   15.1140   53.4510 C   0  0  0  0  0
   56.3770   14.8050   52.3960 C   0  0  0  0  0
   56.0300   13.3500   52.0710 C   0  0  0  0  0
   57.2910   12.5210   51.8070 C   0  0  0  0  0
   56.9530   11.0840   51.4000 C   0  0  0  0  0
   56.1980   10.3240   52.4940 C   0  0  0  0  0
   57.2180   10.1690   54.0140 P   0  0  0  0  0
   57.0280    8.6740   54.5820 O   0  0  0  0  0
   58.7460   10.2620   53.5160 O   0  0  0  0  0
   56.8650   11.1970   55.0190 O   0  0  0  0  0
   55.6570    8.6690   51.9240 S   0  0  0  0  0
   54.6280    8.8250   50.9410 O   0  0  0  0  0
   55.1130    7.8690   53.0720 O   0  0  0  0  0
   56.8190    7.9340   51.3240 O   0  0  0  0  0
   58.1155   18.4169   55.1646 H   0  0  0  0  0
   58.5919   20.8015   55.6317 H   0  0  0  0  0
   58.1537   22.5242   53.8979 H   0  0  0  0  0
   57.2544   21.8413   51.6879 H   0  0  0  0  0
   56.7812   19.4555   51.2198 H   0  0  0  0  0
   55.8054   17.9500   51.2506 H   0  0  0  0  0
   55.1910   15.5963   50.7856 H   0  0  0  0  0
   58.2411   16.6696   54.5447 H   0  0  0  0  0
   57.6313   14.3152   54.0747 H   0  0  0  0  0
   55.4106   13.3336   51.1743 H   0  0  0  0  0
   55.5051   12.9202   52.9241 H   0  0  0  0  0
   57.8773   12.4878   52.7253 H   0  0  0  0  0
   57.8425   12.9873   50.9906 H   0  0  0  0  0
   57.8899   10.5593   51.2128 H   0  0  0  0  0
   56.3130   11.1268   50.5187 H   0  0  0  0  0
   55.3065   10.9057   52.7286 H   0  0  0  0  0
   57.2670    8.0413   53.9007 H   0  0  0  0  0
   58.9129    9.5730   52.8687 H   0  0  0  0  0
   55.7969    7.7593   53.7367 H   0  0  0  0  0
  1  2  4  0  0  0
  1  6  4  0  0  0
  2  3  4  0  0  0
  3  4  4  0  0  0
  4  5  4  0  0  0
  5  6  4  0  0  0
  6  7  1  0  0  0
  7  8  4  0  0  0
  7 10  4  0  0  0
  8  9  4  0  0  0
  9 12  4  0  0  0
 10 11  4  0  0  0
 11 12  4  0  0  0
 12 13  1  0  0  0
 13 14  1  0  0  0
 14 15  1  0  0  0
 15 16  1  0  0  0
 16 17  1  0  0  0
 16 21  1  0  0  0
 17 18  1  0  0  0
 17 19  1  0  0  0
 17 20  2  0  0  0
 21 22  2  0  0  0
 21 23  1  0  0  0
 21 24  2  0  0  0
  1 25  1  0  0  0
  2 26  1  0  0  0
  3 27  1  0  0  0
  4 28  1  0  0  0
  5 29  1  0  0  0
  8 30  1  0  0  0
  9 31  1  0  0  0
 10 32  1  0  0  0
 11 33  1  0  0  0
 13 34  1  0  0  0
 13 35  1  0  0  0
 14 36  1  0  0  0
 14 37  1  0  0  0
 15 38  1  0  0  0
 15 39  1  0  0  0
 16 40  1  0  0  0
 18 41  1  0  0  0
 19 42  1  0  0  0
 23 43  1  0  0  0
M  END
$$$$
