4b7j_ligand
  -I-interpret- 

 47 47  0  0  0  0  0  0  0  0999 V2000
   28.9340   -5.5650   11.8320 C   0  0  0  0  0
   29.7840   -4.6730   11.6030 O   0  0  0  0  0
   27.7010   -5.2850   11.7910 O   0  0  0  0  0
   29.3720   -6.9820   12.1710 C   0  0  0  0  0
   30.7800   -6.9540   12.6950 C   0  0  0  0  0
   31.0620   -7.8390   13.8680 C   0  0  0  0  0
   30.1770   -9.0360   13.8980 C   0  0  0  0  0
   30.5290   -9.8660   15.0460 N   0  0  0  0  0
   30.9970  -11.2220   14.8760 C   0  0  0  0  0
   31.1110  -11.6980   13.7610 O   0  0  0  0  0
   31.3450  -12.0410   16.0930 C   0  0  0  0  0
   28.7450   -8.6330   14.0390 C   0  0  0  0  0
   28.3260   -7.5590   13.0850 C   0  0  0  0  0
   27.9120   -9.7560   13.8850 O   0  0  0  0  0
   27.1360  -10.2160   14.9680 C   0  0  0  0  0
   26.1610   -9.1810   15.5290 C   0  0  0  0  0
   26.5080  -11.5760   14.7160 C   0  0  0  0  0
   27.4420  -12.7560   14.6270 C   0  0  0  0  0
   25.0590   -8.6950   14.6300 C   0  0  0  0  0
   32.4550   -8.2690   13.8310 N   0  3  0  0  0
   27.1885   -6.0724   11.9883 H   0  0  0  0  0
   29.4263   -7.6473   11.3093 H   0  0  0  0  0
   30.9607   -5.9332   13.0317 H   0  0  0  0  0
   31.4153   -7.3098   11.8838 H   0  0  0  0  0
   30.8651   -7.2593   14.7698 H   0  0  0  0  0
   30.3101   -9.5835   12.9649 H   0  0  0  0  0
   30.4428   -9.4810   15.9866 H   0  0  0  0  0
   30.7151  -12.9300   16.1234 H   0  0  0  0  0
   32.3925  -12.3380   16.0421 H   0  0  0  0  0
   31.1781  -11.4451   16.9903 H   0  0  0  0  0
   28.6425   -8.2159   15.0408 H   0  0  0  0  0
   27.5920   -8.0252   12.4278 H   0  0  0  0  0
   27.9968   -6.7286   13.7096 H   0  0  0  0  0
   27.8501  -10.3702   15.7770 H   0  0  0  0  0
   26.7659   -8.3013   15.7486 H   0  0  0  0  0
   25.6601   -9.6752   16.3614 H   0  0  0  0  0
   26.0254  -11.5046   13.7413 H   0  0  0  0  0
   25.8647  -11.7701   15.5742 H   0  0  0  0  0
   28.1443  -12.6009   13.8080 H   0  0  0  0  0
   27.9904  -12.8551   15.5638 H   0  0  0  0  0
   26.8642  -13.6622   14.4451 H   0  0  0  0  0
   25.4926   -8.2286   13.7454 H   0  0  0  0  0
   24.4379   -9.5389   14.3299 H   0  0  0  0  0
   24.4501   -7.9663   15.1651 H   0  0  0  0  0
   33.0621   -7.4496   13.8104 H   0  0  0  0  0
   32.6602   -8.8249   14.6613 H   0  0  0  0  0
   32.6136   -8.8322   12.9955 H   0  0  0  0  0
  1  2  2  0  0  0
  1  3  1  0  0  0
  1  4  1  0  0  0
  4  5  1  0  0  0
  4 13  1  0  0  0
  5  6  1  0  0  0
  6  7  1  0  0  0
  6 20  1  0  0  0
  7  8  1  0  0  0
  7 12  1  0  0  0
  8  9  1  0  0  0
  9 10  2  0  0  0
  9 11  1  0  0  0
 12 13  1  0  0  0
 12 14  1  0  0  0
 14 15  1  0  0  0
 15 16  1  0  0  0
 15 17  1  0  0  0
 16 19  1  0  0  0
 17 18  1  0  0  0
  3 21  1  0  0  0
  4 22  1  0  0  0
  5 23  1  0  0  0
  5 24  1  0  0  0
  6 25  1  0  0  0
  7 26  1  0  0  0
  8 27  1  0  0  0
 11 28  1  0  0  0
 11 29  1  0  0  0
 11 30  1  0  0  0
 12 31  1  0  0  0
 13 32  1  0  0  0
 13 33  1  0  0  0
 15 34  1  0  0  0
 16 35  1  0  0  0
 16 36  1  0  0  0
 17 37  1  0  0  0
 17 38  1  0  0  0
 18 39  1  0  0  0
 18 40  1  0  0  0
 18 41  1  0  0  0
 19 42  1  0  0  0
 19 43  1  0  0  0
 19 44  1  0  0  0
 20 45  1  0  0  0
 20 46  1  0  0  0
 20 47  1  0  0  0
M  END
$$$$
