1k21_ligand
  -I-interpret- 

 70 71  0  0  0  0  0  0  0  0999 V2000
   16.1560  -11.6220   20.2070 C   0  0  0  0  0
   15.4510  -12.5640   19.8270 O   0  0  0  0  0
   15.6340  -10.3970   20.3990 N   0  0  0  0  0
   14.2220  -10.0260   20.1930 C   0  0  0  0  0
   13.4950   -9.7650   21.5200 C   0  0  0  0  0
   12.0090  -10.0930   21.4210 C   0  0  0  0  0
   11.6090  -11.1220   22.3900 N   0  0  0  0  0
   11.0030  -10.8830   23.6710 C   0  0  0  0  0
   10.6870  -11.9160   24.4420 N   0  0  0  0  0
   10.7580   -9.6370   24.0780 N   0  0  0  0  0
   17.9500  -13.2540   21.0630 N   0  0  0  0  0
   17.6790  -11.8530   20.4870 C   0  0  0  0  0
   18.4230  -11.6090   19.1400 C   0  0  0  0  0
   19.8990  -12.0490   19.1810 C   0  0  0  0  0
   20.0010  -13.5800   19.4210 C   0  0  0  0  0
   18.8870  -14.1930   20.3230 C   0  0  0  0  0
   16.5740  -12.9000   22.8600 O   0  0  0  0  0
   17.3450  -13.6610   22.2510 C   0  0  0  0  0
   17.5520  -15.0700   22.9300 C   0  0  0  0  0
   17.9260  -15.0000   24.4670 C   0  0  0  0  0
   20.4370  -14.8210   23.5540 C   0  0  0  0  0
   19.4520  -14.7400   24.8050 C   0  0  0  0  0
   19.7200  -13.3720   25.5260 C   0  0  0  0  0
   21.2120  -13.2650   25.9910 C   0  0  0  0  0
   22.1600  -13.3700   24.7530 C   0  0  0  0  0
   21.9280  -14.7230   24.0130 C   0  0  0  0  0
   16.2730  -15.8300   22.8380 N   0  3  0  0  0
   15.6600  -16.2720   21.5460 C   0  0  0  0  0
   14.2430  -16.7860   21.7690 C   0  0  0  0  0
   13.8040  -16.9480   22.9320 O   0  0  0  0  0
   13.5190  -17.0470   20.7800 O   0  0  0  0  0
   16.2686   -9.6630   20.7136 H   0  0  0  0  0
   13.7228  -10.8532   19.6884 H   0  0  0  0  0
   14.1934   -9.1098   19.6033 H   0  0  0  0  0
   13.5984   -8.7084   21.7669 H   0  0  0  0  0
   13.9376  -10.4019   22.2859 H   0  0  0  0  0
   11.8087  -10.4714   20.4186 H   0  0  0  0  0
   11.4439   -9.1855   21.6336 H   0  0  0  0  0
   11.7765  -12.0940   22.1302 H   0  0  0  0  0
   10.2539  -11.7595   25.3521 H   0  0  0  0  0
   10.3251   -9.4732   24.9870 H   0  0  0  0  0
   11.0034   -8.8477   23.4804 H   0  0  0  0  0
   18.0422  -11.1629   21.2486 H   0  0  0  0  0
   18.4006  -10.5383   18.9369 H   0  0  0  0  0
   17.9217  -12.1977   18.3718 H   0  0  0  0  0
   20.4024  -11.5277   19.9952 H   0  0  0  0  0
   20.3682  -11.8071   18.2274 H   0  0  0  0  0
   20.9465  -13.7514   19.9355 H   0  0  0  0  0
   19.9059  -14.0545   18.4443 H   0  0  0  0  0
   19.4206  -14.7348   21.1039 H   0  0  0  0  0
   18.2469  -14.7536   19.6417 H   0  0  0  0  0
   18.3816  -15.5409   22.4027 H   0  0  0  0  0
   17.6844  -15.9778   24.8837 H   0  0  0  0  0
   17.3752  -14.1529   24.8758 H   0  0  0  0  0
   20.2210  -13.9900   22.8826 H   0  0  0  0  0
   20.2868  -15.7758   23.0500 H   0  0  0  0  0
   19.6714  -15.5656   25.4820 H   0  0  0  0  0
   19.0752  -13.3065   26.4023 H   0  0  0  0  0
   19.5128  -12.5619   24.8268 H   0  0  0  0  0
   21.4329  -14.0765   26.6844 H   0  0  0  0  0
   21.3681  -12.3058   26.4846 H   0  0  0  0  0
   23.1953  -13.3198   25.0902 H   0  0  0  0  0
   21.9480  -12.5477   24.0696 H   0  0  0  0  0
   22.1540  -15.5484   24.6881 H   0  0  0  0  0
   22.5795  -14.7750   23.1407 H   0  0  0  0  0
   15.5880  -15.1658   23.1985 H   0  0  0  0  0
   16.5005  -16.7131   23.2949 H   0  0  0  0  0
   16.2643  -17.0764   21.1267 H   0  0  0  0  0
   15.6229  -15.4218   20.8649 H   0  0  0  0  0
   14.4821  -16.7029   23.5658 H   0  0  0  0  0
 12  1  1  0  0  0
  1  3  1  0  0  0
  1  2  2  0  0  0
  3  4  1  0  0  0
  4  5  1  0  0  0
  5  6  1  0  0  0
  6  7  1  0  0  0
  7  8  1  0  0  0
  8 10  1  0  0  0
  8  9  2  0  0  0
 12 11  1  0  0  0
 12 13  1  0  0  0
 13 14  1  0  0  0
 14 15  1  0  0  0
 15 16  1  0  0  0
 11 16  1  0  0  0
 11 18  1  0  0  0
 18 19  1  0  0  0
 18 17  2  0  0  0
 19 27  1  0  0  0
 19 20  1  0  0  0
 20 22  1  0  0  0
 22 21  1  0  0  0
 22 23  1  0  0  0
 23 24  1  0  0  0
 24 25  1  0  0  0
 25 26  1  0  0  0
 21 26  1  0  0  0
 27 28  1  0  0  0
 28 29  1  0  0  0
 29 31  2  0  0  0
 29 30  1  0  0  0
  3 32  1  0  0  0
  4 33  1  0  0  0
  4 34  1  0  0  0
  5 35  1  0  0  0
  5 36  1  0  0  0
  6 37  1  0  0  0
  6 38  1  0  0  0
  7 39  1  0  0  0
  9 40  1  0  0  0
 10 41  1  0  0  0
 10 42  1  0  0  0
 12 43  1  0  0  0
 13 44  1  0  0  0
 13 45  1  0  0  0
 14 46  1  0  0  0
 14 47  1  0  0  0
 15 48  1  0  0  0
 15 49  1  0  0  0
 16 50  1  0  0  0
 16 51  1  0  0  0
 19 52  1  0  0  0
 20 53  1  0  0  0
 20 54  1  0  0  0
 21 55  1  0  0  0
 21 56  1  0  0  0
 22 57  1  0  0  0
 23 58  1  0  0  0
 23 59  1  0  0  0
 24 60  1  0  0  0
 24 61  1  0  0  0
 25 62  1  0  0  0
 25 63  1  0  0  0
 26 64  1  0  0  0
 26 65  1  0  0  0
 27 66  1  0  0  0
 27 67  1  0  0  0
 28 68  1  0  0  0
 28 69  1  0  0  0
 30 70  1  0  0  0
M  END
$$$$
