6b1e_ligand
  -I-interpret- 

 50 53  0  0  0  0  0  0  0  0999 V2000
   36.7730   52.0420   36.3790 O   0  0  0  0  0
   37.0330   50.9960   35.7850 C   0  0  0  0  0
   36.2240   49.8830   35.8120 N   0  0  0  0  0
   36.4910   48.6330   35.0980 C   0  0  0  0  0
   35.2000   47.8100   35.2720 C   0  0  0  0  0
   34.1500   48.8630   35.6320 C   0  0  0  0  0
   34.9350   49.8510   36.4880 C   0  0  0  0  0
   35.1110   49.4970   37.9560 C   0  0  0  0  0
   35.9170   48.6660   38.5030 N   0  0  0  0  0
   38.2860   50.8230   34.9580 C   0  0  0  0  0
   39.2000   52.0090   35.0190 N   0  3  0  0  0
   40.2550   51.8940   36.0790 C   0  0  0  0  0
   39.6770   51.4130   37.4360 C   0  0  0  0  0
   40.8330   51.2490   38.4390 C   0  0  0  0  0
   41.9260   50.3010   37.9000 C   0  0  0  0  0
   42.4940   50.8430   36.5820 C   0  0  0  0  0
   41.3010   50.8770   35.5890 C   0  0  0  0  0
   43.0540   52.2570   36.8180 C   0  0  0  0  0
   41.4370   52.6380   38.6810 C   0  0  0  0  0
   41.9780   53.1950   37.3670 C   0  0  0  0  0
   42.5030   54.4770   37.6430 O   0  0  0  0  0
   40.8680   53.2900   36.3100 C   0  0  0  0  0
   37.3642   48.1139   35.4931 H   0  0  0  0  0
   36.7298   48.8037   34.0483 H   0  0  0  0  0
   35.2965   47.0385   36.0359 H   0  0  0  0  0
   34.9383   47.2492   34.3747 H   0  0  0  0  0
   33.2907   48.4417   36.1537 H   0  0  0  0  0
   33.7002   49.3282   34.7549 H   0  0  0  0  0
   34.3989   50.7977   36.5543 H   0  0  0  0  0
   34.4542   50.0290   38.6443 H   0  0  0  0  0
   36.5644   48.1285   37.9264 H   0  0  0  0  0
   37.9817   50.6928   33.9195 H   0  0  0  0  0
   38.8292   49.9658   35.3557 H   0  0  0  0  0
   38.6299   52.8255   35.2398 H   0  0  0  0  0
   39.6747   52.0780   34.1189 H   0  0  0  0  0
   39.1666   50.4592   37.3022 H   0  0  0  0  0
   38.9627   52.1450   37.8129 H   0  0  0  0  0
   40.4492   50.8133   39.3615 H   0  0  0  0  0
   41.4902   49.3177   37.7233 H   0  0  0  0  0
   42.7299   50.2300   38.6327 H   0  0  0  0  0
   43.3050   50.2282   36.1917 H   0  0  0  0  0
   41.6581   51.1700   34.6017 H   0  0  0  0  0
   40.8472   49.8876   35.5321 H   0  0  0  0  0
   43.4082   52.6537   35.8665 H   0  0  0  0  0
   43.8633   52.1932   37.5453 H   0  0  0  0  0
   42.2492   52.5596   39.4036 H   0  0  0  0  0
   40.6676   53.3057   39.0687 H   0  0  0  0  0
   41.8051   55.0405   37.9851 H   0  0  0  0  0
   40.0933   53.9733   36.6579 H   0  0  0  0  0
   41.2881   53.6609   35.3751 H   0  0  0  0  0
  1  2  2  0  0  0
  2  3  1  0  0  0
  2 10  1  0  0  0
  3  4  1  0  0  0
  3  7  1  0  0  0
  4  5  1  0  0  0
  5  6  1  0  0  0
  6  7  1  0  0  0
  7  8  1  0  0  0
  8  9  2  0  0  0
 10 11  1  0  0  0
 11 12  1  0  0  0
 12 13  1  0  0  0
 12 17  1  0  0  0
 12 22  1  0  0  0
 13 14  1  0  0  0
 14 15  1  0  0  0
 14 19  1  0  0  0
 15 16  1  0  0  0
 16 17  1  0  0  0
 16 18  1  0  0  0
 18 20  1  0  0  0
 19 20  1  0  0  0
 20 21  1  0  0  0
 20 22  1  0  0  0
  4 23  1  0  0  0
  4 24  1  0  0  0
  5 25  1  0  0  0
  5 26  1  0  0  0
  6 27  1  0  0  0
  6 28  1  0  0  0
  7 29  1  0  0  0
  8 30  1  0  0  0
  9 31  1  0  0  0
 10 32  1  0  0  0
 10 33  1  0  0  0
 11 34  1  0  0  0
 11 35  1  0  0  0
 13 36  1  0  0  0
 13 37  1  0  0  0
 14 38  1  0  0  0
 15 39  1  0  0  0
 15 40  1  0  0  0
 16 41  1  0  0  0
 17 42  1  0  0  0
 17 43  1  0  0  0
 18 44  1  0  0  0
 18 45  1  0  0  0
 19 46  1  0  0  0
 19 47  1  0  0  0
 21 48  1  0  0  0
 22 49  1  0  0  0
 22 50  1  0  0  0
M  END
$$$$
