### 
### Created by X-TOOL on Wed Jan  1 15:39:34 2020
### 

@<TRIPOS>MOLECULE
6b1e_ligand
   50    53     1     0     0
SMALL
GAST_HUCK


@<TRIPOS>ATOM
      1 O20        36.7730   52.0420   36.3790 O.2       1 LF7        -0.3908
      2 C14        37.0330   50.9960   35.7850 C.2       1 LF7         0.2271
      3 N15        36.2240   49.8830   35.8120 N.am      1 LF7        -0.2461
      4 C19        36.4910   48.6330   35.0980 C.3       1 LF7         0.0382
      5 C18        35.2000   47.8100   35.2720 C.3       1 LF7        -0.0272
      6 C17        34.1500   48.8630   35.6320 C.3       1 LF7        -0.0096
      7 C16        34.9350   49.8510   36.4880 C.3       1 LF7         0.1037
      8 C20        35.1110   49.4970   37.9560 C.2       1 LF7         0.0209
      9 N2         35.9170   48.6660   38.5030 N.2       1 LF7        -0.3619
     10 C13        38.2860   50.8230   34.9580 C.3       1 LF7         0.0570
     11 N12        39.2000   52.0090   35.0190 N.4       1 LF7         0.2484
     12 C7         40.2550   51.8940   36.0790 C.3       1 LF7        -0.0068
     13 C8         39.6770   51.4130   37.4360 C.3       1 LF7        -0.0038
     14 C1         40.8330   51.2490   38.4390 C.3       1 LF7        -0.0328
     15 C2         41.9260   50.3010   37.9000 C.3       1 LF7        -0.0468
     16 C10        42.4940   50.8430   36.5820 C.3       1 LF7        -0.0328
     17 C9         41.3010   50.8770   35.5890 C.3       1 LF7        -0.0038
     18 C5         43.0540   52.2570   36.8180 C.3       1 LF7        -0.0207
     19 C21        41.4370   52.6380   38.6810 C.3       1 LF7        -0.0207
     20 C3         41.9780   53.1950   37.3670 C.3       1 LF7         0.0720
     21 O4         42.5030   54.4770   37.6430 O.3       1 LF7        -0.3883
     22 C6         40.8680   53.2900   36.3100 C.3       1 LF7         0.0221
     23 H1         37.3502   48.1077   35.5405 H         1 LF7         0.0525
     24 H2         36.6884   48.8271   34.0334 H         1 LF7         0.0525
     25 H3         35.3101   47.0723   36.0805 H         1 LF7         0.0288
     26 H4         34.9343   47.2934   34.3379 H         1 LF7         0.0288
     27 H5         33.3218   48.4168   36.2022 H         1 LF7         0.0324
     28 H6         33.7530   49.3503   34.7293 H         1 LF7         0.0324
     29 H7         34.4496   50.8369   36.4396 H         1 LF7         0.0842
     30 H8         34.4548   50.0285   38.6436 H         1 LF7         0.1225
     31 H9         35.9118   48.5429   39.5034 H         1 LF7         0.1054
     32 H10        37.9939   50.6599   33.9101 H         1 LF7         0.1062
     33 H11        38.8308   49.9420   35.3282 H         1 LF7         0.1062
     34 H12        38.6462   52.8299   35.2072 H         1 LF7         0.2038
     35 H13        39.6549   52.1082   34.1250 H         1 LF7         0.2038
     36 H14        39.1670   50.4480   37.2991 H         1 LF7         0.0325
     37 H15        38.9604   52.1558   37.8165 H         1 LF7         0.0325
     38 H16        40.4413   50.8433   39.3834 H         1 LF7         0.0304
     39 H17        41.4906   49.3059   37.7261 H         1 LF7         0.0271
     40 H18        42.7362   50.2226   38.6399 H         1 LF7         0.0271
     41 H19        43.2906   50.1868   36.2016 H         1 LF7         0.0304
     42 H20        41.6615   51.1728   34.5927 H         1 LF7         0.0325
     43 H21        40.8430   49.8785   35.5317 H         1 LF7         0.0325
     44 H22        43.4271   52.6587   35.8644 H         1 LF7         0.0296
     45 H23        43.8815   52.1990   37.5404 H         1 LF7         0.0296
     46 H24        42.2565   52.5592   39.4105 H         1 LF7         0.0296
     47 H25        40.6609   53.3119   39.0727 H         1 LF7         0.0296
     48 H26        42.8499   54.8548   36.8433 H         1 LF7         0.2102
     49 H27        40.0863   53.9799   36.6607 H         1 LF7         0.0351
     50 H28        41.2916   53.6648   35.3666 H         1 LF7         0.0351
@<TRIPOS>BOND
     1    1    2 2  
     2    2    3 am 
     3    2   10 1  
     4    3    4 1  
     5    3    7 1  
     6    4    5 1  
     7    5    6 1  
     8    6    7 1  
     9    7    8 1  
    10    8    9 2  
    11   10   11 1  
    12   11   12 1  
    13   12   13 1  
    14   12   17 1  
    15   12   22 1  
    16   13   14 1  
    17   14   15 1  
    18   14   19 1  
    19   15   16 1  
    20   16   17 1  
    21   16   18 1  
    22   18   20 1  
    23   19   20 1  
    24   20   21 1  
    25   20   22 1  
    26    4   23 1  
    27    4   24 1  
    28    5   25 1  
    29    5   26 1  
    30    6   27 1  
    31    6   28 1  
    32    7   29 1  
    33    8   30 1  
    34    9   31 1  
    35   10   32 1  
    36   10   33 1  
    37   11   34 1  
    38   11   35 1  
    39   13   36 1  
    40   13   37 1  
    41   14   38 1  
    42   15   39 1  
    43   15   40 1  
    44   16   41 1  
    45   17   42 1  
    46   17   43 1  
    47   18   44 1  
    48   18   45 1  
    49   19   46 1  
    50   19   47 1  
    51   21   48 1  
    52   22   49 1  
    53   22   50 1  
@<TRIPOS>SUBSTRUCTURE
     1 LF7         1

