3h2a_ligand
  -I-interpret- 

 17 17  0  0  0  0  0  0  0  0999 V2000
  -79.7200   85.6490   91.1270 O   0  0  0  0  0
  -78.7460   84.8850   91.2890 C   0  0  0  0  0
  -77.7700   85.0420   92.4050 C   0  0  0  0  0
  -77.8570   86.0470   93.3340 N   0  0  0  0  0
  -77.0190   86.1350   94.2280 O   0  0  0  0  0
  -78.7620   86.8770   93.3090 O   0  0  0  0  0
  -78.5860   83.8540   90.4300 N   0  0  0  0  0
  -77.5610   82.9680   90.5430 C   0  0  0  0  0
  -77.4690   81.9680   89.6340 N   0  0  0  0  0
  -76.6360   83.0440   91.5400 N   0  0  0  0  0
  -76.6780   84.0240   92.4760 C   0  0  0  0  0
  -75.7220   84.0730   93.4390 N   0  0  0  0  0
  -77.9982   86.0172   92.8350 H   0  0  0  0  0
  -79.2572   83.7366   89.6710 H   0  0  0  0  0
  -76.7145   81.2850   89.7018 H   0  0  0  0  0
  -75.8932   82.3463   91.5835 H   0  0  0  0  0
  -74.9782   83.3752   93.4552 H   0  0  0  0  0
  1  2  2  0  0  0
  2  3  1  0  0  0
  2  7  1  0  0  0
  3  4  1  0  0  0
  3 11  1  0  0  0
  4  5  2  0  0  0
  4  6  2  0  0  0
  7  8  1  0  0  0
  8  9  2  0  0  0
  8 10  1  0  0  0
 10 11  1  0  0  0
 11 12  2  0  0  0
  3 13  1  0  0  0
  7 14  1  0  0  0
  9 15  1  0  0  0
 10 16  1  0  0  0
 12 17  1  0  0  0
M  END
$$$$
