### 
### Created by X-TOOL on Mon Sep 10 21:13:01 2018
### 

@<TRIPOS>MOLECULE
3h2a_ligand
   18    18     1     0     0
SMALL
GAST_HUCK


@<TRIPOS>ATOM
      1 O7        -79.7200   85.6490   91.1270 O.2       1 B57        -0.3262
      2 C1        -78.7460   84.8850   91.2890 C.2       1 B57         0.3300
      3 C6        -77.7700   85.0420   92.4050 C.3       1 B57         0.3235
      4 N8        -77.8570   86.0470   93.3340 N.2       1 B57         0.3149
      5 O10       -77.0190   86.1350   94.2280 O.2       1 B57         0.1887
      6 O9        -78.7620   86.8770   93.3090 O.2       1 B57         0.1887
      7 N2        -78.5860   83.8540   90.4300 N.am      1 B57        -0.0989
      8 C3        -77.5610   82.9680   90.5430 C.2       1 B57         0.4054
      9 N11       -77.4690   81.9680   89.6340 N.2       1 B57        -0.1572
     10 N4        -76.6360   83.0440   91.5400 N.pl3     1 B57        -0.2007
     11 C5        -76.6780   84.0240   92.4760 C.cat     1 B57         0.1360
     12 N12       -75.7220   84.0730   93.4390 N.pl3     1 B57        -0.3526
     13 H1        -77.1440   85.6920   91.7760 H         1 B57         0.0944
     14 H2        -79.2440   83.7389   89.6858 H         1 B57         0.3383
     15 H3        -76.7183   81.2982   89.6959 H         1 B57         0.2366
     16 H4        -75.8860   82.3394   91.5839 H         1 B57         0.2316
     17 H5        -74.9804   83.3587   93.4653 H         1 B57         0.1737
     18 H6        -75.7384   84.8245   94.1432 H         1 B57         0.1737
@<TRIPOS>BOND
     1    1    2 2  
     2    2    3 1  
     3    2    7 am 
     4    3    4 1  
     5    3   11 1  
     6    4    5 2  
     7    4    6 2  
     8    7    8 1  
     9    8    9 2  
    10    8   10 1  
    11   10   11 ar 
    12   11   12 ar 
    13    3   13 1  
    14    7   14 1  
    15    9   15 1  
    16   10   16 1  
    17   12   17 1  
    18   12   18 1  
@<TRIPOS>SUBSTRUCTURE
     1 B57         1

