3wth_ligand
  -I-interpret- 

 25 26  0  0  0  0  0  0  0  0999 V2000
   29.8560  -27.6020  -31.3680 C   0  0  0  0  0
   29.3540  -26.8250  -32.4410 C   0  0  0  0  0
   29.5090  -25.4140  -32.3870 C   0  0  0  0  0
   28.9150  -24.4310  -33.6930 Cl  0  0  0  0  0
   30.1200  -24.8280  -31.3360 N   0  0  0  0  0
   30.6060  -25.5360  -30.3030 C   0  0  0  0  0
   30.4990  -26.9610  -30.2690 C   0  0  0  0  0
   31.0550  -27.7770  -29.0910 C   0  0  0  0  0
   30.4750  -27.4690  -27.7720 N   0  0  0  0  0
   31.0470  -26.4860  -26.8430 C   0  0  0  0  0
   30.1240  -26.4880  -25.6040 C   0  0  0  0  0
   29.0780  -27.4740  -25.9010 N   0  0  0  0  0
   29.3130  -28.0280  -27.1790 C   0  0  0  0  0
   28.5980  -28.9220  -27.7480 N   0  0  0  0  0
   27.4680  -29.6000  -27.4070 N   0  0  0  0  0
   27.0040  -30.4590  -28.2380 O   0  0  0  0  0
   26.8430  -29.4210  -26.2870 O   0  0  0  0  0
   29.7509  -28.6868  -31.3827 H   0  0  0  0  0
   28.8599  -27.2992  -33.2890 H   0  0  0  0  0
   31.0901  -25.0151  -29.4769 H   0  0  0  0  0
   32.1169  -27.5402  -29.0247 H   0  0  0  0  0
   30.8164  -28.8203  -29.2977 H   0  0  0  0  0
   31.9396  -25.8794  -26.9961 H   0  0  0  0  0
   30.2275  -25.8855  -24.7016 H   0  0  0  0  0
   28.9553  -29.1875  -28.6657 H   0  0  0  0  0
  1  2  4  0  0  0
  1  7  4  0  0  0
  2  3  4  0  0  0
  3  4  1  0  0  0
  3  5  4  0  0  0
  5  6  4  0  0  0
  6  7  4  0  0  0
  7  8  1  0  0  0
  8  9  1  0  0  0
  9 10  4  0  0  0
  9 13  4  0  0  0
 10 11  4  0  0  0
 11 12  4  0  0  0
 12 13  4  0  0  0
 13 14  1  0  0  0
 14 15  1  0  0  0
 15 16  2  0  0  0
 15 17  2  0  0  0
  1 18  1  0  0  0
  2 19  1  0  0  0
  6 20  1  0  0  0
  8 21  1  0  0  0
  8 22  1  0  0  0
 10 23  1  0  0  0
 11 24  1  0  0  0
 14 25  1  0  0  0
M  END
$$$$
