4fci_ligand
  -I-interpret- 

 21 20  0  0  0  0  0  0  0  0999 V2000
   20.6610  -18.1170    4.1310 N   0  3  0  0  0
   21.1210  -17.7990    5.5160 C   0  0  0  0  0
   20.3240  -16.6100    5.9870 C   0  0  0  0  0
   20.0570  -16.2100    7.1270 O   0  0  0  0  0
   19.8450  -15.8960    4.7900 O   0  0  0  0  0
   22.6340  -17.4680    5.4430 C   0  0  0  0  0
   23.0110  -16.1050    4.9910 N   0  0  0  0  0
   24.0470  -15.3560    5.5630 C   0  0  0  0  0
   24.8470  -15.8090    6.5290 N   0  0  0  0  0
   24.2500  -14.0500    5.0850 N   0  0  0  0  0
   19.6657  -18.3396    4.1473 H   0  0  0  0  0
   20.8203  -17.3103    3.5275 H   0  0  0  0  0
   21.1839  -18.9175    3.7757 H   0  0  0  0  0
   20.9753  -18.6269    6.2099 H   0  0  0  0  0
   20.1503  -16.3528    4.0028 H   0  0  0  0  0
   23.0502  -18.1505    4.7020 H   0  0  0  0  0
   23.0046  -17.5535    6.4645 H   0  0  0  0  0
   22.4861  -15.6909    4.2207 H   0  0  0  0  0
   25.5843  -15.2114    6.9027 H   0  0  0  0  0
   24.9949  -13.4736    5.4765 H   0  0  0  0  0
   23.6524  -13.6785    4.3466 H   0  0  0  0  0
  1  2  1  0  0  0
  2  3  1  0  0  0
  2  6  1  0  0  0
  3  4  2  0  0  0
  3  5  1  0  0  0
  6  7  1  0  0  0
  7  8  1  0  0  0
  8  9  2  0  0  0
  8 10  1  0  0  0
  1 11  1  0  0  0
  1 12  1  0  0  0
  1 13  1  0  0  0
  2 14  1  0  0  0
  5 15  1  0  0  0
  6 16  1  0  0  0
  6 17  1  0  0  0
  7 18  1  0  0  0
  9 19  1  0  0  0
 10 20  1  0  0  0
 10 21  1  0  0  0
M  END
$$$$
