1oar_ligand
  -I-interpret- 

 30 32  0  0  0  0  0  0  0  0999 V2000
   36.8710   54.1050   78.8980 C   0  0  0  0  0
   38.8510   53.5610   80.4660 C   0  0  0  0  0
   37.2320   52.8180   78.2270 C   0  0  0  0  0
   35.8030   54.8150   78.4180 C   0  0  0  0  0
   38.3550   51.9830   78.6800 C   0  0  0  0  0
   36.5190   52.3350   77.1440 C   0  0  0  0  0
   35.0940   54.2870   77.3120 C   0  0  0  0  0
   40.2000   51.5810   80.2660 C   0  0  0  0  0
   40.6540   53.1480   82.0130 C   0  0  0  0  0
   40.9440   51.9670   81.3640 C   0  0  0  0  0
   35.4790   53.0520   76.7470 C   0  0  0  0  0
   37.7080   54.4850   80.0340 C   0  0  0  0  0
   39.1460   52.3820   79.8180 C   0  0  0  0  0
   39.6180   53.9450   81.5700 C   0  0  0  0  0
   33.7430   53.6900   74.8940 O   0  0  0  0  0
   33.9830   51.4270   75.1590 O   0  0  0  0  0
   34.0330   54.9600   76.8170 O   0  0  0  0  0
   35.4360   55.9680   78.9970 O   0  0  0  0  0
   35.5780   52.7220   74.0130 O   0  0  0  0  0
   37.4860   55.5260   80.6350 O   0  0  0  0  0
   38.6130   50.9420   78.0980 O   0  0  0  0  0
   34.7060   52.6550   75.1280 S   0  0  0  0  0
   36.7998   51.4091   76.6420 H   0  0  0  0  0
   40.4352   50.6509   79.7486 H   0  0  0  0  0
   41.2438   53.4529   82.8774 H   0  0  0  0  0
   41.7607   51.3375   81.7173 H   0  0  0  0  0
   39.3963   54.8801   82.0843 H   0  0  0  0  0
   34.1888   54.5398   74.8653 H   0  0  0  0  0
   33.6651   54.4742   76.0752 H   0  0  0  0  0
   34.6750   56.3283   78.5358 H   0  0  0  0  0
  3  1  4  0  0  0
  1  4  4  0  0  0
 12  1  1  0  0  0
  2 12  1  0  0  0
 13  2  4  0  0  0
  2 14  4  0  0  0
  5  3  1  0  0  0
  3  6  4  0  0  0
  4  7  4  0  0  0
  4 18  1  0  0  0
 13  5  1  0  0  0
  5 21  2  0  0  0
  6 11  4  0  0  0
 11  7  4  0  0  0
  7 17  1  0  0  0
  8 10  4  0  0  0
  8 13  4  0  0  0
 10  9  4  0  0  0
  9 14  4  0  0  0
 11 22  1  0  0  0
 12 20  2  0  0  0
 22 15  1  0  0  0
 22 16  2  0  0  0
 22 19  2  0  0  0
  6 23  1  0  0  0
  8 24  1  0  0  0
  9 25  1  0  0  0
 10 26  1  0  0  0
 14 27  1  0  0  0
 15 28  1  0  0  0
 17 29  1  0  0  0
 18 30  1  0  0  0
M  END
$$$$
