6m9t_ligand
  -I-interpret- 

 62 62  0  0  0  0  0  0  0  0999 V2000
  125.4710  -11.7130  153.6930 C   0  0  0  0  0
  125.9850  -11.0980  152.4000 C   0  0  0  0  0
  126.0830   -9.5760  152.4530 C   0  0  0  0  0
  126.9870   -9.0750  151.3200 C   0  0  0  0  0
  126.8500   -7.6230  150.8270 C   0  0  0  0  0
  125.4420   -7.3710  150.3070 C   0  0  0  0  0
  127.1340   -6.5410  151.8800 C   0  0  0  0  0
  128.4650   -6.7170  152.6130 C   0  0  0  0  0
  129.2040   -5.6560  152.8530 C   0  0  0  0  0
  130.5010   -5.7660  153.5760 C   0  0  0  0  0
  131.6590   -4.8950  152.7390 C   0  0  0  0  0
  132.6070   -4.5360  153.6850 C   0  0  0  0  0
  131.8510   -4.5510  155.0660 C   0  0  0  0  0
  130.4220   -5.1070  154.8220 C   0  0  0  0  0
  129.9050   -6.0240  155.9870 C   0  0  0  0  0
  130.7920   -7.2340  156.2860 C   0  0  0  0  0
  130.1450   -8.2360  157.2420 C   0  0  0  0  0
  130.3480   -7.8820  158.7150 C   0  0  0  0  0
  131.7300   -8.2250  159.2630 C   0  0  0  0  0
  132.0630   -7.3510  160.4690 C   0  0  0  0  0
  133.5530   -7.2940  160.8140 C   0  0  0  0  0
  132.3070   -4.1990  156.1090 O   0  0  0  0  0
  133.9190   -7.4600  162.0090 O   0  0  0  0  0
  134.4160   -7.0660  159.9220 O   0  0  0  0  0
  132.2330   -5.6960  151.7880 O   0  0  0  0  0
  127.7350   -7.4540  149.7530 O   0  0  0  0  0
  126.1452  -11.4549  154.5097 H   0  0  0  0  0
  124.4745  -11.3264  153.9068 H   0  0  0  0  0
  125.4263  -12.7968  153.5857 H   0  0  0  0  0
  125.2800  -11.3555  151.6096 H   0  0  0  0  0
  126.9883  -11.4870  152.2261 H   0  0  0  0  0
  126.5055   -9.2748  153.4116 H   0  0  0  0  0
  125.0880   -9.1462  152.3375 H   0  0  0  0  0
  126.7162   -9.6863  150.4591 H   0  0  0  0  0
  127.9973   -9.1357  151.7247 H   0  0  0  0  0
  125.3767   -6.3555  149.9162 H   0  0  0  0  0
  125.2167   -8.0825  149.5126 H   0  0  0  0  0
  124.7278   -7.4951  151.1210 H   0  0  0  0  0
  126.3434   -6.6033  152.6277 H   0  0  0  0  0
  127.1777   -5.5856  151.3571 H   0  0  0  0  0
  128.7955   -7.7057  152.9312 H   0  0  0  0  0
  128.8606   -4.6778  152.5164 H   0  0  0  0  0
  130.7356   -6.8255  153.6790 H   0  0  0  0  0
  131.2365   -4.0245  152.2371 H   0  0  0  0  0
  133.0309   -3.5545  153.4727 H   0  0  0  0  0
  133.4517   -5.2249  153.6849 H   0  0  0  0  0
  129.6781   -4.3106  154.8030 H   0  0  0  0  0
  128.9328   -6.4100  155.6806 H   0  0  0  0  0
  129.8863   -5.4124  156.8891 H   0  0  0  0  0
  131.7020   -6.8664  156.7602 H   0  0  0  0  0
  130.9754   -7.7492  155.3431 H   0  0  0  0  0
  130.6112   -9.2059  157.0685 H   0  0  0  0  0
  129.0726   -8.2331  157.0468 H   0  0  0  0  0
  129.6247   -8.4644  159.2858 H   0  0  0  0  0
  130.2287   -6.8021  158.8031 H   0  0  0  0  0
  132.4720   -8.0490  158.4842 H   0  0  0  0  0
  131.7375   -9.2703  159.5720 H   0  0  0  0  0
  131.5512   -7.7829  161.3290 H   0  0  0  0  0
  131.7515   -6.3354  160.2246 H   0  0  0  0  0
  133.9785   -6.9644  159.0736 H   0  0  0  0  0
  132.8972   -5.1957  151.3083 H   0  0  0  0  0
  127.5640   -8.1269  149.0900 H   0  0  0  0  0
  1  2  1  0  0  0
  2  3  1  0  0  0
  3  4  1  0  0  0
  4  5  1  0  0  0
  5  6  1  0  0  0
  5  7  1  0  0  0
  5 26  1  0  0  0
  7  8  1  0  0  0
  8  9  2  0  0  0
  9 10  1  0  0  0
 10 11  1  0  0  0
 10 14  1  0  0  0
 11 12  1  0  0  0
 11 25  1  0  0  0
 12 13  1  0  0  0
 13 14  1  0  0  0
 13 22  2  0  0  0
 14 15  1  0  0  0
 15 16  1  0  0  0
 16 17  1  0  0  0
 17 18  1  0  0  0
 18 19  1  0  0  0
 19 20  1  0  0  0
 20 21  1  0  0  0
 21 23  2  0  0  0
 21 24  1  0  0  0
  1 27  1  0  0  0
  1 28  1  0  0  0
  1 29  1  0  0  0
  2 30  1  0  0  0
  2 31  1  0  0  0
  3 32  1  0  0  0
  3 33  1  0  0  0
  4 34  1  0  0  0
  4 35  1  0  0  0
  6 36  1  0  0  0
  6 37  1  0  0  0
  6 38  1  0  0  0
  7 39  1  0  0  0
  7 40  1  0  0  0
  8 41  1  0  0  0
  9 42  1  0  0  0
 10 43  1  0  0  0
 11 44  1  0  0  0
 12 45  1  0  0  0
 12 46  1  0  0  0
 14 47  1  0  0  0
 15 48  1  0  0  0
 15 49  1  0  0  0
 16 50  1  0  0  0
 16 51  1  0  0  0
 17 52  1  0  0  0
 17 53  1  0  0  0
 18 54  1  0  0  0
 18 55  1  0  0  0
 19 56  1  0  0  0
 19 57  1  0  0  0
 20 58  1  0  0  0
 20 59  1  0  0  0
 24 60  1  0  0  0
 25 61  1  0  0  0
 26 62  1  0  0  0
M  END
$$$$
