2f9u_ligand
  -I-interpret- 

113116  0  0  0  0  0  0  0  0999 V2000
  192.3850  -10.4450   48.9620 C   0  0  0  0  0
  192.9010  -11.5410   49.1980 O   0  0  0  0  0
  191.1160  -10.0490   49.0680 O   0  0  0  0  0
  190.0660  -10.9010   49.5470 C   0  0  0  0  0
  190.2420  -10.8880   51.0960 C   0  0  0  0  0
  188.7600  -10.1850   49.1290 C   0  0  0  0  0
  190.1160  -12.3080   48.8790 C   0  0  0  0  0
  193.0620   -9.3950   48.5190 N   0  0  0  0  0
  194.5100   -9.3770   48.4160 C   0  0  0  0  0
  194.9300   -8.7540   47.0780 C   0  0  0  0  0
  196.4370   -8.4790   47.0240 C   0  0  0  0  0
  196.8630   -7.8570   45.7040 C   0  0  0  0  0
  196.4370   -8.7340   44.5240 C   0  0  0  0  0
  194.9370   -9.0390   44.5610 C   0  0  0  0  0
  194.5400   -9.6460   45.9040 C   0  0  0  0  0
  195.1130   -8.5280   49.5360 C   0  0  0  0  0
  195.0420   -7.2940   49.4880 O   0  0  0  0  0
  197.2430   -7.4950   51.2240 C   0  0  0  0  0
  197.9690   -7.7590   50.2590 O   0  0  0  0  0
  195.6290   -9.1650   50.5990 N   0  0  0  0  0
  196.2570   -8.5210   51.7570 C   0  0  0  0  0
  196.7880   -9.7020   52.5980 C   0  0  0  0  0
  195.6070  -10.4200   53.2570 C   0  0  0  0  0
  194.8760  -11.0180   52.0590 C   0  0  0  0  0
  195.7560  -10.6320   50.8620 C   0  0  0  0  0
  197.1290  -10.6800   51.4870 C   0  0  0  0  0
  197.1720   -6.2900   51.7750 N   0  0  0  0  0
  198.0320   -5.2030   51.3440 C   0  0  0  0  0
  197.1950   -4.1660   50.5770 C   0  0  0  0  0
  197.4550   -4.1490   49.0720 C   0  0  0  0  0
  196.1850   -4.3950   48.2520 C   0  0  0  0  0
  196.3370   -4.0030   46.7940 C   0  0  0  0  0
  199.1670   -5.6760   53.5550 O   0  0  0  0  0
  198.7800   -4.6370   52.5630 C   0  0  0  0  0
  199.8180   -2.8940   51.4560 O   0  0  0  0  0
  201.1850   -4.6080   51.8750 N   0  0  0  0  0
  202.4250   -3.9030   51.5900 C   0  0  0  0  0
  202.8720   -3.8590   50.1450 C   0  0  0  0  0
  202.1240   -4.1940   49.2260 O   0  0  0  0  0
  200.0050   -4.0110   51.9260 C   0  0  0  0  0
  204.1030   -3.4100   49.9470 N   0  0  0  0  0
  204.6810   -3.3300   48.6210 C   0  0  0  0  0
  204.4270   -2.0210   47.9520 C   0  0  0  0  0
  204.1930   -1.9700   46.5870 C   0  0  0  0  0
  204.0510   -0.7550   45.9470 C   0  0  0  0  0
  204.1420    0.4290   46.6860 C   0  0  0  0  0
  204.3690    0.3790   48.0540 C   0  0  0  0  0
  204.5060   -0.8420   48.6760 C   0  0  0  0  0
  206.2060   -3.3140   48.7520 C   0  0  0  0  0
  206.7480   -2.7720   49.7240 O   0  0  0  0  0
  206.9170   -3.9080   47.7770 N   0  0  0  0  0
  208.3980   -3.8330   47.8450 C   0  0  0  0  0
  206.2890   -4.6380   46.6230 C   0  0  0  0  0
  189.4477  -11.4761   51.5556 H   0  0  0  0  0
  191.2099  -11.3178   51.3540 H   0  0  0  0  0
  190.1911   -9.8610   51.4576 H   0  0  0  0  0
  188.7376  -10.0766   48.0446 H   0  0  0  0  0
  187.9034  -10.7754   49.4541 H   0  0  0  0  0
  188.7220   -9.2002   49.5947 H   0  0  0  0  0
  189.2566  -12.8941   49.2046 H   0  0  0  0  0
  190.0909  -12.1953   47.7951 H   0  0  0  0  0
  191.0353  -12.8153   49.1716 H   0  0  0  0  0
  192.5428   -8.5632   48.2382 H   0  0  0  0  0
  194.8667  -10.4043   48.4903 H   0  0  0  0  0
  194.3994   -7.8051   46.9997 H   0  0  0  0  0
  196.9584   -9.4299   47.1336 H   0  0  0  0  0
  196.6818   -7.7786   47.8225 H   0  0  0  0  0
  197.9488   -7.7617   45.6958 H   0  0  0  0  0
  196.3860   -6.8818   45.6060 H   0  0  0  0  0
  196.9816   -9.6765   44.5812 H   0  0  0  0  0
  196.6569   -8.1989   43.6002 H   0  0  0  0  0
  194.7039   -9.7522   43.7704 H   0  0  0  0  0
  194.3858   -8.1094   44.4189 H   0  0  0  0  0
  193.4567   -9.7659   45.9147 H   0  0  0  0  0
  195.0611  -10.5971   46.0133 H   0  0  0  0  0
  195.6268   -7.9306   52.4221 H   0  0  0  0  0
  197.5485   -9.4049   53.3201 H   0  0  0  0  0
  194.9806   -9.7554   53.8520 H   0  0  0  0  0
  195.9150  -11.1684   53.9871 H   0  0  0  0  0
  193.8578  -10.6407   51.9639 H   0  0  0  0  0
  194.7470  -12.0967   52.1481 H   0  0  0  0  0
  195.5384  -11.2356   49.9809 H   0  0  0  0  0
  197.5144  -11.6570   51.7785 H   0  0  0  0  0
  197.9798  -10.4395   50.8496 H   0  0  0  0  0
  196.4959   -6.1233   52.5203 H   0  0  0  0  0
  198.7974   -5.5484   50.6491 H   0  0  0  0  0
  197.4648   -3.1830   50.9631 H   0  0  0  0  0
  196.1463   -4.4260   50.7212 H   0  0  0  0  0
  198.1610   -4.9477   48.8446 H   0  0  0  0  0
  197.8383   -3.1631   48.8090 H   0  0  0  0  0
  195.3897   -3.7842   48.6794 H   0  0  0  0  0
  195.9673   -5.4624   48.2884 H   0  0  0  0  0
  196.5750   -2.9414   46.7274 H   0  0  0  0  0
  197.1409   -4.5858   46.3443 H   0  0  0  0  0
  195.4039   -4.2012   46.2666 H   0  0  0  0  0
  199.6278   -5.2612   54.2879 H   0  0  0  0  0
  198.1650   -3.9464   53.1400 H   0  0  0  0  0
  201.2271   -5.6130   52.0440 H   0  0  0  0  0
  203.2050   -4.4427   52.1270 H   0  0  0  0  0
  202.2522   -2.8667   51.8803 H   0  0  0  0  0
  204.6582   -3.1129   50.7494 H   0  0  0  0  0
  204.2527   -4.1652   48.0669 H   0  0  0  0  0
  204.1206   -2.8951   46.0151 H   0  0  0  0  0
  203.8692   -0.7187   44.8729 H   0  0  0  0  0
  204.0345    1.3920   46.1868 H   0  0  0  0  0
  204.4384    1.3002   48.6325 H   0  0  0  0  0
  204.6788   -0.8816   49.7515 H   0  0  0  0  0
  208.7089   -2.7885   47.8249 H   0  0  0  0  0
  208.7420   -4.2981   48.7688 H   0  0  0  0  0
  208.8267   -4.3575   46.9910 H   0  0  0  0  0
  205.6846   -5.4622   47.0018 H   0  0  0  0  0
  205.6569   -3.9507   46.0607 H   0  0  0  0  0
  207.0716   -5.0286   45.9726 H   0  0  0  0  0
  1  2  2  0  0  0
  1  3  1  0  0  0
  8  1  1  0  0  0
  3  4  1  0  0  0
  4  5  1  0  0  0
  4  6  1  0  0  0
  4  7  1  0  0  0
  9  8  1  0  0  0
  9 10  1  0  0  0
 16  9  1  0  0  0
 10 11  1  0  0  0
 10 15  1  0  0  0
 11 12  1  0  0  0
 12 13  1  0  0  0
 14 13  1  0  0  0
 15 14  1  0  0  0
 16 17  2  0  0  0
 20 16  1  0  0  0
 18 19  2  0  0  0
 18 21  1  0  0  0
 27 18  1  0  0  0
 21 20  1  0  0  0
 20 25  1  0  0  0
 21 22  1  0  0  0
 22 23  1  0  0  0
 22 26  1  0  0  0
 23 24  1  0  0  0
 25 24  1  0  0  0
 26 25  1  0  0  0
 28 27  1  0  0  0
 28 29  1  0  0  0
 34 28  1  0  0  0
 29 30  1  0  0  0
 30 31  1  0  0  0
 31 32  1  0  0  0
 34 33  1  0  0  0
 40 34  1  0  0  0
 40 35  2  0  0  0
 36 37  1  0  0  0
 36 40  1  0  0  0
 37 38  1  0  0  0
 38 39  2  0  0  0
 38 41  1  0  0  0
 41 42  1  0  0  0
 42 43  1  0  0  0
 42 49  1  0  0  0
 43 44  4  0  0  0
 43 48  4  0  0  0
 44 45  4  0  0  0
 45 46  4  0  0  0
 46 47  4  0  0  0
 47 48  4  0  0  0
 49 50  2  0  0  0
 49 51  1  0  0  0
 51 52  1  0  0  0
 51 53  1  0  0  0
  5 54  1  0  0  0
  5 55  1  0  0  0
  5 56  1  0  0  0
  6 57  1  0  0  0
  6 58  1  0  0  0
  6 59  1  0  0  0
  7 60  1  0  0  0
  7 61  1  0  0  0
  7 62  1  0  0  0
  8 63  1  0  0  0
  9 64  1  0  0  0
 10 65  1  0  0  0
 11 66  1  0  0  0
 11 67  1  0  0  0
 12 68  1  0  0  0
 12 69  1  0  0  0
 13 70  1  0  0  0
 13 71  1  0  0  0
 14 72  1  0  0  0
 14 73  1  0  0  0
 15 74  1  0  0  0
 15 75  1  0  0  0
 21 76  1  0  0  0
 22 77  1  0  0  0
 23 78  1  0  0  0
 23 79  1  0  0  0
 24 80  1  0  0  0
 24 81  1  0  0  0
 25 82  1  0  0  0
 26 83  1  0  0  0
 26 84  1  0  0  0
 27 85  1  0  0  0
 28 86  1  0  0  0
 29 87  1  0  0  0
 29 88  1  0  0  0
 30 89  1  0  0  0
 30 90  1  0  0  0
 31 91  1  0  0  0
 31 92  1  0  0  0
 32 93  1  0  0  0
 32 94  1  0  0  0
 32 95  1  0  0  0
 33 96  1  0  0  0
 34 97  1  0  0  0
 36 98  1  0  0  0
 37 99  1  0  0  0
 37100  1  0  0  0
 41101  1  0  0  0
 42102  1  0  0  0
 44103  1  0  0  0
 45104  1  0  0  0
 46105  1  0  0  0
 47106  1  0  0  0
 48107  1  0  0  0
 52108  1  0  0  0
 52109  1  0  0  0
 52110  1  0  0  0
 53111  1  0  0  0
 53112  1  0  0  0
 53113  1  0  0  0
M  END
$$$$
