3fqe_ligand
  -I-interpret- 

 50 52  0  0  0  0  0  0  0  0999 V2000
    3.5330    2.6840   13.5050 C   0  0  0  0  0
    5.3050    1.7830   14.7320 C   0  0  0  0  0
    2.7880    1.5910   13.8060 N   0  0  0  0  0
    4.5500    0.6520   15.0570 C   0  0  0  0  0
    3.2540    0.5640   14.5730 C   0  0  0  0  0
    5.1530   -0.4330   15.9140 C   0  0  0  0  0
    1.1870   -0.7550   14.5180 C   0  0  0  0  0
    0.5200   -0.0250   13.5260 C   0  0  0  0  0
   -1.4960   -1.3030   13.8770 C   0  0  0  0  0
   -0.8390   -2.0390   14.8610 C   0  0  0  0  0
   -0.8150   -0.2850   13.2020 C   0  0  0  0  0
    0.4910   -1.7640   15.1820 C   0  0  0  0  0
   -1.5670   -3.1500   15.5790 C   0  0  0  0  0
    4.5090   -1.4290   16.2270 O   0  0  0  0  0
    6.4060   -0.2780   16.3260 N   0  0  0  0  0
    2.4880   -0.5280   14.8710 N   0  0  0  0  0
    4.7960    2.7720   13.9710 N   0  0  0  0  0
    3.0250    3.6840   12.7430 N   0  0  0  0  0
    1.6230    3.7360   12.3470 C   0  0  0  0  0
    0.7330    4.3980   13.4230 C   0  0  0  0  0
    1.1730    5.7590   13.7050 N   0  3  0  0  0
   -0.7270    4.4420   12.9710 C   0  0  0  0  0
   -0.8880    5.1070   11.5950 C   0  0  0  0  0
    0.0330    4.5180   10.5260 C   0  0  0  0  0
    1.4930    4.4390   10.9860 C   0  0  0  0  0
    6.3269    1.8666   15.1019 H   0  0  0  0  0
    1.0535    0.7632   12.9949 H   0  0  0  0  0
   -2.5363   -1.5198   13.6344 H   0  0  0  0  0
   -1.3192    0.2991   12.4321 H   0  0  0  0  0
    0.9901   -2.3433   15.9588 H   0  0  0  0  0
   -2.4384   -2.7407   16.0902 H   0  0  0  0  0
   -1.8874   -3.8996   14.8555 H   0  0  0  0  0
   -0.8989   -3.6088   16.3078 H   0  0  0  0  0
    6.8430   -0.9916   16.9093 H   0  0  0  0  0
    6.9313    0.5546   16.0591 H   0  0  0  0  0
    2.9397   -1.2587   15.4209 H   0  0  0  0  0
    3.6488    4.4297   12.4345 H   0  0  0  0  0
    1.2604    2.7129   12.2475 H   0  0  0  0  0
    0.8203    3.7940   14.3262 H   0  0  0  0  0
    0.5688    6.1698   14.4168 H   0  0  0  0  0
    2.1351    5.7408   14.0432 H   0  0  0  0  0
    1.1218    6.3153   12.8516 H   0  0  0  0  0
   -1.2901    5.0266   13.6985 H   0  0  0  0  0
   -1.0905    3.4171   12.8973 H   0  0  0  0  0
   -0.6312    6.1604   11.7065 H   0  0  0  0  0
   -1.9156    4.9452   11.2695 H   0  0  0  0  0
   -0.0090    5.1675    9.6516 H   0  0  0  0  0
   -0.3067    3.5048   10.3112 H   0  0  0  0  0
    2.0550    3.8661   10.2484 H   0  0  0  0  0
    1.8771    5.4542   11.0857 H   0  0  0  0  0
  3  1  4  0  0  0
  1 17  4  0  0  0
  1 18  1  0  0  0
  4  2  4  0  0  0
  2 17  4  0  0  0
  5  3  4  0  0  0
  5  4  4  0  0  0
  4  6  1  0  0  0
 16  5  1  0  0  0
  6 14  2  0  0  0
  6 15  1  0  0  0
  8  7  4  0  0  0
  7 12  4  0  0  0
  7 16  1  0  0  0
 11  8  4  0  0  0
  9 10  4  0  0  0
  9 11  4  0  0  0
 10 12  4  0  0  0
 10 13  1  0  0  0
 18 19  1  0  0  0
 19 20  1  0  0  0
 19 25  1  0  0  0
 20 21  1  0  0  0
 20 22  1  0  0  0
 22 23  1  0  0  0
 23 24  1  0  0  0
 24 25  1  0  0  0
  2 26  1  0  0  0
  8 27  1  0  0  0
  9 28  1  0  0  0
 11 29  1  0  0  0
 12 30  1  0  0  0
 13 31  1  0  0  0
 13 32  1  0  0  0
 13 33  1  0  0  0
 15 34  1  0  0  0
 15 35  1  0  0  0
 16 36  1  0  0  0
 18 37  1  0  0  0
 19 38  1  0  0  0
 20 39  1  0  0  0
 21 40  1  0  0  0
 21 41  1  0  0  0
 21 42  1  0  0  0
 22 43  1  0  0  0
 22 44  1  0  0  0
 23 45  1  0  0  0
 23 46  1  0  0  0
 24 47  1  0  0  0
 24 48  1  0  0  0
 25 49  1  0  0  0
 25 50  1  0  0  0
M  END
$$$$
