5w5v_ligand
  -I-interpret- 

 36 38  0  0  0  0  0  0  0  0999 V2000
  -39.7140  128.3570   -0.1450 N   0  0  0  0  0
  -39.3840  128.9520   -2.4780 N   0  0  0  0  0
  -42.1430  128.2840    8.2750 C   0  0  0  0  0
  -40.9810  129.1090    7.7250 C   0  0  0  0  0
  -39.7260  128.8340    8.5520 C   0  0  0  0  0
  -40.7260  128.7220    6.2700 C   0  0  0  0  0
  -40.9100  129.6580    5.2610 C   0  0  0  0  0
  -40.6760  129.3040    3.9240 C   0  0  0  0  0
  -40.2630  128.0250    3.6120 C   0  0  0  0  0
  -40.0770  127.0800    4.6320 C   0  0  0  0  0
  -40.3090  127.4320    5.9560 C   0  0  0  0  0
  -40.0720  128.6790    1.1390 C   0  0  0  0  0
  -39.7640  129.2960   -1.1200 C   0  0  0  0  0
  -40.1790  130.5900   -0.8210 C   0  0  0  0  0
  -40.5350  130.9130    0.4500 C   0  0  0  0  0
  -40.4840  129.9600    1.4390 C   0  0  0  0  0
  -40.8720  130.3030    2.8360 C   0  0  0  0  0
  -40.2350  131.6480   -1.9210 C   0  0  0  0  0
  -40.0160  127.6510    2.2020 O   0  0  0  0  0
  -41.3350  131.3660    3.0820 O   0  0  0  0  0
  -39.8320  131.3710   -3.0820 O   0  0  0  0  0
  -40.6840  132.7970   -1.6680 O   0  0  0  0  0
  -39.0795  128.0036   -2.6977 H   0  0  0  0  0
  -39.4214  129.6587   -3.2126 H   0  0  0  0  0
  -43.0377  128.4799    7.6840 H   0  0  0  0  0
  -41.8934  127.2245    8.2185 H   0  0  0  0  0
  -42.3241  128.5611    9.3135 H   0  0  0  0  0
  -41.2289  130.1690    7.7811 H   0  0  0  0  0
  -39.4799  127.7737    8.4949 H   0  0  0  0  0
  -38.8970  129.4223    8.1586 H   0  0  0  0  0
  -39.9089  129.1105    9.5904 H   0  0  0  0  0
  -41.2364  130.6682    5.5080 H   0  0  0  0  0
  -39.7505  126.0696    4.3859 H   0  0  0  0  0
  -40.1644  126.6978    6.7486 H   0  0  0  0  0
  -40.8605  131.9264    0.6848 H   0  0  0  0  0
  -39.5244  130.4619   -3.1043 H   0  0  0  0  0
 12  1  4  0  0  0
  1 13  4  0  0  0
 13  2  1  0  0  0
  4  3  1  0  0  0
  4  5  1  0  0  0
  6  4  1  0  0  0
  7  6  4  0  0  0
 11  6  4  0  0  0
  8  7  4  0  0  0
  9  8  4  0  0  0
  8 17  1  0  0  0
  9 10  4  0  0  0
 19  9  1  0  0  0
 10 11  4  0  0  0
 12 16  4  0  0  0
 12 19  1  0  0  0
 13 14  4  0  0  0
 14 15  4  0  0  0
 14 18  1  0  0  0
 15 16  4  0  0  0
 16 17  1  0  0  0
 17 20  2  0  0  0
 18 21  1  0  0  0
 18 22  2  0  0  0
  2 23  1  0  0  0
  2 24  1  0  0  0
  3 25  1  0  0  0
  3 26  1  0  0  0
  3 27  1  0  0  0
  4 28  1  0  0  0
  5 29  1  0  0  0
  5 30  1  0  0  0
  5 31  1  0  0  0
  7 32  1  0  0  0
 10 33  1  0  0  0
 11 34  1  0  0  0
 15 35  1  0  0  0
 21 36  1  0  0  0
M  END
$$$$
