3c3o_ligand
  -I-interpret- 

212213  0  0  0  0  0  0  0  0999 V2000
   37.8880   45.7070    2.4140 N   0  3  0  0  0
   37.7110   44.2300    2.1830 C   0  0  0  0  0
   36.2870   43.7190    2.5040 C   0  0  0  0  0
   35.9750   42.5320    2.3390 O   0  0  0  0  0
   38.7650   43.4460    2.9790 C   0  0  0  0  0
   38.9750   42.0220    2.4620 C   0  0  0  0  0
   38.2670   41.5910    1.5220 O   0  0  0  0  0
   39.8420   41.2620    2.9480 O   0  0  0  0  0
   35.4210   44.6360    2.9290 N   0  0  0  0  0
   34.0270   44.3100    3.2610 C   0  0  0  0  0
   33.1130   44.0870    2.0320 C   0  0  0  0  0
   31.8860   44.2100    2.1290 O   0  0  0  0  0
   33.4380   45.4010    4.1760 C   0  0  0  0  0
   32.4950   44.8560    5.2450 C   0  0  0  0  0
   31.1800   45.6250    5.3670 C   0  0  0  0  0
   30.7400   46.2740    4.3790 O   0  0  0  0  0
   30.5670   45.5620    6.4620 O   0  0  0  0  0
   33.7060   43.7630    0.8840 N   0  0  0  0  0
   32.9210   43.4400   -0.3050 C   0  0  0  0  0
   32.5240   41.9710   -0.2700 C   0  0  0  0  0
   31.3410   41.6540   -0.2250 O   0  0  0  0  0
   33.6710   43.7790   -1.5990 C   0  0  0  0  0
   32.7610   43.9600   -2.8180 C   0  0  0  0  0
   33.5290   44.2190   -4.1220 C   0  0  0  0  0
   33.0620   43.7410   -5.1910 O   0  0  0  0  0
   34.5940   44.9040   -4.1010 O   0  0  0  0  0
   33.5110   41.0780   -0.2700 N   0  0  0  0  0
   33.2560   39.6470   -0.1210 C   0  0  0  0  0
   32.5240   39.2750    1.2000 C   0  0  0  0  0
   31.9740   38.1790    1.3120 O   0  0  0  0  0
   34.5590   38.8640   -0.2820 C   0  0  0  0  0
   32.5160   40.1990    2.1690 N   0  0  0  0  0
   31.7870   40.0690    3.4480 C   0  0  0  0  0
   30.2740   40.1910    3.3330 C   0  0  0  0  0
   29.5540   39.4830    4.0210 O   0  0  0  0  0
   32.2530   41.1140    4.4730 C   0  0  0  0  0
   33.4780   40.9170    5.3660 C   0  0  0  0  0
   33.1620   41.4810    6.7600 C   0  0  0  0  0
   33.9140   39.4450    5.4500 C   0  0  0  0  0
   29.7950   41.1210    2.5040 N   0  0  0  0  0
   28.3620   41.2150    2.1820 C   0  0  0  0  0
   27.8820   39.9830    1.4080 C   0  0  0  0  0
   26.7790   39.4970    1.6400 O   0  0  0  0  0
   28.0640   42.4710    1.3620 C   0  0  0  0  0
   28.5220   43.7860    1.9680 C   0  0  0  0  0
   28.4900   44.8750    0.8980 C   0  0  0  0  0
   28.5580   46.2700    1.4770 C   0  0  0  0  0
   28.1360   47.2260    0.4340 N   0  3  0  0  0
   28.7250   39.4880    0.4980 N   0  0  0  0  0
   28.4510   38.2970   -0.3150 C   0  0  0  0  0
   28.6210   37.0030    0.4860 C   0  0  0  0  0
   28.6350   35.9090   -0.0810 O   0  0  0  0  0
   29.3620   38.2770   -1.5620 C   0  0  0  0  0
   28.8120   38.9840   -2.8530 C   0  0  0  0  0
   29.2100   40.4780   -3.0130 C   0  0  0  0  0
   30.1730   40.8100   -3.7250 O   0  0  0  0  0
   28.4510   41.3680   -2.3760 N   0  0  0  0  0
   28.8200   37.1510    1.7970 N   0  0  0  0  0
   28.7180   36.0630    2.7790 C   0  0  0  0  0
   27.5040   36.2930    3.6730 C   0  0  0  0  0
   26.7040   35.3810    3.8820 O   0  0  0  0  0
   29.9760   35.9490    3.6560 C   0  0  0  0  0
   30.8910   34.7390    3.5110 C   0  0  0  0  0
   31.9990   34.7860    4.5700 C   0  0  0  0  0
   30.1180   33.4300    3.5960 C   0  0  0  0  0
   27.3650   37.5020    4.2090 N   0  0  0  0  0
   26.1570   37.8630    4.9580 C   0  0  0  0  0
   24.8680   37.4460    4.2220 C   0  0  0  0  0
   23.9660   36.8490    4.8250 O   0  0  0  0  0
   26.1420   39.3690    5.2750 C   0  0  0  0  0
   24.8140   37.7410    2.9180 N   0  0  0  0  0
   23.6580   37.4480    2.0590 C   0  0  0  0  0
   23.6950   36.0730    1.3720 C   0  0  0  0  0
   23.4750   35.9540    0.1620 O   0  0  0  0  0
   23.5050   38.5550    1.0220 C   0  0  0  0  0
   23.4420   39.9280    1.6510 C   0  0  0  0  0
   22.7120   40.9090    0.7670 C   0  0  0  0  0
   23.2480   41.2100   -0.3310 O   0  0  0  0  0
   21.6050   41.3670    1.1680 O   0  0  0  0  0
   23.9650   35.0410    2.1570 N   0  0  0  0  0
   23.9930   33.6600    1.6800 C   0  0  0  0  0
   23.0780   32.8820    2.5970 C   0  0  0  0  0
   22.4030   31.9460    2.1810 O   0  0  0  0  0
   25.4280   33.1280    1.7280 C   0  0  0  0  0
   25.6310   31.6470    1.8720 C   0  0  0  0  0
   25.6210   30.7240    0.8780 C   0  0  0  0  0
   25.9590   30.9310    3.0770 C   0  0  0  0  0
   25.9030   29.4650    1.3730 N   0  0  0  0  0
   26.1060   29.5610    2.7270 C   0  0  0  0  0
   26.1350   31.3050    4.4260 C   0  0  0  0  0
   26.4120   28.5630    3.6720 C   0  0  0  0  0
   26.4290   30.3160    5.3620 C   0  0  0  0  0
   26.5790   28.9590    4.9760 C   0  0  0  0  0
   23.0540   33.3070    3.8530 N   0  0  0  0  0
   22.2650   32.6640    4.8740 C   0  0  0  0  0
   20.8930   33.3170    4.7890 C   0  0  0  0  0
   19.9030   32.8180    5.3570 O   0  0  0  0  0
   22.9170   32.8050    6.2760 C   0  0  0  0  0
   22.7620   34.2440    6.8690 C   0  0  0  0  0
   22.3570   31.7690    7.2030 C   0  0  0  0  0
   20.8380   34.4260    4.0470 N   0  0  0  0  0
   19.5670   35.0690    3.7220 C   0  0  0  0  0
   18.7340   34.2480    2.6900 C   0  0  0  0  0
   18.8580   33.0070    2.5780 O   0  0  0  0  0
   19.8140   36.5050    3.2420 C   0  0  0  0  0
   18.6440   37.2880    3.3920 O   0  0  0  0  0
   17.9010   34.8070    1.9490 O   0  0  0  0  0
   37.1847   46.2198    1.8822 H   0  0  0  0  0
   37.7794   45.9099    3.4077 H   0  0  0  0  0
   38.8194   45.9885    2.1081 H   0  0  0  0  0
   37.8529   44.0597    1.1158 H   0  0  0  0  0
   38.4154   43.3751    4.0090 H   0  0  0  0  0
   39.7129   43.9754    2.8824 H   0  0  0  0  0
   37.6496   42.2735    1.2489 H   0  0  0  0  0
   35.7366   45.6009    3.0280 H   0  0  0  0  0
   34.0565   43.3522    3.7805 H   0  0  0  0  0
   32.8624   46.0801    3.5471 H   0  0  0  0  0
   34.2705   45.8829    4.6887 H   0  0  0  0  0
   33.0088   44.9415    6.2025 H   0  0  0  0  0
   32.2456   43.8328    4.9640 H   0  0  0  0  0
   31.3547   46.1944    3.6459 H   0  0  0  0  0
   34.7245   43.7401    0.8343 H   0  0  0  0  0
   32.0210   44.0548   -0.2969 H   0  0  0  0  0
   34.3375   42.9439   -1.8145 H   0  0  0  0  0
   34.1850   44.7263   -1.4359 H   0  0  0  0  0
   32.1310   44.8295   -2.6305 H   0  0  0  0  0
   32.1983   43.0354   -2.9471 H   0  0  0  0  0
   34.7812   45.1749   -3.1992 H   0  0  0  0  0
   34.4723   41.4017   -0.3770 H   0  0  0  0  0
   32.5666   39.3645   -0.9166 H   0  0  0  0  0
   34.9754   39.0535   -1.2713 H   0  0  0  0  0
   35.2699   39.1834    0.4801 H   0  0  0  0  0
   34.3576   37.7987   -0.1691 H   0  0  0  0  0
   33.0511   41.0533    2.0134 H   0  0  0  0  0
   32.0225   39.0562    3.7748 H   0  0  0  0  0
   31.4292   41.1464    5.1860 H   0  0  0  0  0
   32.5340   41.9635    3.8506 H   0  0  0  0  0
   34.3191   41.4535    4.9269 H   0  0  0  0  0
   32.9288   42.5425    6.6768 H   0  0  0  0  0
   32.3065   40.9515    7.1794 H   0  0  0  0  0
   34.0274   41.3476    7.4092 H   0  0  0  0  0
   33.0990   38.8489    5.8605 H   0  0  0  0  0
   34.1633   39.0838    4.4523 H   0  0  0  0  0
   34.7877   39.3625    6.0965 H   0  0  0  0  0
   30.4417   41.7867    2.0808 H   0  0  0  0  0
   27.8258   41.2688    3.1295 H   0  0  0  0  0
   26.9788   42.5330    1.2806 H   0  0  0  0  0
   28.6081   42.3603    0.4240 H   0  0  0  0  0
   29.5381   43.6779    2.3475 H   0  0  0  0  0
   27.8575   44.0606    2.7872 H   0  0  0  0  0
   27.5475   44.7840    0.3581 H   0  0  0  0  0
   29.3606   44.7377    0.2567 H   0  0  0  0  0
   29.5756   46.4923    1.7982 H   0  0  0  0  0
   27.9010   46.3477    2.3432 H   0  0  0  0  0
   28.1757   48.1743    0.8075 H   0  0  0  0  0
   28.7605   47.1491   -0.3688 H   0  0  0  0  0
   27.1813   47.0127    0.1452 H   0  0  0  0  0
   29.6146   39.9674    0.3593 H   0  0  0  0  0
   27.4094   38.3517   -0.6314 H   0  0  0  0  0
   29.4852   37.2266   -1.8256 H   0  0  0  0  0
   30.2632   38.8229   -1.2829 H   0  0  0  0  0
   27.7245   38.9564   -2.7846 H   0  0  0  0  0
   29.2389   38.4544   -3.7047 H   0  0  0  0  0
   28.6513   42.3643   -2.4630 H   0  0  0  0  0
   27.6694   41.0532   -1.8011 H   0  0  0  0  0
   29.0588   38.0813    2.1403 H   0  0  0  0  0
   28.6137   35.1315    2.2226 H   0  0  0  0  0
   29.5954   35.8852    4.6754 H   0  0  0  0  0
   30.5938   36.7975    3.3619 H   0  0  0  0  0
   31.3446   34.7803    2.5207 H   0  0  0  0  0
   32.5851   35.6959    4.4407 H   0  0  0  0  0
   31.5508   34.7792    5.5635 H   0  0  0  0  0
   32.6460   33.9162    4.4559 H   0  0  0  0  0
   29.6179   33.3670    4.5624 H   0  0  0  0  0
   29.3758   33.3953    2.7984 H   0  0  0  0  0
   30.8089   32.5939    3.4878 H   0  0  0  0  0
   28.1105   38.1892    4.0974 H   0  0  0  0  0
   26.1835   37.3089    5.8963 H   0  0  0  0  0
   27.0169   39.6216    5.8740 H   0  0  0  0  0
   26.1618   39.9352    4.3438 H   0  0  0  0  0
   25.2367   39.6130    5.8309 H   0  0  0  0  0
   25.6230   38.1961    2.4951 H   0  0  0  0  0
   22.7923   37.4100    2.7203 H   0  0  0  0  0
   22.5719   38.3870    0.4841 H   0  0  0  0  0
   24.3741   38.5244    0.3649 H   0  0  0  0  0
   24.4605   40.2874    1.7976 H   0  0  0  0  0
   22.9054   39.8500    2.5965 H   0  0  0  0  0
   21.3999   40.9965    2.0296 H   0  0  0  0  0
   24.1629   35.2187    3.1417 H   0  0  0  0  0
   23.6582   33.5714    0.6465 H   0  0  0  0  0
   25.8676   33.5670    2.6236 H   0  0  0  0  0
   25.8625   33.3853    0.7620 H   0  0  0  0  0
   25.4179   30.9455   -0.1698 H   0  0  0  0  0
   26.0427   32.3477    4.7300 H   0  0  0  0  0
   26.5123   27.5177    3.3799 H   0  0  0  0  0
   26.5460   30.5898    6.4105 H   0  0  0  0  0
   26.8323   28.2147    5.7310 H   0  0  0  0  0
   23.6153   34.1201    4.1064 H   0  0  0  0  0
   22.1918   31.5875    4.7192 H   0  0  0  0  0
   23.9883   32.6394    6.1624 H   0  0  0  0  0
   23.2391   34.9632    6.2033 H   0  0  0  0  0
   21.7031   34.4835    6.9659 H   0  0  0  0  0
   23.2362   34.2845    7.8496 H   0  0  0  0  0
   21.2792   31.9062    7.2907 H   0  0  0  0  0
   22.5670   30.7760    6.8055 H   0  0  0  0  0
   22.8190   31.8739    8.1847 H   0  0  0  0  0
   21.7052   34.8344    3.6984 H   0  0  0  0  0
   18.9665   35.1058    4.6309 H   0  0  0  0  0
   19.5235   32.6960    3.1960 H   0  0  0  0  0
   20.0916   36.4826    2.1882 H   0  0  0  0  0
   20.6127   36.9449    3.8393 H   0  0  0  0  0
   18.8171   38.1817    3.0871 H   0  0  0  0  0
  1  2  1  0  0  0
  2  3  1  0  0  0
  2  5  1  0  0  0
  3  4  2  0  0  0
  3  9  1  0  0  0
  5  6  1  0  0  0
  6  7  1  0  0  0
  6  8  2  0  0  0
  9 10  1  0  0  0
 10 11  1  0  0  0
 10 13  1  0  0  0
 11 12  2  0  0  0
 11 18  1  0  0  0
 13 14  1  0  0  0
 14 15  1  0  0  0
 15 16  1  0  0  0
 15 17  2  0  0  0
 18 19  1  0  0  0
 19 20  1  0  0  0
 19 22  1  0  0  0
 20 21  2  0  0  0
 20 27  1  0  0  0
 22 23  1  0  0  0
 23 24  1  0  0  0
 24 25  2  0  0  0
 24 26  1  0  0  0
 27 28  1  0  0  0
 28 29  1  0  0  0
 28 31  1  0  0  0
 29 30  2  0  0  0
 29 32  1  0  0  0
 32 33  1  0  0  0
 33 34  1  0  0  0
 33 36  1  0  0  0
 34 35  2  0  0  0
 34 40  1  0  0  0
 36 37  1  0  0  0
 37 38  1  0  0  0
 37 39  1  0  0  0
 40 41  1  0  0  0
 41 42  1  0  0  0
 41 44  1  0  0  0
 42 43  2  0  0  0
 42 49  1  0  0  0
 44 45  1  0  0  0
 45 46  1  0  0  0
 46 47  1  0  0  0
 47 48  1  0  0  0
 49 50  1  0  0  0
 50 51  1  0  0  0
 50 53  1  0  0  0
 51 52  2  0  0  0
 51 58  1  0  0  0
 53 54  1  0  0  0
 54 55  1  0  0  0
 55 56  2  0  0  0
 55 57  1  0  0  0
 58 59  1  0  0  0
 59 60  1  0  0  0
 59 62  1  0  0  0
 60 61  2  0  0  0
 60 66  1  0  0  0
 62 63  1  0  0  0
 63 64  1  0  0  0
 63 65  1  0  0  0
 66 67  1  0  0  0
 67 68  1  0  0  0
 67 70  1  0  0  0
 68 69  2  0  0  0
 68 71  1  0  0  0
 71 72  1  0  0  0
 72 73  1  0  0  0
 72 75  1  0  0  0
 73 74  2  0  0  0
 73 80  1  0  0  0
 75 76  1  0  0  0
 76 77  1  0  0  0
 77 78  2  0  0  0
 77 79  1  0  0  0
 80 81  1  0  0  0
 81 82  1  0  0  0
 81 84  1  0  0  0
 82 83  2  0  0  0
 82 94  1  0  0  0
 84 85  1  0  0  0
 85 86  4  0  0  0
 85 87  4  0  0  0
 86 88  4  0  0  0
 87 89  4  0  0  0
 87 90  4  0  0  0
 88 89  4  0  0  0
 89 91  4  0  0  0
 90 92  4  0  0  0
 91 93  4  0  0  0
 92 93  4  0  0  0
 94 95  1  0  0  0
 95 96  1  0  0  0
 95 98  1  0  0  0
 96 97  2  0  0  0
 96101  1  0  0  0
 98 99  1  0  0  0
 98100  1  0  0  0
101102  1  0  0  0
102103  1  0  0  0
102105  1  0  0  0
103104  1  0  0  0
103107  2  0  0  0
105106  1  0  0  0
  1108  1  0  0  0
  1109  1  0  0  0
  1110  1  0  0  0
  2111  1  0  0  0
  5112  1  0  0  0
  5113  1  0  0  0
  7114  1  0  0  0
  9115  1  0  0  0
 10116  1  0  0  0
 13117  1  0  0  0
 13118  1  0  0  0
 14119  1  0  0  0
 14120  1  0  0  0
 16121  1  0  0  0
 18122  1  0  0  0
 19123  1  0  0  0
 22124  1  0  0  0
 22125  1  0  0  0
 23126  1  0  0  0
 23127  1  0  0  0
 26128  1  0  0  0
 27129  1  0  0  0
 28130  1  0  0  0
 31131  1  0  0  0
 31132  1  0  0  0
 31133  1  0  0  0
 32134  1  0  0  0
 33135  1  0  0  0
 36136  1  0  0  0
 36137  1  0  0  0
 37138  1  0  0  0
 38139  1  0  0  0
 38140  1  0  0  0
 38141  1  0  0  0
 39142  1  0  0  0
 39143  1  0  0  0
 39144  1  0  0  0
 40145  1  0  0  0
 41146  1  0  0  0
 44147  1  0  0  0
 44148  1  0  0  0
 45149  1  0  0  0
 45150  1  0  0  0
 46151  1  0  0  0
 46152  1  0  0  0
 47153  1  0  0  0
 47154  1  0  0  0
 48155  1  0  0  0
 48156  1  0  0  0
 48157  1  0  0  0
 49158  1  0  0  0
 50159  1  0  0  0
 53160  1  0  0  0
 53161  1  0  0  0
 54162  1  0  0  0
 54163  1  0  0  0
 57164  1  0  0  0
 57165  1  0  0  0
 58166  1  0  0  0
 59167  1  0  0  0
 62168  1  0  0  0
 62169  1  0  0  0
 63170  1  0  0  0
 64171  1  0  0  0
 64172  1  0  0  0
 64173  1  0  0  0
 65174  1  0  0  0
 65175  1  0  0  0
 65176  1  0  0  0
 66177  1  0  0  0
 67178  1  0  0  0
 70179  1  0  0  0
 70180  1  0  0  0
 70181  1  0  0  0
 71182  1  0  0  0
 72183  1  0  0  0
 75184  1  0  0  0
 75185  1  0  0  0
 76186  1  0  0  0
 76187  1  0  0  0
 79188  1  0  0  0
 80189  1  0  0  0
 81190  1  0  0  0
 84191  1  0  0  0
 84192  1  0  0  0
 86193  1  0  0  0
 90194  1  0  0  0
 91195  1  0  0  0
 92196  1  0  0  0
 93197  1  0  0  0
 94198  1  0  0  0
 95199  1  0  0  0
 98200  1  0  0  0
 99201  1  0  0  0
 99202  1  0  0  0
 99203  1  0  0  0
100204  1  0  0  0
100205  1  0  0  0
100206  1  0  0  0
101207  1  0  0  0
102208  1  0  0  0
104209  1  0  0  0
105210  1  0  0  0
105211  1  0  0  0
106212  1  0  0  0
M  END
$$$$
