### 
### Created by X-TOOL on Mon Sep 10 21:12:58 2018
### 

@<TRIPOS>MOLECULE
3c3o_ligand
  208   209     1     0     0
SMALL
GAST_HUCK


@<TRIPOS>ATOM
      1 N          37.8880   45.7070    2.4140 N.4       1 ASP         0.2391
      2 CA         37.7110   44.2300    2.1830 C.3       1 ASP         0.0764
      3 C          36.2870   43.7190    2.5040 C.2       1 ASP         0.2284
      4 O          35.9750   42.5320    2.3390 O.2       1 ASP        -0.3906
      5 CB         38.7650   43.4460    2.9790 C.3       1 ASP         0.0607
      6 CG         38.9750   42.0220    2.4620 C.2       1 ASP         0.0425
      7 OD1        38.2670   41.5910    1.5220 O.co2     1 ASP        -0.5686
      8 OD2        39.8420   41.2620    2.9480 O.co2     1 ASP        -0.5686
      9 N          35.4210   44.6360    2.9290 N.am      1 GLU        -0.2608
     10 CA         34.0270   44.3100    3.2610 C.3       1 GLU         0.1326
     11 C          33.1130   44.0870    2.0320 C.2       1 GLU         0.2040
     12 O          31.8860   44.2100    2.1290 O.2       1 GLU        -0.3944
     13 CB         33.4380   45.4010    4.1760 C.3       1 GLU        -0.0008
     14 CG         32.4950   44.8560    5.2450 C.3       1 GLU         0.0044
     15 CD         31.1800   45.6250    5.3670 C.2       1 GLU         0.0350
     16 OE1        30.7400   46.2740    4.3790 O.co2     1 GLU        -0.5690
     17 OE2        30.5670   45.5620    6.4620 O.co2     1 GLU        -0.5690
     18 N          33.7060   43.7630    0.8840 N.am      1 GLU        -0.2636
     19 CA         32.9210   43.4400   -0.3050 C.3       1 GLU         0.1325
     20 C          32.5240   41.9710   -0.2700 C.2       1 GLU         0.2040
     21 O          31.3410   41.6540   -0.2250 O.2       1 GLU        -0.3944
     22 CB         33.6710   43.7790   -1.5990 C.3       1 GLU        -0.0008
     23 CG         32.7610   43.9600   -2.8180 C.3       1 GLU         0.0044
     24 CD         33.5290   44.2190   -4.1220 C.2       1 GLU         0.0350
     25 OE1        33.0620   43.7410   -5.1910 O.co2     1 GLU        -0.5690
     26 OE2        34.5940   44.9040   -4.1010 O.co2     1 GLU        -0.5690
     27 N          33.5110   41.0780   -0.2700 N.am      1 ALA        -0.2640
     28 CA         33.2560   39.6470   -0.1210 C.3       1 ALA         0.1282
     29 C          32.5240   39.2750    1.2000 C.2       1 ALA         0.2036
     30 O          31.9740   38.1790    1.3120 O.2       1 ALA        -0.3944
     31 CB         34.5590   38.8640   -0.2820 C.3       1 ALA        -0.0244
     32 N          32.5160   40.1990    2.1690 N.am      1 LEU        -0.2637
     33 CA         31.7870   40.0690    3.4480 C.3       1 LEU         0.1312
     34 C          30.2740   40.1910    3.3330 C.2       1 LEU         0.2039
     35 O          29.5540   39.4830    4.0210 O.2       1 LEU        -0.3944
     36 CB         32.2530   41.1140    4.4730 C.3       1 LEU        -0.0101
     37 CG         33.4780   40.9170    5.3660 C.3       1 LEU        -0.0425
     38 CD1        33.1620   41.4810    6.7600 C.3       1 LEU        -0.0625
     39 CD2        33.9140   39.4450    5.4500 C.3       1 LEU        -0.0625
     40 N          29.7950   41.1210    2.5040 N.am      1 LYS        -0.2637
     41 CA         28.3620   41.2150    2.1820 C.3       1 LYS         0.1310
     42 C          27.8820   39.9830    1.4080 C.2       1 LYS         0.2039
     43 O          26.7790   39.4970    1.6400 O.2       1 LYS        -0.3944
     44 CB         28.0640   42.4710    1.3620 C.3       1 LYS        -0.0122
     45 CG         28.5220   43.7860    1.9680 C.3       1 LYS        -0.0440
     46 CD         28.4900   44.8750    0.8980 C.3       1 LYS        -0.0124
     47 CE         28.5580   46.2700    1.4770 C.3       1 LYS        -0.0354
     48 NZ         28.1360   47.2260    0.4340 N.4       1 LYS         0.2185
     49 N          28.7250   39.4880    0.4980 N.am      1 GLN        -0.2636
     50 CA         28.4510   38.2970   -0.3150 C.3       1 GLN         0.1330
     51 C          28.6210   37.0030    0.4860 C.2       1 GLN         0.2040
     52 O          28.6350   35.9090   -0.0810 O.2       1 GLN        -0.3944
     53 CB         29.3620   38.2770   -1.5620 C.3       1 GLN         0.0045
     54 CG         28.8120   38.9840   -2.8530 C.3       1 GLN         0.0412
     55 CD         29.2100   40.4780   -3.0130 C.2       1 GLN         0.1737
     56 OE1        30.1730   40.8100   -3.7250 O.2       1 GLN        -0.3973
     57 NE2        28.4510   41.3680   -2.3760 N.am      1 GLN        -0.3009
     58 N          28.8200   37.1510    1.7970 N.am      1 LEU        -0.2637
     59 CA         28.7180   36.0630    2.7790 C.3       1 LEU         0.1312
     60 C          27.5040   36.2930    3.6730 C.2       1 LEU         0.2039
     61 O          26.7040   35.3810    3.8820 O.2       1 LEU        -0.3944
     62 CB         29.9760   35.9490    3.6560 C.3       1 LEU        -0.0101
     63 CG         30.8910   34.7390    3.5110 C.3       1 LEU        -0.0425
     64 CD1        31.9990   34.7860    4.5700 C.3       1 LEU        -0.0625
     65 CD2        30.1180   33.4300    3.5960 C.3       1 LEU        -0.0625
     66 N          27.3650   37.5020    4.2090 N.am      1 ALA        -0.2640
     67 CA         26.1570   37.8630    4.9580 C.3       1 ALA         0.1282
     68 C          24.8680   37.4460    4.2220 C.2       1 ALA         0.2036
     69 O          23.9660   36.8490    4.8250 O.2       1 ALA        -0.3944
     70 CB         26.1420   39.3690    5.2750 C.3       1 ALA        -0.0244
     71 N          24.8140   37.7410    2.9180 N.am      1 GLU        -0.2636
     72 CA         23.6580   37.4480    2.0590 C.3       1 GLU         0.1325
     73 C          23.6950   36.0730    1.3720 C.2       1 GLU         0.2041
     74 O          23.4750   35.9540    0.1620 O.2       1 GLU        -0.3944
     75 CB         23.5050   38.5550    1.0220 C.3       1 GLU        -0.0008
     76 CG         23.4420   39.9280    1.6510 C.3       1 GLU         0.0044
     77 CD         22.7120   40.9090    0.7670 C.2       1 GLU         0.0350
     78 OE1        23.2480   41.2100   -0.3310 O.co2     1 GLU        -0.5690
     79 OE2        21.6050   41.3670    1.1680 O.co2     1 GLU        -0.5690
     80 N          23.9650   35.0410    2.1570 N.am      1 TRP        -0.2627
     81 CA         23.9930   33.6600    1.6800 C.3       1 TRP         0.1352
     82 C          23.0780   32.8820    2.5970 C.2       1 TRP         0.2052
     83 O          22.4030   31.9460    2.1810 O.2       1 TRP        -0.3942
     84 CB         25.4280   33.1280    1.7280 C.3       1 TRP         0.0042
     85 CG         25.6310   31.6470    1.8720 C.2       1 TRP        -0.0418
     86 CD1        25.6210   30.7240    0.8780 C.2       1 TRP         0.0167
     87 CD2        25.9590   30.9310    3.0770 C.ar      1 TRP        -0.0214
     88 NE1        25.9030   29.4650    1.3730 N.pl3     1 TRP        -0.2890
     89 CE2        26.1060   29.5610    2.7270 C.ar      1 TRP         0.0603
     90 CE3        26.1350   31.3050    4.4260 C.ar      1 TRP        -0.0747
     91 CZ2        26.4120   28.5630    3.6720 C.ar      1 TRP        -0.0443
     92 CZ3        26.4290   30.3160    5.3620 C.ar      1 TRP        -0.0792
     93 CH2        26.5790   28.9590    4.9760 C.ar      1 TRP        -0.0768
     94 N          23.0540   33.3070    3.8530 N.am      1 VAL        -0.2634
     95 CA         22.2650   32.6640    4.8740 C.3       1 VAL         0.1332
     96 C          20.8930   33.3170    4.7890 C.2       1 VAL         0.2037
     97 O          19.9030   32.8180    5.3570 O.2       1 VAL        -0.3944
     98 CB         22.9170   32.8050    6.2760 C.3       1 VAL        -0.0063
     99 CG1        22.7620   34.2440    6.8690 C.3       1 VAL        -0.0584
    100 CG2        22.3570   31.7690    7.2030 C.3       1 VAL        -0.0584
    101 N          20.8380   34.4260    4.0470 N.am      1 SER        -0.2672
    102 CA         19.5670   35.0690    3.7220 C.3       1 SER         0.1173
    103 C          18.7340   34.2480    2.6900 C.2       1 SER         0.0623
    104 O          18.8580   33.0070    2.5780 O.co2     1 SER        -0.5665
    105 CB         19.8140   36.5050    3.2420 C.3       1 SER         0.0789
    106 OG         18.6440   37.2880    3.3920 O.3       1 SER        -0.3910
    107 OXT        17.9010   34.8070    1.9490 O.co2     1 SER        -0.5665
    108 H1         38.8337   45.9717    2.1865 H         1 ASP         0.2016
    109 H2         37.7029   45.9203    3.3816 H         1 ASP         0.2016
    110 H3         37.2460   46.2180    1.8285 H         1 ASP         0.2016
    111 H4         37.8885   44.0429    1.1137 H         1 ASP         0.1117
    112 H5         38.4415   43.3924    4.0290 H         1 ASP         0.0512
    113 H6         39.7219   43.9849    2.9171 H         1 ASP         0.0512
    114 H7         35.7304   45.5820    3.0260 H         1 GLU         0.1885
    115 H8         34.0415   43.3665    3.8263 H         1 GLU         0.0801
    116 H9         32.8809   46.1153    3.5519 H         1 GLU         0.0330
    117 H10        34.2681   45.9210    4.6765 H         1 GLU         0.0330
    118 H11        33.0113   44.8983    6.2154 H         1 GLU         0.0433
    119 H12        32.2617   43.8095    4.9991 H         1 GLU         0.0433
    120 H13        34.7046   43.7405    0.8353 H         1 GLU         0.1883
    121 H14        32.0027   44.0451   -0.2817 H         1 GLU         0.0801
    122 H15        34.3775   42.9635   -1.8130 H         1 GLU         0.0330
    123 H16        34.2277   44.7145   -1.4411 H         1 GLU         0.0330
    124 H17        32.0942   44.8146   -2.6310 H         1 GLU         0.0433
    125 H18        32.1606   43.0469   -2.9430 H         1 GLU         0.0433
    126 H19        34.4535   41.3953   -0.3749 H         1 ALA         0.1883
    127 H20        32.5901   39.3515   -0.9452 H         1 ALA         0.0797
    128 H21        34.3570   37.7887   -0.1683 H         1 ALA         0.0277
    129 H22        35.2773   39.1854    0.4866 H         1 ALA         0.0277
    130 H23        34.9803   39.0544   -1.2801 H         1 ALA         0.0277
    131 H24        33.0406   41.0366    2.0164 H         1 LEU         0.1883
    132 H25        32.0135   39.0686    3.8453 H         1 LEU         0.0800
    133 H26        31.4036   41.2698    5.1543 H         1 LEU         0.0315
    134 H27        32.4393   42.0358    3.9024 H         1 LEU         0.0315
    135 H28        34.3131   41.4905    4.9375 H         1 LEU         0.0298
    136 H29        34.0346   41.3470    7.4162 H         1 LEU         0.0232
    137 H30        32.2988   40.9474    7.1844 H         1 LEU         0.0232
    138 H31        32.9265   42.5523    6.6774 H         1 LEU         0.0232
    139 H32        34.1330   39.0693    4.4396 H         1 LEU         0.0232
    140 H33        33.1050   38.8478    5.8958 H         1 LEU         0.0232
    141 H34        34.8159   39.3648    6.0745 H         1 LEU         0.0232
    142 H35        30.4290   41.7736    2.0891 H         1 LYS         0.1883
    143 H36        27.8021   41.2732    3.1271 H         1 LYS         0.0800
    144 H37        26.9750   42.5282    1.2177 H         1 LYS         0.0312
    145 H38        28.5580   42.3604    0.3854 H         1 LYS         0.0312
    146 H39        29.5477   43.6767    2.3500 H         1 LYS         0.0269
    147 H40        27.8506   44.0632    2.7941 H         1 LYS         0.0269
    148 H41        27.5557   44.7776    0.3257 H         1 LYS         0.0317
    149 H42        29.3486   44.7318    0.2255 H         1 LYS         0.0317
    150 H43        29.5885   46.4927    1.7906 H         1 LYS         0.0813
    151 H44        27.8862   46.3457    2.3447 H         1 LYS         0.0813
    152 H45        28.1748   48.1636    0.8021 H         1 LYS         0.1994
    153 H46        27.1925   47.0163    0.1478 H         1 LYS         0.1994
    154 H47        28.7525   47.1509   -0.3599 H         1 LYS         0.1994
    155 H48        29.5971   39.9580    0.3621 H         1 GLN         0.1883
    156 H49        27.4056   38.3512   -0.6528 H         1 GLN         0.0801
    157 H50        29.5554   37.2243   -1.8160 H         1 GLN         0.0337
    158 H51        30.3080   38.7686   -1.2909 H         1 GLN         0.0337
    159 H52        27.7138   38.9254   -2.8308 H         1 GLN         0.0504
    160 H53        29.1909   38.4359   -3.7282 H         1 GLN         0.0504
    161 H54        28.6607   42.3434   -2.4436 H         1 GLN         0.1814
    162 H55        27.6715   41.0608   -1.8302 H         1 GLN         0.1814
    163 H56        29.0541   38.0631    2.1335 H         1 LEU         0.1883
    164 H57        28.5868   35.1163    2.2344 H         1 LEU         0.0800
    165 H58        29.6381   35.9696    4.7026 H         1 LEU         0.0315
    166 H59        30.5893   36.8389    3.4511 H         1 LEU         0.0315
    167 H60        31.3627   34.7876    2.5185 H         1 LEU         0.0298
    168 H61        32.6527   33.9087    4.4559 H         1 LEU         0.0232
    169 H62        31.5479   34.7791    5.5732 H         1 LEU         0.0232
    170 H63        32.5913   35.7038    4.4405 H         1 LEU         0.0232
    171 H64        29.3301   33.4190    2.8285 H         1 LEU         0.0232
    172 H65        29.6607   33.3382    4.5922 H         1 LEU         0.0232
    173 H66        30.8047   32.5871    3.4286 H         1 LEU         0.0232
    174 H67        28.0958   38.1757    4.0996 H         1 ALA         0.1883
    175 H68        26.1841   37.3182    5.9132 H         1 ALA         0.0797
    176 H69        25.2288   39.6165    5.8360 H         1 ALA         0.0277
    177 H70        26.1619   39.9416    4.3360 H         1 ALA         0.0277
    178 H71        27.0245   39.6253    5.8796 H         1 ALA         0.0277
    179 H72        25.6071   38.1872    2.5034 H         1 GLU         0.1883
    180 H73        22.7660   37.4599    2.7025 H         1 GLU         0.0801
    181 H74        22.5779   38.3830    0.4555 H         1 GLU         0.0330
    182 H75        24.3651   38.5192    0.3373 H         1 GLU         0.0330
    183 H76        24.4665   40.2917    1.8184 H         1 GLU         0.0433
    184 H77        22.9165   39.8558    2.6146 H         1 GLU         0.0433
    185 H78        24.1590   35.2152    3.1224 H         1 TRP         0.1884
    186 H79        23.6215   33.6054    0.6461 H         1 TRP         0.0815
    187 H80        25.9263   33.6101    2.5820 H         1 TRP         0.0397
    188 H81        25.9214   33.4356    0.7942 H         1 TRP         0.0397
    189 H82        25.4181   30.9453   -0.1688 H         1 TRP         0.0795
    190 H83        25.9526   28.5987    0.8181 H         1 TRP         0.2216
    191 H84        26.0432   32.3420    4.7283 H         1 TRP         0.0540
    192 H85        26.5118   27.5234    3.3815 H         1 TRP         0.0541
    193 H86        26.5453   30.5883    6.4048 H         1 TRP         0.0510
    194 H87        26.8309   28.2188    5.7268 H         1 TRP         0.0530
    195 H88        23.6043   34.1041    4.1014 H         1 VAL         0.1883
    196 H89        22.1722   31.5916    4.6475 H         1 VAL         0.0802
    197 H90        23.9939   32.6110    6.1638 H         1 VAL         0.0343
    198 H91        23.2402   34.2862    7.8587 H         1 VAL         0.0234
    199 H92        21.6937   34.4870    6.9673 H         1 VAL         0.0234
    200 H93        23.2432   34.9709    6.1981 H         1 VAL         0.0234
    201 H94        22.4820   30.7715    6.7565 H         1 VAL         0.0234
    202 H95        21.2874   31.9650    7.3688 H         1 VAL         0.0234
    203 H96        22.8906   31.8100    8.1640 H         1 VAL         0.0234
    204 H97        21.6882   34.8264    3.7052 H         1 SER         0.1876
    205 H98        18.9758   35.1234    4.6480 H         1 SER         0.0749
    206 H99        20.1034   36.4869    2.1809 H         1 SER         0.0599
    207 H100       20.6257   36.9503    3.8360 H         1 SER         0.0599
    208 H101       17.9415   36.9074    2.8780 H         1 SER         0.2096
@<TRIPOS>BOND
     1    1    2 1  
     2    2    3 1  
     3    2    5 1  
     4    3    4 2  
     5    3    9 am 
     6    5    6 1  
     7    6    7 ar 
     8    6    8 ar 
     9    9   10 1  
    10   10   11 1  
    11   10   13 1  
    12   11   12 2  
    13   11   18 am 
    14   13   14 1  
    15   14   15 1  
    16   15   16 ar 
    17   15   17 ar 
    18   18   19 1  
    19   19   20 1  
    20   19   22 1  
    21   20   21 2  
    22   20   27 am 
    23   22   23 1  
    24   23   24 1  
    25   24   25 ar 
    26   24   26 ar 
    27   27   28 1  
    28   28   29 1  
    29   28   31 1  
    30   29   30 2  
    31   29   32 am 
    32   32   33 1  
    33   33   34 1  
    34   33   36 1  
    35   34   35 2  
    36   34   40 am 
    37   36   37 1  
    38   37   38 1  
    39   37   39 1  
    40   40   41 1  
    41   41   42 1  
    42   41   44 1  
    43   42   43 2  
    44   42   49 am 
    45   44   45 1  
    46   45   46 1  
    47   46   47 1  
    48   47   48 1  
    49   49   50 1  
    50   50   51 1  
    51   50   53 1  
    52   51   52 2  
    53   51   58 am 
    54   53   54 1  
    55   54   55 1  
    56   55   56 2  
    57   55   57 am 
    58   58   59 1  
    59   59   60 1  
    60   59   62 1  
    61   60   61 2  
    62   60   66 am 
    63   62   63 1  
    64   63   64 1  
    65   63   65 1  
    66   66   67 1  
    67   67   68 1  
    68   67   70 1  
    69   68   69 2  
    70   68   71 am 
    71   71   72 1  
    72   72   73 1  
    73   72   75 1  
    74   73   74 2  
    75   73   80 am 
    76   75   76 1  
    77   76   77 1  
    78   77   78 ar 
    79   77   79 ar 
    80   80   81 1  
    81   81   82 1  
    82   81   84 1  
    83   82   83 2  
    84   82   94 am 
    85   84   85 1  
    86   85   86 2  
    87   85   87 1  
    88   86   88 1  
    89   87   89 ar 
    90   87   90 ar 
    91   88   89 1  
    92   89   91 ar 
    93   90   92 ar 
    94   91   93 ar 
    95   92   93 ar 
    96   94   95 1  
    97   95   96 1  
    98   95   98 1  
    99   96   97 2  
   100   96  101 am 
   101   98   99 1  
   102   98  100 1  
   103  101  102 1  
   104  102  103 1  
   105  102  105 1  
   106  103  104 ar 
   107  103  107 ar 
   108  105  106 1  
   109    1  108 1  
   110    1  109 1  
   111    1  110 1  
   112    2  111 1  
   113    5  112 1  
   114    5  113 1  
   115    9  114 1  
   116   10  115 1  
   117   13  116 1  
   118   13  117 1  
   119   14  118 1  
   120   14  119 1  
   121   18  120 1  
   122   19  121 1  
   123   22  122 1  
   124   22  123 1  
   125   23  124 1  
   126   23  125 1  
   127   27  126 1  
   128   28  127 1  
   129   31  128 1  
   130   31  129 1  
   131   31  130 1  
   132   32  131 1  
   133   33  132 1  
   134   36  133 1  
   135   36  134 1  
   136   37  135 1  
   137   38  136 1  
   138   38  137 1  
   139   38  138 1  
   140   39  139 1  
   141   39  140 1  
   142   39  141 1  
   143   40  142 1  
   144   41  143 1  
   145   44  144 1  
   146   44  145 1  
   147   45  146 1  
   148   45  147 1  
   149   46  148 1  
   150   46  149 1  
   151   47  150 1  
   152   47  151 1  
   153   48  152 1  
   154   48  153 1  
   155   48  154 1  
   156   49  155 1  
   157   50  156 1  
   158   53  157 1  
   159   53  158 1  
   160   54  159 1  
   161   54  160 1  
   162   57  161 1  
   163   57  162 1  
   164   58  163 1  
   165   59  164 1  
   166   62  165 1  
   167   62  166 1  
   168   63  167 1  
   169   64  168 1  
   170   64  169 1  
   171   64  170 1  
   172   65  171 1  
   173   65  172 1  
   174   65  173 1  
   175   66  174 1  
   176   67  175 1  
   177   70  176 1  
   178   70  177 1  
   179   70  178 1  
   180   71  179 1  
   181   72  180 1  
   182   75  181 1  
   183   75  182 1  
   184   76  183 1  
   185   76  184 1  
   186   80  185 1  
   187   81  186 1  
   188   84  187 1  
   189   84  188 1  
   190   86  189 1  
   191   88  190 1  
   192   90  191 1  
   193   91  192 1  
   194   92  193 1  
   195   93  194 1  
   196   94  195 1  
   197   95  196 1  
   198   98  197 1  
   199   99  198 1  
   200   99  199 1  
   201   99  200 1  
   202  100  201 1  
   203  100  202 1  
   204  100  203 1  
   205  101  204 1  
   206  102  205 1  
   207  105  206 1  
   208  105  207 1  
   209  106  208 1  
@<TRIPOS>SUBSTRUCTURE
     1 ASP         1

