2bjm_ligand
  -I-interpret- 

 25 27  0  0  0  0  0  0  0  0999 V2000
   37.9990   76.6160   31.7380 C   0  0  0  0  0
   38.3950   77.9470   31.6960 C   0  0  0  0  0
   39.6240   78.3030   32.2400 C   0  0  0  0  0
   40.4690   77.3730   32.8280 C   0  0  0  0  0
   41.3660   72.8260   34.0850 C   0  0  0  0  0
   40.9900   71.4860   34.1350 C   0  0  0  0  0
   39.7680   71.0880   33.5970 C   0  0  0  0  0
   38.9250   72.0330   33.0130 C   0  0  0  0  0
   38.4640   74.3310   32.3780 C   0  0  0  0  0
   37.3900   74.0020   31.9010 O   0  0  0  0  0
   40.9040   75.1020   33.4520 C   0  0  0  0  0
   40.5220   73.7670   33.5000 C   0  0  0  0  0
   39.2970   73.3760   32.9620 C   0  0  0  0  0
   38.8400   75.6680   32.3250 C   0  0  0  0  0
   40.0690   76.0460   32.8680 C   0  0  0  0  0
   37.0402   76.3142   31.3164 H   0  0  0  0  0
   37.7515   78.7013   31.2431 H   0  0  0  0  0
   39.9339   79.3474   32.2033 H   0  0  0  0  0
   41.4266   77.6789   33.2494 H   0  0  0  0  0
   42.3222   73.1389   34.5043 H   0  0  0  0  0
   41.6503   70.7502   34.5940 H   0  0  0  0  0
   39.4714   70.0397   33.6325 H   0  0  0  0  0
   37.9689   71.7198   32.5936 H   0  0  0  0  0
   36.9489   74.7764   31.5442 H   0  0  0  0  0
   41.8611   75.4092   33.8736 H   0  0  0  0  0
  1  2  4  0  0  0
 14  1  4  0  0  0
  2  3  4  0  0  0
  3  4  4  0  0  0
  4 15  4  0  0  0
  6  5  4  0  0  0
  5 12  4  0  0  0
  7  6  4  0  0  0
  8  7  4  0  0  0
 13  8  4  0  0  0
  9 10  1  0  0  0
  9 13  4  0  0  0
  9 14  4  0  0  0
 12 11  4  0  0  0
 11 15  4  0  0  0
 12 13  4  0  0  0
 14 15  4  0  0  0
  1 16  1  0  0  0
  2 17  1  0  0  0
  3 18  1  0  0  0
  4 19  1  0  0  0
  5 20  1  0  0  0
  6 21  1  0  0  0
  7 22  1  0  0  0
  8 23  1  0  0  0
 10 24  1  0  0  0
 11 25  1  0  0  0
M  END
$$$$
