6anl_ligand
  -I-interpret- 

 50 53  0  0  0  0  0  0  0  0999 V2000
   12.7990    4.8520   -4.3540 O   0  0  0  0  0
   12.8860    5.0040   -5.5660 C   0  0  0  0  0
   11.6440    5.0330   -6.3870 C   0  0  0  0  0
   11.6050    5.7290   -7.6130 C   0  0  0  0  0
   10.4420    5.7480   -8.3770 C   0  0  0  0  0
    9.3050    5.0800   -7.9280 C   0  0  0  0  0
    9.3270    4.3850   -6.7190 C   0  0  0  0  0
   10.4850    4.3570   -5.9490 C   0  0  0  0  0
   14.0890    5.1460   -6.1910 N   0  0  0  0  0
   15.3770    5.1360   -5.6380 C   0  0  0  0  0
   15.6260    5.2140   -4.2640 C   0  0  0  0  0
   16.4010    5.0380   -6.4860 N   0  0  0  0  0
   17.6660    5.0120   -6.0820 C   0  0  0  0  0
   17.9890    5.0750   -4.7350 C   0  0  0  0  0
   16.9510    5.2000   -3.7860 C   0  0  0  0  0
   17.1950    5.2460   -2.3270 C   0  0  0  0  0
   16.0180    4.5810   -1.2000 S   0  0  0  0  0
   17.0060    4.9760    0.1340 C   0  0  0  0  0
   16.6740    4.7120    1.5870 C   0  0  0  0  0
   15.3110    4.0260    1.7290 C   0  0  0  0  0
   18.0880    5.5380   -0.2710 N   0  0  0  0  0
   18.2630    5.7100   -1.5740 C   0  0  0  0  0
   19.4850    6.3920   -2.0650 C   0  0  0  0  0
   19.3490    7.5820   -2.8060 C   0  0  0  0  0
   20.4690    8.2620   -3.2650 C   0  0  0  0  0
   21.7330    7.7620   -2.9780 C   0  0  0  0  0
   21.8740    6.5860   -2.2420 C   0  0  0  0  0
   23.2530    6.0690   -1.9480 C   0  0  0  0  0
   20.7670    5.8970   -1.7750 C   0  0  0  0  0
   12.4921    6.2558   -7.9646 H   0  0  0  0  0
   10.4208    6.2848   -9.3254 H   0  0  0  0  0
    8.3931    5.1006   -8.5248 H   0  0  0  0  0
    8.4340    3.8622   -6.3765 H   0  0  0  0  0
   10.4974    3.8118   -5.0052 H   0  0  0  0  0
   14.0460    5.2779   -7.2015 H   0  0  0  0  0
   14.7946    5.2856   -3.5628 H   0  0  0  0  0
   18.4635    4.9399   -6.8216 H   0  0  0  0  0
   19.0294    5.0287   -4.4133 H   0  0  0  0  0
   16.6401    5.6652    2.1146 H   0  0  0  0  0
   17.4383    4.0566    2.0047 H   0  0  0  0  0
   14.5373    4.6668    1.3061 H   0  0  0  0  0
   15.3274    3.0746    1.1973 H   0  0  0  0  0
   15.1023    3.8503    2.7843 H   0  0  0  0  0
   18.3546    7.9730   -3.0212 H   0  0  0  0  0
   20.3578    9.1785   -3.8444 H   0  0  0  0  0
   22.6185    8.2913   -3.3297 H   0  0  0  0  0
   23.7719    5.8683   -2.8853 H   0  0  0  0  0
   23.8057    6.8157   -1.3779 H   0  0  0  0  0
   23.1788    5.1490   -1.3681 H   0  0  0  0  0
   20.8889    4.9845   -1.1913 H   0  0  0  0  0
  1  2  2  0  0  0
  2  3  1  0  0  0
  2  9  1  0  0  0
  3  4  4  0  0  0
  3  8  4  0  0  0
  4  5  4  0  0  0
  5  6  4  0  0  0
  6  7  4  0  0  0
  7  8  4  0  0  0
  9 10  1  0  0  0
 10 11  4  0  0  0
 10 12  4  0  0  0
 11 15  4  0  0  0
 12 13  4  0  0  0
 13 14  4  0  0  0
 14 15  4  0  0  0
 15 16  1  0  0  0
 16 17  4  0  0  0
 16 22  4  0  0  0
 17 18  4  0  0  0
 18 19  1  0  0  0
 18 21  4  0  0  0
 19 20  1  0  0  0
 21 22  4  0  0  0
 22 23  1  0  0  0
 23 24  4  0  0  0
 23 29  4  0  0  0
 24 25  4  0  0  0
 25 26  4  0  0  0
 26 27  4  0  0  0
 27 28  1  0  0  0
 27 29  4  0  0  0
  4 30  1  0  0  0
  5 31  1  0  0  0
  6 32  1  0  0  0
  7 33  1  0  0  0
  8 34  1  0  0  0
  9 35  1  0  0  0
 11 36  1  0  0  0
 13 37  1  0  0  0
 14 38  1  0  0  0
 19 39  1  0  0  0
 19 40  1  0  0  0
 20 41  1  0  0  0
 20 42  1  0  0  0
 20 43  1  0  0  0
 24 44  1  0  0  0
 25 45  1  0  0  0
 26 46  1  0  0  0
 28 47  1  0  0  0
 28 48  1  0  0  0
 28 49  1  0  0  0
 29 50  1  0  0  0
M  END
$$$$
