### 
### Created by X-TOOL on Mon Sep 10 21:12:57 2018
### 

@<TRIPOS>MOLECULE
3ck7_ligand
  126   132     1     0     0
SMALL
GAST_HUCK


@<TRIPOS>ATOM
      1 C1A         5.9890  -24.3030   47.4290 C.3       1 ACX         0.1884
      2 C2A         5.0270  -24.3420   46.2140 C.3       1 ACX         0.1341
      3 C3A         4.2240  -23.0330   46.0430 C.3       1 ACX         0.1144
      4 C4A         3.9370  -22.2800   47.3870 C.3       1 ACX         0.1184
      5 C5A         4.8970  -22.5520   48.5810 C.3       1 ACX         0.1134
      6 C6A         4.3510  -22.0710   49.9380 C.3       1 ACX         0.0730
      7 O1A         7.1200  -23.4530   47.2420 O.3       1 ACX        -0.3401
      8 O2A         5.7470  -24.6120   45.0150 O.3       1 ACX        -0.3841
      9 O3A         2.9840  -23.3060   45.3920 O.3       1 ACX        -0.3864
     10 O5A         5.1970  -23.9810   48.6000 O.3       1 ACX        -0.3405
     11 O6A         3.5920  -23.0770   50.5500 O.3       1 ACX        -0.3924
     12 C1B        11.2920  -23.7950   48.0650 C.3       1 ACX         0.1884
     13 C2B        10.6760  -24.8780   47.1700 C.3       1 ACX         0.1341
     14 C3B         9.3030  -24.4470   46.5970 C.3       1 ACX         0.1144
     15 C4B         8.3380  -24.0320   47.7440 C.3       1 ACX         0.1184
     16 C5B         9.0090  -23.0090   48.6810 C.3       1 ACX         0.1134
     17 C6B         8.1840  -22.7210   49.9350 C.3       1 ACX         0.0730
     18 O1B        11.5760  -22.6780   47.2300 O.3       1 ACX        -0.3401
     19 O2B        11.5990  -25.1700   46.1230 O.3       1 ACX        -0.3841
     20 O3B         8.7660  -25.5590   45.8960 O.3       1 ACX        -0.3864
     21 O5B        10.3340  -23.4610   49.1120 O.3       1 ACX        -0.3405
     22 O6B         8.8600  -21.7610   50.7270 O.3       1 ACX        -0.3924
     23 C1C        12.7970  -18.7160   47.7500 C.3       1 ACX         0.1884
     24 C2C        13.3620  -19.4870   46.5490 C.3       1 ACX         0.1341
     25 C3C        12.4610  -20.7130   46.3280 C.3       1 ACX         0.1144
     26 C4C        12.4760  -21.5800   47.5770 C.3       1 ACX         0.1184
     27 C5C        11.9940  -20.7130   48.8130 C.3       1 ACX         0.1134
     28 C6C        12.0890  -21.5060   50.1430 C.3       1 ACX         0.0730
     29 O1C        11.3920  -18.4350   47.4440 O.3       1 ACX        -0.3401
     30 O2C        13.3180  -18.6590   45.3870 O.3       1 ACX        -0.3841
     31 O3C        12.9400  -21.4890   45.2260 O.3       1 ACX        -0.3864
     32 O5C        12.8730  -19.5690   48.9490 O.3       1 ACX        -0.3405
     33 O6C        11.6370  -20.7230   51.2280 O.3       1 ACX        -0.3924
     34 C1D         8.6940  -15.2220   47.3820 C.3       1 ACX         0.1884
     35 C2D         9.6770  -15.3350   46.2130 C.3       1 ACX         0.1341
     36 C3D        10.2630  -16.7480   46.1460 C.3       1 ACX         0.1144
     37 C4D        11.0020  -17.0540   47.4640 C.3       1 ACX         0.1184
     38 C5D        10.1030  -16.8530   48.7180 C.3       1 ACX         0.1134
     39 C6D        10.9190  -16.8890   50.0180 C.3       1 ACX         0.0730
     40 O1D         7.5230  -16.0230   47.2210 O.3       1 ACX        -0.3401
     41 O2D         8.9860  -15.0100   45.0010 O.3       1 ACX        -0.3841
     42 O3D        11.1710  -16.8610   45.0410 O.3       1 ACX        -0.3864
     43 O5D         9.3670  -15.5840   48.6350 O.3       1 ACX        -0.3405
     44 O6D        10.0600  -16.7170   51.1150 O.3       1 ACX        -0.3924
     45 C1E         3.3820  -15.7710   47.9060 C.3       1 ACX         0.1884
     46 C2E         4.0020  -14.6770   47.0240 C.3       1 ACX         0.1341
     47 C3E         5.4100  -15.1010   46.5410 C.3       1 ACX         0.1144
     48 C4E         6.3190  -15.4860   47.7470 C.3       1 ACX         0.1184
     49 C5E         5.5910  -16.4950   48.6560 C.3       1 ACX         0.1134
     50 C6E         6.3250  -16.8060   49.9500 C.3       1 ACX         0.0730
     51 O1E         3.1880  -16.9460   47.1140 O.3       1 ACX        -0.3401
     52 O2E         3.1430  -14.4240   45.9110 O.3       1 ACX        -0.3841
     53 O3E         5.9960  -14.0120   45.8400 O.3       1 ACX        -0.3864
     54 O5E         4.2670  -16.0420   49.0050 O.3       1 ACX        -0.3405
     55 O6E         5.9930  -18.1230   50.3310 O.3       1 ACX        -0.3924
     56 C1F         2.0770  -20.7830   47.5640 C.3       1 ACX         0.1884
     57 C2F         1.3550  -20.0830   46.4170 C.3       1 ACX         0.1341
     58 C3F         1.9830  -18.7110   46.1880 C.3       1 ACX         0.1144
     59 C4F         2.1200  -17.8480   47.4820 C.3       1 ACX         0.1184
     60 C5F         2.5420  -18.6830   48.7590 C.3       1 ACX         0.1134
     61 C6F         2.2140  -18.0040   50.0990 C.3       1 ACX         0.0730
     62 O1F         3.4920  -20.9420   47.2800 O.3       1 ACX        -0.3401
     63 O2F         1.4810  -20.8750   45.2420 O.3       1 ACX        -0.3841
     64 O3F         1.1990  -18.0220   45.2230 O.3       1 ACX        -0.3864
     65 O5F         1.9200  -19.9970   48.7550 O.3       1 ACX        -0.3405
     66 O6F         2.6620  -18.8230   51.1540 O.3       1 ACX        -0.3924
     67 H1          6.3873  -25.3188   47.5686 H         1 ACX         0.0938
     68 H2          4.3106  -25.1599   46.3806 H         1 ACX         0.0671
     69 H3          4.8156  -22.3622   45.4027 H         1 ACX         0.0648
     70 H4          3.0223  -22.7903   47.7230 H         1 ACX         0.0651
     71 H5          5.8325  -22.0043   48.3942 H         1 ACX         0.0647
     72 H6          3.7170  -21.1862   49.7793 H         1 ACX         0.0584
     73 H7          5.1939  -21.8054   50.5930 H         1 ACX         0.0584
     74 H8          5.1356  -24.7050   44.2939 H         1 ACX         0.2101
     75 H9          2.5349  -22.4882   45.2129 H         1 ACX         0.2100
     76 H10         4.1373  -23.8420   50.6912 H         1 ACX         0.2095
     77 H11        12.2223  -24.1607   48.5241 H         1 ACX         0.0938
     78 H12        10.5241  -25.7860   47.7720 H         1 ACX         0.0671
     79 H13         9.4364  -23.5990   45.9092 H         1 ACX         0.0648
     80 H14         8.0864  -24.9331   48.3226 H         1 ACX         0.0651
     81 H15         9.1243  -22.0701   48.1197 H         1 ACX         0.0647
     82 H16         8.0552  -23.6488   50.5117 H         1 ACX         0.0584
     83 H17         7.1978  -22.3297   49.6447 H         1 ACX         0.0584
     84 H18        11.7222  -24.3961   45.5859 H         1 ACX         0.2101
     85 H19         7.9227  -25.3227   45.5279 H         1 ACX         0.2100
     86 H20         9.7116  -22.1006   50.9760 H         1 ACX         0.2095
     87 H21        13.3548  -17.7818   47.9116 H         1 ACX         0.0938
     88 H22        14.3971  -19.8014   46.7482 H         1 ACX         0.0671
     89 H23        11.4337  -20.3781   46.1218 H         1 ACX         0.0648
     90 H24        13.4852  -21.9668   47.7817 H         1 ACX         0.0651
     91 H25        10.9575  -20.3841   48.6475 H         1 ACX         0.0647
     92 H26        13.1364  -21.7932   50.3174 H         1 ACX         0.0584
     93 H27        11.4682  -22.4110   50.0683 H         1 ACX         0.0584
     94 H28        12.4241  -18.3759   45.2350 H         1 ACX         0.2101
     95 H29        12.3762  -22.2436   45.1027 H         1 ACX         0.2100
     96 H30        12.1728  -19.9416   51.2981 H         1 ACX         0.2095
     97 H31         8.3746  -14.1716   47.4491 H         1 ACX         0.0938
     98 H32        10.4985  -14.6187   46.3611 H         1 ACX         0.0671
     99 H33         9.4451  -17.4714   46.0128 H         1 ACX         0.0648
    100 H34        11.8879  -16.4066   47.5414 H         1 ACX         0.0651
    101 H35         9.3737  -17.6759   48.7474 H         1 ACX         0.0647
    102 H36        11.6642  -16.0800   50.0056 H         1 ACX         0.0584
    103 H37        11.4316  -17.8586   50.1024 H         1 ACX         0.0584
    104 H38         8.2779  -15.6287   44.8658 H         1 ACX         0.2101
    105 H39        11.5197  -17.7441   45.0081 H         1 ACX         0.2100
    106 H40         9.6178  -15.8794   51.0412 H         1 ACX         0.2095
    107 H41         2.4118  -15.4286   48.2952 H         1 ACX         0.0938
    108 H42         4.0973  -13.7547   47.6159 H         1 ACX         0.0671
    109 H43         5.3179  -15.9662   45.8681 H         1 ACX         0.0648
    110 H44         6.5512  -14.5857   48.3349 H         1 ACX         0.0651
    111 H45         5.4974  -17.4321   48.0876 H         1 ACX         0.0647
    112 H46         6.0145  -16.1005   50.7347 H         1 ACX         0.0584
    113 H47         7.4107  -16.7249   49.7927 H         1 ACX         0.0584
    114 H48         3.0645  -15.2127   45.3873 H         1 ACX         0.2101
    115 H49         6.8549  -14.2661   45.5233 H         1 ACX         0.2100
    116 H50         5.0541  -18.1866   50.4614 H         1 ACX         0.2095
    117 H51         1.6293  -21.7760   47.7177 H         1 ACX         0.0938
    118 H52         0.2908  -19.9623   46.6676 H         1 ACX         0.0671
    119 H53         2.9934  -18.8633   45.7809 H         1 ACX         0.0648
    120 H54         1.1856  -17.3075   47.6938 H         1 ACX         0.0651
    121 H55         3.6328  -18.8169   48.7111 H         1 ACX         0.0647
    122 H56         1.1268  -17.8590   50.1818 H         1 ACX         0.0584
    123 H57         2.7191  -17.0282   50.1506 H         1 ACX         0.0584
    124 H58         1.0377  -20.4431   44.5213 H         1 ACX         0.2101
    125 H59         0.3347  -17.8545   45.5799 H         1 ACX         0.2100
    126 H60         2.2251  -19.6653   51.1070 H         1 ACX         0.2095
@<TRIPOS>BOND
     1    2    1 1  
     2    1    7 1  
     3   10    1 1  
     4    3    2 1  
     5    2    8 1  
     6    4    3 1  
     7    3    9 1  
     8    4    5 1  
     9   62    4 1  
    10    5    6 1  
    11    5   10 1  
    12    6   11 1  
    13    7   15 1  
    14   13   12 1  
    15   12   18 1  
    16   21   12 1  
    17   14   13 1  
    18   13   19 1  
    19   15   14 1  
    20   14   20 1  
    21   15   16 1  
    22   16   17 1  
    23   16   21 1  
    24   17   22 1  
    25   18   26 1  
    26   24   23 1  
    27   23   29 1  
    28   32   23 1  
    29   25   24 1  
    30   24   30 1  
    31   26   25 1  
    32   25   31 1  
    33   26   27 1  
    34   27   28 1  
    35   27   32 1  
    36   28   33 1  
    37   29   37 1  
    38   35   34 1  
    39   34   40 1  
    40   43   34 1  
    41   36   35 1  
    42   35   41 1  
    43   37   36 1  
    44   36   42 1  
    45   37   38 1  
    46   38   39 1  
    47   38   43 1  
    48   39   44 1  
    49   40   48 1  
    50   46   45 1  
    51   45   51 1  
    52   54   45 1  
    53   47   46 1  
    54   46   52 1  
    55   48   47 1  
    56   47   53 1  
    57   48   49 1  
    58   49   50 1  
    59   49   54 1  
    60   50   55 1  
    61   51   59 1  
    62   56   57 1  
    63   56   62 1  
    64   56   65 1  
    65   57   58 1  
    66   57   63 1  
    67   58   59 1  
    68   58   64 1  
    69   59   60 1  
    70   60   61 1  
    71   60   65 1  
    72   61   66 1  
    73    1   67 1  
    74    2   68 1  
    75    3   69 1  
    76    4   70 1  
    77    5   71 1  
    78    6   72 1  
    79    6   73 1  
    80    8   74 1  
    81    9   75 1  
    82   11   76 1  
    83   12   77 1  
    84   13   78 1  
    85   14   79 1  
    86   15   80 1  
    87   16   81 1  
    88   17   82 1  
    89   17   83 1  
    90   19   84 1  
    91   20   85 1  
    92   22   86 1  
    93   23   87 1  
    94   24   88 1  
    95   25   89 1  
    96   26   90 1  
    97   27   91 1  
    98   28   92 1  
    99   28   93 1  
   100   30   94 1  
   101   31   95 1  
   102   33   96 1  
   103   34   97 1  
   104   35   98 1  
   105   36   99 1  
   106   37  100 1  
   107   38  101 1  
   108   39  102 1  
   109   39  103 1  
   110   41  104 1  
   111   42  105 1  
   112   44  106 1  
   113   45  107 1  
   114   46  108 1  
   115   47  109 1  
   116   48  110 1  
   117   49  111 1  
   118   50  112 1  
   119   50  113 1  
   120   52  114 1  
   121   53  115 1  
   122   55  116 1  
   123   56  117 1  
   124   57  118 1  
   125   58  119 1  
   126   59  120 1  
   127   60  121 1  
   128   61  122 1  
   129   61  123 1  
   130   63  124 1  
   131   64  125 1  
   132   66  126 1  
@<TRIPOS>SUBSTRUCTURE
     1 ACX         1

