3ck7_ligand
  -I-interpret- 

126132  0  0  0  0  0  0  0  0999 V2000
    5.9890  -24.3030   47.4290 C   0  0  0  0  0
    5.0270  -24.3420   46.2140 C   0  0  0  0  0
    4.2240  -23.0330   46.0430 C   0  0  0  0  0
    3.9370  -22.2800   47.3870 C   0  0  0  0  0
    4.8970  -22.5520   48.5810 C   0  0  0  0  0
    4.3510  -22.0710   49.9380 C   0  0  0  0  0
    7.1200  -23.4530   47.2420 O   0  0  0  0  0
    5.7470  -24.6120   45.0150 O   0  0  0  0  0
    2.9840  -23.3060   45.3920 O   0  0  0  0  0
    5.1970  -23.9810   48.6000 O   0  0  0  0  0
    3.5920  -23.0770   50.5500 O   0  0  0  0  0
   11.2920  -23.7950   48.0650 C   0  0  0  0  0
   10.6760  -24.8780   47.1700 C   0  0  0  0  0
    9.3030  -24.4470   46.5970 C   0  0  0  0  0
    8.3380  -24.0320   47.7440 C   0  0  0  0  0
    9.0090  -23.0090   48.6810 C   0  0  0  0  0
    8.1840  -22.7210   49.9350 C   0  0  0  0  0
   11.5760  -22.6780   47.2300 O   0  0  0  0  0
   11.5990  -25.1700   46.1230 O   0  0  0  0  0
    8.7660  -25.5590   45.8960 O   0  0  0  0  0
   10.3340  -23.4610   49.1120 O   0  0  0  0  0
    8.8600  -21.7610   50.7270 O   0  0  0  0  0
   12.7970  -18.7160   47.7500 C   0  0  0  0  0
   13.3620  -19.4870   46.5490 C   0  0  0  0  0
   12.4610  -20.7130   46.3280 C   0  0  0  0  0
   12.4760  -21.5800   47.5770 C   0  0  0  0  0
   11.9940  -20.7130   48.8130 C   0  0  0  0  0
   12.0890  -21.5060   50.1430 C   0  0  0  0  0
   11.3920  -18.4350   47.4440 O   0  0  0  0  0
   13.3180  -18.6590   45.3870 O   0  0  0  0  0
   12.9400  -21.4890   45.2260 O   0  0  0  0  0
   12.8730  -19.5690   48.9490 O   0  0  0  0  0
   11.6370  -20.7230   51.2280 O   0  0  0  0  0
    8.6940  -15.2220   47.3820 C   0  0  0  0  0
    9.6770  -15.3350   46.2130 C   0  0  0  0  0
   10.2630  -16.7480   46.1460 C   0  0  0  0  0
   11.0020  -17.0540   47.4640 C   0  0  0  0  0
   10.1030  -16.8530   48.7180 C   0  0  0  0  0
   10.9190  -16.8890   50.0180 C   0  0  0  0  0
    7.5230  -16.0230   47.2210 O   0  0  0  0  0
    8.9860  -15.0100   45.0010 O   0  0  0  0  0
   11.1710  -16.8610   45.0410 O   0  0  0  0  0
    9.3670  -15.5840   48.6350 O   0  0  0  0  0
   10.0600  -16.7170   51.1150 O   0  0  0  0  0
    3.3820  -15.7710   47.9060 C   0  0  0  0  0
    4.0020  -14.6770   47.0240 C   0  0  0  0  0
    5.4100  -15.1010   46.5410 C   0  0  0  0  0
    6.3190  -15.4860   47.7470 C   0  0  0  0  0
    5.5910  -16.4950   48.6560 C   0  0  0  0  0
    6.3250  -16.8060   49.9500 C   0  0  0  0  0
    3.1880  -16.9460   47.1140 O   0  0  0  0  0
    3.1430  -14.4240   45.9110 O   0  0  0  0  0
    5.9960  -14.0120   45.8400 O   0  0  0  0  0
    4.2670  -16.0420   49.0050 O   0  0  0  0  0
    5.9930  -18.1230   50.3310 O   0  0  0  0  0
    2.0770  -20.7830   47.5640 C   0  0  0  0  0
    1.3550  -20.0830   46.4170 C   0  0  0  0  0
    1.9830  -18.7110   46.1880 C   0  0  0  0  0
    2.1200  -17.8480   47.4820 C   0  0  0  0  0
    2.5420  -18.6830   48.7590 C   0  0  0  0  0
    2.2140  -18.0040   50.0990 C   0  0  0  0  0
    3.4920  -20.9420   47.2800 O   0  0  0  0  0
    1.4810  -20.8750   45.2420 O   0  0  0  0  0
    1.1990  -18.0220   45.2230 O   0  0  0  0  0
    1.9200  -19.9970   48.7550 O   0  0  0  0  0
    2.6620  -18.8230   51.1540 O   0  0  0  0  0
    6.4510  -25.2813   47.5613 H   0  0  0  0  0
    4.3153  -25.1434   46.4120 H   0  0  0  0  0
    4.8509  -22.3761   45.4401 H   0  0  0  0  0
    3.0398  -22.8176   47.6938 H   0  0  0  0  0
    5.8057  -21.9692   48.4304 H   0  0  0  0  0
    3.7160  -21.2004   49.7741 H   0  0  0  0  0
    5.1900  -21.8184   50.5863 H   0  0  0  0  0
    6.2466  -25.4251   45.1193 H   0  0  0  0  0
    3.1517  -23.7676   44.5671 H   0  0  0  0  0
    3.2611  -22.7585   51.3930 H   0  0  0  0  0
   12.2115  -24.1246   48.5487 H   0  0  0  0  0
   10.4899  -25.7710   47.7666 H   0  0  0  0  0
    9.4241  -23.5897   45.9348 H   0  0  0  0  0
    8.0989  -24.9446   48.2900 H   0  0  0  0  0
    9.0913  -22.0961   48.0911 H   0  0  0  0  0
    8.0538  -23.6402   50.5062 H   0  0  0  0  0
    7.2056  -22.3353   49.6485 H   0  0  0  0  0
   11.2294  -25.8473   45.5518 H   0  0  0  0  0
    7.9117  -25.3216   45.5280 H   0  0  0  0  0
    8.3441  -21.5779   51.5156 H   0  0  0  0  0
   13.3541  -17.7972   47.9334 H   0  0  0  0  0
   14.3941  -19.7855   46.7327 H   0  0  0  0  0
   11.4483  -20.3700   46.1161 H   0  0  0  0  0
   13.4529  -21.9645   47.8701 H   0  0  0  0  0
   10.9583  -20.4266   48.6305 H   0  0  0  0  0
   13.1302  -21.7781   50.3160 H   0  0  0  0  0
   11.4634  -22.3953   50.0671 H   0  0  0  0  0
   13.6717  -19.1429   44.6371 H   0  0  0  0  0
   12.3687  -22.2501   45.0997 H   0  0  0  0  0
   11.7045  -21.2325   52.0389 H   0  0  0  0  0
    8.3638  -14.1836   47.4083 H   0  0  0  0  0
   10.5050  -14.6403   46.3543 H   0  0  0  0  0
    9.4537  -17.4642   46.0035 H   0  0  0  0  0
   11.8482  -16.3703   47.5318 H   0  0  0  0  0
    9.3945  -17.6811   48.7362 H   0  0  0  0  0
   11.6574  -16.0873   50.0057 H   0  0  0  0  0
   11.4269  -17.8498   50.1015 H   0  0  0  0  0
    9.5927  -15.0774   44.2601 H   0  0  0  0  0
   11.5294  -17.7511   45.0125 H   0  0  0  0  0
   10.5714  -16.7397   51.9271 H   0  0  0  0  0
    2.4194  -15.4466   48.3014 H   0  0  0  0  0
    4.1096  -13.7630   47.6080 H   0  0  0  0  0
    5.3159  -15.9708   45.8908 H   0  0  0  0  0
    6.5488  -14.6153   48.3611 H   0  0  0  0  0
    5.5465  -17.4045   48.0569 H   0  0  0  0  0
    6.0315  -16.1023   50.7290 H   0  0  0  0  0
    7.4014  -16.7151   49.8047 H   0  0  0  0  0
    3.5294  -13.7403   45.3589 H   0  0  0  0  0
    6.8710  -14.2630   45.5349 H   0  0  0  0  0
    6.4463  -18.3424   51.1483 H   0  0  0  0  0
    1.6437  -21.7747   47.6944 H   0  0  0  0  0
    0.3000  -19.9566   46.6599 H   0  0  0  0  0
    3.0028  -18.8723   45.8386 H   0  0  0  0  0
    1.1777  -17.3795   47.7661 H   0  0  0  0  0
    3.6267  -18.7609   48.6848 H   0  0  0  0  0
    1.1371  -17.8573   50.1812 H   0  0  0  0  0
    2.7118  -17.0357   50.1504 H   0  0  0  0  0
    1.0288  -20.4409   44.5149 H   0  0  0  0  0
    1.5783  -17.1545   45.0645 H   0  0  0  0  0
    2.4589  -18.4023   51.9926 H   0  0  0  0  0
  2  1  1  0  0  0
  1  7  1  0  0  0
 10  1  1  0  0  0
  3  2  1  0  0  0
  2  8  1  0  0  0
  4  3  1  0  0  0
  3  9  1  0  0  0
  4  5  1  0  0  0
 62  4  1  0  0  0
  5  6  1  0  0  0
  5 10  1  0  0  0
  6 11  1  0  0  0
  7 15  1  0  0  0
 13 12  1  0  0  0
 12 18  1  0  0  0
 21 12  1  0  0  0
 14 13  1  0  0  0
 13 19  1  0  0  0
 15 14  1  0  0  0
 14 20  1  0  0  0
 15 16  1  0  0  0
 16 17  1  0  0  0
 16 21  1  0  0  0
 17 22  1  0  0  0
 18 26  1  0  0  0
 24 23  1  0  0  0
 23 29  1  0  0  0
 32 23  1  0  0  0
 25 24  1  0  0  0
 24 30  1  0  0  0
 26 25  1  0  0  0
 25 31  1  0  0  0
 26 27  1  0  0  0
 27 28  1  0  0  0
 27 32  1  0  0  0
 28 33  1  0  0  0
 29 37  1  0  0  0
 35 34  1  0  0  0
 34 40  1  0  0  0
 43 34  1  0  0  0
 36 35  1  0  0  0
 35 41  1  0  0  0
 37 36  1  0  0  0
 36 42  1  0  0  0
 37 38  1  0  0  0
 38 39  1  0  0  0
 38 43  1  0  0  0
 39 44  1  0  0  0
 40 48  1  0  0  0
 46 45  1  0  0  0
 45 51  1  0  0  0
 54 45  1  0  0  0
 47 46  1  0  0  0
 46 52  1  0  0  0
 48 47  1  0  0  0
 47 53  1  0  0  0
 48 49  1  0  0  0
 49 50  1  0  0  0
 49 54  1  0  0  0
 50 55  1  0  0  0
 51 59  1  0  0  0
 56 57  1  0  0  0
 56 62  1  0  0  0
 56 65  1  0  0  0
 57 58  1  0  0  0
 57 63  1  0  0  0
 58 59  1  0  0  0
 58 64  1  0  0  0
 59 60  1  0  0  0
 60 61  1  0  0  0
 60 65  1  0  0  0
 61 66  1  0  0  0
  1 67  1  0  0  0
  2 68  1  0  0  0
  3 69  1  0  0  0
  4 70  1  0  0  0
  5 71  1  0  0  0
  6 72  1  0  0  0
  6 73  1  0  0  0
  8 74  1  0  0  0
  9 75  1  0  0  0
 11 76  1  0  0  0
 12 77  1  0  0  0
 13 78  1  0  0  0
 14 79  1  0  0  0
 15 80  1  0  0  0
 16 81  1  0  0  0
 17 82  1  0  0  0
 17 83  1  0  0  0
 19 84  1  0  0  0
 20 85  1  0  0  0
 22 86  1  0  0  0
 23 87  1  0  0  0
 24 88  1  0  0  0
 25 89  1  0  0  0
 26 90  1  0  0  0
 27 91  1  0  0  0
 28 92  1  0  0  0
 28 93  1  0  0  0
 30 94  1  0  0  0
 31 95  1  0  0  0
 33 96  1  0  0  0
 34 97  1  0  0  0
 35 98  1  0  0  0
 36 99  1  0  0  0
 37100  1  0  0  0
 38101  1  0  0  0
 39102  1  0  0  0
 39103  1  0  0  0
 41104  1  0  0  0
 42105  1  0  0  0
 44106  1  0  0  0
 45107  1  0  0  0
 46108  1  0  0  0
 47109  1  0  0  0
 48110  1  0  0  0
 49111  1  0  0  0
 50112  1  0  0  0
 50113  1  0  0  0
 52114  1  0  0  0
 53115  1  0  0  0
 55116  1  0  0  0
 56117  1  0  0  0
 57118  1  0  0  0
 58119  1  0  0  0
 59120  1  0  0  0
 60121  1  0  0  0
 61122  1  0  0  0
 61123  1  0  0  0
 63124  1  0  0  0
 64125  1  0  0  0
 66126  1  0  0  0
M  END
$$$$
