### 
### Created by X-TOOL on Mon Sep 10 21:13:15 2018
### 

@<TRIPOS>MOLECULE
4i80_ligand
  165   170     1     0     0
SMALL
GAST_HUCK


@<TRIPOS>ATOM
      1 C         -37.3680   27.6050   27.4060 C.2       1 ACE         0.1751
      2 O         -38.5910   27.5160   27.3090 O.2       1 ACE        -0.3972
      3 CH3       -36.6910   27.7110   28.7740 C.3       1 ACE         0.0258
      4 N         -36.7580   28.3120   26.5490 N.am      1 ARG        -0.2658
      5 CA        -37.2790   29.3680   25.6840 C.3       1 ARG         0.1310
      6 C         -38.2590   28.7530   24.6910 C.2       1 ARG         0.2040
      7 O         -39.4310   29.1140   24.6490 O.2       1 ARG        -0.3944
      8 CB        -36.1410   30.0630   24.9310 C.3       1 ARG        -0.0092
      9 CG        -34.9200   30.3950   25.7860 C.3       1 ARG        -0.0156
     10 CD        -33.8660   31.1500   24.9850 C.3       1 ARG         0.0627
     11 NE        -34.0700   32.5950   25.0350 N.pl3     1 ARG        -0.2723
     12 CZ        -35.0260   33.2410   24.3760 C.cat     1 ARG         0.2882
     13 NH1       -35.8830   32.5770   23.6100 N.pl3     1 ARG        -0.2849
     14 NH2       -35.1310   34.5580   24.4850 N.pl3     1 ARG        -0.2849
     15 N         -37.7640   27.8190   23.8880 N.am      1 TRP        -0.2627
     16 CA        -38.6060   27.0390   22.9910 C.3       1 TRP         0.1352
     17 C         -37.9500   25.6970   22.6900 C.2       1 TRP         0.2052
     18 O         -36.7940   25.6320   22.2560 O.2       1 TRP        -0.3942
     19 CB        -38.8980   27.7920   21.6840 C.3       1 TRP         0.0042
     20 CG        -38.8900   26.8920   20.4720 C.2       1 TRP        -0.0418
     21 CD1       -37.8070   26.5740   19.6990 C.2       1 TRP         0.0167
     22 CD2       -40.0010   26.1870   19.9080 C.ar      1 TRP        -0.0214
     23 NE1       -38.1760   25.7140   18.6910 N.pl3     1 TRP        -0.2890
     24 CE2       -39.5200   25.4580   18.7960 C.ar      1 TRP         0.0603
     25 CE3       -41.3590   26.0910   20.2340 C.ar      1 TRP        -0.0747
     26 CZ2       -40.3390   24.6550   18.0100 C.ar      1 TRP        -0.0443
     27 CZ3       -42.1760   25.2900   19.4500 C.ar      1 TRP        -0.0792
     28 CH2       -41.6620   24.5840   18.3500 C.ar      1 TRP        -0.0768
     29 O         -40.7070   23.2100   21.9240 O.2       1 1E3        -0.3944
     30 C         -39.5690   22.8290   21.6520 C.2       1 1E3         0.2040
     31 CA        -38.4120   23.0430   22.6300 C.3       1 1E3         0.1310
     32 N         -38.3550   24.4590   23.0190 N.am      1 1E3        -0.2636
     33 CB        -38.6030   22.1450   23.8530 C.3       1 1E3        -0.0124
     34 CAJ       -37.8220   22.7190   25.0360 C.3       1 1E3        -0.0488
     35 CAI       -38.2120   21.9760   26.3150 C.3       1 1E3        -0.0528
     36 CAH       -36.9920   21.2370   26.8690 C.3       1 1E3        -0.0530
     37 CAG       -37.4110   20.3890   28.0720 C.3       1 1E3        -0.0512
     38 CAF       -37.5860   18.9340   27.6350 C.3       1 1E3        -0.0327
     39 CAE       -37.3190   18.0080   28.8230 C.3       1 1E3         0.0309
     40 NAA       -36.9350   16.6640   28.3680 N.am      1 1E3        -0.2851
     41 N         -39.4430   21.8350   20.8830 N.am      1 PHE        -0.2619
     42 CA        -40.6100   21.2360   20.2430 C.3       1 PHE         0.1406
     43 C         -41.5870   20.7880   21.3250 C.2       1 PHE         0.2085
     44 O         -41.1800   20.2070   22.3280 O.2       1 PHE        -0.3940
     45 CB        -40.2180   20.0620   19.3460 C.3       1 PHE         0.0214
     46 CG        -41.3290   19.5880   18.4490 C.ar      1 PHE        -0.0386
     47 CD1       -41.5290   20.1670   17.2090 C.ar      1 PHE        -0.0601
     48 CD2       -42.1740   18.5650   18.8490 C.ar      1 PHE        -0.0601
     49 CE1       -42.5460   19.7380   16.3840 C.ar      1 PHE        -0.0686
     50 CE2       -43.1960   18.1320   18.0280 C.ar      1 PHE        -0.0686
     51 CZ        -43.3800   18.7170   16.7930 C.ar      1 PHE        -0.0687
     52 N         -42.8820   21.0780   21.1320 N.am      1 PRO        -0.2497
     53 CA        -43.9130   20.8060   22.1410 C.3       1 PRO         0.1338
     54 C         -43.9210   19.3510   22.6080 C.2       1 PRO         0.2041
     55 O         -43.9300   18.4250   21.7900 O.2       1 PRO        -0.3944
     56 CB        -45.2180   21.1400   21.4090 C.3       1 PRO        -0.0104
     57 CG        -44.8200   22.1020   20.3510 C.3       1 PRO        -0.0281
     58 CD        -43.4490   21.6740   19.9120 C.3       1 PRO         0.0369
     59 N         -43.9070   19.1710   23.9250 N.am      1 ALA        -0.2640
     60 CA        -43.9800   17.8490   24.5370 C.3       1 ALA         0.1282
     61 C         -42.6640   17.0710   24.4570 C.2       1 ALA         0.2036
     62 O         -42.6310   15.8780   24.7410 O.2       1 ALA        -0.3944
     63 CB        -45.1260   17.0410   23.9350 C.3       1 ALA        -0.0244
     64 N         -41.5890   17.7500   24.0670 N.am      1 ARG        -0.2637
     65 CA        -40.2530   17.1530   24.0560 C.3       1 ARG         0.1313
     66 C         -39.8100   16.8880   25.4950 C.2       1 ARG         0.2064
     67 O         -40.2630   17.5680   26.4140 O.2       1 ARG        -0.3942
     68 CB        -39.2660   18.0970   23.3630 C.3       1 ARG        -0.0092
     69 CG        -37.8580   17.5530   23.2310 C.3       1 ARG        -0.0156
     70 CD        -36.8880   18.6190   22.7630 C.3       1 ARG         0.0627
     71 NE        -35.5270   18.0990   22.6700 N.pl3     1 ARG        -0.2723
     72 CZ        -34.6780   18.4060   21.6970 C.cat     1 ARG         0.2882
     73 NH1       -35.0510   19.2330   20.7290 N.pl3     1 ARG        -0.2849
     74 NH2       -33.4580   17.8890   21.6860 N.pl3     1 ARG        -0.2849
     75 N         -38.8110   15.9120   25.1750 N.am      1 PRO        -0.2498
     76 CA        -38.4480   15.5010   26.5350 C.3       1 PRO         0.1336
     77 C         -37.2820   16.3170   27.0820 C.2       1 PRO         0.2019
     78 O         -36.3960   16.6840   26.3100 O.2       1 PRO        -0.3945
     79 CB        -38.0290   14.0410   26.3530 C.3       1 PRO        -0.0104
     80 CG        -37.5440   13.9670   24.9500 C.3       1 PRO        -0.0281
     81 CD        -38.4030   14.9190   24.1670 C.3       1 PRO         0.0369
     82 H1        -35.6015   27.7807   28.6395 H         1 ACE         0.0467
     83 H2        -36.9303   26.8191   29.3716 H         1 ACE         0.0467
     84 H3        -37.0544   28.6094   29.2944 H         1 ACE         0.0467
     85 H4        -35.7816   28.1198   26.4509 H         1 ARG         0.1882
     86 H5        -37.8051   30.1118   26.3004 H         1 ARG         0.0800
     87 H6        -36.5310   31.0020   24.5112 H         1 ARG         0.0313
     88 H7        -35.8173   29.4023   24.1133 H         1 ARG         0.0313
     89 H8        -34.4810   29.4588   26.1612 H         1 ARG         0.0301
     90 H9        -35.2371   31.0176   26.6356 H         1 ARG         0.0301
     91 H10       -33.9141   30.8210   23.9365 H         1 ARG         0.0689
     92 H11       -32.8730   30.9174   25.3972 H         1 ARG         0.0689
     93 H12       -33.4300   33.1507   25.6203 H         1 ARG         0.2642
     94 H13       -36.6211   33.0855   23.1026 H         1 ARG         0.2615
     95 H14       -35.8098   31.5533   23.5231 H         1 ARG         0.2615
     96 H15       -34.4697   35.0801   25.0775 H         1 ARG         0.2615
     97 H16       -35.8739   35.0592   23.9772 H         1 ARG         0.2615
     98 H17       -36.7793   27.6449   23.8993 H         1 TRP         0.1884
     99 H18       -39.5639   26.8515   23.4983 H         1 TRP         0.0815
    100 H19       -38.1319   28.5697   21.5485 H         1 TRP         0.0397
    101 H20       -39.8887   28.2632   21.7644 H         1 TRP         0.0397
    102 H21       -36.7969   26.9483   19.8589 H         1 TRP         0.0795
    103 H22       -37.5463   25.3256   17.9744 H         1 TRP         0.2216
    104 H23       -41.7638   26.6317   21.0819 H         1 TRP         0.0540
    105 H24       -39.9448   24.1072   17.1617 H         1 TRP         0.0541
    106 H25       -43.2298   25.2074   19.6905 H         1 TRP         0.0510
    107 H26       -42.3290   23.9688   17.7569 H         1 TRP         0.0530
    108 H27       -37.4674   22.7725   22.1355 H         1 1E3         0.0800
    109 H28       -38.8119   24.5322   23.9055 H         1 1E3         0.1883
    110 H29       -38.2339   21.1339   23.6264 H         1 1E3         0.0312
    111 H30       -39.6718   22.0965   24.1086 H         1 1E3         0.0312
    112 H31       -38.0577   23.7877   25.1468 H         1 1E3         0.0267
    113 H32       -36.7435   22.5980   24.8564 H         1 1E3         0.0267
    114 H33       -39.0082   21.2513   26.0896 H         1 1E3         0.0265
    115 H34       -38.5738   22.6976   27.0622 H         1 1E3         0.0265
    116 H35       -36.2321   21.9678   27.1827 H         1 1E3         0.0265
    117 H36       -36.5732   20.5845   26.0887 H         1 1E3         0.0265
    118 H37       -38.3622   20.7678   28.4740 H         1 1E3         0.0266
    119 H38       -36.6351   20.4473   28.8496 H         1 1E3         0.0266
    120 H39       -36.8761   18.7063   26.8262 H         1 1E3         0.0285
    121 H40       -38.6139   18.7807   27.2747 H         1 1E3         0.0285
    122 H41       -38.2311   17.9340   29.4334 H         1 1E3         0.0520
    123 H42       -36.5041   18.4284   29.4306 H         1 1E3         0.0520
    124 H43       -36.4438   16.0304   28.9658 H         1 1E3         0.1851
    125 H44       -38.5344   21.4545   20.7109 H         1 PHE         0.1885
    126 H45       -41.0984   21.9984   19.6183 H         1 PHE         0.0823
    127 H46       -39.9079   19.2237   19.9871 H         1 PHE         0.0474
    128 H47       -39.3722   20.3740   18.7157 H         1 PHE         0.0474
    129 H48       -40.8771   20.9689   16.8818 H         1 PHE         0.0557
    130 H49       -42.0309   18.0995   19.8175 H         1 PHE         0.0557
    131 H50       -42.6909   20.2018   15.4150 H         1 PHE         0.0599
    132 H51       -43.8527   17.3334   18.3537 H         1 PHE         0.0599
    133 H52       -44.1785   18.3756   16.1442 H         1 PHE         0.0559
    134 H53       -43.7752   21.4605   23.0143 H         1 PRO         0.0802
    135 H54       -45.9428   21.5986   22.0977 H         1 PRO         0.0313
    136 H55       -45.6566   20.2343   20.9648 H         1 PRO         0.0313
    137 H56       -44.7924   23.1255   20.7531 H         1 PRO         0.0287
    138 H57       -45.5245   22.0583   19.5073 H         1 PRO         0.0287
    139 H58       -43.5069   20.9338   19.1004 H         1 PRO         0.0524
    140 H59       -42.8530   22.5367   19.5796 H         1 PRO         0.0524
    141 H60       -43.8440   19.9729   24.5191 H         1 ALA         0.1883
    142 H61       -44.2026   17.9980   25.6039 H         1 ALA         0.0797
    143 H62       -45.1639   16.0491   24.4091 H         1 ALA         0.0277
    144 H63       -44.9638   16.9244   22.8533 H         1 ALA         0.0277
    145 H64       -46.0764   17.5670   24.1087 H         1 ALA         0.0277
    146 H65       -41.6972   18.6993   23.7717 H         1 ARG         0.1883
    147 H66       -40.2854   16.2008   23.5063 H         1 ARG         0.0800
    148 H67       -39.2199   19.0307   23.9427 H         1 ARG         0.0313
    149 H68       -39.6470   18.3106   22.3535 H         1 ARG         0.0313
    150 H69       -37.8609   16.7288   22.5025 H         1 ARG         0.0301
    151 H70       -37.5281   17.1757   24.2102 H         1 ARG         0.0301
    152 H71       -36.9033   19.4551   23.4777 H         1 ARG         0.0689
    153 H72       -37.2021   18.9781   21.7718 H         1 ARG         0.0689
    154 H73       -35.2055   17.4535   23.4055 H         1 ARG         0.2642
    155 H74       -34.3928   19.4718   19.9736 H         1 ARG         0.2615
    156 H75       -35.9988   19.6363   20.7329 H         1 ARG         0.2615
    157 H76       -33.1642   17.2465   22.4355 H         1 ARG         0.2615
    158 H77       -32.8035   18.1296   20.9279 H         1 ARG         0.2615
    159 H78       -39.3085   15.5878   27.2147 H         1 PRO         0.0802
    160 H79       -38.8861   13.3684   26.5043 H         1 PRO         0.0313
    161 H80       -37.2262   13.7759   27.0567 H         1 PRO         0.0313
    162 H81       -37.6536   12.9441   24.5607 H         1 PRO         0.0287
    163 H82       -36.4880   14.2697   24.8937 H         1 PRO         0.0287
    164 H83       -37.8292   15.3925   23.3567 H         1 PRO         0.0524
    165 H84       -39.2781   14.4039   23.7442 H         1 PRO         0.0524
@<TRIPOS>BOND
     1    1    2 2  
     2    1    3 1  
     3    4    1 am 
     4    5    4 1  
     5    6    5 1  
     6    5    8 1  
     7    6    7 2  
     8   15    6 am 
     9    8    9 1  
    10    9   10 1  
    11   10   11 1  
    12   11   12 ar 
    13   12   13 ar 
    14   12   14 ar 
    15   16   15 1  
    16   17   16 1  
    17   16   19 1  
    18   17   18 2  
    19   32   17 am 
    20   19   20 1  
    21   20   21 2  
    22   20   22 1  
    23   21   23 1  
    24   22   24 ar 
    25   22   25 ar 
    26   24   23 1  
    27   24   26 ar 
    28   25   27 ar 
    29   26   28 ar 
    30   27   28 ar 
    31   30   29 2  
    32   31   30 1  
    33   30   41 am 
    34   31   32 1  
    35   31   33 1  
    36   33   34 1  
    37   34   35 1  
    38   35   36 1  
    39   36   37 1  
    40   37   38 1  
    41   38   39 1  
    42   39   40 1  
    43   40   77 am 
    44   41   42 1  
    45   42   43 1  
    46   42   45 1  
    47   43   44 2  
    48   43   52 am 
    49   45   46 1  
    50   46   47 ar 
    51   46   48 ar 
    52   47   49 ar 
    53   48   50 ar 
    54   49   51 ar 
    55   50   51 ar 
    56   52   53 1  
    57   52   58 1  
    58   53   54 1  
    59   53   56 1  
    60   54   55 2  
    61   54   59 am 
    62   56   57 1  
    63   57   58 1  
    64   59   60 1  
    65   60   61 1  
    66   60   63 1  
    67   61   62 2  
    68   61   64 am 
    69   64   65 1  
    70   65   66 1  
    71   65   68 1  
    72   66   67 2  
    73   66   75 am 
    74   68   69 1  
    75   69   70 1  
    76   70   71 1  
    77   71   72 ar 
    78   72   73 ar 
    79   72   74 ar 
    80   75   76 1  
    81   75   81 1  
    82   76   77 1  
    83   76   79 1  
    84   77   78 2  
    85   79   80 1  
    86   80   81 1  
    87    3   82 1  
    88    3   83 1  
    89    3   84 1  
    90    4   85 1  
    91    5   86 1  
    92    8   87 1  
    93    8   88 1  
    94    9   89 1  
    95    9   90 1  
    96   10   91 1  
    97   10   92 1  
    98   11   93 1  
    99   13   94 1  
   100   13   95 1  
   101   14   96 1  
   102   14   97 1  
   103   15   98 1  
   104   16   99 1  
   105   19  100 1  
   106   19  101 1  
   107   21  102 1  
   108   23  103 1  
   109   25  104 1  
   110   26  105 1  
   111   27  106 1  
   112   28  107 1  
   113   31  108 1  
   114   32  109 1  
   115   33  110 1  
   116   33  111 1  
   117   34  112 1  
   118   34  113 1  
   119   35  114 1  
   120   35  115 1  
   121   36  116 1  
   122   36  117 1  
   123   37  118 1  
   124   37  119 1  
   125   38  120 1  
   126   38  121 1  
   127   39  122 1  
   128   39  123 1  
   129   40  124 1  
   130   41  125 1  
   131   42  126 1  
   132   45  127 1  
   133   45  128 1  
   134   47  129 1  
   135   48  130 1  
   136   49  131 1  
   137   50  132 1  
   138   51  133 1  
   139   53  134 1  
   140   56  135 1  
   141   56  136 1  
   142   57  137 1  
   143   57  138 1  
   144   58  139 1  
   145   58  140 1  
   146   59  141 1  
   147   60  142 1  
   148   63  143 1  
   149   63  144 1  
   150   63  145 1  
   151   64  146 1  
   152   65  147 1  
   153   68  148 1  
   154   68  149 1  
   155   69  150 1  
   156   69  151 1  
   157   70  152 1  
   158   70  153 1  
   159   71  154 1  
   160   73  155 1  
   161   73  156 1  
   162   74  157 1  
   163   74  158 1  
   164   76  159 1  
   165   79  160 1  
   166   79  161 1  
   167   80  162 1  
   168   80  163 1  
   169   81  164 1  
   170   81  165 1  
@<TRIPOS>SUBSTRUCTURE
     1 ACE         1

