4i80_ligand
  -I-interpret- 

162167  0  0  0  0  0  0  0  0999 V2000
  -37.3680   27.6050   27.4060 C   0  0  0  0  0
  -38.5910   27.5160   27.3090 O   0  0  0  0  0
  -36.6910   27.7110   28.7740 C   0  0  0  0  0
  -36.7580   28.3120   26.5490 N   0  0  0  0  0
  -37.2790   29.3680   25.6840 C   0  0  0  0  0
  -38.2590   28.7530   24.6910 C   0  0  0  0  0
  -39.4310   29.1140   24.6490 O   0  0  0  0  0
  -36.1410   30.0630   24.9310 C   0  0  0  0  0
  -34.9200   30.3950   25.7860 C   0  0  0  0  0
  -33.8660   31.1500   24.9850 C   0  0  0  0  0
  -34.0700   32.5950   25.0350 N   0  0  0  0  0
  -35.0260   33.2410   24.3760 C   0  0  0  0  0
  -35.8830   32.5770   23.6100 N   0  0  0  0  0
  -35.1310   34.5580   24.4850 N   0  0  0  0  0
  -37.7640   27.8190   23.8880 N   0  0  0  0  0
  -38.6060   27.0390   22.9910 C   0  0  0  0  0
  -37.9500   25.6970   22.6900 C   0  0  0  0  0
  -36.7940   25.6320   22.2560 O   0  0  0  0  0
  -38.8980   27.7920   21.6840 C   0  0  0  0  0
  -38.8900   26.8920   20.4720 C   0  0  0  0  0
  -37.8070   26.5740   19.6990 C   0  0  0  0  0
  -40.0010   26.1870   19.9080 C   0  0  0  0  0
  -38.1760   25.7140   18.6910 N   0  0  0  0  0
  -39.5200   25.4580   18.7960 C   0  0  0  0  0
  -41.3590   26.0910   20.2340 C   0  0  0  0  0
  -40.3390   24.6550   18.0100 C   0  0  0  0  0
  -42.1760   25.2900   19.4500 C   0  0  0  0  0
  -41.6620   24.5840   18.3500 C   0  0  0  0  0
  -40.7070   23.2100   21.9240 O   0  0  0  0  0
  -39.5690   22.8290   21.6520 C   0  0  0  0  0
  -38.4120   23.0430   22.6300 C   0  0  0  0  0
  -38.3550   24.4590   23.0190 N   0  0  0  0  0
  -38.6030   22.1450   23.8530 C   0  0  0  0  0
  -37.8220   22.7190   25.0360 C   0  0  0  0  0
  -38.2120   21.9760   26.3150 C   0  0  0  0  0
  -36.9920   21.2370   26.8690 C   0  0  0  0  0
  -37.4110   20.3890   28.0720 C   0  0  0  0  0
  -37.5860   18.9340   27.6350 C   0  0  0  0  0
  -37.3190   18.0080   28.8230 C   0  0  0  0  0
  -36.9350   16.6640   28.3680 N   0  0  0  0  0
  -39.4430   21.8350   20.8830 N   0  0  0  0  0
  -40.6100   21.2360   20.2430 C   0  0  0  0  0
  -41.5870   20.7880   21.3250 C   0  0  0  0  0
  -41.1800   20.2070   22.3280 O   0  0  0  0  0
  -40.2180   20.0620   19.3460 C   0  0  0  0  0
  -41.3290   19.5880   18.4490 C   0  0  0  0  0
  -41.5290   20.1670   17.2090 C   0  0  0  0  0
  -42.1740   18.5650   18.8490 C   0  0  0  0  0
  -42.5460   19.7380   16.3840 C   0  0  0  0  0
  -43.1960   18.1320   18.0280 C   0  0  0  0  0
  -43.3800   18.7170   16.7930 C   0  0  0  0  0
  -42.8820   21.0780   21.1320 N   0  0  0  0  0
  -43.9130   20.8060   22.1410 C   0  0  0  0  0
  -43.9210   19.3510   22.6080 C   0  0  0  0  0
  -43.9300   18.4250   21.7900 O   0  0  0  0  0
  -45.2180   21.1400   21.4090 C   0  0  0  0  0
  -44.8200   22.1020   20.3510 C   0  0  0  0  0
  -43.4490   21.6740   19.9120 C   0  0  0  0  0
  -43.9070   19.1710   23.9250 N   0  0  0  0  0
  -43.9800   17.8490   24.5370 C   0  0  0  0  0
  -42.6640   17.0710   24.4570 C   0  0  0  0  0
  -42.6310   15.8780   24.7410 O   0  0  0  0  0
  -45.1260   17.0410   23.9350 C   0  0  0  0  0
  -41.5890   17.7500   24.0670 N   0  0  0  0  0
  -40.2530   17.1530   24.0560 C   0  0  0  0  0
  -39.8100   16.8880   25.4950 C   0  0  0  0  0
  -40.2630   17.5680   26.4140 O   0  0  0  0  0
  -39.2660   18.0970   23.3630 C   0  0  0  0  0
  -37.8580   17.5530   23.2310 C   0  0  0  0  0
  -36.8880   18.6190   22.7630 C   0  0  0  0  0
  -35.5270   18.0990   22.6700 N   0  0  0  0  0
  -34.6780   18.4060   21.6970 C   0  0  0  0  0
  -35.0510   19.2330   20.7290 N   0  0  0  0  0
  -33.4580   17.8890   21.6860 N   0  0  0  0  0
  -38.8110   15.9120   25.1750 N   0  0  0  0  0
  -38.4480   15.5010   26.5350 C   0  0  0  0  0
  -37.2820   16.3170   27.0820 C   0  0  0  0  0
  -36.3960   16.6840   26.3100 O   0  0  0  0  0
  -38.0290   14.0410   26.3530 C   0  0  0  0  0
  -37.5440   13.9670   24.9500 C   0  0  0  0  0
  -38.4030   14.9190   24.1670 C   0  0  0  0  0
  -37.0520   28.6015   29.2886 H   0  0  0  0  0
  -36.9289   26.8267   29.3652 H   0  0  0  0  0
  -35.6116   27.7800   28.6394 H   0  0  0  0  0
  -35.7620   28.1160   26.4490 H   0  0  0  0  0
  -37.7862   30.1142   26.2956 H   0  0  0  0  0
  -36.5363   31.0091   24.5612 H   0  0  0  0  0
  -35.8072   29.3746   24.1546 H   0  0  0  0  0
  -34.4820   29.4616   26.1396 H   0  0  0  0  0
  -35.2404   31.0253   26.6155 H   0  0  0  0  0
  -33.9368   30.8321   23.9448 H   0  0  0  0  0
  -32.8890   30.9292   25.4150 H   0  0  0  0  0
  -33.4362   33.1453   25.6146 H   0  0  0  0  0
  -36.6161   33.0802   23.1102 H   0  0  0  0  0
  -35.8085   31.5636   23.5212 H   0  0  0  0  0
  -34.4782   35.0746   25.0744 H   0  0  0  0  0
  -36.7596   27.6414   23.8995 H   0  0  0  0  0
  -39.5582   26.8705   23.4941 H   0  0  0  0  0
  -38.1159   28.5390   21.5487 H   0  0  0  0  0
  -39.8931   28.2290   21.7672 H   0  0  0  0  0
  -36.7960   26.9487   19.8591 H   0  0  0  0  0
  -41.7660   26.6346   21.0866 H   0  0  0  0  0
  -39.9426   24.1041   17.1570 H   0  0  0  0  0
  -43.2356   25.2070   19.6918 H   0  0  0  0  0
  -42.3327   23.9654   17.7537 H   0  0  0  0  0
  -37.4682   22.7780   22.1535 H   0  0  0  0  0
  -38.8211   24.5336   23.9232 H   0  0  0  0  0
  -38.2367   21.1433   23.6283 H   0  0  0  0  0
  -39.6621   22.0975   24.1063 H   0  0  0  0  0
  -38.0561   23.7779   25.1458 H   0  0  0  0  0
  -36.7534   22.5986   24.8580 H   0  0  0  0  0
  -39.0008   21.2577   26.0913 H   0  0  0  0  0
  -38.5702   22.6913   27.0554 H   0  0  0  0  0
  -36.2392   21.9613   27.1800 H   0  0  0  0  0
  -36.5773   20.5903   26.0958 H   0  0  0  0  0
  -38.3537   20.7644   28.4700 H   0  0  0  0  0
  -36.6420   20.4467   28.8423 H   0  0  0  0  0
  -36.8823   18.7085   26.8337 H   0  0  0  0  0
  -38.6047   18.7822   27.2783 H   0  0  0  0  0
  -38.2300   17.9291   29.4163 H   0  0  0  0  0
  -36.5025   18.4236   29.4135 H   0  0  0  0  0
  -36.4340   16.0177   28.9777 H   0  0  0  0  0
  -38.5162   21.4469   20.7074 H   0  0  0  0  0
  -41.0842   21.9796   19.6024 H   0  0  0  0  0
  -39.9480   19.2306   19.9972 H   0  0  0  0  0
  -39.4036   20.3996   18.7051 H   0  0  0  0  0
  -40.8735   20.9733   16.8800 H   0  0  0  0  0
  -42.0301   18.0970   19.8228 H   0  0  0  0  0
  -42.6917   20.2044   15.4096 H   0  0  0  0  0
  -43.8563   17.3290   18.3555 H   0  0  0  0  0
  -44.1829   18.3737   16.1406 H   0  0  0  0  0
  -43.7501   21.3863   23.0492 H   0  0  0  0  0
  -45.9655   21.5609   22.0814 H   0  0  0  0  0
  -45.6905   20.2502   20.9931 H   0  0  0  0  0
  -44.8176   23.1262   20.7238 H   0  0  0  0  0
  -45.5251   22.0948   19.5198 H   0  0  0  0  0
  -43.4720   20.9782   19.0733 H   0  0  0  0  0
  -42.8510   22.5006   19.5284 H   0  0  0  0  0
  -43.8427   19.9890   24.5310 H   0  0  0  0  0
  -44.1742   18.0098   25.5974 H   0  0  0  0  0
  -46.0670   17.5632   24.1077 H   0  0  0  0  0
  -44.9641   16.9262   22.8632 H   0  0  0  0  0
  -45.1625   16.0585   24.4055 H   0  0  0  0  0
  -41.6993   18.7182   23.7658 H   0  0  0  0  0
  -40.2765   16.2116   23.5070 H   0  0  0  0  0
  -39.2030   18.9964   23.9756 H   0  0  0  0  0
  -39.6394   18.2608   22.3521 H   0  0  0  0  0
  -37.8675   16.7496   22.4945 H   0  0  0  0  0
  -37.5333   17.1983   24.2092 H   0  0  0  0  0
  -36.8974   19.4357   23.4848 H   0  0  0  0  0
  -37.1970   18.9573   21.7740 H   0  0  0  0  0
  -35.2086   17.4598   23.3983 H   0  0  0  0  0
  -34.3996   19.4685   19.9803 H   0  0  0  0  0
  -35.9892   19.6333   20.7335 H   0  0  0  0  0
  -33.1674   17.2518   22.4276 H   0  0  0  0  0
  -39.2635   15.6442   27.2439 H   0  0  0  0  0
  -38.8536   13.3526   26.5377 H   0  0  0  0  0
  -37.2615   13.7434   27.0675 H   0  0  0  0  0
  -37.6190   12.9526   24.5583 H   0  0  0  0  0
  -36.4901   14.2365   24.8808 H   0  0  0  0  0
  -37.8744   15.3671   23.3256 H   0  0  0  0  0
  -39.2528   14.4266   23.6942 H   0  0  0  0  0
  1  2  2  0  0  0
  1  3  1  0  0  0
  4  1  1  0  0  0
  5  4  1  0  0  0
  6  5  1  0  0  0
  5  8  1  0  0  0
  6  7  2  0  0  0
 15  6  1  0  0  0
  8  9  1  0  0  0
  9 10  1  0  0  0
 10 11  1  0  0  0
 11 12  1  0  0  0
 12 13  1  0  0  0
 12 14  2  0  0  0
 16 15  1  0  0  0
 17 16  1  0  0  0
 16 19  1  0  0  0
 17 18  2  0  0  0
 32 17  1  0  0  0
 19 20  1  0  0  0
 20 21  4  0  0  0
 20 22  4  0  0  0
 21 23  4  0  0  0
 22 24  4  0  0  0
 22 25  4  0  0  0
 24 23  4  0  0  0
 24 26  4  0  0  0
 25 27  4  0  0  0
 26 28  4  0  0  0
 27 28  4  0  0  0
 30 29  2  0  0  0
 31 30  1  0  0  0
 30 41  1  0  0  0
 31 32  1  0  0  0
 31 33  1  0  0  0
 33 34  1  0  0  0
 34 35  1  0  0  0
 35 36  1  0  0  0
 36 37  1  0  0  0
 37 38  1  0  0  0
 38 39  1  0  0  0
 39 40  1  0  0  0
 40 77  1  0  0  0
 41 42  1  0  0  0
 42 43  1  0  0  0
 42 45  1  0  0  0
 43 44  2  0  0  0
 43 52  1  0  0  0
 45 46  1  0  0  0
 46 47  4  0  0  0
 46 48  4  0  0  0
 47 49  4  0  0  0
 48 50  4  0  0  0
 49 51  4  0  0  0
 50 51  4  0  0  0
 52 53  1  0  0  0
 52 58  1  0  0  0
 53 54  1  0  0  0
 53 56  1  0  0  0
 54 55  2  0  0  0
 54 59  1  0  0  0
 56 57  1  0  0  0
 57 58  1  0  0  0
 59 60  1  0  0  0
 60 61  1  0  0  0
 60 63  1  0  0  0
 61 62  2  0  0  0
 61 64  1  0  0  0
 64 65  1  0  0  0
 65 66  1  0  0  0
 65 68  1  0  0  0
 66 67  2  0  0  0
 66 75  1  0  0  0
 68 69  1  0  0  0
 69 70  1  0  0  0
 70 71  1  0  0  0
 71 72  1  0  0  0
 72 73  1  0  0  0
 72 74  2  0  0  0
 75 76  1  0  0  0
 75 81  1  0  0  0
 76 77  1  0  0  0
 76 79  1  0  0  0
 77 78  2  0  0  0
 79 80  1  0  0  0
 80 81  1  0  0  0
  3 82  1  0  0  0
  3 83  1  0  0  0
  3 84  1  0  0  0
  4 85  1  0  0  0
  5 86  1  0  0  0
  8 87  1  0  0  0
  8 88  1  0  0  0
  9 89  1  0  0  0
  9 90  1  0  0  0
 10 91  1  0  0  0
 10 92  1  0  0  0
 11 93  1  0  0  0
 13 94  1  0  0  0
 13 95  1  0  0  0
 14 96  1  0  0  0
 15 97  1  0  0  0
 16 98  1  0  0  0
 19 99  1  0  0  0
 19100  1  0  0  0
 21101  1  0  0  0
 25102  1  0  0  0
 26103  1  0  0  0
 27104  1  0  0  0
 28105  1  0  0  0
 31106  1  0  0  0
 32107  1  0  0  0
 33108  1  0  0  0
 33109  1  0  0  0
 34110  1  0  0  0
 34111  1  0  0  0
 35112  1  0  0  0
 35113  1  0  0  0
 36114  1  0  0  0
 36115  1  0  0  0
 37116  1  0  0  0
 37117  1  0  0  0
 38118  1  0  0  0
 38119  1  0  0  0
 39120  1  0  0  0
 39121  1  0  0  0
 40122  1  0  0  0
 41123  1  0  0  0
 42124  1  0  0  0
 45125  1  0  0  0
 45126  1  0  0  0
 47127  1  0  0  0
 48128  1  0  0  0
 49129  1  0  0  0
 50130  1  0  0  0
 51131  1  0  0  0
 53132  1  0  0  0
 56133  1  0  0  0
 56134  1  0  0  0
 57135  1  0  0  0
 57136  1  0  0  0
 58137  1  0  0  0
 58138  1  0  0  0
 59139  1  0  0  0
 60140  1  0  0  0
 63141  1  0  0  0
 63142  1  0  0  0
 63143  1  0  0  0
 64144  1  0  0  0
 65145  1  0  0  0
 68146  1  0  0  0
 68147  1  0  0  0
 69148  1  0  0  0
 69149  1  0  0  0
 70150  1  0  0  0
 70151  1  0  0  0
 71152  1  0  0  0
 73153  1  0  0  0
 73154  1  0  0  0
 74155  1  0  0  0
 76156  1  0  0  0
 79157  1  0  0  0
 79158  1  0  0  0
 80159  1  0  0  0
 80160  1  0  0  0
 81161  1  0  0  0
 81162  1  0  0  0
M  END
$$$$
