5nkd_ligand
  -I-interpret- 

 57 60  0  0  0  0  0  0  0  0999 V2000
  -79.2830  -17.7780   -0.7400 O   0  0  0  0  0
  -78.4760  -17.7230    0.2220 C   0  0  0  0  0
  -77.4680  -18.4530    0.3750 O   0  0  0  0  0
  -78.7360  -16.6710    1.3190 C   0  0  0  0  0
  -80.2090  -16.2650    1.2990 C   0  0  0  0  0
  -80.4490  -15.0370    2.1860 C   0  0  0  0  0
  -81.0710  -17.3620    1.9140 C   0  0  0  0  0
  -81.1520  -16.9750    3.3670 C   0  0  0  0  0
  -81.3800  -15.5290    3.2430 N   0  0  0  0  0
  -82.2090  -14.6640    3.8480 C   0  0  0  0  0
  -82.1430  -13.4660    3.5380 O   0  0  0  0  0
  -83.1200  -15.0340    4.8600 C   0  0  0  0  0
  -84.5000  -15.1170    4.5800 C   0  0  0  0  0
  -82.6930  -15.2260    6.1670 C   0  0  0  0  0
  -83.6390  -15.5200    7.1390 C   0  0  0  0  0
  -85.0090  -15.5980    6.8560 C   0  0  0  0  0
  -85.4610  -15.4180    5.5470 C   0  0  0  0  0
  -86.7530  -15.4620    5.1280 N   0  0  0  0  0
  -87.7990  -15.9530    5.8350 C   0  0  0  0  0
  -87.8190  -16.7280    7.3340 S   0  0  0  0  0
  -89.0590  -15.8880    5.3570 N   0  0  0  0  0
  -90.0040  -16.4430    6.1640 C   0  0  0  0  0
  -89.5230  -16.9530    7.3210 C   0  0  0  0  0
  -90.1750  -17.6000    8.3340 C   0  0  0  0  0
  -89.5610  -17.8520    9.3660 O   0  0  0  0  0
  -91.4690  -17.9940    8.1850 N   0  0  0  0  0
  -92.1210  -18.6580    9.2060 C   0  0  0  0  0
  -92.6250  -17.9460   10.2880 C   0  0  0  0  0
  -92.3970  -16.2220   10.3630 Cl  0  0  0  0  0
  -93.3130  -18.5990   11.3150 C   0  0  0  0  0
  -93.4940  -19.9810   11.2380 C   0  0  0  0  0
  -93.0060  -20.6970   10.1450 C   0  0  0  0  0
  -92.3170  -20.0400    9.1320 C   0  0  0  0  0
  -91.8400  -20.7830    8.0460 C   0  0  0  0  0
  -79.9661  -17.1140   -0.6215 H   0  0  0  0  0
  -78.1155  -15.7940    1.1348 H   0  0  0  0  0
  -78.4896  -17.0940    2.2929 H   0  0  0  0  0
  -80.4627  -16.0717    0.2567 H   0  0  0  0  0
  -80.8658  -14.1994    1.6267 H   0  0  0  0  0
  -79.5226  -14.6424    2.6035 H   0  0  0  0  0
  -80.6468  -18.3557    1.7701 H   0  0  0  0  0
  -82.0528  -17.4327    1.4458 H   0  0  0  0  0
  -80.2700  -17.2400    3.9500 H   0  0  0  0  0
  -81.9235  -17.5027    3.9278 H   0  0  0  0  0
  -84.8327  -14.9372    3.5577 H   0  0  0  0  0
  -81.6367  -15.1475    6.4244 H   0  0  0  0  0
  -83.3036  -15.6969    8.1609 H   0  0  0  0  0
  -85.7210  -15.7989    7.6565 H   0  0  0  0  0
  -86.9529  -15.0925    4.1985 H   0  0  0  0  0
  -91.0611  -16.4740    5.8999 H   0  0  0  0  0
  -91.9610  -17.7977    7.3133 H   0  0  0  0  0
  -93.7026  -18.0370   12.1638 H   0  0  0  0  0
  -94.0199  -20.5038   12.0369 H   0  0  0  0  0
  -93.1652  -21.7736   10.0850 H   0  0  0  0  0
  -92.2956  -20.4142    7.1270 H   0  0  0  0  0
  -90.7568  -20.6783    7.9835 H   0  0  0  0  0
  -92.0974  -21.8330    8.1847 H   0  0  0  0  0
  1  2  1  0  0  0
  2  3  2  0  0  0
  2  4  1  0  0  0
  4  5  1  0  0  0
  5  6  1  0  0  0
  5  7  1  0  0  0
  6  9  1  0  0  0
  7  8  1  0  0  0
  8  9  1  0  0  0
  9 10  1  0  0  0
 10 11  2  0  0  0
 10 12  1  0  0  0
 12 13  4  0  0  0
 12 14  4  0  0  0
 13 17  4  0  0  0
 14 15  4  0  0  0
 15 16  4  0  0  0
 16 17  4  0  0  0
 17 18  1  0  0  0
 18 19  1  0  0  0
 19 20  4  0  0  0
 19 21  4  0  0  0
 20 23  4  0  0  0
 21 22  4  0  0  0
 22 23  4  0  0  0
 23 24  1  0  0  0
 24 25  2  0  0  0
 24 26  1  0  0  0
 26 27  1  0  0  0
 27 28  4  0  0  0
 27 33  4  0  0  0
 28 29  1  0  0  0
 28 30  4  0  0  0
 30 31  4  0  0  0
 31 32  4  0  0  0
 32 33  4  0  0  0
 33 34  1  0  0  0
  1 35  1  0  0  0
  4 36  1  0  0  0
  4 37  1  0  0  0
  5 38  1  0  0  0
  6 39  1  0  0  0
  6 40  1  0  0  0
  7 41  1  0  0  0
  7 42  1  0  0  0
  8 43  1  0  0  0
  8 44  1  0  0  0
 13 45  1  0  0  0
 14 46  1  0  0  0
 15 47  1  0  0  0
 16 48  1  0  0  0
 18 49  1  0  0  0
 22 50  1  0  0  0
 26 51  1  0  0  0
 30 52  1  0  0  0
 31 53  1  0  0  0
 32 54  1  0  0  0
 34 55  1  0  0  0
 34 56  1  0  0  0
 34 57  1  0  0  0
M  END
$$$$
