1fkb_ligand
  -I-interpret- 

144147  0  0  0  0  0  0  0  0999 V2000
    4.6330    8.5000   12.8470 C   0  0  0  0  0
    4.2640    9.5930   13.6790 O   0  0  0  0  0
    5.3670    8.7260   11.8880 O   0  0  0  0  0
    4.1770    7.0700   13.1350 C   0  0  0  0  0
    3.7200    6.3740   11.8620 C   0  0  0  0  0
    2.3540    6.8320   11.3720 C   0  0  0  0  0
    1.3600    6.6530   12.5050 C   0  0  0  0  0
    1.7830    7.4300   13.7130 C   0  0  0  0  0
    3.1050    6.9340   14.1270 N   0  0  0  0  0
    3.3850    6.5490   15.3820 C   0  0  0  0  0
    4.5520    6.2370   15.6540 O   0  0  0  0  0
    2.3970    6.4090   16.3810 C   0  0  0  0  0
    1.7830    5.3390   16.4740 O   0  0  0  0  0
    2.0560    7.5410   17.3680 C   0  0  0  0  0
    1.2800    8.4570   16.6310 O   0  0  0  0  0
    1.3100    6.9920   18.4580 O   0  0  0  0  0
    3.3320    8.2820   17.9400 C   0  0  0  0  0
    2.9420    9.5910   18.6640 C   0  0  0  0  0
    2.0100   10.4230   17.7950 C   0  0  0  0  0
    0.8420    9.6280   17.2210 C   0  0  0  0  0
    0.1930   10.4130   16.0940 C   0  0  0  0  0
   -0.5820   11.6640   16.4900 C   0  0  0  0  0
   -1.6270   11.2720   17.3240 O   0  0  0  0  0
   -1.1450   12.3710   15.2760 C   0  0  0  0  0
   -0.6720   13.5710   14.9670 C   0  0  0  0  0
   -1.0960   14.3670   13.8070 C   0  0  0  0  0
   -0.5860   15.5780   13.6340 C   0  0  0  0  0
   -0.9000   16.3770   12.4350 C   0  0  0  0  0
   -0.2480   17.4880   12.1490 C   0  0  0  0  0
   -0.4500   18.2890   10.8810 C   0  0  0  0  0
    0.9110   18.4010   10.2160 C   0  0  0  0  0
    1.6740   17.1120    9.9750 C   0  0  0  0  0
    3.1570   17.3910    9.7710 C   0  0  0  0  0
    3.6110   17.6690    8.6630 O   0  0  0  0  0
    4.0480   17.2970   11.0050 C   0  0  0  0  0
    5.2100   18.0500   10.7780 O   0  0  0  0  0
    4.5130   15.8410   11.3290 C   0  0  0  0  0
    4.8240   15.2000   10.0840 O   0  0  0  0  0
    3.4620   15.0140   12.0940 C   0  0  0  0  0
    2.8080   13.9890   11.5490 C   0  0  0  0  0
    1.7730   13.0420   12.1750 C   0  0  0  0  0
    2.4330   11.7010   12.4950 C   0  0  0  0  0
    2.2640   10.7010   11.7910 O   0  0  0  0  0
    3.3580   11.6930   13.7070 C   0  0  0  0  0
    4.6300   10.9090   13.4550 C   0  0  0  0  0
    5.8460   11.1690   14.3670 C   0  0  0  0  0
    6.5510   12.4800   14.0270 C   0  0  0  0  0
    7.2100   12.5860   12.6500 C   0  0  0  0  0
    7.8120   13.9830   12.4610 C   0  0  0  0  0
    8.3860   14.2020   11.0590 C   0  0  0  0  0
    9.0410   15.4440   11.0860 O   0  0  0  0  0
    9.3990   13.0570   10.7110 C   0  0  0  0  0
    9.8030   13.1890    9.3490 O   0  0  0  0  0
    8.8190   11.6450   10.9300 C   0  0  0  0  0
    8.2430   11.5050   12.3320 C   0  0  0  0  0
    4.2580    7.4120   18.8400 C   0  0  0  0  0
   -2.2570   11.6210   14.5220 C   0  0  0  0  0
   -1.0140   19.6680   11.1900 C   0  0  0  0  0
    1.0990   16.3270    8.7930 C   0  0  0  0  0
    3.2220   15.4750   13.5190 C   0  0  0  0  0
    0.6250   12.8300   11.1750 C   0  0  0  0  0
    5.4820   11.1300   15.8240 C   0  0  0  0  0
   -2.1230   12.2430   18.1890 C   0  0  0  0  0
    5.1340   19.3870   11.1300 C   0  0  0  0  0
    8.3520   16.5240   10.5560 C   0  0  0  0  0
    5.0660    6.6025   13.5584 H   0  0  0  0  0
    3.6478    5.3086   12.0806 H   0  0  0  0  0
    4.4432    6.6126   11.0821 H   0  0  0  0  0
    2.0482    6.2417   10.5082 H   0  0  0  0  0
    2.3952    7.8789   11.0712 H   0  0  0  0  0
    1.3126    5.5959   12.7665 H   0  0  0  0  0
    0.3857    7.0159   12.1777 H   0  0  0  0  0
    1.0606    7.2995   14.5188 H   0  0  0  0  0
    1.8340    8.4936   13.4799 H   0  0  0  0  0
    1.0924    7.6906   19.0794 H   0  0  0  0  0
    3.9292    8.5140   17.0582 H   0  0  0  0  0
    3.8453   10.1664   18.8666 H   0  0  0  0  0
    2.4313    9.3426   19.5943 H   0  0  0  0  0
    2.5942   10.7994   16.9553 H   0  0  0  0  0
    1.5931   11.2107   18.4226 H   0  0  0  0  0
    0.1589    9.4289   18.0467 H   0  0  0  0  0
   -0.5343    9.7404   15.6393 H   0  0  0  0  0
    1.0089   10.7541   15.4568 H   0  0  0  0  0
    0.0886   12.3582   16.9965 H   0  0  0  0  0
    0.0873   13.9982   15.6220 H   0  0  0  0  0
   -1.8206   13.9667   13.0979 H   0  0  0  0  0
    0.0785   15.9914   14.3927 H   0  0  0  0  0
   -1.6925   16.0406   11.7666 H   0  0  0  0  0
    0.4823   17.8518   12.8718 H   0  0  0  0  0
   -1.1678   17.7979   10.2239 H   0  0  0  0  0
    1.5268   18.9857   10.8994 H   0  0  0  0  0
    0.7237   18.8228    9.2285 H   0  0  0  0  0
    1.5604   16.4927   10.8647 H   0  0  0  0  0
    3.4541   17.6629   11.8426 H   0  0  0  0  0
    5.3801   15.8998   11.9868 H   0  0  0  0  0
    5.1138   14.3004   10.2522 H   0  0  0  0  0
    3.0424   13.7932   10.5027 H   0  0  0  0  0
    1.3836   13.4750   13.0964 H   0  0  0  0  0
    2.8278   11.2203   14.5338 H   0  0  0  0  0
    3.6345   12.7239   13.9280 H   0  0  0  0  0
    4.9711   11.1954   12.4602 H   0  0  0  0  0
    6.5443   10.3542   14.1759 H   0  0  0  0  0
    7.3612   12.5754   14.7499 H   0  0  0  0  0
    5.7747   13.2450   14.0422 H   0  0  0  0  0
    6.4063   12.4160   11.9336 H   0  0  0  0  0
    8.6284   14.0922   13.1749 H   0  0  0  0  0
    7.0149   14.7112   12.6110 H   0  0  0  0  0
    7.6025   14.1903   10.3013 H   0  0  0  0  0
   10.2464   13.1634   11.3882 H   0  0  0  0  0
   10.4236   12.4897    9.1313 H   0  0  0  0  0
    9.6185   10.9147   10.8053 H   0  0  0  0  0
    8.0220   11.4775   10.2056 H   0  0  0  0  0
    7.7476   10.5363   12.3972 H   0  0  0  0  0
    9.0626   11.6026   13.0440 H   0  0  0  0  0
    3.6940    7.0552   19.7018 H   0  0  0  0  0
    4.6246    6.5608   18.2663 H   0  0  0  0  0
    5.1014    8.0131   19.1797 H   0  0  0  0  0
   -3.1715   12.2138   14.5423 H   0  0  0  0  0
   -1.9492   11.4607   13.4887 H   0  0  0  0  0
   -2.4352   10.6591   15.0028 H   0  0  0  0  0
   -1.9749   19.5617   11.6934 H   0  0  0  0  0
   -0.3210   20.2060   11.8369 H   0  0  0  0  0
   -1.1486   20.2208   10.2603 H   0  0  0  0  0
    0.0576   16.0774    8.9964 H   0  0  0  0  0
    1.1585   16.9358    7.8908 H   0  0  0  0  0
    1.6729   15.4109    8.6532 H   0  0  0  0  0
    2.1794   15.7718   13.6328 H   0  0  0  0  0
    3.4458   14.6590   14.2061 H   0  0  0  0  0
    3.8689   16.3243   13.7386 H   0  0  0  0  0
    0.1593   13.7894   10.9497 H   0  0  0  0  0
    1.0197   12.3920   10.2582 H   0  0  0  0  0
   -0.1152   12.1588   11.6105 H   0  0  0  0  0
    4.7335   11.8949   16.0308 H   0  0  0  0  0
    5.0776   10.1482   16.0700 H   0  0  0  0  0
    6.3718   11.3188   16.4247 H   0  0  0  0  0
   -1.3241   12.5831   18.8479 H   0  0  0  0  0
   -2.5009   13.0852   17.6094 H   0  0  0  0  0
   -2.9311   11.8185   18.7847 H   0  0  0  0  0
    4.3398   19.8673   10.5584 H   0  0  0  0  0
    4.9175   19.4692   12.1951 H   0  0  0  0  0
    6.0850   19.8733   10.9126 H   0  0  0  0  0
    8.1269   16.3305    9.5072 H   0  0  0  0  0
    7.4230   16.6669   11.1079 H   0  0  0  0  0
    8.9663   17.4207   10.6377 H   0  0  0  0  0
  1  3  2  0  0  0
  4  1  1  0  0  0
  4  5  1  0  0  0
  9  4  1  0  0  0
  5  6  1  0  0  0
  7  6  1  0  0  0
  8  7  1  0  0  0
  9  8  1  0  0  0
 10  9  1  0  0  0
 10 11  2  0  0  0
 12 10  1  0  0  0
 12 13  2  0  0  0
 14 12  1  0  0  0
 14 16  1  0  0  0
 14 17  1  0  0  0
 18 17  1  0  0  0
 17 56  1  0  0  0
 19 18  1  0  0  0
 20 19  1  0  0  0
 21 20  1  0  0  0
 22 21  1  0  0  0
 22 23  1  0  0  0
 24 22  1  0  0  0
 23 63  1  0  0  0
 24 57  1  0  0  0
 26 25  1  0  0  0
 27 26  2  0  0  0
 28 27  1  0  0  0
 29 30  1  0  0  0
 30 31  1  0  0  0
 30 58  1  0  0  0
 31 32  1  0  0  0
 32 33  1  0  0  0
 32 59  1  0  0  0
 33 34  2  0  0  0
 33 35  1  0  0  0
 35 36  1  0  0  0
 35 37  1  0  0  0
 36 64  1  0  0  0
 37 38  1  0  0  0
 37 39  1  0  0  0
 39 60  1  0  0  0
 41 40  1  0  0  0
 42 41  1  0  0  0
 41 61  1  0  0  0
 42 43  2  0  0  0
 44 42  1  0  0  0
 45 44  1  0  0  0
 45 46  1  0  0  0
 46 47  1  0  0  0
 46 62  1  0  0  0
 47 48  1  0  0  0
 48 49  1  0  0  0
 48 55  1  0  0  0
 49 50  1  0  0  0
 50 51  1  0  0  0
 50 52  1  0  0  0
 51 65  1  0  0  0
 52 53  1  0  0  0
 54 52  1  0  0  0
 55 54  1  0  0  0
  1  2  1  0  0  0
  2 45  1  0  0  0
 20 15  1  0  0  0
 15 14  1  0  0  0
 25 24  2  0  0  0
 28 29  2  0  0  0
 39 40  2  0  0  0
  4 66  1  0  0  0
  5 67  1  0  0  0
  5 68  1  0  0  0
  6 69  1  0  0  0
  6 70  1  0  0  0
  7 71  1  0  0  0
  7 72  1  0  0  0
  8 73  1  0  0  0
  8 74  1  0  0  0
 16 75  1  0  0  0
 17 76  1  0  0  0
 18 77  1  0  0  0
 18 78  1  0  0  0
 19 79  1  0  0  0
 19 80  1  0  0  0
 20 81  1  0  0  0
 21 82  1  0  0  0
 21 83  1  0  0  0
 22 84  1  0  0  0
 25 85  1  0  0  0
 26 86  1  0  0  0
 27 87  1  0  0  0
 28 88  1  0  0  0
 29 89  1  0  0  0
 30 90  1  0  0  0
 31 91  1  0  0  0
 31 92  1  0  0  0
 32 93  1  0  0  0
 35 94  1  0  0  0
 37 95  1  0  0  0
 38 96  1  0  0  0
 40 97  1  0  0  0
 41 98  1  0  0  0
 44 99  1  0  0  0
 44100  1  0  0  0
 45101  1  0  0  0
 46102  1  0  0  0
 47103  1  0  0  0
 47104  1  0  0  0
 48105  1  0  0  0
 49106  1  0  0  0
 49107  1  0  0  0
 50108  1  0  0  0
 52109  1  0  0  0
 53110  1  0  0  0
 54111  1  0  0  0
 54112  1  0  0  0
 55113  1  0  0  0
 55114  1  0  0  0
 56115  1  0  0  0
 56116  1  0  0  0
 56117  1  0  0  0
 57118  1  0  0  0
 57119  1  0  0  0
 57120  1  0  0  0
 58121  1  0  0  0
 58122  1  0  0  0
 58123  1  0  0  0
 59124  1  0  0  0
 59125  1  0  0  0
 59126  1  0  0  0
 60127  1  0  0  0
 60128  1  0  0  0
 60129  1  0  0  0
 61130  1  0  0  0
 61131  1  0  0  0
 61132  1  0  0  0
 62133  1  0  0  0
 62134  1  0  0  0
 62135  1  0  0  0
 63136  1  0  0  0
 63137  1  0  0  0
 63138  1  0  0  0
 64139  1  0  0  0
 64140  1  0  0  0
 64141  1  0  0  0
 65142  1  0  0  0
 65143  1  0  0  0
 65144  1  0  0  0
M  END
$$$$
