2jfh_ligand
  -I-interpret- 

 51 52  0  0  0  0  0  0  0  0999 V2000
   21.9100   -4.5900   18.4290 O   0  0  0  0  0
   21.8960   -4.2890   19.8140 S   0  0  0  0  0
   21.6840   -5.4490   20.5860 O   0  0  0  0  0
   23.2680   -3.6380   20.3080 N   0  0  0  0  0
   24.6290   -3.8380   19.8440 C   0  0  0  0  0
   25.3050   -5.1450   20.2270 C   0  0  0  0  0
   25.6270   -5.3590   21.3890 O   0  0  0  0  0
   25.3980   -5.9360   19.2930 O   0  0  0  0  0
   25.4110   -2.6580   20.4150 C   0  0  0  0  0
   26.7770   -2.5710   19.7860 C   0  0  0  0  0
   27.4540   -1.3150   20.2360 C   0  0  0  0  0
   27.9500   -1.3150   21.3630 O   0  0  0  0  0
   27.4870   -0.3600   19.4490 O   0  0  0  0  0
   20.8230   -3.1900   20.1820 C   0  0  0  0  0
   20.5440   -3.0640   21.5230 C   0  0  0  0  0
   19.6630   -2.1230   22.0020 C   0  0  0  0  0
   19.0480   -1.2710   21.1090 C   0  0  0  0  0
   18.1580   -0.3560   21.6070 C   0  0  0  0  0
   17.5430    0.5350   20.7710 C   0  0  0  0  0
   17.7780    0.4820   19.4000 C   0  0  0  0  0
   18.6650   -0.4600   18.8950 C   0  0  0  0  0
   19.3190   -1.3500   19.7510 C   0  0  0  0  0
   20.2190   -2.3190   19.2720 C   0  0  0  0  0
   16.6610    1.4250   21.3000 O   0  0  0  0  0
   15.4310    1.5780   20.6070 C   0  0  0  0  0
   14.3090    0.8080   21.2630 C   0  0  0  0  0
   13.0040    1.1700   20.5780 C   0  0  0  0  0
   11.8530    1.2940   21.5410 C   0  0  0  0  0
   23.1724   -2.9727   21.0752 H   0  0  0  0  0
   24.6067   -3.8970   18.7558 H   0  0  0  0  0
   25.0774   -5.5198   18.4895 H   0  0  0  0  0
   25.5260   -2.7982   21.4898 H   0  0  0  0  0
   24.8660   -1.7381   20.2031 H   0  0  0  0  0
   26.6773   -2.5613   18.7006 H   0  0  0  0  0
   27.3719   -3.4328   20.0884 H   0  0  0  0  0
   27.0343   -0.6000   18.6372 H   0  0  0  0  0
   21.0374   -3.7319   22.2291 H   0  0  0  0  0
   19.4543   -2.0518   23.0695 H   0  0  0  0  0
   17.9390   -0.3380   22.6746 H   0  0  0  0  0
   17.2701    1.1741   18.7283 H   0  0  0  0  0
   18.8525   -0.5054   17.8222 H   0  0  0  0  0
   20.4417   -2.3892   18.2073 H   0  0  0  0  0
   15.5608    1.1936   19.5953 H   0  0  0  0  0
   15.1666    2.6354   20.6134 H   0  0  0  0  0
   14.2545    1.0631   22.3213 H   0  0  0  0  0
   14.4912   -0.2626   21.1700 H   0  0  0  0  0
   12.7650    0.3733   19.8736 H   0  0  0  0  0
   13.1389    2.1370   20.0934 H   0  0  0  0  0
   11.7071    0.3440   22.0551 H   0  0  0  0  0
   12.0737    2.0732   22.2705 H   0  0  0  0  0
   10.9480    1.5543   20.9920 H   0  0  0  0  0
  1  2  2  0  0  0
  2  3  2  0  0  0
  2  4  1  0  0  0
  2 14  1  0  0  0
  4  5  1  0  0  0
  5  6  1  0  0  0
  5  9  1  0  0  0
  6  7  2  0  0  0
  6  8  1  0  0  0
  9 10  1  0  0  0
 10 11  1  0  0  0
 11 12  2  0  0  0
 11 13  1  0  0  0
 14 15  4  0  0  0
 14 23  4  0  0  0
 15 16  4  0  0  0
 16 17  4  0  0  0
 17 18  4  0  0  0
 17 22  4  0  0  0
 18 19  4  0  0  0
 19 20  4  0  0  0
 19 24  1  0  0  0
 20 21  4  0  0  0
 21 22  4  0  0  0
 22 23  4  0  0  0
 24 25  1  0  0  0
 25 26  1  0  0  0
 26 27  1  0  0  0
 27 28  1  0  0  0
  4 29  1  0  0  0
  5 30  1  0  0  0
  8 31  1  0  0  0
  9 32  1  0  0  0
  9 33  1  0  0  0
 10 34  1  0  0  0
 10 35  1  0  0  0
 13 36  1  0  0  0
 15 37  1  0  0  0
 16 38  1  0  0  0
 18 39  1  0  0  0
 20 40  1  0  0  0
 21 41  1  0  0  0
 23 42  1  0  0  0
 25 43  1  0  0  0
 25 44  1  0  0  0
 26 45  1  0  0  0
 26 46  1  0  0  0
 27 47  1  0  0  0
 27 48  1  0  0  0
 28 49  1  0  0  0
 28 50  1  0  0  0
 28 51  1  0  0  0
M  END
$$$$
