4j1h_ligand
  -I-interpret- 

 45 47  0  0  0  0  0  0  0  0999 V2000
   14.6520   40.9890   -9.7980 C   0  0  0  0  0
   16.0300   40.3540   -9.9920 C   0  0  0  0  0
   14.5460   41.3950   -8.4100 O   0  0  0  0  0
   14.6810   40.3910   -7.5620 C   0  0  0  0  0
   15.4580   39.3830   -7.7730 N   0  0  0  0  0
   16.2630   39.2090   -8.9670 C   0  0  0  0  0
   17.6800   39.3920   -8.5390 C   0  0  0  0  0
   17.9560   39.9510   -7.3190 C   0  0  0  0  0
   19.2970   40.1260   -6.9780 C   0  0  0  0  0
   20.3620   39.8590   -7.8600 C   0  0  0  0  0
   20.0530   39.3160   -9.0860 C   0  0  0  0  0
   18.7320   39.1010   -9.4210 C   0  0  0  0  0
   18.5000   38.5740  -10.6320 F   0  0  0  0  0
   13.9600   40.4610   -6.3950 N   0  0  0  0  0
   15.9510   37.8570   -9.6510 C   0  0  0  0  0
   19.5750   40.7300   -5.7800 N   0  0  0  0  0
   20.7540   41.2730   -5.4000 C   0  0  0  0  0
   20.7100   41.9840   -4.1100 C   0  0  0  0  0
   21.7740   41.2570   -6.0810 O   0  0  0  0  0
   19.6590   41.7760   -3.3210 N   0  0  0  0  0
   19.5040   42.3960   -2.1690 C   0  0  0  0  0
   20.4500   43.3380   -1.7790 C   0  0  0  0  0
   21.5950   43.6370   -2.5950 C   0  0  0  0  0
   21.7170   42.9250   -3.7960 C   0  0  0  0  0
   20.2590   43.9800   -0.5220 C   0  0  0  0  0
   20.0860   44.4790    0.4740 N   0  0  0  0  0
   14.6270   42.2980  -10.5940 C   0  0  0  0  0
   14.7150   41.9730  -11.9380 F   0  0  0  0  0
   13.3450   42.8360  -10.4220 F   0  0  0  0  0
   15.6820   43.2020  -10.1920 F   0  0  0  0  0
   13.8679   40.2940  -10.0984 H   0  0  0  0  0
   16.7923   41.1186   -9.8424 H   0  0  0  0  0
   16.0863   39.9398  -10.9987 H   0  0  0  0  0
   15.5096   38.6617   -7.0536 H   0  0  0  0  0
   17.1569   40.2481   -6.6398 H   0  0  0  0  0
   21.3935   40.0746   -7.5816 H   0  0  0  0  0
   20.8462   39.0576   -9.7875 H   0  0  0  0  0
   14.0405   39.7183   -5.7005 H   0  0  0  0  0
   16.5623   37.7553  -10.5477 H   0  0  0  0  0
   16.1755   37.0425   -8.9623 H   0  0  0  0  0
   14.8961   37.8239   -9.9233 H   0  0  0  0  0
   18.8128   40.7749   -5.1037 H   0  0  0  0  0
   18.6480   42.1743   -1.5317 H   0  0  0  0  0
   22.3324   44.3812   -2.2943 H   0  0  0  0  0
   22.5606   43.0914   -4.4659 H   0  0  0  0  0
  1  2  1  0  0  0
  1  3  1  0  0  0
  1 27  1  0  0  0
  2  6  1  0  0  0
  3  4  1  0  0  0
  4  5  1  0  0  0
  4 14  2  0  0  0
  5  6  1  0  0  0
  6  7  1  0  0  0
  6 15  1  0  0  0
  7  8  4  0  0  0
  7 12  4  0  0  0
  8  9  4  0  0  0
  9 10  4  0  0  0
  9 16  1  0  0  0
 10 11  4  0  0  0
 11 12  4  0  0  0
 12 13  1  0  0  0
 16 17  1  0  0  0
 17 18  1  0  0  0
 17 19  2  0  0  0
 18 20  4  0  0  0
 18 24  4  0  0  0
 20 21  4  0  0  0
 21 22  4  0  0  0
 22 23  4  0  0  0
 22 25  1  0  0  0
 23 24  4  0  0  0
 25 26  3  0  0  0
 27 28  1  0  0  0
 27 29  1  0  0  0
 27 30  1  0  0  0
  1 31  1  0  0  0
  2 32  1  0  0  0
  2 33  1  0  0  0
  5 34  1  0  0  0
  8 35  1  0  0  0
 10 36  1  0  0  0
 11 37  1  0  0  0
 14 38  1  0  0  0
 15 39  1  0  0  0
 15 40  1  0  0  0
 15 41  1  0  0  0
 16 42  1  0  0  0
 21 43  1  0  0  0
 23 44  1  0  0  0
 24 45  1  0  0  0
M  END
$$$$
