4p1r_ligand
  -I-interpret- 

 42 45  0  0  0  0  0  0  0  0999 V2000
   27.5930  -73.1510  -23.4310 C   0  0  0  0  0
   27.1500  -74.4900  -23.0650 O   0  0  0  0  0
   26.2280  -75.0380  -24.0160 C   0  0  0  0  0
   25.9840  -74.5160  -25.2230 N   0  0  0  0  0
   25.0260  -75.3080  -25.8430 C   0  0  0  0  0
   24.3950  -75.2660  -27.0740 C   0  0  0  0  0
   23.4370  -76.2480  -27.4200 C   0  0  0  0  0
   23.1600  -77.2420  -26.4910 C   0  0  0  0  0
   23.7690  -77.2750  -25.3170 N   0  0  0  0  0
   24.7040  -76.3220  -24.9680 C   0  0  0  0  0
   25.4720  -76.1610  -23.8430 N   0  0  0  0  0
   25.4140  -76.9260  -22.7220 C   0  0  0  0  0
   25.7640  -78.2800  -22.6730 C   0  0  0  0  0
   25.6560  -78.9730  -21.4650 C   0  0  0  0  0
   25.1950  -78.3240  -20.3340 C   0  0  0  0  0
   25.0340  -78.9430  -19.0330 N   0  0  0  0  0
   25.1680  -80.3400  -18.6990 C   0  0  0  0  0
   25.3030  -80.6730  -17.3120 C   0  0  0  0  0
   25.4370  -81.9970  -16.9120 C   0  0  0  0  0
   25.4260  -82.9590  -17.8890 C   0  0  0  0  0
   25.5650  -84.4570  -17.4790 C   0  0  0  0  0
   25.2760  -82.5910  -19.2650 C   0  0  0  0  0
   25.1400  -81.2930  -19.6140 N   0  0  0  0  0
   24.8500  -76.9670  -20.4050 C   0  0  0  0  0
   24.9560  -76.2880  -21.5850 C   0  0  0  0  0
   28.0892  -73.1863  -24.4009 H   0  0  0  0  0
   26.7305  -72.4869  -23.4866 H   0  0  0  0  0
   28.2896  -72.7817  -22.6783 H   0  0  0  0  0
   24.6373  -74.4723  -27.7807 H   0  0  0  0  0
   22.9322  -76.2249  -28.3858 H   0  0  0  0  0
   22.4261  -78.0105  -26.7338 H   0  0  0  0  0
   26.1177  -78.7893  -23.5694 H   0  0  0  0  0
   25.9351  -80.0254  -21.4137 H   0  0  0  0  0
   24.7982  -78.3170  -18.2630 H   0  0  0  0  0
   25.3006  -79.8805  -16.5637 H   0  0  0  0  0
   25.5468  -82.2611  -15.8602 H   0  0  0  0  0
   26.5128  -84.6042  -16.9611 H   0  0  0  0  0
   24.7422  -84.7293  -16.8180 H   0  0  0  0  0
   25.5369  -85.0810  -18.3723 H   0  0  0  0  0
   25.2715  -83.3625  -20.0349 H   0  0  0  0  0
   24.4950  -76.4509  -19.5130 H   0  0  0  0  0
   24.6773  -75.2352  -21.6304 H   0  0  0  0  0
  1  2  1  0  0  0
  2  3  1  0  0  0
  3  4  4  0  0  0
  3 11  4  0  0  0
  4  5  4  0  0  0
  5  6  4  0  0  0
  5 10  4  0  0  0
  6  7  4  0  0  0
  7  8  4  0  0  0
  8  9  4  0  0  0
  9 10  4  0  0  0
 10 11  4  0  0  0
 11 12  1  0  0  0
 12 13  4  0  0  0
 12 25  4  0  0  0
 13 14  4  0  0  0
 14 15  4  0  0  0
 15 16  1  0  0  0
 15 24  4  0  0  0
 16 17  1  0  0  0
 17 18  4  0  0  0
 17 23  4  0  0  0
 18 19  4  0  0  0
 19 20  4  0  0  0
 20 21  1  0  0  0
 20 22  4  0  0  0
 22 23  4  0  0  0
 24 25  4  0  0  0
  1 26  1  0  0  0
  1 27  1  0  0  0
  1 28  1  0  0  0
  6 29  1  0  0  0
  7 30  1  0  0  0
  8 31  1  0  0  0
 13 32  1  0  0  0
 14 33  1  0  0  0
 16 34  1  0  0  0
 18 35  1  0  0  0
 19 36  1  0  0  0
 21 37  1  0  0  0
 21 38  1  0  0  0
 21 39  1  0  0  0
 22 40  1  0  0  0
 24 41  1  0  0  0
 25 42  1  0  0  0
M  END
$$$$
