2zu3_ligand
  -I-interpret- 

 93 94  0  0  0  0  0  0  0  0999 V2000
   15.3670   15.9910   29.1240 C   0  0  0  0  0
   16.4970   15.1660   29.6360 C   0  0  0  0  0
   16.2720   14.1920   30.5900 C   0  0  0  0  0
   14.9040   13.9680   31.1110 C   0  0  0  0  0
   13.8770   14.7230   30.6450 C   0  0  0  0  0
   14.1090   15.7790   29.6070 C   0  0  0  0  0
   17.4060   13.3320   31.1210 C   0  0  0  0  0
   18.2500   12.8500   30.0280 O   0  0  0  0  0
   17.5530   11.9850   29.1580 C   0  0  0  0  0
   17.4470   12.3090   27.9600 O   0  0  0  0  0
   16.9140   10.8240   29.7430 N   0  0  0  0  0
   16.0280    9.8390   29.1250 C   0  0  0  0  0
   14.6310    9.9620   29.7650 C   0  0  0  0  0
   14.6700    9.9730   31.2690 N   0  0  0  0  0
   15.3200    8.9230   32.0440 C   0  0  0  0  0
   16.0790    9.9330   27.5880 C   0  0  0  0  0
   15.3270   10.9270   26.7940 N   0  0  0  0  0
   16.8520    9.1690   27.0510 O   0  0  0  0  0
   15.4400   10.3880   25.3150 C   0  0  0  0  0
   16.7670   10.7830   24.6610 C   0  0  0  0  0
   14.3130   11.0970   24.6830 C   0  0  0  0  0
   15.8690    7.9850   31.4520 O   0  0  0  0  0
   15.3310    8.9450   33.5810 C   0  0  0  0  0
   17.6720   11.5990   24.8180 O   0  0  0  0  0
   17.0400    9.6220   23.8300 N   0  0  0  0  0
   12.7270   11.0060   24.8770 C   0  0  0  0  0
   12.0160   11.7870   23.7790 C   0  0  0  0  0
   11.8730    9.7860   25.2290 C   0  0  0  0  0
   18.3690    9.4680   23.1710 C   0  0  0  0  0
   19.1890    8.3520   23.8930 C   0  0  0  0  0
   19.6840    8.6650   25.3270 C   0  0  0  0  0
   18.1580    9.1470   21.6680 C   0  0  0  0  0
   20.6410    7.6710   25.8190 C   0  0  0  0  0
   20.7120    6.4940   25.4160 O   0  0  0  0  0
   21.4790    8.2360   26.8230 N   0  0  0  0  0
   21.0790    9.6570   27.0130 C   0  0  0  0  0
   20.4960    9.9640   25.6050 C   0  0  0  0  0
   13.9440    8.5900   34.1660 C   0  0  0  0  0
   15.7860   10.3540   34.0710 C   0  0  0  0  0
   16.3840    7.9450   34.1270 C   0  0  0  0  0
   17.3770   10.2940   20.9780 C   0  0  0  0  0
   18.3070   11.3840   20.4470 C   0  0  0  0  0
   17.7730   12.7770   20.1780 C   0  0  0  0  0
   19.5060   11.1380   20.2270 O   0  0  0  0  0
   15.5440   16.7577   28.3697 H   0  0  0  0  0
   17.5053   15.3314   29.2565 H   0  0  0  0  0
   14.7230   13.2013   31.8643 H   0  0  0  0  0
   12.8707   14.5593   31.0305 H   0  0  0  0  0
   13.2746   16.3761   29.2390 H   0  0  0  0  0
   16.9814   12.4735   31.6413 H   0  0  0  0  0
   18.0154   13.9326   31.7963 H   0  0  0  0  0
   17.1114   10.6712   30.7320 H   0  0  0  0  0
   16.3618    8.8208   29.3246 H   0  0  0  0  0
   14.0471    9.0953   29.4551 H   0  0  0  0  0
   14.1988   10.9077   29.4379 H   0  0  0  0  0
   14.2246   10.7447   31.7655 H   0  0  0  0  0
   14.8476   11.7646   27.1242 H   0  0  0  0  0
   15.4095    9.3015   25.2333 H   0  0  0  0  0
   14.3902   10.6866   23.6762 H   0  0  0  0  0
   14.4825   12.0937   25.0903 H   0  0  0  0  0
   16.3209    8.9109   23.6973 H   0  0  0  0  0
   12.7833   11.3857   25.8972 H   0  0  0  0  0
   12.3216   12.8324   23.8223 H   0  0  0  0  0
   12.2814   11.3695   22.8078 H   0  0  0  0  0
   10.9380   11.7160   23.9241 H   0  0  0  0  0
   11.9985    9.0225   24.4612 H   0  0  0  0  0
   12.1894    9.3887   26.1934 H   0  0  0  0  0
   10.8250   10.0808   25.2822 H   0  0  0  0  0
   18.9378   10.3949   23.2443 H   0  0  0  0  0
   20.0866    8.2045   23.2924 H   0  0  0  0  0
   18.5154    7.5004   23.9884 H   0  0  0  0  0
   18.7029    8.7181   25.7989 H   0  0  0  0  0
   17.5868    8.2230   21.5781 H   0  0  0  0  0
   19.1302    9.0387   21.1872 H   0  0  0  0  0
   22.2234    7.7512   27.3243 H   0  0  0  0  0
   21.8915   10.3167   27.3176 H   0  0  0  0  0
   20.3824    9.8227   27.8348 H   0  0  0  0  0
   19.8974   10.8741   25.5654 H   0  0  0  0  0
   21.2543   10.1786   24.8520 H   0  0  0  0  0
   13.2076    9.3136   33.8164 H   0  0  0  0  0
   13.6576    7.5908   33.8378 H   0  0  0  0  0
   13.9927    8.6163   35.2546 H   0  0  0  0  0
   16.7875   10.5623   33.6946 H   0  0  0  0  0
   15.0925   11.1081   33.6989 H   0  0  0  0  0
   15.7949   10.3729   35.1608 H   0  0  0  0  0
   16.1384    6.9390   33.7869 H   0  0  0  0  0
   17.3719    8.2230   33.7597 H   0  0  0  0  0
   16.3790    7.9729   35.2166 H   0  0  0  0  0
   16.7117   10.7439   21.7150 H   0  0  0  0  0
   16.8296    9.8734   20.1345 H   0  0  0  0  0
   18.3141   13.4970   20.7919 H   0  0  0  0  0
   17.9103   13.0202   19.1244 H   0  0  0  0  0
   16.7119   12.8119   20.4250 H   0  0  0  0  0
  1  2  4  0  0  0
  1  6  4  0  0  0
  2  3  4  0  0  0
  3  4  4  0  0  0
  3  7  1  0  0  0
  4  5  4  0  0  0
  5  6  4  0  0  0
  7  8  1  0  0  0
  8  9  1  0  0  0
  9 10  2  0  0  0
  9 11  1  0  0  0
 11 12  1  0  0  0
 12 13  1  0  0  0
 12 16  1  0  0  0
 13 14  1  0  0  0
 14 15  1  0  0  0
 15 22  2  0  0  0
 15 23  1  0  0  0
 16 17  1  0  0  0
 16 18  2  0  0  0
 17 19  1  0  0  0
 19 20  1  0  0  0
 19 21  1  0  0  0
 20 24  2  0  0  0
 20 25  1  0  0  0
 21 26  1  0  0  0
 23 38  1  0  0  0
 23 39  1  0  0  0
 23 40  1  0  0  0
 25 29  1  0  0  0
 26 27  1  0  0  0
 26 28  1  0  0  0
 29 30  1  0  0  0
 29 32  1  0  0  0
 30 31  1  0  0  0
 31 33  1  0  0  0
 31 37  1  0  0  0
 32 41  1  0  0  0
 33 34  2  0  0  0
 33 35  1  0  0  0
 35 36  1  0  0  0
 36 37  1  0  0  0
 41 42  1  0  0  0
 42 43  1  0  0  0
 42 44  2  0  0  0
  1 45  1  0  0  0
  2 46  1  0  0  0
  4 47  1  0  0  0
  5 48  1  0  0  0
  6 49  1  0  0  0
  7 50  1  0  0  0
  7 51  1  0  0  0
 11 52  1  0  0  0
 12 53  1  0  0  0
 13 54  1  0  0  0
 13 55  1  0  0  0
 14 56  1  0  0  0
 17 57  1  0  0  0
 19 58  1  0  0  0
 21 59  1  0  0  0
 21 60  1  0  0  0
 25 61  1  0  0  0
 26 62  1  0  0  0
 27 63  1  0  0  0
 27 64  1  0  0  0
 27 65  1  0  0  0
 28 66  1  0  0  0
 28 67  1  0  0  0
 28 68  1  0  0  0
 29 69  1  0  0  0
 30 70  1  0  0  0
 30 71  1  0  0  0
 31 72  1  0  0  0
 32 73  1  0  0  0
 32 74  1  0  0  0
 35 75  1  0  0  0
 36 76  1  0  0  0
 36 77  1  0  0  0
 37 78  1  0  0  0
 37 79  1  0  0  0
 38 80  1  0  0  0
 38 81  1  0  0  0
 38 82  1  0  0  0
 39 83  1  0  0  0
 39 84  1  0  0  0
 39 85  1  0  0  0
 40 86  1  0  0  0
 40 87  1  0  0  0
 40 88  1  0  0  0
 41 89  1  0  0  0
 41 90  1  0  0  0
 43 91  1  0  0  0
 43 92  1  0  0  0
 43 93  1  0  0  0
M  END
$$$$
