### 
### Created by X-TOOL on Mon Nov 21 14:23:33 2016
### 

@<TRIPOS>MOLECULE
9icd_ligand
   38    40     1     0     0
SMALL
GAST_HUCK


@<TRIPOS>ATOM
      1 AP         92.2630   68.0070   -4.8080 P.3       1 NAP         0.2008
      2 AO1        90.9990   67.5990   -4.0720 O.co2     1 NAP        -0.5537
      3 AO2        92.1430   68.3570   -6.2680 O.co2     1 NAP        -0.5537
      4 AO5        92.9560   69.3650   -4.0630 O.3       1 NAP        -0.2734
      5 AC5        92.9840   70.5920   -4.8760 C.3       1 NAP         0.1072
      6 AC4        94.2650   71.4820   -4.9610 C.3       1 NAP         0.1185
      7 AO4        94.6380   72.2440   -3.7720 O.3       1 NAP        -0.3362
      8 AC3        95.5560   70.7450   -5.3140 C.3       1 NAP         0.1196
      9 AO3        95.6060   70.3770   -6.6870 O.3       1 NAP        -0.3860
     10 AC2        96.6440   71.7390   -4.9400 C.3       1 NAP         0.1722
     11 AO2        96.5020   73.0090   -5.5770 O.3       1 NAP        -0.2647
     12 AC1        96.0700   72.1220   -3.6050 C.3       1 NAP         0.2057
     13 AN9        96.4410   71.2080   -2.4800 N.pl3     1 NAP        -0.1916
     14 AC8        95.8060   70.0480   -2.0030 C.2       1 NAP         0.1123
     15 AN7        96.3310   69.6110   -0.8850 N.2       1 NAP        -0.2958
     16 AC5        97.3580   70.5150   -0.5980 C.ar      1 NAP         0.1045
     17 AC6        98.2850   70.5970    0.4440 C.ar      1 NAP         0.1298
     18 AN6        98.3330   69.7400    1.4290 N.pl3     1 NAP        -0.3152
     19 AN1        99.1900   71.5750    0.3900 N.ar      1 NAP        -0.2698
     20 AC2        99.1860   72.4550   -0.6200 C.ar      1 NAP         0.0533
     21 AN3        98.3490   72.4960   -1.6640 N.ar      1 NAP        -0.2714
     22 AC4        97.4410   71.4870   -1.5770 C.ar      1 NAP         0.1613
     23 O3         93.4580   66.8580   -4.7070 O.co2     1 NAP        -0.5537
     24 AP2        97.5240   73.6230   -6.7080 P.3       1 NAP         0.2015
     25 AOP1       97.0190   74.9710   -7.1020 O.co2     1 NAP        -0.5537
     26 AOP2       97.6760   72.5310   -7.7170 O.co2     1 NAP        -0.5537
     27 AOP3       98.9760   73.9170   -6.0420 O.co2     1 NAP        -0.5537
     28 H1         92.1813   71.2383   -4.4913 H         1 NAP         0.0639
     29 H2         92.7478   70.2878   -5.9064 H         1 NAP         0.0639
     30 H3         94.0584   72.2045   -5.7643 H         1 NAP         0.0650
     31 H4         95.6510   69.8332   -4.7060 H         1 NAP         0.0651
     32 H5         95.5548   71.1582   -7.2251 H         1 NAP         0.2100
     33 H6         97.6649   71.3303   -4.9674 H         1 NAP         0.0732
     34 H7         96.4673   73.1144   -3.3457 H         1 NAP         0.1000
     35 H8         94.9698   69.5658   -2.5072 H         1 NAP         0.1349
     36 H9         99.0381   69.8483    2.1720 H         1 NAP         0.1820
     37 H10        97.6657   68.9561    1.4626 H         1 NAP         0.1820
     38 H11        99.9497   73.2237   -0.5882 H         1 NAP         0.0996
@<TRIPOS>BOND
     1    1    2 ar 
     2    1    3 ar 
     3    1    4 1  
     4    1   23 ar 
     5    4    5 1  
     6    5    6 1  
     7    6    7 1  
     8    6    8 1  
     9    7   12 1  
    10    8    9 1  
    11    8   10 1  
    12   10   11 1  
    13   10   12 1  
    14   11   24 1  
    15   12   13 1  
    16   13   14 1  
    17   13   22 1  
    18   14   15 2  
    19   15   16 1  
    20   16   17 ar 
    21   16   22 ar 
    22   17   18 1  
    23   17   19 ar 
    24   19   20 ar 
    25   20   21 ar 
    26   21   22 ar 
    27   24   25 ar 
    28   24   26 ar 
    29   24   27 ar 
    30    5   28 1  
    31    5   29 1  
    32    6   30 1  
    33    8   31 1  
    34    9   32 1  
    35   10   33 1  
    36   12   34 1  
    37   14   35 1  
    38   18   36 1  
    39   18   37 1  
    40   20   38 1  
@<TRIPOS>SUBSTRUCTURE
     1 NAP         1

