9icd_ligand
  -I-interpret- 

 42 44  0  0  0  0  0  0  0  0999 V2000
   92.2630   68.0070   -4.8080 P   0  0  0  0  0
   90.9990   67.5990   -4.0720 O   0  0  0  0  0
   92.1430   68.3570   -6.2680 O   0  0  0  0  0
   92.9560   69.3650   -4.0630 O   0  0  0  0  0
   92.9840   70.5920   -4.8760 C   0  0  0  0  0
   94.2650   71.4820   -4.9610 C   0  0  0  0  0
   94.6380   72.2440   -3.7720 O   0  0  0  0  0
   95.5560   70.7450   -5.3140 C   0  0  0  0  0
   95.6060   70.3770   -6.6870 O   0  0  0  0  0
   96.6440   71.7390   -4.9400 C   0  0  0  0  0
   96.5020   73.0090   -5.5770 O   0  0  0  0  0
   96.0700   72.1220   -3.6050 C   0  0  0  0  0
   96.4410   71.2080   -2.4800 N   0  0  0  0  0
   95.8060   70.0480   -2.0030 C   0  0  0  0  0
   96.3310   69.6110   -0.8850 N   0  0  0  0  0
   97.3580   70.5150   -0.5980 C   0  0  0  0  0
   98.2850   70.5970    0.4440 C   0  0  0  0  0
   98.3330   69.7400    1.4290 N   0  0  0  0  0
   99.1900   71.5750    0.3900 N   0  0  0  0  0
   99.1860   72.4550   -0.6200 C   0  0  0  0  0
   98.3490   72.4960   -1.6640 N   0  0  0  0  0
   97.4410   71.4870   -1.5770 C   0  0  0  0  0
   93.4580   66.8580   -4.7070 O   0  0  0  0  0
   97.5240   73.6230   -6.7080 P   0  0  0  0  0
   97.0190   74.9710   -7.1020 O   0  0  0  0  0
   97.6760   72.5310   -7.7170 O   0  0  0  0  0
   98.9760   73.9170   -6.0420 O   0  0  0  0  0
   91.2120   67.4036   -3.1565 H   0  0  0  0  0
   92.2477   71.2386   -4.3986 H   0  0  0  0  0
   92.8472   70.2328   -5.8960 H   0  0  0  0  0
   93.9160   72.1425   -5.7547 H   0  0  0  0  0
   95.6578   69.7967   -4.7863 H   0  0  0  0  0
   94.9031   69.7508   -6.8751 H   0  0  0  0  0
   97.6412   71.3304   -5.1035 H   0  0  0  0  0
   96.5075   73.0722   -3.2987 H   0  0  0  0  0
   94.9691   69.5653   -2.5077 H   0  0  0  0  0
   97.6722   68.9637    1.4623 H   0  0  0  0  0
   99.0313   69.8472    2.1647 H   0  0  0  0  0
   99.9539   73.2279   -0.5881 H   0  0  0  0  0
   93.5747   66.5990   -3.7900 H   0  0  0  0  0
   98.0107   71.7418   -7.2848 H   0  0  0  0  0
   99.3707   73.0888   -5.7593 H   0  0  0  0  0
  1  2  1  0  0  0
  1  3  2  0  0  0
  1  4  1  0  0  0
  1 23  1  0  0  0
  4  5  1  0  0  0
  5  6  1  0  0  0
  6  7  1  0  0  0
  6  8  1  0  0  0
  7 12  1  0  0  0
  8  9  1  0  0  0
  8 10  1  0  0  0
 10 11  1  0  0  0
 10 12  1  0  0  0
 11 24  1  0  0  0
 12 13  1  0  0  0
 13 14  4  0  0  0
 13 22  4  0  0  0
 14 15  4  0  0  0
 15 16  4  0  0  0
 16 17  4  0  0  0
 16 22  4  0  0  0
 17 18  1  0  0  0
 17 19  4  0  0  0
 19 20  4  0  0  0
 20 21  4  0  0  0
 21 22  4  0  0  0
 24 25  2  0  0  0
 24 26  1  0  0  0
 24 27  1  0  0  0
  2 28  1  0  0  0
  5 29  1  0  0  0
  5 30  1  0  0  0
  6 31  1  0  0  0
  8 32  1  0  0  0
  9 33  1  0  0  0
 10 34  1  0  0  0
 12 35  1  0  0  0
 14 36  1  0  0  0
 18 37  1  0  0  0
 18 38  1  0  0  0
 20 39  1  0  0  0
 23 40  1  0  0  0
 26 41  1  0  0  0
 27 42  1  0  0  0
M  END
$$$$
