5alj_ligand
  -I-interpret- 

 36 38  0  0  0  0  0  0  0  0999 V2000
   19.4420   -7.9850  -13.2090 C   0  0  0  0  0
   18.5530   -8.8590  -14.0300 C   0  0  0  0  0
   17.5980   -8.2830  -14.8450 C   0  0  0  0  0
   16.7700   -9.0880  -15.6030 C   0  0  0  0  0
   16.8820  -10.4710  -15.5750 C   0  0  0  0  0
   17.8320  -11.0440  -14.7520 C   0  0  0  0  0
   18.6620  -10.2400  -13.9920 C   0  0  0  0  0
   19.5770  -10.8350  -13.2000 F   0  0  0  0  0
   16.0490  -11.3240  -16.3170 N   0  0  0  0  0
   15.4560  -11.0460  -17.5620 C   0  0  0  0  0
   14.9340  -12.1090  -18.2740 C   0  0  0  0  0
   14.3360  -11.8940  -19.4990 C   0  0  0  0  0
   14.2710  -10.5880  -19.9970 C   0  0  0  0  0
   14.8170   -9.5690  -19.2170 C   0  0  0  0  0
   15.3770   -9.7910  -18.0210 N   0  0  0  0  0
   14.7930   -8.2670  -19.6870 C   0  0  0  0  0
   14.2380   -7.9260  -20.8990 C   0  0  0  0  0
   13.6740   -8.9190  -21.6670 C   0  0  0  0  0
   13.7020  -10.2220  -21.2100 C   0  0  0  0  0
   13.1380  -11.1520  -22.0420 O   0  0  0  0  0
   13.7930  -13.1190  -20.1670 C   0  0  0  0  0
   20.0103   -7.3271  -13.8665 H   0  0  0  0  0
   18.8345   -7.3862  -12.5304 H   0  0  0  0  0
   20.1280   -8.6058  -12.6327 H   0  0  0  0  0
   17.4982   -7.1985  -14.8898 H   0  0  0  0  0
   16.0124   -8.6271  -16.2367 H   0  0  0  0  0
   17.9274  -12.1286  -14.7016 H   0  0  0  0  0
   15.8538  -12.2394  -15.9115 H   0  0  0  0  0
   14.9946  -13.1186  -17.8676 H   0  0  0  0  0
   15.2312   -7.4807  -19.0724 H   0  0  0  0  0
   14.2449   -6.8918  -21.2434 H   0  0  0  0  0
   13.2108   -8.6800  -22.6243 H   0  0  0  0  0
   12.7995  -10.7144  -22.8266 H   0  0  0  0  0
   14.6032  -13.8282  -20.3366 H   0  0  0  0  0
   13.0371  -13.5751  -19.5277 H   0  0  0  0  0
   13.3448  -12.8424  -21.1213 H   0  0  0  0  0
  1  2  1  0  0  0
  2  3  4  0  0  0
  2  7  4  0  0  0
  3  4  4  0  0  0
  4  5  4  0  0  0
  5  6  4  0  0  0
  5  9  1  0  0  0
  6  7  4  0  0  0
  7  8  1  0  0  0
  9 10  1  0  0  0
 10 11  4  0  0  0
 10 15  4  0  0  0
 11 12  4  0  0  0
 12 13  4  0  0  0
 12 21  1  0  0  0
 13 14  4  0  0  0
 13 19  4  0  0  0
 14 15  4  0  0  0
 14 16  4  0  0  0
 16 17  4  0  0  0
 17 18  4  0  0  0
 18 19  4  0  0  0
 19 20  1  0  0  0
  1 22  1  0  0  0
  1 23  1  0  0  0
  1 24  1  0  0  0
  3 25  1  0  0  0
  4 26  1  0  0  0
  6 27  1  0  0  0
  9 28  1  0  0  0
 11 29  1  0  0  0
 16 30  1  0  0  0
 17 31  1  0  0  0
 18 32  1  0  0  0
 20 33  1  0  0  0
 21 34  1  0  0  0
 21 35  1  0  0  0
 21 36  1  0  0  0
M  END
$$$$
