3qtq_ligand
  -I-interpret- 

 34 35  0  0  0  0  0  0  0  0999 V2000
  -65.3260  -82.0010  -86.0600 N   0  0  0  0  0
  -66.3280  -81.1600  -86.4100 C   0  0  0  0  0
  -66.7390  -81.0890  -87.6840 N   0  0  0  0  0
  -66.8490  -80.4050  -85.3510 C   0  0  0  0  0
  -67.8690  -79.4570  -85.4530 C   0  0  0  0  0
  -68.3940  -78.6320  -84.3090 C   0  0  0  0  0
  -69.7890  -78.4780  -84.0780 C   0  0  0  0  0
  -70.2250  -77.7000  -83.0130 N   0  0  0  0  0
  -69.3510  -77.0550  -82.1470 C   0  0  0  0  0
  -67.9590  -77.1720  -82.3370 C   0  0  0  0  0
  -67.4870  -77.9640  -83.4260 C   0  0  0  0  0
  -68.4480  -79.2160  -86.6480 O   0  0  0  0  0
  -66.0340  -80.8100  -83.8760 S   0  0  0  0  0
  -65.0590  -81.9250  -84.7510 C   0  0  0  0  0
  -64.0840  -82.6850  -84.1970 N   0  0  0  0  0
  -63.7740  -82.5690  -82.7760 C   0  0  0  0  0
  -62.4100  -81.9760  -82.5800 C   0  0  0  0  0
  -62.1950  -80.5310  -82.5310 C   0  0  0  0  0
  -66.2965  -81.6703  -88.3958 H   0  0  0  0  0
  -67.4942  -80.4536  -87.9416 H   0  0  0  0  0
  -67.2633  -80.0685  -84.7842 H   0  0  0  0  0
  -70.5109  -78.9670  -84.7321 H   0  0  0  0  0
  -69.7410  -76.4592  -81.3217 H   0  0  0  0  0
  -67.2602  -76.6696  -81.6682 H   0  0  0  0  0
  -66.4137  -78.0623  -83.5888 H   0  0  0  0  0
  -68.0531  -79.7836  -87.3139 H   0  0  0  0  0
  -63.5631  -83.3427  -84.7771 H   0  0  0  0  0
  -63.7951  -83.5623  -82.3276 H   0  0  0  0  0
  -64.5123  -81.9199  -82.3052 H   0  0  0  0  0
  -61.8645  -82.2867  -83.4711 H   0  0  0  0  0
  -62.1248  -82.3120  -81.5831 H   0  0  0  0  0
  -62.5237  -80.0840  -83.4692 H   0  0  0  0  0
  -62.7669  -80.1077  -81.7053 H   0  0  0  0  0
  -61.1346  -80.3276  -82.3821 H   0  0  0  0  0
  1  2  4  0  0  0
  1 14  4  0  0  0
  2  3  1  0  0  0
  2  4  4  0  0  0
  4  5  1  0  0  0
  4 13  4  0  0  0
  5  6  1  0  0  0
  5 12  1  0  0  0
  6  7  4  0  0  0
  6 11  4  0  0  0
  7  8  4  0  0  0
  8  9  4  0  0  0
  9 10  4  0  0  0
 10 11  4  0  0  0
 13 14  4  0  0  0
 14 15  1  0  0  0
 15 16  1  0  0  0
 16 17  1  0  0  0
 17 18  1  0  0  0
  3 19  1  0  0  0
  3 20  1  0  0  0
  5 21  1  0  0  0
  7 22  1  0  0  0
  9 23  1  0  0  0
 10 24  1  0  0  0
 11 25  1  0  0  0
 12 26  1  0  0  0
 15 27  1  0  0  0
 16 28  1  0  0  0
 16 29  1  0  0  0
 17 30  1  0  0  0
 17 31  1  0  0  0
 18 32  1  0  0  0
 18 33  1  0  0  0
 18 34  1  0  0  0
M  END
$$$$
