4obv_ligand
  -I-interpret- 

 30 31  0  0  0  0  0  0  0  0999 V2000
  124.9150  120.7460  -43.7250 F   0  0  0  0  0
  126.2410  118.5200  -41.1830 O   0  0  0  0  0
  126.7300  119.1190  -43.2240 O   0  0  0  0  0
  124.2030  114.3050  -42.7700 N   0  0  0  0  0
  123.6850  118.2440  -41.5990 N   0  3  0  0  0
  124.4330  118.7270  -42.7220 C   0  0  0  0  0
  124.2610  117.8210  -43.8980 C   0  0  0  0  0
  123.9530  116.4310  -43.4450 C   0  0  0  0  0
  122.7030  115.9050  -43.2410 C   0  0  0  0  0
  123.9510  120.0920  -43.0780 C   0  0  0  0  0
  122.8570  114.5810  -42.8200 C   0  0  0  0  0
  124.8880  115.4400  -43.1550 C   0  0  0  0  0
  125.8760  118.7930  -42.3570 C   0  0  0  0  0
  121.3080  116.5030  -43.3920 C   0  0  0  0  0
  121.6300  113.7290  -42.5120 C   0  0  0  0  0
  120.1200  115.6830  -43.0940 C   0  0  0  0  0
  120.2800  114.3040  -42.6560 C   0  0  0  0  0
  126.2874  119.2926  -44.0580 H   0  0  0  0  0
  123.8155  118.8750  -40.8083 H   0  0  0  0  0
  122.6955  118.2031  -41.8433 H   0  0  0  0  0
  124.0135  117.3113  -41.3490 H   0  0  0  0  0
  125.1857  117.8093  -44.4750 H   0  0  0  0  0
  123.4356  118.1860  -44.5092 H   0  0  0  0  0
  123.0719  120.0127  -43.7175 H   0  0  0  0  0
  123.6891  120.6344  -42.1695 H   0  0  0  0  0
  125.9712  115.5428  -43.2206 H   0  0  0  0  0
  121.1897  117.5357  -43.7200 H   0  0  0  0  0
  121.7510  112.6960  -42.1857 H   0  0  0  0  0
  119.1224  116.1089  -43.2015 H   0  0  0  0  0
  119.4022  113.6969  -42.4346 H   0  0  0  0  0
 10  1  1  0  0  0
 13  2  2  0  0  0
 13  3  1  0  0  0
  4 11  4  0  0  0
 12  4  4  0  0  0
  6  5  1  0  0  0
  7  6  1  0  0  0
  6 10  1  0  0  0
  6 13  1  0  0  0
  8  7  1  0  0  0
  8  9  4  0  0  0
  8 12  4  0  0  0
  9 11  4  0  0  0
  9 14  4  0  0  0
 11 15  4  0  0  0
 14 16  4  0  0  0
 15 17  4  0  0  0
 16 17  4  0  0  0
  3 18  1  0  0  0
  5 19  1  0  0  0
  5 20  1  0  0  0
  5 21  1  0  0  0
  7 22  1  0  0  0
  7 23  1  0  0  0
 10 24  1  0  0  0
 10 25  1  0  0  0
 12 26  1  0  0  0
 14 27  1  0  0  0
 15 28  1  0  0  0
 16 29  1  0  0  0
 17 30  1  0  0  0
M  END
$$$$
