6mod_ligand
  -I-interpret- 

 49 50  0  0  0  0  0  0  0  0999 V2000
  -19.3700  -18.8020  -32.9680 C   0  0  0  0  0
  -18.7520  -19.2890  -34.2340 C   0  0  0  0  0
  -18.3650  -20.6300  -34.0240 O   0  0  0  0  0
  -18.3580  -18.5390  -31.9720 C   0  0  0  0  0
  -17.5510  -18.2710  -31.1400 C   0  0  0  0  0
  -16.5830  -18.0560  -30.1960 C   0  0  0  0  0
  -15.7300  -17.8310  -29.3970 C   0  0  0  0  0
  -14.7060  -17.5970  -28.4580 C   0  0  0  0  0
  -13.4020  -17.8210  -28.7650 C   0  0  0  0  0
  -12.4140  -17.6040  -27.8360 C   0  0  0  0  0
  -12.7150  -17.1370  -26.5930 C   0  0  0  0  0
  -14.0190  -16.8930  -26.2870 C   0  0  0  0  0
  -15.0030  -17.1350  -27.2160 C   0  0  0  0  0
  -11.6270  -16.9300  -25.6310 C   0  0  0  0  0
  -10.5260  -17.3130  -25.9310 O   0  0  0  0  0
  -11.8730  -16.1560  -24.5490 N   0  0  0  0  0
  -10.7890  -15.7520  -23.7150 C   0  0  0  0  0
  -10.3890  -14.3100  -23.9870 C   0  0  0  0  0
   -9.6850  -13.6700  -22.7950 C   0  0  0  0  0
  -10.4690  -12.1550  -23.0950 S   0  0  0  0  0
  -11.5180  -13.3160  -23.8630 C   0  0  0  0  0
   -9.7400  -11.3570  -23.9900 O   0  0  0  0  0
  -11.0820  -11.5630  -21.9710 O   0  0  0  0  0
   -9.7150  -14.1730  -25.2240 O   0  0  0  0  0
   -8.4390  -14.7410  -25.2880 C   0  0  0  0  0
  -11.2730  -15.8990  -22.3070 C   0  0  0  0  0
  -12.2720  -15.3750  -21.8800 O   0  0  0  0  0
  -10.4270  -16.6430  -21.5650 N   0  0  0  0  0
  -10.7390  -16.7940  -20.2230 O   0  0  0  0  0
  -20.0457  -19.5687  -32.5889 H   0  0  0  0  0
  -19.9101  -17.8777  -33.1732 H   0  0  0  0  0
  -17.8886  -18.6783  -34.4981 H   0  0  0  0  0
  -19.4624  -19.2202  -35.0579 H   0  0  0  0  0
  -17.9617  -20.9746  -34.8242 H   0  0  0  0  0
  -13.1365  -18.1772  -29.7604 H   0  0  0  0  0
  -11.3756  -17.8083  -28.0972 H   0  0  0  0  0
  -14.2834  -16.5049  -25.3033 H   0  0  0  0  0
  -16.0441  -16.9521  -26.9500 H   0  0  0  0  0
  -12.8258  -15.8639  -24.3316 H   0  0  0  0  0
   -9.9059  -16.3617  -23.9060 H   0  0  0  0  0
   -8.5971  -13.7045  -22.7375 H   0  0  0  0  0
   -9.7764  -14.1315  -21.8118 H   0  0  0  0  0
  -12.4374  -13.6159  -23.3602 H   0  0  0  0  0
  -12.0699  -13.0243  -24.7565 H   0  0  0  0  0
   -7.7981  -14.2771  -24.5382 H   0  0  0  0  0
   -8.5092  -15.8116  -25.0956 H   0  0  0  0  0
   -8.0184  -14.5756  -26.2799 H   0  0  0  0  0
   -9.5971  -17.0740  -21.9722 H   0  0  0  0  0
  -10.0712  -17.3385  -19.7997 H   0  0  0  0  0
  1  2  1  0  0  0
  1  4  1  0  0  0
  2  3  1  0  0  0
  4  5  3  0  0  0
  5  6  1  0  0  0
  6  7  3  0  0  0
  7  8  1  0  0  0
  8  9  4  0  0  0
  8 13  4  0  0  0
  9 10  4  0  0  0
 10 11  4  0  0  0
 11 12  4  0  0  0
 11 14  1  0  0  0
 12 13  4  0  0  0
 14 15  2  0  0  0
 14 16  1  0  0  0
 16 17  1  0  0  0
 17 18  1  0  0  0
 17 26  1  0  0  0
 18 19  1  0  0  0
 18 21  1  0  0  0
 18 24  1  0  0  0
 19 20  1  0  0  0
 20 21  1  0  0  0
 20 22  2  0  0  0
 20 23  2  0  0  0
 24 25  1  0  0  0
 26 27  2  0  0  0
 26 28  1  0  0  0
 28 29  1  0  0  0
  1 30  1  0  0  0
  1 31  1  0  0  0
  2 32  1  0  0  0
  2 33  1  0  0  0
  3 34  1  0  0  0
  9 35  1  0  0  0
 10 36  1  0  0  0
 12 37  1  0  0  0
 13 38  1  0  0  0
 16 39  1  0  0  0
 17 40  1  0  0  0
 19 41  1  0  0  0
 19 42  1  0  0  0
 21 43  1  0  0  0
 21 44  1  0  0  0
 25 45  1  0  0  0
 25 46  1  0  0  0
 25 47  1  0  0  0
 28 48  1  0  0  0
 29 49  1  0  0  0
M  END
$$$$
