2fky_ligand
  -I-interpret- 

 55 58  0  0  0  0  0  0  0  0999 V2000
   22.0270   16.3490  105.6450 C   0  0  0  0  0
   20.9050   16.1340  106.4990 C   0  0  0  0  0
   20.9060   14.9220  107.2920 C   0  0  0  0  0
   22.0270   14.0560  107.1950 C   0  0  0  0  0
   23.1530   14.2680  106.3120 C   0  0  0  0  0
   23.1200   15.4480  105.5060 C   0  0  0  0  0
   19.7310   14.6070  108.1400 C   0  0  0  0  0
   18.5190   15.4940  108.1760 C   0  0  0  0  0
   17.7860   15.0500  109.3940 N   0  0  0  0  0
   18.4430   13.9430  110.0540 C   0  0  0  0  0
   19.5280   13.5160  109.1100 C   0  0  0  0  0
   18.3550   13.5460  111.4860 C   0  0  0  0  0
   17.4590   12.4730  111.9060 C   0  0  0  0  0
   17.4300   12.0460  113.2920 C   0  0  0  0  0
   18.3150   12.7240  114.2380 C   0  0  0  0  0
   19.2300   13.7900  113.8460 C   0  0  0  0  0
   19.2250   14.2150  112.4450 C   0  0  0  0  0
   16.5380   15.5200  109.6260 C   0  0  0  0  0
   16.4810   16.8900  109.7040 N   0  0  0  0  0
   15.3550   17.7300  109.4030 C   0  0  0  0  0
   21.9500   12.9980  107.9800 F   0  0  0  0  0
   22.0560   17.4310  104.9330 F   0  0  0  0  0
   15.5810   14.7580  109.7290 O   0  0  0  0  0
   14.1030   17.3760  110.2070 C   0  0  0  0  0
   17.6490   17.6700  110.1070 C   0  0  0  0  0
   14.9520   17.6680  107.9380 C   0  0  0  0  0
   12.9200   18.2980  109.9040 C   0  0  0  0  0
   13.7960   18.6170  107.5940 C   0  0  0  0  0
   12.6390   18.2580  108.4360 N   0  3  0  0  0
   20.0842   16.8492  106.5524 H   0  0  0  0  0
   23.9839   13.5641  106.2638 H   0  0  0  0  0
   23.9202   15.6548  104.7953 H   0  0  0  0  0
   17.9142   15.4051  107.2736 H   0  0  0  0  0
   18.7810   16.5514  108.2131 H   0  0  0  0  0
   17.7371   13.2237  110.4693 H   0  0  0  0  0
   20.0685   12.5698  109.1367 H   0  0  0  0  0
   16.8094   11.9908  111.1755 H   0  0  0  0  0
   16.7683   11.2437  113.6185 H   0  0  0  0  0
   18.2898   12.4188  115.2841 H   0  0  0  0  0
   19.8961   14.2552  114.5727 H   0  0  0  0  0
   19.8709   15.0305  112.1197 H   0  0  0  0  0
   15.7042   18.7278  109.6687 H   0  0  0  0  0
   14.3454   17.4822  111.2644 H   0  0  0  0  0
   13.8110   16.3608  109.9384 H   0  0  0  0  0
   17.9559   17.3709  111.1092 H   0  0  0  0  0
   18.4644   17.4890  109.4067 H   0  0  0  0  0
   17.3949   18.7300  110.1046 H   0  0  0  0  0
   14.6210   16.6511  107.7272 H   0  0  0  0  0
   15.8152   17.9665  107.3430 H   0  0  0  0  0
   13.1605   19.3175  110.2057 H   0  0  0  0  0
   12.0417   17.9645  110.4567 H   0  0  0  0  0
   13.5356   18.5237  106.5397 H   0  0  0  0  0
   14.0902   19.6496  107.7819 H   0  0  0  0  0
   11.9052   18.9415  108.2495 H   0  0  0  0  0
   12.3811   17.2990  108.2032 H   0  0  0  0  0
  1  2  4  0  0  0
  1  6  4  0  0  0
  1 22  1  0  0  0
  2  3  4  0  0  0
  3  4  4  0  0  0
  3  7  1  0  0  0
  4  5  4  0  0  0
  4 21  1  0  0  0
  5  6  4  0  0  0
  7  8  1  0  0  0
  7 11  2  0  0  0
  8  9  1  0  0  0
  9 10  1  0  0  0
  9 18  1  0  0  0
 10 11  1  0  0  0
 10 12  1  0  0  0
 12 13  4  0  0  0
 12 17  4  0  0  0
 13 14  4  0  0  0
 14 15  4  0  0  0
 15 16  4  0  0  0
 16 17  4  0  0  0
 18 19  1  0  0  0
 18 23  2  0  0  0
 19 20  1  0  0  0
 19 25  1  0  0  0
 20 24  1  0  0  0
 20 26  1  0  0  0
 24 27  1  0  0  0
 26 28  1  0  0  0
 27 29  1  0  0  0
 28 29  1  0  0  0
  2 30  1  0  0  0
  5 31  1  0  0  0
  6 32  1  0  0  0
  8 33  1  0  0  0
  8 34  1  0  0  0
 10 35  1  0  0  0
 11 36  1  0  0  0
 13 37  1  0  0  0
 14 38  1  0  0  0
 15 39  1  0  0  0
 16 40  1  0  0  0
 17 41  1  0  0  0
 20 42  1  0  0  0
 24 43  1  0  0  0
 24 44  1  0  0  0
 25 45  1  0  0  0
 25 46  1  0  0  0
 25 47  1  0  0  0
 26 48  1  0  0  0
 26 49  1  0  0  0
 27 50  1  0  0  0
 27 51  1  0  0  0
 28 52  1  0  0  0
 28 53  1  0  0  0
 29 54  1  0  0  0
 29 55  1  0  0  0
M  END
$$$$
