4ib5_ligand
  -I-interpret- 

192195  0  0  0  0  0  0  0  0999 V2000
    0.2460  -27.3100   28.0440 N   0  3  0  0  0
    0.9900  -27.7270   26.8710 C   0  0  0  0  0
    0.7760  -26.7990   25.6920 C   0  0  0  0  0
    0.1230  -27.1620   24.7130 O   0  0  0  0  0
    1.3280  -25.5940   25.7870 N   0  0  0  0  0
    1.1950  -24.6040   24.7250 C   0  0  0  0  0
    2.5290  -24.3530   24.0310 C   0  0  0  0  0
    2.7890  -23.2530   23.5420 O   0  0  0  0  0
    0.6350  -23.2940   25.2830 C   0  0  0  0  0
   -1.0030  -23.4470   26.0300 S   0  0  0  0  0
    3.3710  -25.3810   23.9950 N   0  0  0  0  0
    4.6740  -25.2910   23.3450 C   0  0  0  0  0
    4.8330  -26.3770   22.2850 C   0  0  0  0  0
    4.5130  -27.5420   22.5210 O   0  0  0  0  0
    5.7960  -25.3940   24.3810 C   0  0  0  0  0
    5.9090  -24.1920   25.3090 C   0  0  0  0  0
    6.7510  -23.0810   24.6960 C   0  0  0  0  0
    6.9210  -21.9600   25.6170 N   0  0  0  0  0
    7.7140  -20.9170   25.3900 C   0  0  0  0  0
    8.4200  -20.8490   24.2700 N   0  0  0  0  0
    7.8040  -19.9440   26.2870 N   0  0  0  0  0
    5.3260  -25.9840   21.1160 N   0  0  0  0  0
    5.5600  -26.9220   20.0260 C   0  0  0  0  0
    6.9540  -26.7060   19.4530 C   0  0  0  0  0
    7.2060  -25.7170   18.7630 O   0  0  0  0  0
    4.5000  -26.7530   18.9360 C   0  0  0  0  0
    4.5100  -27.7620   17.7860 C   0  0  0  0  0
    4.4880  -29.1840   18.3170 C   0  0  0  0  0
    3.3300  -27.5180   16.8590 C   0  0  0  0  0
    7.8510  -27.6420   19.7520 N   0  0  0  0  0
    9.2610  -27.5320   19.3850 C   0  0  0  0  0
    9.8580  -26.2010   19.8350 C   0  0  0  0  0
   10.6100  -25.5630   19.0980 O   0  0  0  0  0
    9.4600  -27.7540   17.8840 C   0  0  0  0  0
    9.0200  -29.1270   17.4290 C   0  0  0  0  0
    9.7720  -30.2530   17.7350 C   0  0  0  0  0
    7.8470  -29.2990   16.7060 C   0  0  0  0  0
    9.3720  -31.5120   17.3300 C   0  0  0  0  0
    7.4380  -30.5560   16.2950 C   0  0  0  0  0
    8.2050  -31.6580   16.6100 C   0  0  0  0  0
    7.8050  -32.9110   16.2090 O   0  0  0  0  0
    9.5080  -25.7930   21.0510 N   0  0  0  0  0
   10.0200  -24.5660   21.6280 C   0  0  0  0  0
    9.1000  -23.3770   21.4290 C   0  0  0  0  0
    9.0300  -22.4930   22.2800 O   0  0  0  0  0
    8.3940  -23.3570   20.3030 N   0  0  0  0  0
    7.4940  -22.2560   19.9800 C   0  0  0  0  0
    6.2400  -22.2790   20.8360 C   0  0  0  0  0
    5.6270  -23.3290   21.0210 O   0  0  0  0  0
    7.0650  -22.3250   18.5140 C   0  0  0  0  0
    8.1740  -22.0780   17.5390 C   0  0  0  0  0
    8.6240  -20.7920   17.2920 C   0  0  0  0  0
    8.7500  -23.1310   16.8450 C   0  0  0  0  0
    9.6400  -20.5640   16.3820 C   0  0  0  0  0
    9.7640  -22.9100   15.9330 C   0  0  0  0  0
   10.2100  -21.6250   15.7020 C   0  0  0  0  0
    5.8490  -21.1160   21.3410 N   0  0  0  0  0
    4.5630  -20.9880   22.0050 C   0  0  0  0  0
    3.4820  -20.9450   20.9320 C   0  0  0  0  0
    3.6820  -20.3680   19.8630 O   0  0  0  0  0
    4.5220  -19.7260   22.8690 C   0  0  0  0  0
    3.3810  -19.6910   23.8760 C   0  0  0  0  0
    3.6530  -18.6690   24.9710 C   0  0  0  0  0
    2.4290  -18.4250   25.8440 C   0  0  0  0  0
    1.9440  -19.6640   26.5100 N   0  3  0  0  0
    2.3500  -21.5810   21.2020 N   0  0  0  0  0
    1.2210  -21.5120   20.2840 C   0  0  0  0  0
    0.4560  -20.2160   20.5260 C   0  0  0  0  0
    0.0270  -19.9430   21.6460 O   0  0  0  0  0
    0.2890  -22.7290   20.4310 C   0  0  0  0  0
    1.0270  -24.0080   20.0250 C   0  0  0  0  0
   -0.9660  -22.5510   19.5860 C   0  0  0  0  0
    0.2010  -25.2680   20.1730 C   0  0  0  0  0
    0.3060  -19.4170   19.4740 N   0  0  0  0  0
   -0.3060  -18.0930   19.5770 C   0  0  0  0  0
   -1.7090  -18.1450   20.1770 C   0  0  0  0  0
   -2.6240  -18.7250   19.5940 O   0  0  0  0  0
   -0.3390  -17.4200   18.2010 C   0  0  0  0  0
   -0.8860  -16.0280   18.2160 C   0  0  0  0  0
   -0.3010  -15.0040   18.9300 N   0  0  0  0  0
   -1.9620  -15.4870   17.5970 C   0  0  0  0  0
   -0.9960  -13.8940   18.7540 C   0  0  0  0  0
   -2.0090  -14.1610   17.9490 N   0  0  0  0  0
   -1.8620  -17.5470   21.3560 N   0  0  0  0  0
   -3.1530  -17.4600   22.0150 C   0  0  0  0  0
   -3.4730  -18.6360   22.9180 C   0  0  0  0  0
   -4.5350  -18.6740   23.5370 O   0  0  0  0  0
   -2.5580  -19.5960   23.0000 N   0  0  0  0  0
   -2.7800  -20.7880   23.8150 C   0  0  0  0  0
   -2.7330  -20.4730   25.3080 C   0  0  0  0  0
   -2.0320  -19.5530   25.7290 O   0  0  0  0  0
   -1.7460  -21.8660   23.4820 C   0  0  0  0  0
   -2.0400  -23.4610   24.2800 S   0  0  0  0  0
   -3.4920  -21.2470   26.0850 N   0  0  0  0  0
   -3.4980  -21.1910   27.5420 C   0  0  0  0  0
   -3.2770  -19.8390   28.1940 C   0  0  0  0  0
   -4.2465  -19.0899   28.4881 O   0  0  0  0  0
   -2.1026  -19.4584   28.4460 O   0  0  0  0  0
    0.4223  -27.9635   28.8070 H   0  0  0  0  0
    0.5449  -26.3746   28.3200 H   0  0  0  0  0
   -0.7506  -27.2996   27.8271 H   0  0  0  0  0
    0.6425  -28.7201   26.5863 H   0  0  0  0  0
    2.0506  -27.7147   27.1220 H   0  0  0  0  0
    1.8586  -25.3554   26.6248 H   0  0  0  0  0
    0.4991  -25.0002   23.9855 H   0  0  0  0  0
    0.5434  -22.6013   24.4464 H   0  0  0  0  0
    1.3158  -22.9612   26.0664 H   0  0  0  0  0
    3.0977  -26.2596   24.4353 H   0  0  0  0  0
    4.7385  -24.3212   22.8516 H   0  0  0  0  0
    6.7342  -25.4617   23.8302 H   0  0  0  0  0
    5.5759  -26.2600   25.0053 H   0  0  0  0  0
    6.3893  -24.5161   26.2322 H   0  0  0  0  0
    4.9069  -23.8027   25.4888 H   0  0  0  0  0
    6.2420  -22.7175   23.8033 H   0  0  0  0  0
    7.7358  -23.4858   24.4627 H   0  0  0  0  0
    6.3969  -21.9785   26.4919 H   0  0  0  0  0
    8.3556  -21.5977   23.5803 H   0  0  0  0  0
    8.4153  -19.1460   26.1142 H   0  0  0  0  0
    7.2619  -19.9938   27.1496 H   0  0  0  0  0
    5.5470  -24.9979   20.9775 H   0  0  0  0  0
    5.4896  -27.9387   20.4126 H   0  0  0  0  0
    4.6978  -25.7831   18.4796 H   0  0  0  0  0
    3.5398  -26.8836   19.4351 H   0  0  0  0  0
    5.4306  -27.6272   17.2182 H   0  0  0  0  0
    5.3665  -29.3514   18.9401 H   0  0  0  0  0
    3.5861  -29.3350   18.9102 H   0  0  0  0  0
    4.4956  -29.8829   17.4806 H   0  0  0  0  0
    2.4012  -27.6255   17.4192 H   0  0  0  0  0
    3.3940  -26.5100   16.4491 H   0  0  0  0  0
    3.3518  -28.2441   16.0464 H   0  0  0  0  0
    7.5413  -28.4713   20.2588 H   0  0  0  0  0
    9.7984  -28.3207   19.9115 H   0  0  0  0  0
   10.5248  -27.6582   17.6715 H   0  0  0  0  0
    8.8542  -27.0180   17.3554 H   0  0  0  0  0
   10.6945  -30.1420   18.3049 H   0  0  0  0  0
    7.2381  -28.4296   16.4579 H   0  0  0  0  0
    9.9756  -32.3850   17.5783 H   0  0  0  0  0
    6.5157  -30.6740   15.7261 H   0  0  0  0  0
    6.9804  -32.8419   15.7223 H   0  0  0  0  0
    8.8588  -26.3614   21.5949 H   0  0  0  0  0
   10.9633  -24.3382   21.1317 H   0  0  0  0  0
   10.1230  -24.7257   22.7013 H   0  0  0  0  0
    8.4842  -24.1329   19.6470 H   0  0  0  0  0
    8.0457  -21.3366   20.1757 H   0  0  0  0  0
    6.3203  -21.5442   18.3593 H   0  0  0  0  0
    6.6965  -23.3348   18.3335 H   0  0  0  0  0
    8.1732  -19.9515   17.8198 H   0  0  0  0  0
    8.3979  -24.1474   17.0214 H   0  0  0  0  0
    9.9916  -19.5483   16.2006 H   0  0  0  0  0
   10.2102  -23.7481   15.3977 H   0  0  0  0  0
   11.0107  -21.4461   14.9844 H   0  0  0  0  0
    6.4586  -20.3020   21.2621 H   0  0  0  0  0
    4.3977  -21.8376   22.6675 H   0  0  0  0  0
    4.3802  -18.8811   22.1951 H   0  0  0  0  0
    5.4516  -19.6968   23.4374 H   0  0  0  0  0
    3.2862  -20.6764   24.3323 H   0  0  0  0  0
    2.4640  -19.4123   23.3568 H   0  0  0  0  0
    3.9253  -17.7264   24.4962 H   0  0  0  0  0
    4.4514  -19.0545   25.6051 H   0  0  0  0  0
    1.6291  -18.0538   25.2034 H   0  0  0  0  0
    2.7083  -17.7139   26.6215 H   0  0  0  0  0
    1.1267  -19.4448   27.0795 H   0  0  0  0  0
    1.6914  -20.3529   25.8014 H   0  0  0  0  0
    2.6827  -20.0407   27.1040 H   0  0  0  0  0
    2.2690  -22.1242   22.0615 H   0  0  0  0  0
    1.6041  -21.5265   19.2637 H   0  0  0  0  0
   -0.0115  -22.8112   21.4755 H   0  0  0  0  0
    1.8894  -24.1071   20.6842 H   0  0  0  0  0
    1.2846  -23.9120   18.9702 H   0  0  0  0  0
   -1.4982  -21.6574   19.9120 H   0  0  0  0  0
   -0.6850  -22.4461   18.5381 H   0  0  0  0  0
   -1.6095  -23.4226   19.7055 H   0  0  0  0  0
   -0.0978  -25.3848   21.2147 H   0  0  0  0  0
   -0.6869  -25.1947   19.5450 H   0  0  0  0  0
    0.7951  -26.1286   19.8654 H   0  0  0  0  0
    0.6296  -19.7393   18.5620 H   0  0  0  0  0
    0.3096  -17.5029   20.2559 H   0  0  0  0  0
   -0.9929  -18.0170   17.5653 H   0  0  0  0  0
    0.6900  -17.3587   17.8469 H   0  0  0  0  0
   -2.6604  -16.0073   16.9416 H   0  0  0  0  0
   -0.7718  -12.9238   19.1973 H   0  0  0  0  0
   -1.0466  -17.1368   21.8112 H   0  0  0  0  0
   -3.9118  -17.4403   21.2328 H   0  0  0  0  0
   -3.1333  -16.5693   22.6430 H   0  0  0  0  0
   -1.6836  -19.4988   22.4839 H   0  0  0  0  0
   -3.7780  -21.1576   23.5795 H   0  0  0  0  0
   -0.7820  -21.5039   23.8394 H   0  0  0  0  0
   -1.7962  -22.0340   22.4062 H   0  0  0  0  0
   -4.1078  -21.9214   25.6308 H   0  0  0  0  0
   -2.6604  -21.8107   27.8621 H   0  0  0  0  0
   -4.4989  -21.5008   27.8426 H   0  0  0  0  0
   -5.0680  -19.5176   28.2356 H   0  0  0  0  0
  1  2  1  0  0  0
  2  3  1  0  0  0
  3  4  2  0  0  0
  3  5  1  0  0  0
  5  6  1  0  0  0
  6  7  1  0  0  0
  6  9  1  0  0  0
  7  8  2  0  0  0
  7 11  1  0  0  0
  9 10  1  0  0  0
 10 93  1  0  0  0
 11 12  1  0  0  0
 12 13  1  0  0  0
 12 15  1  0  0  0
 13 14  2  0  0  0
 13 22  1  0  0  0
 15 16  1  0  0  0
 16 17  1  0  0  0
 17 18  1  0  0  0
 18 19  1  0  0  0
 19 20  2  0  0  0
 19 21  1  0  0  0
 22 23  1  0  0  0
 23 24  1  0  0  0
 23 26  1  0  0  0
 24 25  2  0  0  0
 24 30  1  0  0  0
 26 27  1  0  0  0
 27 28  1  0  0  0
 27 29  1  0  0  0
 30 31  1  0  0  0
 31 32  1  0  0  0
 31 34  1  0  0  0
 32 33  2  0  0  0
 32 42  1  0  0  0
 34 35  1  0  0  0
 35 36  4  0  0  0
 35 37  4  0  0  0
 36 38  4  0  0  0
 37 39  4  0  0  0
 38 40  4  0  0  0
 39 40  4  0  0  0
 40 41  1  0  0  0
 42 43  1  0  0  0
 43 44  1  0  0  0
 44 45  2  0  0  0
 44 46  1  0  0  0
 46 47  1  0  0  0
 47 48  1  0  0  0
 47 50  1  0  0  0
 48 49  2  0  0  0
 48 57  1  0  0  0
 50 51  1  0  0  0
 51 52  4  0  0  0
 51 53  4  0  0  0
 52 54  4  0  0  0
 53 55  4  0  0  0
 54 56  4  0  0  0
 55 56  4  0  0  0
 57 58  1  0  0  0
 58 59  1  0  0  0
 58 61  1  0  0  0
 59 60  2  0  0  0
 59 66  1  0  0  0
 61 62  1  0  0  0
 62 63  1  0  0  0
 63 64  1  0  0  0
 64 65  1  0  0  0
 66 67  1  0  0  0
 67 68  1  0  0  0
 67 70  1  0  0  0
 68 69  2  0  0  0
 68 74  1  0  0  0
 70 71  1  0  0  0
 70 72  1  0  0  0
 71 73  1  0  0  0
 74 75  1  0  0  0
 75 76  1  0  0  0
 75 78  1  0  0  0
 76 77  2  0  0  0
 76 84  1  0  0  0
 78 79  1  0  0  0
 79 80  4  0  0  0
 79 81  4  0  0  0
 80 82  4  0  0  0
 81 83  4  0  0  0
 82 83  4  0  0  0
 84 85  1  0  0  0
 85 86  1  0  0  0
 86 87  2  0  0  0
 86 88  1  0  0  0
 88 89  1  0  0  0
 89 90  1  0  0  0
 89 92  1  0  0  0
 90 91  2  0  0  0
 90 94  1  0  0  0
 92 93  1  0  0  0
 94 95  1  0  0  0
 95 96  1  0  0  0
 96 97  1  0  0  0
 96 98  2  0  0  0
  1 99  1  0  0  0
  1100  1  0  0  0
  1101  1  0  0  0
  2102  1  0  0  0
  2103  1  0  0  0
  5104  1  0  0  0
  6105  1  0  0  0
  9106  1  0  0  0
  9107  1  0  0  0
 11108  1  0  0  0
 12109  1  0  0  0
 15110  1  0  0  0
 15111  1  0  0  0
 16112  1  0  0  0
 16113  1  0  0  0
 17114  1  0  0  0
 17115  1  0  0  0
 18116  1  0  0  0
 20117  1  0  0  0
 21118  1  0  0  0
 21119  1  0  0  0
 22120  1  0  0  0
 23121  1  0  0  0
 26122  1  0  0  0
 26123  1  0  0  0
 27124  1  0  0  0
 28125  1  0  0  0
 28126  1  0  0  0
 28127  1  0  0  0
 29128  1  0  0  0
 29129  1  0  0  0
 29130  1  0  0  0
 30131  1  0  0  0
 31132  1  0  0  0
 34133  1  0  0  0
 34134  1  0  0  0
 36135  1  0  0  0
 37136  1  0  0  0
 38137  1  0  0  0
 39138  1  0  0  0
 41139  1  0  0  0
 42140  1  0  0  0
 43141  1  0  0  0
 43142  1  0  0  0
 46143  1  0  0  0
 47144  1  0  0  0
 50145  1  0  0  0
 50146  1  0  0  0
 52147  1  0  0  0
 53148  1  0  0  0
 54149  1  0  0  0
 55150  1  0  0  0
 56151  1  0  0  0
 57152  1  0  0  0
 58153  1  0  0  0
 61154  1  0  0  0
 61155  1  0  0  0
 62156  1  0  0  0
 62157  1  0  0  0
 63158  1  0  0  0
 63159  1  0  0  0
 64160  1  0  0  0
 64161  1  0  0  0
 65162  1  0  0  0
 65163  1  0  0  0
 65164  1  0  0  0
 66165  1  0  0  0
 67166  1  0  0  0
 70167  1  0  0  0
 71168  1  0  0  0
 71169  1  0  0  0
 72170  1  0  0  0
 72171  1  0  0  0
 72172  1  0  0  0
 73173  1  0  0  0
 73174  1  0  0  0
 73175  1  0  0  0
 74176  1  0  0  0
 75177  1  0  0  0
 78178  1  0  0  0
 78179  1  0  0  0
 81180  1  0  0  0
 82181  1  0  0  0
 84182  1  0  0  0
 85183  1  0  0  0
 85184  1  0  0  0
 88185  1  0  0  0
 89186  1  0  0  0
 92187  1  0  0  0
 92188  1  0  0  0
 94189  1  0  0  0
 95190  1  0  0  0
 95191  1  0  0  0
 97192  1  0  0  0
M  END
$$$$
