### 
### Created by X-TOOL on Mon Sep 10 21:13:13 2018
### 

@<TRIPOS>MOLECULE
4ib5_ligand
  193   196     1     0     0
SMALL
GAST_HUCK


@<TRIPOS>ATOM
      1 N           0.2460  -27.3100   28.0440 N.4       1 GLY         0.2357
      2 CA          0.9900  -27.7270   26.8710 C.3       1 GLY         0.0545
      3 C           0.7760  -26.7990   25.6920 C.2       1 GLY         0.2237
      4 O           0.1230  -27.1620   24.7130 O.2       1 GLY        -0.3910
      5 N           1.3280  -25.5940   25.7870 N.am      1 CYS        -0.2604
      6 CA          1.1950  -24.6040   24.7250 C.3       1 CYS         0.1407
      7 C           2.5290  -24.3530   24.0310 C.2       1 CYS         0.2047
      8 O           2.7890  -23.2530   23.5420 O.2       1 CYS        -0.3944
      9 CB          0.6350  -23.2940   25.2830 C.3       1 CYS         0.0443
     10 SG         -1.0030  -23.4470   26.0300 S.3       1 CYS        -0.0882
     11 N           3.3710  -25.3810   23.9950 N.am      1 ARG        -0.2637
     12 CA          4.6740  -25.2910   23.3450 C.3       1 ARG         0.1311
     13 C           4.8330  -26.3770   22.2850 C.2       1 ARG         0.2039
     14 O           4.5130  -27.5420   22.5210 O.2       1 ARG        -0.3944
     15 CB          5.7960  -25.3940   24.3810 C.3       1 ARG        -0.0092
     16 CG          5.9090  -24.1920   25.3090 C.3       1 ARG        -0.0156
     17 CD          6.7510  -23.0810   24.6960 C.3       1 ARG         0.0627
     18 NE          6.9210  -21.9600   25.6170 N.pl3     1 ARG        -0.2723
     19 CZ          7.7140  -20.9170   25.3900 C.cat     1 ARG         0.2882
     20 NH1         8.4200  -20.8490   24.2700 N.pl3     1 ARG        -0.2849
     21 NH2         7.8040  -19.9440   26.2870 N.pl3     1 ARG        -0.2849
     22 N           5.3260  -25.9840   21.1160 N.am      1 LEU        -0.2637
     23 CA          5.5600  -26.9220   20.0260 C.3       1 LEU         0.1312
     24 C           6.9540  -26.7060   19.4530 C.2       1 LEU         0.2040
     25 O           7.2060  -25.7170   18.7630 O.2       1 LEU        -0.3944
     26 CB          4.5000  -26.7530   18.9360 C.3       1 LEU        -0.0101
     27 CG          4.5100  -27.7620   17.7860 C.3       1 LEU        -0.0425
     28 CD1         4.4880  -29.1840   18.3170 C.3       1 LEU        -0.0625
     29 CD2         3.3300  -27.5180   16.8590 C.3       1 LEU        -0.0625
     30 N           7.8510  -27.6420   19.7520 N.am      1 TYR        -0.2621
     31 CA          9.2610  -27.5320   19.3850 C.3       1 TYR         0.1390
     32 C           9.8580  -26.2010   19.8350 C.2       1 TYR         0.2055
     33 O          10.6100  -25.5630   19.0980 O.2       1 TYR        -0.3942
     34 CB          9.4600  -27.7540   17.8840 C.3       1 TYR         0.0163
     35 CG          9.0200  -29.1270   17.4290 C.ar      1 TYR        -0.0493
     36 CD1         9.7720  -30.2530   17.7350 C.ar      1 TYR        -0.0685
     37 CD2         7.8470  -29.2990   16.7060 C.ar      1 TYR        -0.0685
     38 CE1         9.3720  -31.5120   17.3300 C.ar      1 TYR        -0.0398
     39 CE2         7.4380  -30.5560   16.2950 C.ar      1 TYR        -0.0398
     40 CZ          8.2050  -31.6580   16.6100 C.ar      1 TYR         0.0805
     41 OH          7.8050  -32.9110   16.2090 O.3       1 TYR        -0.3376
     42 N           9.5080  -25.7930   21.0510 N.am      1 GLY        -0.2663
     43 CA         10.0200  -24.5660   21.6280 C.3       1 GLY         0.1201
     44 C           9.1000  -23.3770   21.4290 C.2       1 GLY         0.2009
     45 O           9.0300  -22.4930   22.2800 O.2       1 GLY        -0.3947
     46 N           8.3940  -23.3570   20.3030 N.am      1 PHE        -0.2622
     47 CA          7.4940  -22.2560   19.9800 C.3       1 PHE         0.1404
     48 C           6.2400  -22.2790   20.8360 C.2       1 PHE         0.2060
     49 O           5.6270  -23.3290   21.0210 O.2       1 PHE        -0.3942
     50 CB          7.0650  -22.3250   18.5140 C.3       1 PHE         0.0214
     51 CG          8.1740  -22.0780   17.5390 C.ar      1 PHE        -0.0386
     52 CD1         8.6240  -20.7920   17.2920 C.ar      1 PHE        -0.0601
     53 CD2         8.7500  -23.1310   16.8450 C.ar      1 PHE        -0.0601
     54 CE1         9.6400  -20.5640   16.3820 C.ar      1 PHE        -0.0686
     55 CE2         9.7640  -22.9100   15.9330 C.ar      1 PHE        -0.0686
     56 CZ         10.2100  -21.6250   15.7020 C.ar      1 PHE        -0.0687
     57 N           5.8490  -21.1160   21.3410 N.am      1 LYS        -0.2636
     58 CA          4.5630  -20.9880   22.0050 C.3       1 LYS         0.1310
     59 C           3.4820  -20.9450   20.9320 C.2       1 LYS         0.2039
     60 O           3.6820  -20.3680   19.8630 O.2       1 LYS        -0.3944
     61 CB          4.5220  -19.7260   22.8690 C.3       1 LYS        -0.0122
     62 CG          3.3810  -19.6910   23.8760 C.3       1 LYS        -0.0440
     63 CD          3.6530  -18.6690   24.9710 C.3       1 LYS        -0.0124
     64 CE          2.4290  -18.4250   25.8440 C.3       1 LYS        -0.0354
     65 NZ          1.9440  -19.6640   26.5100 N.4       1 LYS         0.2185
     66 N           2.3500  -21.5810   21.2020 N.am      1 ILE        -0.2635
     67 CA          1.2210  -21.5120   20.2840 C.3       1 ILE         0.1335
     68 C           0.4560  -20.2160   20.5260 C.2       1 ILE         0.2043
     69 O           0.0270  -19.9430   21.6460 O.2       1 ILE        -0.3944
     70 CB          0.2890  -22.7290   20.4310 C.3       1 ILE        -0.0037
     71 CG1         1.0270  -24.0080   20.0250 C.3       1 ILE        -0.0491
     72 CG2        -0.9660  -22.5510   19.5860 C.3       1 ILE        -0.0582
     73 CD1         0.2010  -25.2680   20.1730 C.3       1 ILE        -0.0648
     74 N           0.3060  -19.4170   19.4740 N.am      1 HIS        -0.2625
     75 CA         -0.3060  -18.0930   19.5770 C.3       1 HIS         0.1369
     76 C          -1.7090  -18.1450   20.1770 C.2       1 HIS         0.2052
     77 O          -2.6240  -18.7250   19.5940 O.2       1 HIS        -0.3942
     78 CB         -0.3390  -17.4200   18.2010 C.3       1 HIS         0.0145
     79 CG         -0.8860  -16.0280   18.2160 C.2       1 HIS        -0.0027
     80 ND1        -0.3010  -15.0040   18.9300 N.2       1 HIS        -0.3252
     81 CD2        -1.9620  -15.4870   17.5970 C.2       1 HIS         0.0291
     82 CE1        -0.9960  -13.8940   18.7540 C.2       1 HIS         0.0907
     83 NE2        -2.0090  -14.1610   17.9490 N.pl3     1 HIS        -0.2752
     84 N          -1.8620  -17.5470   21.3560 N.am      1 GLY        -0.2663
     85 CA         -3.1530  -17.4600   22.0150 C.3       1 GLY         0.1201
     86 C          -3.4730  -18.6360   22.9180 C.2       1 GLY         0.2008
     87 O          -4.5350  -18.6740   23.5370 O.2       1 GLY        -0.3947
     88 N          -2.5580  -19.5960   23.0000 N.am      1 CYS        -0.2631
     89 CA         -2.7800  -20.7880   23.8150 C.3       1 CYS         0.1406
     90 C          -2.7330  -20.4730   25.3080 C.2       1 CYS         0.2040
     91 O          -2.0320  -19.5530   25.7290 O.2       1 CYS        -0.3944
     92 CB         -1.7460  -21.8660   23.4820 C.3       1 CYS         0.0443
     93 SG         -2.0400  -23.4610   24.2800 S.3       1 CYS        -0.0882
     94 N          -3.4920  -21.2470   26.0850 N.am      1 GLY        -0.2722
     95 CA         -3.4980  -21.1910   27.5420 C.3       1 GLY         0.0833
     96 C          -3.2770  -19.8390   28.1940 C.2       1 GLY         0.0570
     97 O          -4.2465  -19.0899   28.4881 O.co2     1 GLY        -0.5669
     98 O          -2.1026  -19.4584   28.4460 O.co2     1 GLY        -0.5669
     99 H1          0.4195  -27.9552   28.7988 H         1 GLY         0.2012
    100 H2         -0.7391  -27.2994   27.8308 H         1 GLY         0.2012
    101 H3          0.5406  -26.3857   28.3177 H         1 GLY         0.2012
    102 H4          0.6650  -28.7390   26.5877 H         1 GLY         0.1061
    103 H5          2.0616  -27.7419   27.1190 H         1 GLY         0.1061
    104 H6          1.8482  -25.3601   26.6084 H         1 CYS         0.1885
    105 H7          0.4872  -24.9942   23.9789 H         1 CYS         0.0808
    106 H8          0.5720  -22.5673   24.4596 H         1 CYS         0.0432
    107 H9          1.3300  -22.9205   26.0494 H         1 CYS         0.0432
    108 H10         3.1031  -26.2423   24.4266 H         1 ARG         0.1883
    109 H11         4.7461  -24.3113   22.8501 H         1 ARG         0.0800
    110 H12         6.7500  -25.5052   23.8448 H         1 ARG         0.0313
    111 H13         5.6149  -26.2876   24.9964 H         1 ARG         0.0313
    112 H14         6.3754  -24.5130   26.2521 H         1 ARG         0.0301
    113 H15         4.9003  -23.8032   25.5124 H         1 ARG         0.0301
    114 H16         6.2546  -22.7200   23.7832 H         1 ARG         0.0689
    115 H17         7.7415  -23.4848   24.4396 H         1 ARG         0.0689
    116 H18         6.3918  -21.9787   26.5004 H         1 ARG         0.2642
    117 H19         9.0336  -20.0401   24.0963 H         1 ARG         0.2615
    118 H20         8.3549  -21.6050   23.5735 H         1 ARG         0.2615
    119 H21         7.2566  -19.9943   27.1580 H         1 ARG         0.2615
    120 H22         8.4213  -19.1382   26.1125 H         1 ARG         0.2615
    121 H23         5.5426  -25.0172   20.9802 H         1 LEU         0.1883
    122 H24         5.4955  -27.9464   20.4215 H         1 LEU         0.0800
    123 H25         4.6320  -25.7523   18.4988 H         1 LEU         0.0315
    124 H26         3.5145  -26.8143   19.4209 H         1 LEU         0.0315
    125 H27         5.4373  -27.6225   17.2110 H         1 LEU         0.0298
    126 H28         4.4956  -29.8904   17.4738 H         1 LEU         0.0232
    127 H29         3.5782  -29.3378   18.9159 H         1 LEU         0.0232
    128 H30         5.3742  -29.3543   18.9460 H         1 LEU         0.0232
    129 H31         3.3646  -26.4838   16.4859 H         1 LEU         0.0232
    130 H32         2.3915  -27.6777   17.4101 H         1 LEU         0.0232
    131 H33         3.3801  -28.2158   16.0102 H         1 LEU         0.0232
    132 H34         7.5474  -28.4550   20.2488 H         1 TYR         0.1885
    133 H35         9.8027  -28.3310   19.9124 H         1 TYR         0.0821
    134 H36        10.5278  -27.6321   17.6497 H         1 TYR         0.0453
    135 H37         8.8760  -26.9992   17.3371 H         1 TYR         0.0453
    136 H38        10.6894  -30.1426   18.3018 H         1 TYR         0.0530
    137 H39         7.2414  -28.4344   16.4593 H         1 TYR         0.0530
    138 H40         9.9723  -32.3802   17.5769 H         1 TYR         0.0525
    139 H41         6.5208  -30.6734   15.7292 H         1 TYR         0.0525
    140 H42         8.4389  -33.5541   16.5040 H         1 TYR         0.2458
    141 H43         8.8715  -26.3502   21.5843 H         1 GLY         0.1881
    142 H44        10.9894  -24.3388   21.1605 H         1 GLY         0.0763
    143 H45        10.1610  -24.7208   22.7079 H         1 GLY         0.0763
    144 H46         8.4824  -24.1176   19.6599 H         1 PHE         0.1885
    145 H47         8.0272  -21.3100   20.1555 H         1 PHE         0.0823
    146 H48         6.2838  -21.5689   18.3470 H         1 PHE         0.0474
    147 H49         6.6530  -23.3266   18.3216 H         1 PHE         0.0474
    148 H50         8.1757  -19.9562   17.8169 H         1 PHE         0.0557
    149 H51         8.3999  -24.1418   17.0204 H         1 PHE         0.0557
    150 H52         9.9896  -19.5539   16.2016 H         1 PHE         0.0599
    151 H53        10.2077  -23.7435   15.4007 H         1 PHE         0.0599
    152 H54        11.0063  -21.4471   14.9883 H         1 PHE         0.0559
    153 H55         6.4466  -20.3179   21.2637 H         1 LYS         0.1883
    154 H56         4.3989  -21.8633   22.6507 H         1 LYS         0.0800
    155 H57         4.4202  -18.8563   22.2033 H         1 LYS         0.0312
    156 H58         5.4707  -19.6560   23.4213 H         1 LYS         0.0312
    157 H59         3.2722  -20.6863   24.3315 H         1 LYS         0.0269
    158 H60         2.4499  -19.4220   23.3558 H         1 LYS         0.0269
    159 H61         3.9502  -17.7187   24.5034 H         1 LYS         0.0317
    160 H62         4.4728  -19.0380   25.6048 H         1 LYS         0.0317
    161 H63         1.6211  -18.0247   25.2139 H         1 LYS         0.0813
    162 H64         2.6897  -17.6882   26.6180 H         1 LYS         0.0813
    163 H65         1.1362  -19.4486   27.0731 H         1 LYS         0.1994
    164 H66         2.6732  -20.0372   27.0974 H         1 LYS         0.1994
    165 H67         1.6940  -20.3456   25.8107 H         1 LYS         0.1994
    166 H68         2.2706  -22.1136   22.0447 H         1 ILE         0.1883
    167 H69         1.6106  -21.5026   19.2554 H         1 ILE         0.0803
    168 H70        -0.0099  -22.8157   21.4860 H         1 ILE         0.0345
    169 H71         1.9229  -24.1056   20.6557 H         1 ILE         0.0267
    170 H72         1.3287  -23.9138   18.9714 H         1 ILE         0.0267
    171 H73        -1.4844  -21.6294   19.8891 H         1 ILE         0.0235
    172 H74        -1.6333  -23.4127   19.7345 H         1 ILE         0.0235
    173 H75        -0.6865  -22.4823   18.5243 H         1 ILE         0.0235
    174 H76         0.7995  -26.1373   19.8629 H         1 ILE         0.0230
    175 H77        -0.6954  -25.1953   19.5397 H         1 ILE         0.0230
    176 H78        -0.1012  -25.3870   21.2240 H         1 ILE         0.0230
    177 H79         0.6232  -19.7330   18.5798 H         1 HIS         0.1885
    178 H80         0.3216  -17.4830   20.2433 H         1 HIS         0.0817
    179 H81        -0.9647  -18.0300   17.5328 H         1 HIS         0.0420
    180 H82         0.6883  -17.3834   17.8094 H         1 HIS         0.0420
    181 H83        -2.6598  -16.0068   16.9422 H         1 HIS         0.0729
    182 H84        -0.7720  -12.9247   19.1969 H         1 HIS         0.1199
    183 H85        -2.7192  -13.4837   17.6361 H         1 HIS         0.2361
    184 H86        -1.0626  -17.1448   21.8022 H         1 GLY         0.1881
    185 H87        -3.9317  -17.3984   21.2406 H         1 GLY         0.0763
    186 H88        -3.1681  -16.5440   22.6239 H         1 GLY         0.0763
    187 H89        -1.7007  -19.5007   22.4940 H         1 CYS         0.1884
    188 H90        -3.7801  -21.1803   23.5785 H         1 CYS         0.0808
    189 H91        -0.7569  -21.5019   23.7967 H         1 CYS         0.0432
    190 H92        -1.7502  -22.0211   22.3930 H         1 CYS         0.0432
    191 H93        -4.0958  -21.9082   25.6397 H         1 GLY         0.1873
    192 H94        -2.7042  -21.8628   27.9004 H         1 GLY         0.0689
    193 H95        -4.4754  -21.5642   27.8817 H         1 GLY         0.0689
@<TRIPOS>BOND
     1    1    2 1  
     2    2    3 1  
     3    3    4 2  
     4    3    5 am 
     5    5    6 1  
     6    6    7 1  
     7    6    9 1  
     8    7    8 2  
     9    7   11 am 
    10    9   10 1  
    11   10   93 1  
    12   11   12 1  
    13   12   13 1  
    14   12   15 1  
    15   13   14 2  
    16   13   22 am 
    17   15   16 1  
    18   16   17 1  
    19   17   18 1  
    20   18   19 ar 
    21   19   20 ar 
    22   19   21 ar 
    23   22   23 1  
    24   23   24 1  
    25   23   26 1  
    26   24   25 2  
    27   24   30 am 
    28   26   27 1  
    29   27   28 1  
    30   27   29 1  
    31   30   31 1  
    32   31   32 1  
    33   31   34 1  
    34   32   33 2  
    35   32   42 am 
    36   34   35 1  
    37   35   36 ar 
    38   35   37 ar 
    39   36   38 ar 
    40   37   39 ar 
    41   38   40 ar 
    42   39   40 ar 
    43   40   41 1  
    44   42   43 1  
    45   43   44 1  
    46   44   45 2  
    47   44   46 am 
    48   46   47 1  
    49   47   48 1  
    50   47   50 1  
    51   48   49 2  
    52   48   57 am 
    53   50   51 1  
    54   51   52 ar 
    55   51   53 ar 
    56   52   54 ar 
    57   53   55 ar 
    58   54   56 ar 
    59   55   56 ar 
    60   57   58 1  
    61   58   59 1  
    62   58   61 1  
    63   59   60 2  
    64   59   66 am 
    65   61   62 1  
    66   62   63 1  
    67   63   64 1  
    68   64   65 1  
    69   66   67 1  
    70   67   68 1  
    71   67   70 1  
    72   68   69 2  
    73   68   74 am 
    74   70   71 1  
    75   70   72 1  
    76   71   73 1  
    77   74   75 1  
    78   75   76 1  
    79   75   78 1  
    80   76   77 2  
    81   76   84 am 
    82   78   79 1  
    83   79   80 1  
    84   79   81 2  
    85   80   82 2  
    86   81   83 1  
    87   82   83 1  
    88   84   85 1  
    89   85   86 1  
    90   86   87 2  
    91   86   88 am 
    92   88   89 1  
    93   89   90 1  
    94   89   92 1  
    95   90   91 2  
    96   90   94 am 
    97   92   93 1  
    98   94   95 1  
    99   95   96 1  
   100   96   97 ar 
   101   96   98 ar 
   102    1   99 1  
   103    1  100 1  
   104    1  101 1  
   105    2  102 1  
   106    2  103 1  
   107    5  104 1  
   108    6  105 1  
   109    9  106 1  
   110    9  107 1  
   111   11  108 1  
   112   12  109 1  
   113   15  110 1  
   114   15  111 1  
   115   16  112 1  
   116   16  113 1  
   117   17  114 1  
   118   17  115 1  
   119   18  116 1  
   120   20  117 1  
   121   20  118 1  
   122   21  119 1  
   123   21  120 1  
   124   22  121 1  
   125   23  122 1  
   126   26  123 1  
   127   26  124 1  
   128   27  125 1  
   129   28  126 1  
   130   28  127 1  
   131   28  128 1  
   132   29  129 1  
   133   29  130 1  
   134   29  131 1  
   135   30  132 1  
   136   31  133 1  
   137   34  134 1  
   138   34  135 1  
   139   36  136 1  
   140   37  137 1  
   141   38  138 1  
   142   39  139 1  
   143   41  140 1  
   144   42  141 1  
   145   43  142 1  
   146   43  143 1  
   147   46  144 1  
   148   47  145 1  
   149   50  146 1  
   150   50  147 1  
   151   52  148 1  
   152   53  149 1  
   153   54  150 1  
   154   55  151 1  
   155   56  152 1  
   156   57  153 1  
   157   58  154 1  
   158   61  155 1  
   159   61  156 1  
   160   62  157 1  
   161   62  158 1  
   162   63  159 1  
   163   63  160 1  
   164   64  161 1  
   165   64  162 1  
   166   65  163 1  
   167   65  164 1  
   168   65  165 1  
   169   66  166 1  
   170   67  167 1  
   171   70  168 1  
   172   71  169 1  
   173   71  170 1  
   174   72  171 1  
   175   72  172 1  
   176   72  173 1  
   177   73  174 1  
   178   73  175 1  
   179   73  176 1  
   180   74  177 1  
   181   75  178 1  
   182   78  179 1  
   183   78  180 1  
   184   81  181 1  
   185   82  182 1  
   186   83  183 1  
   187   84  184 1  
   188   85  185 1  
   189   85  186 1  
   190   88  187 1  
   191   89  188 1  
   192   92  189 1  
   193   92  190 1  
   194   94  191 1  
   195   95  192 1  
   196   95  193 1  
@<TRIPOS>SUBSTRUCTURE
     1 GLY         1

