5nxp_ligand
  -I-interpret- 

 39 40  0  0  0  0  0  0  0  0999 V2000
   -5.6220    6.0360   14.6950 C   0  0  0  0  0
   -6.1260    4.9490   15.4380 C   0  0  0  0  0
   -5.2930    3.9490   15.9140 C   0  0  0  0  0
   -5.8870    2.5660   16.7920 S   0  0  0  0  0
   -5.3660    2.6600   18.1490 O   0  0  0  0  0
   -7.3600    2.6410   16.6610 O   0  0  0  0  0
   -5.3130    1.2950   16.1110 N   0  0  0  0  0
   -3.9210    4.0390   15.6240 C   0  0  0  0  0
   -3.4170    5.1070   14.8900 C   0  0  0  0  0
   -4.2420    6.0890   14.4100 C   0  0  0  0  0
   -3.5480    7.0540   13.7280 N   0  0  0  0  0
   -4.0740    7.8290   12.7870 C   0  0  0  0  0
   -5.2770    7.8810   12.5580 O   0  0  0  0  0
   -3.1300    8.7970   12.0190 C   0  0  0  0  0
   -1.6400    8.7550   12.2740 N   0  0  0  0  0
   -0.7520    7.9190   11.4300 C   0  0  0  0  0
   -1.0330    9.6050   13.1290 C   0  0  0  0  0
    0.2230   10.2170   12.9040 C   0  0  0  0  0
    0.7530   11.1070   13.8380 C   0  0  0  0  0
    0.0520   11.4190   15.0020 C   0  0  0  0  0
   -1.1780   10.8110   15.2360 C   0  0  0  0  0
   -1.7000    9.9300   14.3170 C   0  0  0  0  0
   -6.2893    6.8240   14.3459 H   0  0  0  0  0
   -7.1952    4.8939   15.6427 H   0  0  0  0  0
   -4.6758    0.6854   16.6236 H   0  0  0  0  0
   -5.5730    1.0693   15.1509 H   0  0  0  0  0
   -3.2436    3.2622   15.9787 H   0  0  0  0  0
   -2.3464    5.1636   14.6932 H   0  0  0  0  0
   -2.5631    7.1854   13.9583 H   0  0  0  0  0
   -3.4354    9.7919   12.3432 H   0  0  0  0  0
   -3.2369    8.5109   10.9727 H   0  0  0  0  0
   -1.0563    6.8752   11.5075 H   0  0  0  0  0
   -0.8269    8.2446   10.3925 H   0  0  0  0  0
    0.2775    8.0250   11.7720 H   0  0  0  0  0
    0.7800    9.9913   11.9946 H   0  0  0  0  0
    1.7259   11.5636   13.6559 H   0  0  0  0  0
    0.4618   12.1298   15.7195 H   0  0  0  0  0
   -1.7292   11.0334   16.1497 H   0  0  0  0  0
   -2.6664    9.4688   14.5206 H   0  0  0  0  0
  1  2  4  0  0  0
  1 10  4  0  0  0
  2  3  4  0  0  0
  3  4  1  0  0  0
  3  8  4  0  0  0
  4  5  2  0  0  0
  4  6  2  0  0  0
  4  7  1  0  0  0
  8  9  4  0  0  0
  9 10  4  0  0  0
 10 11  1  0  0  0
 11 12  1  0  0  0
 12 13  2  0  0  0
 12 14  1  0  0  0
 14 15  1  0  0  0
 15 16  1  0  0  0
 15 17  1  0  0  0
 17 18  4  0  0  0
 17 22  4  0  0  0
 18 19  4  0  0  0
 19 20  4  0  0  0
 20 21  4  0  0  0
 21 22  4  0  0  0
  1 23  1  0  0  0
  2 24  1  0  0  0
  7 25  1  0  0  0
  7 26  1  0  0  0
  8 27  1  0  0  0
  9 28  1  0  0  0
 11 29  1  0  0  0
 14 30  1  0  0  0
 14 31  1  0  0  0
 16 32  1  0  0  0
 16 33  1  0  0  0
 16 34  1  0  0  0
 18 35  1  0  0  0
 19 36  1  0  0  0
 20 37  1  0  0  0
 21 38  1  0  0  0
 22 39  1  0  0  0
M  END
$$$$
