1ctr_ligand
  -I-interpret- 

 48 51  0  0  0  0  0  0  0  0999 V2000
    6.9850   25.8760  104.0390 C   0  0  0  0  0
    7.5590   24.7360  104.5850 C   0  0  0  0  0
    7.0040   24.1730  105.7110 C   0  0  0  0  0
    5.8760   24.7230  106.2940 C   0  0  0  0  0
    5.2350   25.8080  105.7010 C   0  0  0  0  0
    5.8330   26.4260  104.5910 C   0  0  0  0  0
    5.2980   24.0240  107.8210 S   0  0  0  0  0
    4.5620   25.3790  108.6120 C   0  0  0  0  0
    4.4590   25.3370  110.0060 C   0  0  0  0  0
    3.8500   26.3520  110.7050 C   0  0  0  0  0
    3.3150   27.3960  110.0090 C   0  0  0  0  0
    3.4220   27.4380  108.6150 C   0  0  0  0  0
    4.1000   26.4590  107.8620 C   0  0  0  0  0
    4.1250   26.4340  106.3630 N   0  0  0  0  0
    3.5590   27.5620  105.6230 C   0  0  0  0  0
    2.3730   27.1430  104.7420 C   0  0  0  0  0
    2.0220   28.1960  103.6860 C   0  0  0  0  0
    0.6860   28.1050  103.1690 N   0  0  0  0  0
    0.4460   28.5180  101.8330 C   0  0  0  0  0
   -0.8690   28.4570  101.2660 C   0  0  0  0  0
   -1.9630   27.9800  102.0470 N   0  0  0  0  0
   -1.7440   27.5720  103.3940 C   0  0  0  0  0
   -0.4140   27.6350  103.9530 C   0  0  0  0  0
   -3.2600   27.9150  101.4680 C   0  0  0  0  0
    7.6550   26.5500  102.9310 C   0  0  0  0  0
    8.7010   25.9160  102.4710 F   0  0  0  0  0
    8.0350   27.7510  103.2490 F   0  0  0  0  0
    6.9830   26.7700  101.8490 F   0  0  0  0  0
    8.4416   24.2909  104.1257 H   0  0  0  0  0
    7.4579   23.2839  106.1487 H   0  0  0  0  0
    5.3976   27.3300  104.1652 H   0  0  0  0  0
    4.8688   24.4845  110.5478 H   0  0  0  0  0
    3.7957   26.3231  111.7933 H   0  0  0  0  0
    2.8033   28.1987  110.5399 H   0  0  0  0  0
    2.9577   28.2695  108.0848 H   0  0  0  0  0
    4.3365   27.9660  104.9746 H   0  0  0  0  0
    3.2016   28.2958  106.3454 H   0  0  0  0  0
    1.5047   27.0137  105.3880 H   0  0  0  0  0
    2.6493   26.2258  104.2219 H   0  0  0  0  0
    2.6986   28.0404  102.8457 H   0  0  0  0  0
    2.1102   29.1699  104.1676 H   0  0  0  0  0
    1.2744   28.8874  101.2285 H   0  0  0  0  0
   -1.0332   28.7756  100.2366 H   0  0  0  0  0
   -2.5763   27.2139  103.9999 H   0  0  0  0  0
   -0.2467   27.3210  104.9833 H   0  0  0  0  0
   -3.5672   28.9129  101.1551 H   0  0  0  0  0
   -3.2375   27.2524  100.6028 H   0  0  0  0  0
   -3.9661   27.5301  102.2038 H   0  0  0  0  0
  1  2  4  0  0  0
  1  6  4  0  0  0
  1 25  1  0  0  0
  2  3  4  0  0  0
  3  4  4  0  0  0
  4  5  4  0  0  0
  4  7  1  0  0  0
  5  6  4  0  0  0
  5 14  1  0  0  0
  7  8  1  0  0  0
  8  9  4  0  0  0
  8 13  4  0  0  0
  9 10  4  0  0  0
 10 11  4  0  0  0
 11 12  4  0  0  0
 12 13  4  0  0  0
 13 14  1  0  0  0
 14 15  1  0  0  0
 15 16  1  0  0  0
 16 17  1  0  0  0
 17 18  1  0  0  0
 18 19  1  0  0  0
 18 23  1  0  0  0
 19 20  2  0  0  0
 20 21  1  0  0  0
 21 22  1  0  0  0
 21 24  1  0  0  0
 22 23  2  0  0  0
 25 26  1  0  0  0
 25 27  1  0  0  0
 25 28  1  0  0  0
  2 29  1  0  0  0
  3 30  1  0  0  0
  6 31  1  0  0  0
  9 32  1  0  0  0
 10 33  1  0  0  0
 11 34  1  0  0  0
 12 35  1  0  0  0
 15 36  1  0  0  0
 15 37  1  0  0  0
 16 38  1  0  0  0
 16 39  1  0  0  0
 17 40  1  0  0  0
 17 41  1  0  0  0
 19 42  1  0  0  0
 20 43  1  0  0  0
 22 44  1  0  0  0
 23 45  1  0  0  0
 24 46  1  0  0  0
 24 47  1  0  0  0
 24 48  1  0  0  0
M  END
$$$$
