4qtl_ligand
  -I-interpret- 

 42 43  0  0  0  0  0  0  0  0999 V2000
   -4.2250    0.6300   13.9780 F   0  0  0  0  0
   -4.7560    1.8490   14.2760 C   0  0  0  0  0
   -5.4190    2.0520   15.5250 C   0  0  0  0  0
   -5.7490    0.7710   16.7650 S   0  0  0  0  0
   -7.3140    0.6990   16.8120 O   0  0  0  0  0
   -5.1140   -0.7160   16.1130 N   0  0  0  0  0
   -5.2450    0.9740   18.1690 O   0  0  0  0  0
   -5.9400    3.2990   15.8130 C   0  0  0  0  0
   -6.5760    3.5150   16.9880 F   0  0  0  0  0
   -5.7760    4.3460   14.9300 C   0  0  0  0  0
   -6.3070    5.5340   15.3300 F   0  0  0  0  0
   -4.6300    2.9010   13.3230 C   0  0  0  0  0
   -5.1530    4.1820   13.7010 C   0  0  0  0  0
   -5.0750    5.7280   12.7280 S   0  0  0  0  0
   -3.8270    5.6920   11.7760 O   0  0  0  0  0
   -4.4040    6.7580   13.6820 O   0  0  0  0  0
   -6.4220    6.5830   11.7780 C   0  0  0  0  0
   -5.8750    7.6990   10.8600 C   0  0  0  0  0
   -6.7200    8.0040    9.7750 O   0  0  0  0  0
   -3.9160    2.7460   12.0760 N   0  0  0  0  0
   -4.0970    3.4670   10.8160 C   0  0  0  0  0
   -2.8100    3.6000   10.0780 C   0  0  0  0  0
   -1.6270    3.1380   10.6660 C   0  0  0  0  0
   -0.4120    3.2570    9.9850 C   0  0  0  0  0
   -0.3760    3.8380    8.7140 C   0  0  0  0  0
   -1.5580    4.3010    8.1240 C   0  0  0  0  0
   -2.7740    4.1820    8.8060 C   0  0  0  0  0
   -5.7499   -1.4626   15.8327 H   0  0  0  0  0
   -4.1066   -0.8394   16.0119 H   0  0  0  0  0
   -7.1042    7.0393   12.4953 H   0  0  0  0  0
   -6.9164    5.8413   11.1507 H   0  0  0  0  0
   -4.9290    7.3478   10.4479 H   0  0  0  0  0
   -5.7813    8.6015   11.4641 H   0  0  0  0  0
   -6.3230    8.7012    9.2478 H   0  0  0  0  0
   -3.1844    2.0353   12.0742 H   0  0  0  0  0
   -4.4737    4.4653   11.0388 H   0  0  0  0  0
   -4.7970    2.9086   10.1945 H   0  0  0  0  0
   -1.6531    2.6845   11.6568 H   0  0  0  0  0
    0.5079    2.8965   10.4453 H   0  0  0  0  0
    0.5714    3.9304    8.1830 H   0  0  0  0  0
   -1.5311    4.7543    7.1331 H   0  0  0  0  0
   -3.6939    4.5429    8.3461 H   0  0  0  0  0
  1  2  1  0  0  0
  2  3  4  0  0  0
  2 12  4  0  0  0
  3  4  1  0  0  0
  3  8  4  0  0  0
  4  5  2  0  0  0
  4  6  1  0  0  0
  4  7  2  0  0  0
  8  9  1  0  0  0
  8 10  4  0  0  0
 10 11  1  0  0  0
 10 13  4  0  0  0
 12 13  4  0  0  0
 12 20  1  0  0  0
 13 14  1  0  0  0
 14 15  2  0  0  0
 14 16  2  0  0  0
 14 17  1  0  0  0
 17 18  1  0  0  0
 18 19  1  0  0  0
 20 21  1  0  0  0
 21 22  1  0  0  0
 22 23  4  0  0  0
 22 27  4  0  0  0
 23 24  4  0  0  0
 24 25  4  0  0  0
 25 26  4  0  0  0
 26 27  4  0  0  0
  6 28  1  0  0  0
  6 29  1  0  0  0
 17 30  1  0  0  0
 17 31  1  0  0  0
 18 32  1  0  0  0
 18 33  1  0  0  0
 19 34  1  0  0  0
 20 35  1  0  0  0
 21 36  1  0  0  0
 21 37  1  0  0  0
 23 38  1  0  0  0
 24 39  1  0  0  0
 25 40  1  0  0  0
 26 41  1  0  0  0
 27 42  1  0  0  0
M  END
$$$$
