### 
### Created by X-TOOL on Mon Sep 10 21:13:29 2018
### 

@<TRIPOS>MOLECULE
4zts_ligand
   58    62     1     0     0
SMALL
GAST_HUCK


@<TRIPOS>ATOM
      1 C01         5.9500  -24.2530  -13.0970 C.3       1 4RK        -0.0565
      2 C02         6.8650  -24.9640  -12.0790 C.3       1 4RK        -0.0261
      3 C03         6.4440  -24.8000  -10.6020 C.ar      1 4RK        -0.0520
      4 C04         6.7680  -25.8560   -9.7480 C.ar      1 4RK        -0.0692
      5 C05         6.4280  -25.7850   -8.4060 C.ar      1 4RK        -0.0669
      6 C06         5.7550  -24.6690   -7.9120 C.ar      1 4RK        -0.0188
      7 C07         5.4360  -23.5970   -8.7510 C.ar      1 4RK        -0.0669
      8 C08         5.7820  -23.6610  -10.0990 C.ar      1 4RK        -0.0692
      9 N09         5.4790  -24.6780   -6.5470 N.2       1 4RK        -0.3144
     10 C10         4.5930  -25.4710   -5.9810 C.2       1 4RK         0.2156
     11 S11         3.5560  -26.5690   -6.6410 S.3       1 4RK         0.0484
     12 C12         2.7500  -27.1700   -5.4200 C.2       1 4RK         0.1210
     13 C13         1.7320  -28.1120   -5.3220 C.3       1 4RK         0.0396
     14 C14         1.2240  -29.0460   -6.3810 C.ar      1 4RK        -0.0192
     15 C15         0.5810  -30.2170   -5.9310 C.ar      1 4RK        -0.0089
     16 C16         0.0650  -31.1360   -6.8490 C.ar      1 4RK         0.1235
     17 N17        -0.5800  -32.3530   -6.4890 N.pl3     1 4RK        -0.2613
     18 C18        -0.9430  -32.7950   -5.1800 C.ar      1 4RK         0.0629
     19 C19        -0.2180  -32.5630   -4.0370 C.ar      1 4RK        -0.0370
     20 C20        -0.6480  -33.0600   -2.8090 C.ar      1 4RK        -0.0608
     21 C21        -1.8250  -33.8100   -2.7240 C.ar      1 4RK        -0.0017
     22 C22        -2.5420  -34.0570   -3.8680 C.ar      1 4RK        -0.0608
     23 C23        -2.1140  -33.5680   -5.0850 C.ar      1 4RK        -0.0370
     24 C24        -2.3050  -34.3650   -1.3810 C.2       1 4RK         0.1397
     25 N25        -1.6610  -34.2560   -0.2090 N.2       1 4RK        -0.1503
     26 N26        -2.3770  -34.8730    0.7410 N.pl3     1 4RK        -0.1067
     27 N27        -3.4740  -35.3720    0.1640 N.2       1 4RK        -0.0536
     28 N28        -3.4310  -35.0640   -1.1520 N.2       1 4RK        -0.1785
     29 N29         0.1880  -30.8770   -8.1540 N.ar      1 4RK        -0.2912
     30 C30         0.7720  -29.7870   -8.6370 C.ar      1 4RK        -0.0103
     31 C31         1.3070  -28.8280   -7.7820 C.ar      1 4RK        -0.0430
     32 C32         3.2520  -26.4870   -4.1320 C.2       1 4RK         0.2389
     33 O33         2.8520  -26.7050   -3.0040 O.2       1 4RK        -0.3991
     34 N34         4.4060  -25.4330   -4.5080 N.am      1 4RK        -0.1838
     35 C35         5.1280  -24.6010   -3.5820 C.3       1 4RK         0.0553
     36 H1          6.3292  -24.4269  -14.1148 H         1 4RK         0.0250
     37 H2          5.9399  -23.1729  -12.8891 H         1 4RK         0.0250
     38 H3          4.9284  -24.6522  -13.0132 H         1 4RK         0.0250
     39 H4          7.8815  -24.5589  -12.1917 H         1 4RK         0.0408
     40 H5          6.8700  -26.0382  -12.3157 H         1 4RK         0.0408
     41 H6          7.2836  -26.7283  -10.1330 H         1 4RK         0.0535
     42 H7          6.6862  -26.5996   -7.7391 H         1 4RK         0.0520
     43 H8          4.9252  -22.7258   -8.3570 H         1 4RK         0.0520
     44 H9          5.5426  -22.8362  -10.7604 H         1 4RK         0.0535
     45 H10         0.8479  -27.5335   -5.0158 H         1 4RK         0.0680
     46 H11         2.0427  -28.7708   -4.4977 H         1 4RK         0.0680
     47 H12         0.4863  -30.4057   -4.8677 H         1 4RK         0.0560
     48 H13        -0.8124  -32.9902   -7.2641 H         1 4RK         0.2130
     49 H14         0.6987  -31.9869   -4.0911 H         1 4RK         0.0539
     50 H15        -0.0673  -32.8644   -1.9148 H         1 4RK         0.0599
     51 H16        -3.4532  -34.6418   -3.8148 H         1 4RK         0.0599
     52 H17        -2.6877  -33.7824   -5.9794 H         1 4RK         0.0539
     53 H18        -2.1266  -34.9489    1.7372 H         1 4RK         0.2931
     54 H19         0.8328  -29.6423   -9.7096 H         1 4RK         0.0762
     55 H20         1.7767  -27.9343   -8.1767 H         1 4RK         0.0555
     56 H21         5.8540  -23.9845   -4.1322 H         1 4RK         0.0578
     57 H22         5.6600  -25.2349   -2.8574 H         1 4RK         0.0578
     58 H23         4.4219  -23.9476   -3.0487 H         1 4RK         0.0578
@<TRIPOS>BOND
     1    1    2 1  
     2    2    3 1  
     3    3    4 ar 
     4    3    8 ar 
     5    4    5 ar 
     6    5    6 ar 
     7    6    7 ar 
     8    6    9 1  
     9    7    8 ar 
    10    9   10 2  
    11   10   11 1  
    12   10   34 1  
    13   11   12 1  
    14   12   13 1  
    15   12   32 1  
    16   13   14 1  
    17   14   15 ar 
    18   14   31 ar 
    19   15   16 ar 
    20   16   17 1  
    21   16   29 ar 
    22   17   18 1  
    23   18   19 ar 
    24   18   23 ar 
    25   19   20 ar 
    26   20   21 ar 
    27   21   22 ar 
    28   21   24 1  
    29   22   23 ar 
    30   24   25 2  
    31   24   28 1  
    32   25   26 1  
    33   26   27 1  
    34   27   28 2  
    35   29   30 ar 
    36   30   31 ar 
    37   32   33 2  
    38   32   34 am 
    39   34   35 1  
    40    1   36 1  
    41    1   37 1  
    42    1   38 1  
    43    2   39 1  
    44    2   40 1  
    45    4   41 1  
    46    5   42 1  
    47    7   43 1  
    48    8   44 1  
    49   13   45 1  
    50   13   46 1  
    51   15   47 1  
    52   17   48 1  
    53   19   49 1  
    54   20   50 1  
    55   22   51 1  
    56   23   52 1  
    57   26   53 1  
    58   30   54 1  
    59   31   55 1  
    60   35   56 1  
    61   35   57 1  
    62   35   58 1  
@<TRIPOS>SUBSTRUCTURE
     1 4RK         1

