4zts_ligand
  -I-interpret- 

 58 62  0  0  0  0  0  0  0  0999 V2000
    5.9500  -24.2530  -13.0970 C   0  0  0  0  0
    6.8650  -24.9640  -12.0790 C   0  0  0  0  0
    6.4440  -24.8000  -10.6020 C   0  0  0  0  0
    6.7680  -25.8560   -9.7480 C   0  0  0  0  0
    6.4280  -25.7850   -8.4060 C   0  0  0  0  0
    5.7550  -24.6690   -7.9120 C   0  0  0  0  0
    5.4360  -23.5970   -8.7510 C   0  0  0  0  0
    5.7820  -23.6610  -10.0990 C   0  0  0  0  0
    5.4790  -24.6780   -6.5470 N   0  0  0  0  0
    4.5930  -25.4710   -5.9810 C   0  0  0  0  0
    3.5560  -26.5690   -6.6410 S   0  0  0  0  0
    2.7500  -27.1700   -5.4200 C   0  0  0  0  0
    1.7320  -28.1120   -5.3220 C   0  0  0  0  0
    1.2240  -29.0460   -6.3810 C   0  0  0  0  0
    0.5810  -30.2170   -5.9310 C   0  0  0  0  0
    0.0650  -31.1360   -6.8490 C   0  0  0  0  0
   -0.5800  -32.3530   -6.4890 N   0  0  0  0  0
   -0.9430  -32.7950   -5.1800 C   0  0  0  0  0
   -0.2180  -32.5630   -4.0370 C   0  0  0  0  0
   -0.6480  -33.0600   -2.8090 C   0  0  0  0  0
   -1.8250  -33.8100   -2.7240 C   0  0  0  0  0
   -2.5420  -34.0570   -3.8680 C   0  0  0  0  0
   -2.1140  -33.5680   -5.0850 C   0  0  0  0  0
   -2.3050  -34.3650   -1.3810 C   0  0  0  0  0
   -1.6610  -34.2560   -0.2090 N   0  0  0  0  0
   -2.3770  -34.8730    0.7410 N   0  0  0  0  0
   -3.4740  -35.3720    0.1640 N   0  0  0  0  0
   -3.4310  -35.0640   -1.1520 N   0  0  0  0  0
    0.1880  -30.8770   -8.1540 N   0  0  0  0  0
    0.7720  -29.7870   -8.6370 C   0  0  0  0  0
    1.3070  -28.8280   -7.7820 C   0  0  0  0  0
    3.2520  -26.4870   -4.1320 C   0  0  0  0  0
    2.8520  -26.7050   -3.0040 O   0  0  0  0  0
    4.4060  -25.4330   -4.5080 N   0  0  0  0  0
    5.1280  -24.6010   -3.5820 C   0  0  0  0  0
    4.9381  -24.6494  -13.0129 H   0  0  0  0  0
    5.9408  -23.1829  -12.8899 H   0  0  0  0  0
    6.3267  -24.4261  -14.1051 H   0  0  0  0  0
    7.8541  -24.5166  -12.1770 H   0  0  0  0  0
    6.8196  -26.0296  -12.3039 H   0  0  0  0  0
    7.2865  -26.7331  -10.1352 H   0  0  0  0  0
    6.6877  -26.6041   -7.7354 H   0  0  0  0  0
    4.9224  -22.7210   -8.3549 H   0  0  0  0  0
    5.5413  -22.8316  -10.7641 H   0  0  0  0  0
    2.2462  -27.8813   -6.0745 H   0  0  0  0  0
    0.8650  -27.4664   -5.1819 H   0  0  0  0  0
    2.1699  -28.8177   -4.6161 H   0  0  0  0  0
    0.4858  -30.4067   -4.8619 H   0  0  0  0  0
   -0.8102  -32.9840   -7.2566 H   0  0  0  0  0
    0.7037  -31.9838   -4.0914 H   0  0  0  0  0
   -0.0641  -32.8633   -1.9098 H   0  0  0  0  0
   -3.4582  -34.6450   -3.8145 H   0  0  0  0  0
   -2.6908  -33.7835   -5.9844 H   0  0  0  0  0
    0.8332  -29.6415   -9.7155 H   0  0  0  0  0
    1.7793  -27.9294   -8.1788 H   0  0  0  0  0
    6.1921  -24.8288   -3.6443 H   0  0  0  0  0
    4.9641  -23.5531   -3.8331 H   0  0  0  0  0
    4.7727  -24.7932   -2.5696 H   0  0  0  0  0
  1  2  1  0  0  0
  2  3  1  0  0  0
  3  4  4  0  0  0
  3  8  4  0  0  0
  4  5  4  0  0  0
  5  6  4  0  0  0
  6  7  4  0  0  0
  6  9  1  0  0  0
  7  8  4  0  0  0
  9 10  2  0  0  0
 10 11  1  0  0  0
 10 34  1  0  0  0
 11 12  1  0  0  0
 12 13  1  0  0  0
 12 32  1  0  0  0
 13 14  1  0  0  0
 14 15  4  0  0  0
 14 31  4  0  0  0
 15 16  4  0  0  0
 16 17  1  0  0  0
 16 29  4  0  0  0
 17 18  1  0  0  0
 18 19  4  0  0  0
 18 23  4  0  0  0
 19 20  4  0  0  0
 20 21  4  0  0  0
 21 22  4  0  0  0
 21 24  1  0  0  0
 22 23  4  0  0  0
 24 25  4  0  0  0
 24 28  4  0  0  0
 25 26  4  0  0  0
 26 27  4  0  0  0
 27 28  4  0  0  0
 29 30  4  0  0  0
 30 31  4  0  0  0
 32 33  2  0  0  0
 32 34  1  0  0  0
 34 35  1  0  0  0
  1 36  1  0  0  0
  1 37  1  0  0  0
  1 38  1  0  0  0
  2 39  1  0  0  0
  2 40  1  0  0  0
  4 41  1  0  0  0
  5 42  1  0  0  0
  7 43  1  0  0  0
  8 44  1  0  0  0
 12 45  1  0  0  0
 13 46  1  0  0  0
 13 47  1  0  0  0
 15 48  1  0  0  0
 17 49  1  0  0  0
 19 50  1  0  0  0
 20 51  1  0  0  0
 22 52  1  0  0  0
 23 53  1  0  0  0
 30 54  1  0  0  0
 31 55  1  0  0  0
 35 56  1  0  0  0
 35 57  1  0  0  0
 35 58  1  0  0  0
M  END
$$$$
