1pop_ligand
  -I-interpret- 

 70 69  0  0  0  0  0  0  0  0999 V2000
   18.1090   68.4890   20.9420 C   0  0  0  0  0
   18.4260   68.6970   19.7590 O   0  0  0  0  0
   17.2150   67.3360   21.3560 C   0  0  0  0  0
   18.4390   69.2520   21.9840 N   0  0  0  0  0
   19.3980   70.3440   21.8930 C   0  0  0  0  0
   20.8050   69.7210   21.9520 C   0  0  0  0  0
   21.0500   68.7570   22.7010 O   0  0  0  0  0
   19.2100   71.3170   23.0690 C   0  0  0  0  0
   18.4410   72.5990   22.7690 C   0  0  0  0  0
   17.0440   72.3170   22.2550 C   0  0  0  0  0
   18.3480   73.3840   24.0720 C   0  0  0  0  0
   21.7030   70.2520   21.1320 N   0  0  0  0  0
   23.0830   69.7930   21.0930 C   0  0  0  0  0
   23.8410   70.9130   21.7800 C   0  0  0  0  0
   23.4470   72.0710   21.6410 O   0  0  0  0  0
   23.5640   69.6140   19.6350 C   0  0  0  0  0
   22.9140   68.5270   18.7280 C   0  0  0  0  0
   22.8360   67.2150   19.5150 C   0  0  0  0  0
   21.4890   68.9040   18.3240 C   0  0  0  0  0
   24.8150   70.4970   22.5850 N   0  0  0  0  0
   25.7070   71.3740   23.3310 C   0  0  0  0  0
   27.1860   71.1710   22.9740 C   0  0  0  0  0
   28.0600   72.1980   23.4900 O   0  0  0  0  0
   25.5290   71.1390   24.8290 C   0  0  0  0  0
   24.4710   72.0230   25.4630 C   0  0  0  0  0
   23.2980   71.2940   26.0920 C   0  0  0  0  0
   23.6370   70.5240   27.2910 N   0  0  0  0  0
   23.2540   69.2280   27.4570 C   0  0  0  0  0
   22.5280   68.5910   26.5020 N   0  0  0  0  0
   23.5910   68.5640   28.5830 N   0  0  0  0  0
   16.2477   67.4328   20.8631 H   0  0  0  0  0
   17.6802   66.3944   21.0644 H   0  0  0  0  0
   17.0769   67.3550   22.4370 H   0  0  0  0  0
   18.0003   69.0625   22.8851 H   0  0  0  0  0
   19.2559   70.9020   20.9675 H   0  0  0  0  0
   20.2109   71.6268   23.3696 H   0  0  0  0  0
   18.6256   70.7804   23.8164 H   0  0  0  0  0
   18.9632   73.1572   21.9920 H   0  0  0  0  0
   17.1071   71.7347   21.3358 H   0  0  0  0  0
   16.4887   71.7545   23.0056 H   0  0  0  0  0
   16.5346   73.2597   22.0552 H   0  0  0  0  0
   17.8231   72.7869   24.8177 H   0  0  0  0  0
   19.3520   73.6131   24.4291 H   0  0  0  0  0
   17.8025   74.3115   23.8978 H   0  0  0  0  0
   21.4164   71.0067   20.5086 H   0  0  0  0  0
   23.2252   68.8242   21.5718 H   0  0  0  0  0
   24.6050   69.3046   19.7276 H   0  0  0  0  0
   23.3170   70.5578   19.1488 H   0  0  0  0  0
   23.5250   68.4320   17.8303 H   0  0  0  0  0
   23.8405   66.9056   19.8036 H   0  0  0  0  0
   22.2297   67.3642   20.4084 H   0  0  0  0  0
   22.3825   66.4449   18.8910 H   0  0  0  0  0
   20.8765   69.0155   19.2187 H   0  0  0  0  0
   21.5055   69.8449   17.7739 H   0  0  0  0  0
   21.0723   68.1196   17.6923 H   0  0  0  0  0
   24.9467   69.4907   22.6872 H   0  0  0  0  0
   25.4375   72.3946   23.0594 H   0  0  0  0  0
   27.2631   71.1964   21.8870 H   0  0  0  0  0
   27.4994   70.2261   23.4179 H   0  0  0  0  0
   28.9642   72.0076   23.2297 H   0  0  0  0  0
   26.4790   71.3707   25.3106 H   0  0  0  0  0
   25.2119   70.1046   24.9615 H   0  0  0  0  0
   24.0600   72.6370   24.6616 H   0  0  0  0  0
   24.9645   72.5676   26.2680 H   0  0  0  0  0
   22.9270   70.5857   25.3512 H   0  0  0  0  0
   22.5742   72.0517   26.3923 H   0  0  0  0  0
   24.1794   70.9748   28.0279 H   0  0  0  0  0
   22.2434   67.6213   26.6398 H   0  0  0  0  0
   22.2674   69.0824   25.6470 H   0  0  0  0  0
   24.1324   69.0332   29.3091 H   0  0  0  0  0
  1  2  2  0  0  0
  1  3  1  0  0  0
  1  4  1  0  0  0
  4  5  1  0  0  0
  5  6  1  0  0  0
  5  8  1  0  0  0
  6  7  2  0  0  0
  6 12  1  0  0  0
  8  9  1  0  0  0
  9 10  1  0  0  0
  9 11  1  0  0  0
 12 13  1  0  0  0
 13 14  1  0  0  0
 13 16  1  0  0  0
 14 15  2  0  0  0
 14 20  1  0  0  0
 16 17  1  0  0  0
 17 18  1  0  0  0
 17 19  1  0  0  0
 20 21  1  0  0  0
 21 22  1  0  0  0
 21 24  1  0  0  0
 22 23  1  0  0  0
 24 25  1  0  0  0
 25 26  1  0  0  0
 26 27  1  0  0  0
 27 28  1  0  0  0
 28 29  1  0  0  0
 28 30  2  0  0  0
  3 31  1  0  0  0
  3 32  1  0  0  0
  3 33  1  0  0  0
  4 34  1  0  0  0
  5 35  1  0  0  0
  8 36  1  0  0  0
  8 37  1  0  0  0
  9 38  1  0  0  0
 10 39  1  0  0  0
 10 40  1  0  0  0
 10 41  1  0  0  0
 11 42  1  0  0  0
 11 43  1  0  0  0
 11 44  1  0  0  0
 12 45  1  0  0  0
 13 46  1  0  0  0
 16 47  1  0  0  0
 16 48  1  0  0  0
 17 49  1  0  0  0
 18 50  1  0  0  0
 18 51  1  0  0  0
 18 52  1  0  0  0
 19 53  1  0  0  0
 19 54  1  0  0  0
 19 55  1  0  0  0
 20 56  1  0  0  0
 21 57  1  0  0  0
 22 58  1  0  0  0
 22 59  1  0  0  0
 23 60  1  0  0  0
 24 61  1  0  0  0
 24 62  1  0  0  0
 25 63  1  0  0  0
 25 64  1  0  0  0
 26 65  1  0  0  0
 26 66  1  0  0  0
 27 67  1  0  0  0
 29 68  1  0  0  0
 29 69  1  0  0  0
 30 70  1  0  0  0
M  END
$$$$
