### 
### Created by X-TOOL on Mon Sep 10 21:12:56 2018
### 

@<TRIPOS>MOLECULE
2ou7_ligand
   44    46     1     0     0
SMALL
GAST_HUCK


@<TRIPOS>ATOM
      1 PG         34.6610    9.7590   31.5500 P.3       1 ANP         0.1803
      2 O1G        34.6590    8.8020   32.7690 O.co2     1 ANP        -0.5454
      3 O2G        35.4860    9.2370   30.3500 O.co2     1 ANP        -0.5454
      4 O3G        33.4210   10.6710   31.2980 O.co2     1 ANP        -0.5454
      5 PB         37.3470    9.9330   32.7700 P.3       1 ANP         0.2543
      6 O1B        37.2920    8.3690   32.9030 O.co2     1 ANP        -0.6257
      7 O2B        38.1580   10.5750   31.5850 O.co2     1 ANP        -0.6257
      8 N3B        35.9080   10.6850   32.1970 N.am      1 ANP        -0.1803
      9 PA         39.6110   10.3650   34.1580 P.3       1 ANP         0.2949
     10 O1A        40.2220   11.6120   33.4360 O.co2     1 ANP        -0.6129
     11 O2A        39.9740    8.9460   33.6300 O.co2     1 ANP        -0.6129
     12 O3A        38.0160   10.6220   34.0650 O.3       1 ANP        -0.1431
     13 O5'        40.1120   10.4900   35.6750 O.3       1 ANP        -0.2478
     14 C5'        41.4730   10.8900   35.8590 C.3       1 ANP         0.1128
     15 C4'        42.2520   10.3360   37.0790 C.3       1 ANP         0.1189
     16 O4'        43.1170   11.3920   37.5340 O.3       1 ANP        -0.3364
     17 C3'        41.4480    9.8440   38.3200 C.3       1 ANP         0.1149
     18 O3'        41.1780    8.4590   38.3930 O.3       1 ANP        -0.3864
     19 C2'        42.3490   10.2710   39.4760 C.3       1 ANP         0.1385
     20 O2'        43.4710    9.4130   39.6010 O.3       1 ANP        -0.3836
     21 C1'        42.6480   11.6200   38.8440 C.3       1 ANP         0.2010
     22 N9         42.4180   12.8970   39.5120 N.pl3     1 ANP        -0.1919
     23 C8         41.5830   13.8960   39.0320 C.2       1 ANP         0.1123
     24 N7         41.5170   14.9540   39.8000 N.2       1 ANP        -0.2958
     25 C5         42.3680   14.6330   40.8520 C.ar      1 ANP         0.1045
     26 C6         42.7410   15.3420   42.0020 C.ar      1 ANP         0.1298
     27 N6         42.2580   16.5540   42.2420 N.pl3     1 ANP        -0.3152
     28 N1         43.6000   14.7800   42.8730 N.ar      1 ANP        -0.2698
     29 C2         44.0780   13.5540   42.6210 C.ar      1 ANP         0.0533
     30 N3         43.8000   12.7780   41.5620 N.ar      1 ANP        -0.2714
     31 C4         42.9280   13.3820   40.7020 C.ar      1 ANP         0.1613
     32 H1         35.8127   11.6791   32.2491 H         1 ANP         0.2132
     33 H2         41.4801   11.9869   35.9411 H         1 ANP         0.0648
     34 H3         42.0248   10.5862   34.9572 H         1 ANP         0.0648
     35 H4         42.8563    9.4882   36.7239 H         1 ANP         0.0651
     36 H5         40.4857   10.3751   38.3629 H         1 ANP         0.0648
     37 H6         40.6864    8.2746   39.1847 H         1 ANP         0.2100
     38 H7         41.8309   10.3490   40.4432 H         1 ANP         0.0676
     39 H8         43.1731    8.5254   39.7620 H         1 ANP         0.2101
     40 H9         43.6740   11.6316   39.2404 H         1 ANP         0.0996
     41 H10        41.0307   13.8075   38.0976 H         1 ANP         0.1349
     42 H11        42.5417   17.0625   43.0916 H         1 ANP         0.1820
     43 H12        41.5993   16.9865   41.5787 H         1 ANP         0.1820
     44 H13        44.7646   13.1439   43.3528 H         1 ANP         0.0996
@<TRIPOS>BOND
     1    1    2 ar 
     2    1    3 ar 
     3    1    4 ar 
     4    8    1 am 
     5    5    6 ar 
     6    5    7 ar 
     7    5    8 1  
     8   12    5 1  
     9    9   10 ar 
    10    9   11 ar 
    11    9   12 1  
    12    9   13 1  
    13   13   14 1  
    14   14   15 1  
    15   15   16 1  
    16   15   17 1  
    17   16   21 1  
    18   17   18 1  
    19   17   19 1  
    20   19   20 1  
    21   19   21 1  
    22   21   22 1  
    23   22   23 1  
    24   22   31 1  
    25   23   24 2  
    26   24   25 1  
    27   25   26 ar 
    28   25   31 ar 
    29   26   27 1  
    30   26   28 ar 
    31   28   29 ar 
    32   29   30 ar 
    33   30   31 ar 
    34    8   32 1  
    35   14   33 1  
    36   14   34 1  
    37   15   35 1  
    38   17   36 1  
    39   18   37 1  
    40   19   38 1  
    41   20   39 1  
    42   21   40 1  
    43   23   41 1  
    44   27   42 1  
    45   27   43 1  
    46   29   44 1  
@<TRIPOS>SUBSTRUCTURE
     1 ANP         1

