2ou7_ligand
  -I-interpret- 

 48 50  0  0  0  0  0  0  0  0999 V2000
   34.6610    9.7590   31.5500 P   0  0  0  0  0
   34.6590    8.8020   32.7690 O   0  0  0  0  0
   35.4860    9.2370   30.3500 O   0  0  0  0  0
   33.4210   10.6710   31.2980 O   0  0  0  0  0
   37.3470    9.9330   32.7700 P   0  0  0  0  0
   37.2920    8.3690   32.9030 O   0  0  0  0  0
   38.1580   10.5750   31.5850 O   0  0  0  0  0
   35.9080   10.6850   32.1970 N   0  0  0  0  0
   39.6110   10.3650   34.1580 P   0  0  0  0  0
   40.2220   11.6120   33.4360 O   0  0  0  0  0
   39.9740    8.9460   33.6300 O   0  0  0  0  0
   38.0160   10.6220   34.0650 O   0  0  0  0  0
   40.1120   10.4900   35.6750 O   0  0  0  0  0
   41.4730   10.8900   35.8590 C   0  0  0  0  0
   42.2520   10.3360   37.0790 C   0  0  0  0  0
   43.1170   11.3920   37.5340 O   0  0  0  0  0
   41.4480    9.8440   38.3200 C   0  0  0  0  0
   41.1780    8.4590   38.3930 O   0  0  0  0  0
   42.3490   10.2710   39.4760 C   0  0  0  0  0
   43.4710    9.4130   39.6010 O   0  0  0  0  0
   42.6480   11.6200   38.8440 C   0  0  0  0  0
   42.4180   12.8970   39.5120 N   0  0  0  0  0
   41.5830   13.8960   39.0320 C   0  0  0  0  0
   41.5170   14.9540   39.8000 N   0  0  0  0  0
   42.3680   14.6330   40.8520 C   0  0  0  0  0
   42.7410   15.3420   42.0020 C   0  0  0  0  0
   42.2580   16.5540   42.2420 N   0  0  0  0  0
   43.6000   14.7800   42.8730 N   0  0  0  0  0
   44.0780   13.5540   42.6210 C   0  0  0  0  0
   43.8000   12.7780   41.5620 N   0  0  0  0  0
   42.9280   13.3820   40.7020 C   0  0  0  0  0
   34.1316    9.1847   33.4740 H   0  0  0  0  0
   33.0225   10.9069   32.1389 H   0  0  0  0  0
   38.0975   11.5316   31.6386 H   0  0  0  0  0
   35.8108   11.6990   32.2501 H   0  0  0  0  0
   39.9133   12.4127   33.8664 H   0  0  0  0  0
   41.4333   11.9683   36.0136 H   0  0  0  0  0
   42.0019   10.5062   34.9866 H   0  0  0  0  0
   42.7365    9.4356   36.7013 H   0  0  0  0  0
   40.4433   10.2665   38.3062 H   0  0  0  0  0
   40.6812    8.2727   39.1930 H   0  0  0  0  0
   41.9738   10.2681   40.4994 H   0  0  0  0  0
   44.0168    9.7065   40.3342 H   0  0  0  0  0
   42.7766   12.6516   39.1716 H   0  0  0  0  0
   41.0301   13.8074   38.0968 H   0  0  0  0  0
   41.6057   16.9823   41.5851 H   0  0  0  0  0
   42.5389   17.0576   43.0834 H   0  0  0  0  0
   44.7684   13.1417   43.3568 H   0  0  0  0  0
  1  2  1  0  0  0
  1  3  2  0  0  0
  1  4  1  0  0  0
  8  1  1  0  0  0
  5  6  2  0  0  0
  5  7  1  0  0  0
  5  8  1  0  0  0
 12  5  1  0  0  0
  9 10  1  0  0  0
  9 11  2  0  0  0
  9 12  1  0  0  0
  9 13  1  0  0  0
 13 14  1  0  0  0
 14 15  1  0  0  0
 15 16  1  0  0  0
 15 17  1  0  0  0
 16 21  1  0  0  0
 17 18  1  0  0  0
 17 19  1  0  0  0
 19 20  1  0  0  0
 19 21  1  0  0  0
 21 22  1  0  0  0
 22 23  4  0  0  0
 22 31  4  0  0  0
 23 24  4  0  0  0
 24 25  4  0  0  0
 25 26  4  0  0  0
 25 31  4  0  0  0
 26 27  1  0  0  0
 26 28  4  0  0  0
 28 29  4  0  0  0
 29 30  4  0  0  0
 30 31  4  0  0  0
  2 32  1  0  0  0
  4 33  1  0  0  0
  7 34  1  0  0  0
  8 35  1  0  0  0
 10 36  1  0  0  0
 14 37  1  0  0  0
 14 38  1  0  0  0
 15 39  1  0  0  0
 17 40  1  0  0  0
 18 41  1  0  0  0
 19 42  1  0  0  0
 20 43  1  0  0  0
 21 44  1  0  0  0
 23 45  1  0  0  0
 27 46  1  0  0  0
 27 47  1  0  0  0
 29 48  1  0  0  0
M  END
$$$$
