3hub_ligand
  -I-interpret- 

 67 70  0  0  0  0  0  0  0  0999 V2000
   23.3340    7.5090  -27.9140 C   0  0  0  0  0
   22.7820    8.6990  -27.1480 N   0  0  0  0  0
   23.3850   10.0280  -27.3800 C   0  0  0  0  0
   21.7490    8.5850  -26.2310 C   0  0  0  0  0
   21.3040    9.5420  -25.5950 O   0  0  0  0  0
   21.1240    7.1880  -25.8850 C   0  0  0  0  0
   21.5210    6.2570  -26.5740 O   0  0  0  0  0
   19.9110    6.9160  -24.9880 C   0  0  0  0  0
   19.4060    5.6500  -24.7460 C   0  0  0  0  0
   19.8400    4.3680  -25.0650 C   0  0  0  0  0
   19.0510    7.8340  -24.5030 C   0  0  0  0  0
   18.0400    7.1880  -23.9040 N   0  0  0  0  0
   16.9630    7.8460  -23.1960 C   0  0  0  0  0
   18.2150    5.8560  -24.0230 C   0  0  0  0  0
   17.4620    4.7540  -23.6110 C   0  0  0  0  0
   17.9070    3.4740  -23.9050 C   0  0  0  0  0
   16.9030    2.1580  -23.3790 Cl  0  0  0  0  0
   19.0930    3.2870  -24.6360 C   0  0  0  0  0
   19.6330    1.8900  -24.9520 C   0  0  0  0  0
   19.8200    1.5200  -26.0970 O   0  0  0  0  0
   19.9810    1.1290  -23.8830 N   0  0  0  0  0
   20.5040   -0.2380  -23.9710 C   0  0  0  0  0
   21.6810   -0.2880  -23.0430 C   0  0  0  0  0
   19.4290   -1.2350  -23.4520 C   0  0  0  0  0
   19.7190    1.6610  -22.4870 C   0  0  0  0  0
   20.8870    1.5350  -21.5500 C   0  0  0  0  0
   21.9300    2.5430  -22.0670 C   0  0  0  0  0
   21.2560    0.1040  -21.6760 N   0  3  0  0  0
   22.2790   -0.3190  -20.7460 C   0  0  0  0  0
   22.7890   -1.7770  -20.8740 C   0  0  0  0  0
   24.0910   -2.0300  -21.3830 C   0  0  0  0  0
   24.5500   -3.3550  -21.4390 C   0  0  0  0  0
   23.7280   -4.4150  -20.9840 C   0  0  0  0  0
   24.1680   -5.7040  -21.0340 F   0  0  0  0  0
   22.4350   -4.1580  -20.4980 C   0  0  0  0  0
   21.9670   -2.8330  -20.4280 C   0  0  0  0  0
   23.7224    6.7735  -27.2095 H   0  0  0  0  0
   22.5380    7.0600  -28.5081 H   0  0  0  0  0
   24.1363    7.8426  -28.5721 H   0  0  0  0  0
   22.6193   10.7151  -27.7401 H   0  0  0  0  0
   23.8024   10.4042  -26.4460 H   0  0  0  0  0
   24.1765    9.9415  -28.1244 H   0  0  0  0  0
   20.7522    4.2183  -25.6426 H   0  0  0  0  0
   19.1589    8.9156  -24.5839 H   0  0  0  0  0
   17.3744    8.4288  -22.3718 H   0  0  0  0  0
   16.4308    8.5071  -23.8800 H   0  0  0  0  0
   16.2755    7.0961  -22.8048 H   0  0  0  0  0
   16.5314    4.8992  -23.0624 H   0  0  0  0  0
   20.7701   -0.4989  -24.9953 H   0  0  0  0  0
   22.4485    0.4014  -23.3948 H   0  0  0  0  0
   22.0811   -1.3017  -23.0206 H   0  0  0  0  0
   19.1896   -1.0016  -22.4145 H   0  0  0  0  0
   18.5299   -1.1480  -24.0621 H   0  0  0  0  0
   19.8167   -2.2516  -23.5169 H   0  0  0  0  0
   18.9043    1.0718  -22.0661 H   0  0  0  0  0
   19.4982    2.7240  -22.5843 H   0  0  0  0  0
   20.7366    1.7637  -20.4949 H   0  0  0  0  0
   22.2064    2.2856  -23.0895 H   0  0  0  0  0
   21.5052    3.5466  -22.0458 H   0  0  0  0  0
   22.8141    2.5078  -21.4304 H   0  0  0  0  0
   20.3836   -0.3739  -21.4502 H   0  0  0  0  0
   21.8284   -0.2477  -19.7561 H   0  0  0  0  0
   23.1422    0.3162  -20.9448 H   0  0  0  0  0
   24.7223   -1.2095  -21.7240 H   0  0  0  0  0
   25.5430   -3.5693  -21.8342 H   0  0  0  0  0
   21.7973   -4.9815  -20.1766 H   0  0  0  0  0
   20.9738   -2.6235  -20.0309 H   0  0  0  0  0
  1  2  1  0  0  0
  2  3  1  0  0  0
  2  4  1  0  0  0
  4  5  2  0  0  0
  4  6  1  0  0  0
  6  7  2  0  0  0
  6  8  1  0  0  0
  8  9  4  0  0  0
  8 11  4  0  0  0
  9 10  4  0  0  0
  9 14  4  0  0  0
 10 18  4  0  0  0
 11 12  4  0  0  0
 12 13  1  0  0  0
 12 14  4  0  0  0
 14 15  4  0  0  0
 15 16  4  0  0  0
 16 17  1  0  0  0
 16 18  4  0  0  0
 18 19  1  0  0  0
 19 20  2  0  0  0
 19 21  1  0  0  0
 21 22  1  0  0  0
 21 25  1  0  0  0
 22 23  1  0  0  0
 22 24  1  0  0  0
 23 28  1  0  0  0
 25 26  1  0  0  0
 26 27  1  0  0  0
 26 28  1  0  0  0
 28 29  1  0  0  0
 29 30  1  0  0  0
 30 31  4  0  0  0
 30 36  4  0  0  0
 31 32  4  0  0  0
 32 33  4  0  0  0
 33 34  1  0  0  0
 33 35  4  0  0  0
 35 36  4  0  0  0
  1 37  1  0  0  0
  1 38  1  0  0  0
  1 39  1  0  0  0
  3 40  1  0  0  0
  3 41  1  0  0  0
  3 42  1  0  0  0
 10 43  1  0  0  0
 11 44  1  0  0  0
 13 45  1  0  0  0
 13 46  1  0  0  0
 13 47  1  0  0  0
 15 48  1  0  0  0
 22 49  1  0  0  0
 23 50  1  0  0  0
 23 51  1  0  0  0
 24 52  1  0  0  0
 24 53  1  0  0  0
 24 54  1  0  0  0
 25 55  1  0  0  0
 25 56  1  0  0  0
 26 57  1  0  0  0
 27 58  1  0  0  0
 27 59  1  0  0  0
 27 60  1  0  0  0
 28 61  1  0  0  0
 29 62  1  0  0  0
 29 63  1  0  0  0
 31 64  1  0  0  0
 32 65  1  0  0  0
 35 66  1  0  0  0
 36 67  1  0  0  0
M  END
$$$$
