5d1r_ligand
  -I-interpret- 

 47 46  0  0  0  0  0  0  0  0999 V2000
  -17.2650   -6.5170  160.5190 C   0  0  0  0  0
  -15.8020   -4.0550  164.3030 C   0  0  0  0  0
  -16.7730   -3.0880  164.9120 C   0  0  0  0  0
  -19.1310  -13.3800  153.0960 C   0  0  0  0  0
  -18.3820  -12.7630  154.2080 C   0  0  0  0  0
  -17.2420  -11.8630  153.8750 C   0  0  0  0  0
  -16.4970  -11.3760  155.0640 C   0  0  0  0  0
  -15.8560  -10.0190  154.9900 C   0  0  0  0  0
  -16.4550   -8.9620  155.9160 C   0  0  0  0  0
  -16.3770   -9.0290  157.4410 C   0  0  0  0  0
  -16.9110   -7.8010  158.2080 C   0  0  0  0  0
  -17.0670   -7.8330  159.7390 C   0  0  0  0  0
  -17.3770   -6.5200  162.0380 C   0  0  0  0  0
  -17.2240   -5.2560  162.8590 C   0  0  0  0  0
  -18.0500   -4.3550  162.8100 O   0  0  0  0  0
  -16.3860   -5.2590  163.9430 O   0  0  0  0  0
  -14.5680   -4.2480  165.1300 C   0  0  0  0  0
  -18.2348   -6.1512  160.1816 H   0  0  0  0  0
  -16.3550   -5.9508  160.3206 H   0  0  0  0  0
  -15.4761   -3.5860  163.3746 H   0  0  0  0  0
  -17.5647   -2.8700  164.1952 H   0  0  0  0  0
  -17.2058   -3.5272  165.8108 H   0  0  0  0  0
  -16.2518   -2.1664  165.1711 H   0  0  0  0  0
  -19.5624  -12.5974  152.4719 H   0  0  0  0  0
  -18.4543  -13.9911  152.4988 H   0  0  0  0  0
  -19.9275  -14.0055  153.4990 H   0  0  0  0  0
  -17.9404  -13.5963  154.7545 H   0  0  0  0  0
  -19.1043  -12.1324  154.7263 H   0  0  0  0  0
  -17.6538  -10.9899  153.3689 H   0  0  0  0  0
  -16.5431  -12.4352  153.2649 H   0  0  0  0  0
  -15.6731  -12.0774  155.1954 H   0  0  0  0  0
  -17.2391  -11.3015  155.8589 H   0  0  0  0  0
  -16.0023   -9.6601  153.9712 H   0  0  0  0  0
  -14.8173  -10.1477  155.2944 H   0  0  0  0  0
  -17.5244   -9.0485  155.7235 H   0  0  0  0  0
  -15.8687   -8.0735  155.6817 H   0  0  0  0  0
  -15.3179   -9.1037  157.6876 H   0  0  0  0  0
  -17.0033   -9.8694  157.7402 H   0  0  0  0  0
  -17.9298   -7.6804  157.8398 H   0  0  0  0  0
  -16.1589   -7.0315  158.0338 H   0  0  0  0  0
  -17.9870   -8.3924  159.9085 H   0  0  0  0  0
  -16.1176   -8.2261  160.1025 H   0  0  0  0  0
  -16.5341   -7.1341  162.3550 H   0  0  0  0  0
  -18.4102   -6.8175  162.2173 H   0  0  0  0  0
  -14.8242   -4.7864  166.0425 H   0  0  0  0  0
  -13.8369   -4.8223  164.5609 H   0  0  0  0  0
  -14.1481   -3.2753  165.3863 H   0  0  0  0  0
  1 12  1  0  0  0
 13  1  1  0  0  0
  2  3  1  0  0  0
 16  2  1  0  0  0
  2 17  1  0  0  0
  5  4  1  0  0  0
  6  5  1  0  0  0
  7  6  1  0  0  0
  8  7  1  0  0  0
  9  8  1  0  0  0
 10  9  1  0  0  0
 11 10  1  0  0  0
 12 11  1  0  0  0
 14 13  1  0  0  0
 14 15  2  0  0  0
 14 16  1  0  0  0
  1 18  1  0  0  0
  1 19  1  0  0  0
  2 20  1  0  0  0
  3 21  1  0  0  0
  3 22  1  0  0  0
  3 23  1  0  0  0
  4 24  1  0  0  0
  4 25  1  0  0  0
  4 26  1  0  0  0
  5 27  1  0  0  0
  5 28  1  0  0  0
  6 29  1  0  0  0
  6 30  1  0  0  0
  7 31  1  0  0  0
  7 32  1  0  0  0
  8 33  1  0  0  0
  8 34  1  0  0  0
  9 35  1  0  0  0
  9 36  1  0  0  0
 10 37  1  0  0  0
 10 38  1  0  0  0
 11 39  1  0  0  0
 11 40  1  0  0  0
 12 41  1  0  0  0
 12 42  1  0  0  0
 13 43  1  0  0  0
 13 44  1  0  0  0
 17 45  1  0  0  0
 17 46  1  0  0  0
 17 47  1  0  0  0
M  END
$$$$
