6ays_ligand
  -I-interpret- 

 54 56  0  0  0  0  0  0  0  0999 V2000
  -27.0510   24.3720    3.5260 O   0  0  0  0  0
  -27.0000   24.4900    4.9590 C   0  0  0  0  0
  -25.9010   25.4280    5.4050 C   0  0  0  0  0
  -26.1620   26.0190    6.8000 C   0  0  0  0  0
  -27.3900   27.2860    6.7990 S   0  0  0  0  0
  -26.4750   28.6720    6.1880 C   0  0  0  0  0
  -27.2540   29.9740    6.2640 C   0  0  0  0  0
  -26.2850   31.1380    6.1040 C   0  0  0  0  0
  -27.0170   32.4760    6.0860 C   0  0  0  0  0
  -26.0260   33.6330    6.2080 C   0  0  0  0  0
  -26.7310   34.9760    6.2070 C   0  0  0  0  0
  -26.6110   23.1810    5.5770 C   0  0  0  0  0
  -25.1570   23.1640    5.3480 N   0  3  0  0  0
  -24.6510   24.5540    5.4040 C   0  0  0  0  0
  -24.4620   22.1900    6.1840 C   0  0  0  0  0
  -24.2040   22.5280    7.6340 C   0  0  0  0  0
  -25.1220   22.4890    8.7740 C   0  0  0  0  0
  -26.4420   22.1960    8.8610 N   0  0  0  0  0
  -27.0430   22.2410   10.0390 C   0  0  0  0  0
  -26.4030   22.5960   11.1750 N   0  0  0  0  0
  -25.0900   22.8790   11.2070 C   0  0  0  0  0
  -24.4750   23.2120   12.3730 N   0  0  0  0  0
  -24.3430   22.8550    9.9420 C   0  0  0  0  0
  -23.0870   23.0890    9.5380 N   0  0  0  0  0
  -22.9780   22.8890    8.1870 C   0  0  0  0  0
  -27.3011   25.2170    3.1452 H   0  0  0  0  0
  -27.9883   24.8382    5.2591 H   0  0  0  0  0
  -25.8185   26.2949    4.7494 H   0  0  0  0  0
  -25.2300   26.4624    7.1507 H   0  0  0  0  0
  -26.5204   25.2120    7.4390 H   0  0  0  0  0
  -26.2441   28.4827    5.1397 H   0  0  0  0  0
  -25.5834   28.7808    6.8054 H   0  0  0  0  0
  -27.7600   30.0452    7.2268 H   0  0  0  0  0
  -28.0004   30.0039    5.4702 H   0  0  0  0  0
  -25.7572   31.0204    5.1576 H   0  0  0  0  0
  -25.5962   31.1325    6.9488 H   0  0  0  0  0
  -27.7076   32.5121    6.9286 H   0  0  0  0  0
  -27.5564   32.5708    5.1436 H   0  0  0  0  0
  -25.3502   33.5986    5.3535 H   0  0  0  0  0
  -25.4883   33.5275    7.1503 H   0  0  0  0  0
  -27.2845   35.0936    5.2754 H   0  0  0  0  0
  -27.4209   35.0234    7.0495 H   0  0  0  0  0
  -25.9924   35.7727    6.2953 H   0  0  0  0  0
  -27.1292   22.3251    5.1447 H   0  0  0  0  0
  -26.8865   23.0976    6.6283 H   0  0  0  0  0
  -24.9494   22.8177    4.4113 H   0  0  0  0  0
  -24.0369   24.7255    6.2881 H   0  0  0  0  0
  -23.9992   24.7814    4.5605 H   0  0  0  0  0
  -23.4729   22.0889    5.7372 H   0  0  0  0  0
  -25.1182   21.3200    6.2091 H   0  0  0  0  0
  -28.0999   21.9805   10.0955 H   0  0  0  0  0
  -25.0113   23.2496   13.2398 H   0  0  0  0  0
  -23.4773   23.4242   12.3809 H   0  0  0  0  0
  -22.0536   22.9981    7.6198 H   0  0  0  0  0
  1  2  1  0  0  0
  2  3  1  0  0  0
  2 12  1  0  0  0
  3  4  1  0  0  0
  3 14  1  0  0  0
  4  5  1  0  0  0
  5  6  1  0  0  0
  6  7  1  0  0  0
  7  8  1  0  0  0
  8  9  1  0  0  0
  9 10  1  0  0  0
 10 11  1  0  0  0
 12 13  1  0  0  0
 13 14  1  0  0  0
 13 15  1  0  0  0
 15 16  1  0  0  0
 16 17  4  0  0  0
 16 25  4  0  0  0
 17 18  4  0  0  0
 17 23  4  0  0  0
 18 19  4  0  0  0
 19 20  4  0  0  0
 20 21  4  0  0  0
 21 22  1  0  0  0
 21 23  4  0  0  0
 23 24  4  0  0  0
 24 25  4  0  0  0
  1 26  1  0  0  0
  2 27  1  0  0  0
  3 28  1  0  0  0
  4 29  1  0  0  0
  4 30  1  0  0  0
  6 31  1  0  0  0
  6 32  1  0  0  0
  7 33  1  0  0  0
  7 34  1  0  0  0
  8 35  1  0  0  0
  8 36  1  0  0  0
  9 37  1  0  0  0
  9 38  1  0  0  0
 10 39  1  0  0  0
 10 40  1  0  0  0
 11 41  1  0  0  0
 11 42  1  0  0  0
 11 43  1  0  0  0
 12 44  1  0  0  0
 12 45  1  0  0  0
 13 46  1  0  0  0
 14 47  1  0  0  0
 14 48  1  0  0  0
 15 49  1  0  0  0
 15 50  1  0  0  0
 19 51  1  0  0  0
 22 52  1  0  0  0
 22 53  1  0  0  0
 25 54  1  0  0  0
M  END
$$$$
