2p53_ligand
  -I-interpret- 

 37 37  0  0  0  0  0  0  0  0999 V2000
  -35.3460   15.5200  -12.1780 C   0  0  0  0  0
  -34.8400   15.5980  -10.7170 C   0  0  0  0  0
  -34.8400   17.0790  -10.2370 C   0  0  0  0  0
  -34.0620   17.9690  -11.2290 C   0  0  0  0  0
  -34.6320   17.7620  -12.6620 C   0  0  0  0  0
  -33.8240   18.6020  -13.6700 C   0  0  0  0  0
  -35.2350   13.9130   -8.6440 P   0  0  0  0  0
  -36.5800   13.1020   -7.8030 C   0  0  0  0  0
  -35.7510   14.8260   -9.8860 N   0  0  0  0  0
  -36.7210   15.9220  -12.2530 O   0  0  0  0  0
  -34.2160   17.1660   -8.9520 O   0  0  0  0  0
  -34.2250   19.3460  -10.8500 O   0  0  0  0  0
  -34.5380   16.3620  -13.0400 O   0  0  0  0  0
  -32.4360   18.2770  -13.5480 O   0  0  0  0  0
  -34.3570   12.8430   -9.2120 O   0  0  0  0  0
  -34.3380   14.8530   -7.6980 O   0  0  0  0  0
  -31.5820   19.1540  -14.6070 P   0  0  0  0  0
  -30.1640   19.1130  -14.2030 O   0  0  0  0  0
  -31.7400   18.5280  -16.0800 O   0  0  0  0  0
  -32.0920   20.6860  -14.6280 O   0  0  0  0  0
  -35.2613   14.4869  -12.5151 H   0  0  0  0  0
  -33.8260   15.2041  -10.6487 H   0  0  0  0  0
  -35.8725   17.4236  -10.1785 H   0  0  0  0  0
  -33.0052   17.7024  -11.2135 H   0  0  0  0  0
  -35.6764   18.0739  -12.6693 H   0  0  0  0  0
  -33.9709   19.6621  -13.4633 H   0  0  0  0  0
  -34.1630   18.3837  -14.6827 H   0  0  0  0  0
  -37.1339   12.4885   -8.5135 H   0  0  0  0  0
  -36.1821   12.4706   -7.0086 H   0  0  0  0  0
  -37.2440   13.8525   -7.3741 H   0  0  0  0  0
  -36.7498   14.8588  -10.0901 H   0  0  0  0  0
  -37.2490   15.3608  -11.6804 H   0  0  0  0  0
  -34.6936   16.6150   -8.3276 H   0  0  0  0  0
  -33.8742   19.4771   -9.9661 H   0  0  0  0  0
  -34.8870   15.5464   -7.3246 H   0  0  0  0  0
  -32.6635   18.5557  -16.3409 H   0  0  0  0  0
  -33.0149   20.7113  -14.8911 H   0  0  0  0  0
  2  1  1  0  0  0
  1 10  1  0  0  0
  1 13  1  0  0  0
  2  3  1  0  0  0
  9  2  1  0  0  0
  3  4  1  0  0  0
  3 11  1  0  0  0
  4  5  1  0  0  0
  4 12  1  0  0  0
  5  6  1  0  0  0
 13  5  1  0  0  0
  6 14  1  0  0  0
  7  8  1  0  0  0
  7  9  1  0  0  0
  7 15  2  0  0  0
  7 16  1  0  0  0
 14 17  1  0  0  0
 17 18  2  0  0  0
 17 19  1  0  0  0
 17 20  1  0  0  0
  1 21  1  0  0  0
  2 22  1  0  0  0
  3 23  1  0  0  0
  4 24  1  0  0  0
  5 25  1  0  0  0
  6 26  1  0  0  0
  6 27  1  0  0  0
  8 28  1  0  0  0
  8 29  1  0  0  0
  8 30  1  0  0  0
  9 31  1  0  0  0
 10 32  1  0  0  0
 11 33  1  0  0  0
 12 34  1  0  0  0
 16 35  1  0  0  0
 19 36  1  0  0  0
 20 37  1  0  0  0
M  END
$$$$
