3qs8_ligand
  -I-interpret- 

 28 29  0  0  0  0  0  0  0  0999 V2000
    8.5540  -14.9310   31.5700 O   0  0  0  0  0
    7.2890  -13.7400   32.9410 O   0  0  0  0  0
    5.7190   -8.2500   34.4620 C   0  0  0  0  0
    4.7230   -9.2210   34.5730 C   0  0  0  0  0
    6.7370   -8.3650   33.5110 C   0  0  0  0  0
    7.6960  -10.9970   28.6520 C   0  0  0  0  0
    8.6520  -12.0120   28.6460 C   0  0  0  0  0
    4.7570  -10.3320   33.7200 C   0  0  0  0  0
    6.7710   -9.4620   32.6550 C   0  0  0  0  0
    6.7840  -10.9110   29.7020 C   0  0  0  0  0
    8.7010  -12.9570   29.6690 C   0  0  0  0  0
    5.7350  -11.7000   31.8600 C   0  0  0  0  0
    7.8730  -13.9230   31.8360 C   0  0  0  0  0
    5.7750  -10.4540   32.7610 C   0  0  0  0  0
    6.8160  -11.8320   30.7530 C   0  0  0  0  0
    7.7830  -12.8610   30.7200 C   0  0  0  0  0
    6.8261  -12.8992   32.9216 H   0  0  0  0  0
    5.7029   -7.3873   35.1281 H   0  0  0  0  0
    3.9296   -9.1166   35.3130 H   0  0  0  0  0
    7.5050   -7.5948   33.4397 H   0  0  0  0  0
    7.6622  -10.2730   27.8378 H   0  0  0  0  0
    9.3716  -12.0671   27.8291 H   0  0  0  0  0
    3.9912  -11.1034   33.8012 H   0  0  0  0  0
    7.5607   -9.5533   31.9093 H   0  0  0  0  0
    6.0374  -10.1168   29.7038 H   0  0  0  0  0
    9.4415  -13.7567   29.6505 H   0  0  0  0  0
    4.7837  -11.6445   31.3309 H   0  0  0  0  0
    5.8992  -12.5458   32.5277 H   0  0  0  0  0
 13  1  2  0  0  0
 13  2  1  0  0  0
  4  3  4  0  0  0
  5  3  4  0  0  0
  8  4  4  0  0  0
  9  5  4  0  0  0
  7  6  4  0  0  0
  6 10  4  0  0  0
 11  7  4  0  0  0
 14  8  4  0  0  0
 14  9  4  0  0  0
 10 15  4  0  0  0
 16 11  4  0  0  0
 12 14  1  0  0  0
 15 12  1  0  0  0
 13 16  1  0  0  0
 15 16  4  0  0  0
  2 17  1  0  0  0
  3 18  1  0  0  0
  4 19  1  0  0  0
  5 20  1  0  0  0
  6 21  1  0  0  0
  7 22  1  0  0  0
  8 23  1  0  0  0
  9 24  1  0  0  0
 10 25  1  0  0  0
 11 26  1  0  0  0
 12 27  1  0  0  0
 12 28  1  0  0  0
M  END
$$$$
