5tex_ligand
  -I-interpret- 

 57 61  0  0  0  0  0  0  0  0999 V2000
   75.6060   32.0930    7.3000 C   0  0  0  0  0
   75.0230   31.9270    8.6860 C   0  0  0  0  0
   74.0340   32.9540    9.0080 N   0  3  0  0  0
   74.7640   34.2230    9.1410 C   0  0  0  0  0
   75.8400   34.4250    8.0690 C   0  0  0  0  0
   75.6700   33.4990    6.9500 N   0  0  0  0  0
   75.5130   33.9230    5.6990 C   0  0  0  0  0
   76.0040   35.1450    5.3230 C   0  0  0  0  0
   75.8520   35.6040    4.0370 C   0  0  0  0  0
   74.8630   33.1570    4.7690 C   0  0  0  0  0
   74.7120   33.6240    3.4820 C   0  0  0  0  0
   75.2200   34.8400    3.1100 C   0  0  0  0  0
   75.0470   35.2640    1.8810 C   0  0  0  0  0
   75.3280   34.5430    0.8490 N   0  0  0  0  0
   75.8660   33.2400    0.7470 C   0  0  0  0  0
   75.0190   35.2300   -0.1870 C   0  0  0  0  0
   75.1440   34.8590   -1.4430 N   0  0  0  0  0
   74.7790   35.7010   -2.4360 C   0  0  0  0  0
   74.2610   36.9210   -2.1250 C   0  0  0  0  0
   74.1470   37.2640   -0.7990 C   0  0  0  0  0
   73.5470   38.7000   -0.5960 Cl  0  0  0  0  0
   74.5240   36.4120    0.1650 C   0  0  0  0  0
   74.5390   36.4100    1.4970 C   0  0  0  0  0
   74.1870   37.3540    2.3750 C   0  0  0  0  0
   74.5850   38.6700    2.2750 C   0  0  0  0  0
   74.2300   39.6190    3.2220 C   0  0  0  0  0
   73.4440   37.0290    3.4690 C   0  0  0  0  0
   73.0890   37.9510    4.4150 C   0  0  0  0  0
   73.4790   39.2420    4.3100 C   0  0  0  0  0
   73.0600   40.0810    5.2910 C   0  0  0  0  0
   73.9130   41.1660    5.4120 O   0  0  0  0  0
   74.9717   31.5744    6.5811 H   0  0  0  0  0
   76.6123   31.6745    7.2832 H   0  0  0  0  0
   75.8384   32.0103    9.4045 H   0  0  0  0  0
   74.5250   30.9582    8.7260 H   0  0  0  0  0
   73.5441   32.7260    9.8731 H   0  0  0  0  0
   73.3273   33.0182    8.2753 H   0  0  0  0  0
   75.2644   34.2130   10.1093 H   0  0  0  0  0
   74.0395   35.0303    9.0339 H   0  0  0  0  0
   76.8143   34.2411    8.5217 H   0  0  0  0  0
   75.7578   35.4428    7.6877 H   0  0  0  0  0
   76.5234   35.7630    6.0554 H   0  0  0  0  0
   76.2400   36.5843    3.7604 H   0  0  0  0  0
   74.4661   32.1804    5.0462 H   0  0  0  0  0
   74.1805   33.0169    2.7491 H   0  0  0  0  0
   76.8480   33.2157    1.2194 H   0  0  0  0  0
   75.2030   32.5343    1.2476 H   0  0  0  0  0
   75.9604   32.9686   -0.3044 H   0  0  0  0  0
   74.8987   35.4051   -3.4782 H   0  0  0  0  0
   73.9443   37.6092   -2.9087 H   0  0  0  0  0
   75.1972   38.9739    1.4259 H   0  0  0  0  0
   74.5441   40.6561    3.1045 H   0  0  0  0  0
   73.1202   35.9959    3.5955 H   0  0  0  0  0
   72.4828   37.6408    5.2661 H   0  0  0  0  0
   73.0485   39.5374    6.2357 H   0  0  0  0  0
   72.0639   40.4449    5.0390 H   0  0  0  0  0
   73.5968   41.7439    6.1104 H   0  0  0  0  0
  1  2  1  0  0  0
  1  6  1  0  0  0
  2  3  1  0  0  0
  3  4  1  0  0  0
  4  5  1  0  0  0
  5  6  1  0  0  0
  6  7  1  0  0  0
  7  8  4  0  0  0
  7 10  4  0  0  0
  8  9  4  0  0  0
  9 12  4  0  0  0
 10 11  4  0  0  0
 11 12  4  0  0  0
 12 13  1  0  0  0
 13 14  4  0  0  0
 13 23  4  0  0  0
 14 15  1  0  0  0
 14 16  4  0  0  0
 16 17  4  0  0  0
 16 22  4  0  0  0
 17 18  4  0  0  0
 18 19  4  0  0  0
 19 20  4  0  0  0
 20 21  1  0  0  0
 20 22  4  0  0  0
 22 23  4  0  0  0
 23 24  1  0  0  0
 24 25  4  0  0  0
 24 27  4  0  0  0
 25 26  4  0  0  0
 26 29  4  0  0  0
 27 28  4  0  0  0
 28 29  4  0  0  0
 29 30  1  0  0  0
 30 31  1  0  0  0
  1 32  1  0  0  0
  1 33  1  0  0  0
  2 34  1  0  0  0
  2 35  1  0  0  0
  3 36  1  0  0  0
  3 37  1  0  0  0
  4 38  1  0  0  0
  4 39  1  0  0  0
  5 40  1  0  0  0
  5 41  1  0  0  0
  8 42  1  0  0  0
  9 43  1  0  0  0
 10 44  1  0  0  0
 11 45  1  0  0  0
 15 46  1  0  0  0
 15 47  1  0  0  0
 15 48  1  0  0  0
 18 49  1  0  0  0
 19 50  1  0  0  0
 25 51  1  0  0  0
 26 52  1  0  0  0
 27 53  1  0  0  0
 28 54  1  0  0  0
 30 55  1  0  0  0
 30 56  1  0  0  0
 31 57  1  0  0  0
M  END
$$$$
