2dri_ligand
  -I-interpret- 

 20 20  0  0  0  0  0  0  0  0999 V2000
   50.1440   33.6000   44.1560 C   0  0  0  0  0
   49.4580   33.0880   45.4190 C   0  0  0  0  0
   49.0810   34.2650   46.3280 C   0  0  0  0  0
   50.3330   35.1100   46.6080 C   0  0  0  0  0
   50.9730   35.5300   45.2930 C   0  0  0  0  0
   50.5540   32.5410   43.3290 O   0  0  0  0  0
   48.3010   32.3610   45.0800 O   0  0  0  0  0
   48.0780   35.0500   45.6860 O   0  0  0  0  0
   50.0130   36.2510   47.3700 O   0  0  0  0  0
   51.2830   34.3700   44.5110 O   0  0  0  0  0
   49.4248   34.2106   43.6101 H   0  0  0  0  0
   50.1482   32.4331   45.9508 H   0  0  0  0  0
   48.6872   33.8979   47.2757 H   0  0  0  0  0
   51.0358   34.5041   47.1798 H   0  0  0  0  0
   51.8905   36.0813   45.4989 H   0  0  0  0  0
   50.2782   36.1620   44.7400 H   0  0  0  0  0
   49.7901   32.0140   43.0834 H   0  0  0  0  0
   48.5415   31.6258   44.5114 H   0  0  0  0  0
   47.3050   34.5056   45.5196 H   0  0  0  0  0
   49.6099   35.9789   48.1977 H   0  0  0  0  0
  1  2  1  0  0  0
  1  6  1  0  0  0
  1 10  1  0  0  0
  2  3  1  0  0  0
  2  7  1  0  0  0
  3  4  1  0  0  0
  3  8  1  0  0  0
  4  5  1  0  0  0
  4  9  1  0  0  0
  5 10  1  0  0  0
  1 11  1  0  0  0
  2 12  1  0  0  0
  3 13  1  0  0  0
  4 14  1  0  0  0
  5 15  1  0  0  0
  5 16  1  0  0  0
  6 17  1  0  0  0
  7 18  1  0  0  0
  8 19  1  0  0  0
  9 20  1  0  0  0
M  END
$$$$
