5law_ligand
  -I-interpret- 

 60 65  0  0  0  0  0  0  0  0999 V2000
   -4.1340    8.8800   -1.3230 C   0  0  0  0  0
   -5.4420    9.2590   -0.9730 C   0  0  0  0  0
   -5.9920   10.4640   -1.4460 C   0  0  0  0  0
   -5.1840   11.2850   -2.2400 C   0  0  0  0  0
   -7.3920   10.9590   -1.1130 C   0  0  0  0  0
   -8.4670    9.8600   -0.9800 C   0  0  0  0  0
   -9.2710    9.6100   -2.2330 N   0  3  0  0  0
  -10.3450   10.6220   -2.2400 C   0  0  0  0  0
   -9.4840   10.4650    0.0370 C   0  0  0  0  0
  -10.8490   14.3280    2.4790 C   0  0  0  0  0
  -10.7000   14.3670    0.9510 C   0  0  0  0  0
   -7.4490   11.6890    0.2540 C   0  0  0  0  0
   -5.8090   13.0360    1.2420 C   0  0  0  0  0
   -5.1730   15.2960    0.6370 C   0  0  0  0  0
   -2.9110   11.9290   -3.5750 Cl  0  0  0  0  0
   -3.8860   10.8950   -2.5760 C   0  0  0  0  0
   -3.3520    9.7060   -2.1090 C   0  0  0  0  0
  -10.8000   10.6170   -0.7810 C   0  0  0  0  0
   -8.9190   11.7880    0.4470 N   0  3  0  0  0
   -9.3890   12.2780    1.7740 C   0  0  0  0  0
  -10.7290   13.0270    1.6720 C   0  0  0  0  0
   -6.7320   10.9720    1.4080 C   0  0  0  0  0
   -6.9210    9.8280    1.7580 O   0  0  0  0  0
   -5.8160   11.8020    1.9160 N   0  0  0  0  0
   -5.0170   14.1730    1.4410 C   0  0  0  0  0
   -4.1720   16.7010    0.8450 Cl  0  0  0  0  0
   -6.1160   15.2740   -0.3890 C   0  0  0  0  0
   -6.9120   14.1570   -0.5990 C   0  0  0  0  0
   -6.7700   13.0320    0.2000 C   0  0  0  0  0
   -8.4600    9.5860   -3.4820 C   0  0  0  0  0
   -9.2460    9.0760   -4.6470 C   0  0  0  0  0
  -10.4850    8.5890   -4.4950 O   0  0  0  0  0
   -8.7570    9.0960   -5.7410 O   0  0  0  0  0
   -3.7339    7.9287   -0.9723 H   0  0  0  0  0
   -6.0363    8.6118   -0.3280 H   0  0  0  0  0
   -5.5714   12.2382   -2.5998 H   0  0  0  0  0
   -7.6044   11.6042   -1.9655 H   0  0  0  0  0
   -7.9778    8.9228   -0.7148 H   0  0  0  0  0
   -9.6645    8.6691   -2.2180 H   0  0  0  0  0
  -11.1471   10.3939   -2.9420 H   0  0  0  0  0
  -10.0117   11.6012   -2.5838 H   0  0  0  0  0
   -9.6671    9.8743    0.9346 H   0  0  0  0  0
  -11.4817   14.7591    3.2548 H   0  0  0  0  0
  -10.4072   14.7927    3.3605 H   0  0  0  0  0
  -10.0922   14.8777    0.2041 H   0  0  0  0  0
  -11.1813   14.8437    0.0970 H   0  0  0  0  0
   -2.3287    9.4249   -2.3577 H   0  0  0  0  0
  -11.5043    9.8109   -0.5754 H   0  0  0  0  0
  -11.3415   11.5259   -0.5187 H   0  0  0  0  0
   -9.2773   12.5405   -0.1410 H   0  0  0  0  0
   -8.6422   12.9685    2.1658 H   0  0  0  0  0
   -9.5302   11.4151    2.4249 H   0  0  0  0  0
  -11.3239   12.1178    1.5855 H   0  0  0  0  0
   -5.1995   11.5696    2.6947 H   0  0  0  0  0
   -4.2701   14.1777    2.2348 H   0  0  0  0  0
   -6.2296   16.1450   -1.0344 H   0  0  0  0  0
   -7.6541   14.1636   -1.3974 H   0  0  0  0  0
   -7.6105    8.9212   -3.3253 H   0  0  0  0  0
   -8.1429   10.6051   -3.7033 H   0  0  0  0  0
  -10.7361    8.6393   -3.5698 H   0  0  0  0  0
  2  1  4  0  0  0
  1 17  4  0  0  0
  3  2  4  0  0  0
  3  4  4  0  0  0
  5  3  1  0  0  0
  4 16  4  0  0  0
  5  6  1  0  0  0
 12  5  1  0  0  0
  6  7  1  0  0  0
  9  6  1  0  0  0
  8  7  1  0  0  0
  7 30  1  0  0  0
 18  8  1  0  0  0
  9 18  1  0  0  0
 19  9  1  0  0  0
 11 10  1  0  0  0
 21 10  1  0  0  0
 21 11  1  0  0  0
 19 12  1  0  0  0
 12 22  1  0  0  0
 12 29  1  0  0  0
 13 24  1  0  0  0
 13 25  4  0  0  0
 29 13  4  0  0  0
 25 14  4  0  0  0
 14 26  1  0  0  0
 14 27  4  0  0  0
 16 15  1  0  0  0
 16 17  4  0  0  0
 20 19  1  0  0  0
 20 21  1  0  0  0
 22 23  2  0  0  0
 22 24  1  0  0  0
 27 28  4  0  0  0
 28 29  4  0  0  0
 30 31  1  0  0  0
 31 32  1  0  0  0
 31 33  2  0  0  0
  1 34  1  0  0  0
  2 35  1  0  0  0
  4 36  1  0  0  0
  5 37  1  0  0  0
  6 38  1  0  0  0
  7 39  1  0  0  0
  8 40  1  0  0  0
  8 41  1  0  0  0
  9 42  1  0  0  0
 10 43  1  0  0  0
 10 44  1  0  0  0
 11 45  1  0  0  0
 11 46  1  0  0  0
 17 47  1  0  0  0
 18 48  1  0  0  0
 18 49  1  0  0  0
 19 50  1  0  0  0
 20 51  1  0  0  0
 20 52  1  0  0  0
 21 53  1  0  0  0
 24 54  1  0  0  0
 25 55  1  0  0  0
 27 56  1  0  0  0
 28 57  1  0  0  0
 30 58  1  0  0  0
 30 59  1  0  0  0
 32 60  1  0  0  0
M  END
$$$$
