3q5h_ligand
  -I-interpret- 

 78 80  0  0  0  0  0  0  0  0999 V2000
   29.3250   -8.1790  -14.4320 C   0  0  0  0  0
   28.0580   -4.7840  -12.6560 N   0  0  0  0  0
   31.0520   -9.9120  -10.0740 O   0  0  0  0  0
   25.5970   -2.3910  -13.6530 C   0  0  0  0  0
   26.1080   -3.5270  -12.9560 O   0  0  0  0  0
   30.7050   -8.5840  -14.7400 C   0  0  0  0  0
   29.5180   -7.1390  -13.4800 O   0  0  0  0  0
   31.6370   -8.8650  -13.7180 C   0  0  0  0  0
   31.0880   -8.6270  -16.0780 C   0  0  0  0  0
   32.9420   -9.1790  -14.0670 C   0  0  0  0  0
   32.3930   -8.9560  -16.4020 C   0  0  0  0  0
   33.3200   -9.2400  -15.4040 C   0  0  0  0  0
   27.5340   -3.6600  -13.0580 C   0  0  0  0  0
   34.1620   -9.6080  -12.8200 Cl  0  0  0  0  0
   26.7500   -9.1000   -9.3050 C   0  0  0  0  0
   25.3610   -8.7490   -8.7700 C   0  0  0  0  0
   27.8460   -8.1340   -8.8950 C   0  0  0  0  0
   25.3620   -8.3010   -7.3510 N   0  3  0  0  0
   28.2100   -2.7530  -13.5180 O   0  0  0  0  0
   29.1960   -8.3850   -9.5840 C   0  0  0  0  0
   30.2060   -7.4120   -8.9690 C   0  0  0  0  0
   31.6230   -7.6980   -9.5030 C   0  0  0  0  0
   32.0760   -9.1720   -9.4930 C   0  0  0  0  0
   29.7630   -9.7850   -9.3930 C   0  0  0  0  0
   26.7750   -9.1200  -10.7390 N   0  0  0  0  0
   26.4560  -10.1950  -11.4480 C   0  0  0  0  0
   26.0930  -11.2620  -10.8930 O   0  0  0  0  0
   26.5650  -10.0780  -12.7750 N   0  0  0  0  0
   27.6880  -11.6930  -14.1880 C   0  0  0  0  0
   28.5430  -10.5400  -14.6900 C   0  0  0  0  0
   28.5380   -9.2900  -13.7570 C   0  0  0  0  0
   27.0590   -8.8830  -13.4760 C   0  0  0  0  0
   26.2840  -11.1890  -13.6740 C   0  0  0  0  0
   25.5810   -9.3180   -6.3310 C   0  0  0  0  0
   29.7150   -5.8290  -14.0100 C   0  0  0  0  0
   29.4820   -4.9310  -12.7790 C   0  0  0  0  0
   28.7722   -7.9049  -15.3306 H   0  0  0  0  0
   27.4797   -5.5299  -12.2693 H   0  0  0  0  0
   26.0426   -1.4844  -13.2435 H   0  0  0  0  0
   25.8454   -2.4736  -14.7111 H   0  0  0  0  0
   24.5142   -2.3506  -13.5347 H   0  0  0  0  0
   31.3358   -8.8357  -12.6708 H   0  0  0  0  0
   30.3663   -8.4035  -16.8637 H   0  0  0  0  0
   32.6970   -8.9929  -17.4481 H   0  0  0  0  0
   34.3420   -9.5102  -15.6699 H   0  0  0  0  0
   26.9438  -10.0798   -8.8684 H   0  0  0  0  0
   24.7525   -9.6516   -8.8263 H   0  0  0  0  0
   24.9788   -7.9244   -9.3718 H   0  0  0  0  0
   28.0028   -8.2611   -7.8239 H   0  0  0  0  0
   27.5186   -7.1349   -9.1828 H   0  0  0  0  0
   24.4274   -7.9314   -7.1769 H   0  0  0  0  0
   26.1440   -7.6515   -7.2665 H   0  0  0  0  0
   29.0281   -8.2527  -10.6528 H   0  0  0  0  0
   30.2035   -7.5358   -7.8861 H   0  0  0  0  0
   29.9252   -6.3933   -9.2365 H   0  0  0  0  0
   32.3080   -7.1667   -8.8423 H   0  0  0  0  0
   31.6200   -7.3897  -10.5485 H   0  0  0  0  0
   33.0058   -9.2950  -10.0484 H   0  0  0  0  0
   32.2691   -9.5108   -8.4751 H   0  0  0  0  0
   29.9052   -9.9676   -8.3279 H   0  0  0  0  0
   29.0666  -10.5101   -9.8141 H   0  0  0  0  0
   27.0497   -8.2719  -11.2346 H   0  0  0  0  0
   28.2076  -12.1733  -13.3589 H   0  0  0  0  0
   27.5255  -12.3873  -15.0124 H   0  0  0  0  0
   28.1316  -10.2276  -15.6498 H   0  0  0  0  0
   29.5707  -10.8995  -14.7420 H   0  0  0  0  0
   29.0128   -9.5019  -12.7990 H   0  0  0  0  0
   26.9574   -7.9622  -12.9016 H   0  0  0  0  0
   26.4930   -8.6337  -14.3735 H   0  0  0  0  0
   25.6475  -10.8773  -14.5021 H   0  0  0  0  0
   25.7403  -11.9839  -13.1635 H   0  0  0  0  0
   24.7972  -10.0725   -6.3978 H   0  0  0  0  0
   26.5524   -9.7864   -6.4894 H   0  0  0  0  0
   25.5567   -8.8533   -5.3453 H   0  0  0  0  0
   29.0453   -5.5990  -14.8387 H   0  0  0  0  0
   30.7000   -5.6933  -14.4567 H   0  0  0  0  0
   29.9109   -5.3753  -11.8808 H   0  0  0  0  0
   29.9686   -3.9632  -12.9000 H   0  0  0  0  0
  1  6  1  0  0  0
  7  1  1  0  0  0
  1 31  1  0  0  0
  2 13  1  0  0  0
 36  2  1  0  0  0
  3 23  1  0  0  0
 24  3  1  0  0  0
  5  4  1  0  0  0
 13  5  1  0  0  0
  6  8  4  0  0  0
  6  9  4  0  0  0
 35  7  1  0  0  0
  8 10  4  0  0  0
  9 11  4  0  0  0
 10 12  4  0  0  0
 10 14  1  0  0  0
 11 12  4  0  0  0
 13 19  2  0  0  0
 15 16  1  0  0  0
 15 17  1  0  0  0
 25 15  1  0  0  0
 16 18  1  0  0  0
 17 20  1  0  0  0
 18 34  1  0  0  0
 20 21  1  0  0  0
 20 24  1  0  0  0
 21 22  1  0  0  0
 22 23  1  0  0  0
 26 25  1  0  0  0
 26 27  2  0  0  0
 28 26  1  0  0  0
 32 28  1  0  0  0
 28 33  1  0  0  0
 30 29  1  0  0  0
 29 33  1  0  0  0
 31 30  1  0  0  0
 31 32  1  0  0  0
 35 36  1  0  0  0
  1 37  1  0  0  0
  2 38  1  0  0  0
  4 39  1  0  0  0
  4 40  1  0  0  0
  4 41  1  0  0  0
  8 42  1  0  0  0
  9 43  1  0  0  0
 11 44  1  0  0  0
 12 45  1  0  0  0
 15 46  1  0  0  0
 16 47  1  0  0  0
 16 48  1  0  0  0
 17 49  1  0  0  0
 17 50  1  0  0  0
 18 51  1  0  0  0
 18 52  1  0  0  0
 20 53  1  0  0  0
 21 54  1  0  0  0
 21 55  1  0  0  0
 22 56  1  0  0  0
 22 57  1  0  0  0
 23 58  1  0  0  0
 23 59  1  0  0  0
 24 60  1  0  0  0
 24 61  1  0  0  0
 25 62  1  0  0  0
 29 63  1  0  0  0
 29 64  1  0  0  0
 30 65  1  0  0  0
 30 66  1  0  0  0
 31 67  1  0  0  0
 32 68  1  0  0  0
 32 69  1  0  0  0
 33 70  1  0  0  0
 33 71  1  0  0  0
 34 72  1  0  0  0
 34 73  1  0  0  0
 34 74  1  0  0  0
 35 75  1  0  0  0
 35 76  1  0  0  0
 36 77  1  0  0  0
 36 78  1  0  0  0
M  END
$$$$
