5lsx_ligand
  -I-interpret- 

 65 68  0  0  0  0  0  0  0  0999 V2000
   -1.1210   31.6300  -18.7250 C   0  0  0  0  0
    1.0260   30.7260  -18.3280 C   0  0  0  0  0
    0.5390   28.6190  -17.9210 C   0  0  0  0  0
   -0.3300   30.5160  -18.4110 C   0  0  0  0  0
    2.9940   29.2330  -17.8210 C   0  0  0  0  0
    3.8300   27.7320  -16.2280 C   0  0  0  0  0
    3.3400   26.5030  -15.4910 C   0  0  0  0  0
    2.9960   25.3020  -16.3730 C   0  0  0  0  0
    4.0820   24.9110  -17.3760 C   0  0  0  0  0
    1.5130   24.2390  -14.6260 C   0  0  0  0  0
    1.2190   22.9620  -13.8850 C   0  0  0  0  0
    1.6490   22.7900  -12.5790 C   0  0  0  0  0
    1.3790   21.6230  -11.9040 C   0  0  0  0  0
    0.6800   20.6180  -12.5220 C   0  0  0  0  0
    3.6030   29.0660  -15.5120 C   0  0  0  0  0
   -2.4460   31.5710  -18.8380 N   0  0  0  0  0
   -0.5080   32.8250  -18.9240 N   0  0  0  0  0
    0.8350   32.8780  -18.8090 C   0  0  0  0  0
    1.6720   31.8880  -18.5170 N   0  0  0  0  0
    1.5790   29.5130  -18.0150 N   0  0  0  0  0
   -0.6300   29.1890  -18.1540 N   0  0  0  0  0
    3.1250   27.8590  -17.4600 O   0  0  0  0  0
    3.6130   24.8270  -18.8140 C   0  0  0  0  0
    4.3690   25.7450  -19.7730 C   0  0  0  0  0
    3.4980   26.1070  -20.9300 N   0  3  0  0  0
    5.6660   25.1010  -20.2880 C   0  0  0  0  0
    6.2940   24.3710  -19.4900 O   0  0  0  0  0
    6.0080   25.3490  -21.4660 O   0  0  0  0  0
    2.7180   24.1120  -15.4950 N   0  3  0  0  0
    0.2480   20.7740  -13.8150 C   0  0  0  0  0
    0.5150   21.9390  -14.4960 C   0  0  0  0  0
    4.6290   29.3040  -14.5610 O   0  0  0  0  0
    3.6480   30.0520  -16.6890 C   0  0  0  0  0
    4.9810   30.4120  -17.0130 O   0  0  0  0  0
    0.6642   27.5629  -17.6821 H   0  0  0  0  0
    3.4930   29.4951  -18.7540 H   0  0  0  0  0
    4.9028   27.5666  -16.3277 H   0  0  0  0  0
    2.4188   26.7908  -14.9845 H   0  0  0  0  0
    4.1538   26.1867  -14.8385 H   0  0  0  0  0
    2.1269   25.6045  -16.9571 H   0  0  0  0  0
    4.4295   23.9164  -17.0965 H   0  0  0  0  0
    4.8461   25.6873  -17.3358 H   0  0  0  0  0
    1.7008   25.0240  -13.8935 H   0  0  0  0  0
    0.6572   24.4714  -15.2598 H   0  0  0  0  0
    2.2053   23.5856  -12.0833 H   0  0  0  0  0
    1.7209   21.4965  -10.8767 H   0  0  0  0  0
    0.4672   19.6936  -11.9851 H   0  0  0  0  0
    2.6807   29.1292  -14.9346 H   0  0  0  0  0
   -2.9312   30.6854  -18.6940 H   0  0  0  0  0
   -2.9761   32.4114  -19.0686 H   0  0  0  0  0
    1.2902   33.8541  -18.9764 H   0  0  0  0  0
    2.5676   25.1353  -18.8302 H   0  0  0  0  0
    3.7815   23.8033  -19.1483 H   0  0  0  0  0
    4.6396   26.6422  -19.2163 H   0  0  0  0  0
    4.0126   26.7194  -21.5629 H   0  0  0  0  0
    3.2223   25.2588  -21.4250 H   0  0  0  0  0
    2.6660   26.5893  -20.5899 H   0  0  0  0  0
    5.3617   25.9330  -21.8694 H   0  0  0  0  0
    3.5203   24.0104  -14.8734 H   0  0  0  0  0
    2.5515   23.3200  -16.1159 H   0  0  0  0  0
   -0.3077   19.9735  -14.3033 H   0  0  0  0  0
    0.1700   22.0572  -15.5232 H   0  0  0  0  0
    4.5580   28.6645  -13.8485 H   0  0  0  0  0
    3.1467   30.9986  -16.4871 H   0  0  0  0  0
    4.9750   31.0271  -17.7500 H   0  0  0  0  0
  4  1  4  0  0  0
  1 16  1  0  0  0
  1 17  4  0  0  0
  2  4  4  0  0  0
  2 19  4  0  0  0
 20  2  4  0  0  0
 20  3  4  0  0  0
  3 21  4  0  0  0
 21  4  4  0  0  0
  5 20  1  0  0  0
 22  5  1  0  0  0
  5 33  1  0  0  0
  7  6  1  0  0  0
  6 15  1  0  0  0
  6 22  1  0  0  0
  8  7  1  0  0  0
  8  9  1  0  0  0
 29  8  1  0  0  0
  9 23  1  0  0  0
 10 11  1  0  0  0
 10 29  1  0  0  0
 11 12  4  0  0  0
 11 31  4  0  0  0
 12 13  4  0  0  0
 13 14  4  0  0  0
 14 30  4  0  0  0
 15 32  1  0  0  0
 15 33  1  0  0  0
 17 18  4  0  0  0
 18 19  4  0  0  0
 23 24  1  0  0  0
 24 25  1  0  0  0
 24 26  1  0  0  0
 26 27  2  0  0  0
 26 28  1  0  0  0
 30 31  4  0  0  0
 33 34  1  0  0  0
  3 35  1  0  0  0
  5 36  1  0  0  0
  6 37  1  0  0  0
  7 38  1  0  0  0
  7 39  1  0  0  0
  8 40  1  0  0  0
  9 41  1  0  0  0
  9 42  1  0  0  0
 10 43  1  0  0  0
 10 44  1  0  0  0
 12 45  1  0  0  0
 13 46  1  0  0  0
 14 47  1  0  0  0
 15 48  1  0  0  0
 16 49  1  0  0  0
 16 50  1  0  0  0
 18 51  1  0  0  0
 23 52  1  0  0  0
 23 53  1  0  0  0
 24 54  1  0  0  0
 25 55  1  0  0  0
 25 56  1  0  0  0
 25 57  1  0  0  0
 28 58  1  0  0  0
 29 59  1  0  0  0
 29 60  1  0  0  0
 30 61  1  0  0  0
 31 62  1  0  0  0
 32 63  1  0  0  0
 33 64  1  0  0  0
 34 65  1  0  0  0
M  END
$$$$
