5aqv_ligand
  -I-interpret- 

 51 54  0  0  0  0  0  0  0  0999 V2000
  -20.9150   -0.1160   24.8370 O   0  0  0  0  0
  -20.7750   -0.2210   26.2480 C   0  0  0  0  0
  -19.9610   -1.4480   26.6680 C   0  0  0  0  0
  -20.1460   -2.5500   25.7910 O   0  0  0  0  0
  -20.4160   -1.7600   28.1070 C   0  0  0  0  0
  -19.3230   -1.5870   29.1400 C   0  0  0  0  0
  -18.2020   -2.4060   28.8440 O   0  0  0  0  0
  -21.6520   -0.8890   28.3450 C   0  0  0  0  0
  -22.1100   -0.4280   26.9630 C   0  0  0  0  0
  -22.8620    0.8080   27.0090 N   0  0  0  0  0
  -24.1020    0.9880   26.4750 C   0  0  0  0  0
  -24.7150   -0.0490   25.8520 N   0  0  0  0  0
  -25.9300    0.2280   25.3030 C   0  0  0  0  0
  -26.5890    1.3750   25.2960 N   0  0  0  0  0
  -25.9590    2.4190   25.9410 C   0  0  0  0  0
  -24.7090    2.2890   26.5640 C   0  0  0  0  0
  -26.6210    3.6710   25.9360 C   0  0  0  0  0
  -26.0510    4.7490   26.5310 C   0  0  0  0  0
  -24.8010    4.6450   27.1710 C   0  0  0  0  0
  -24.1570    3.4370   27.1880 C   0  0  0  0  0
  -22.9660    3.2560   27.8320 O   0  0  0  0  0
  -22.0280    4.3140   27.7580 C   0  0  0  0  0
  -20.8160    3.7980   28.4660 C   0  0  0  0  0
  -20.8870    3.4380   29.8020 C   0  0  0  0  0
  -19.7620    2.9540   30.4530 C   0  0  0  0  0
  -18.5670    2.8270   29.7710 C   0  0  0  0  0
  -18.5010    3.1870   28.4330 C   0  0  0  0  0
  -19.6220    3.6730   27.7780 C   0  0  0  0  0
  -20.0507    0.0124   24.4395 H   0  0  0  0  0
  -20.2954    0.7191   26.5207 H   0  0  0  0  0
  -18.8902   -1.2501   26.6210 H   0  0  0  0  0
  -19.8498   -2.3097   24.9100 H   0  0  0  0  0
  -20.6658   -2.8148   28.2212 H   0  0  0  0  0
  -19.7168   -1.8755   30.1146 H   0  0  0  0  0
  -19.0030   -0.5450   29.1365 H   0  0  0  0  0
  -17.5265   -2.2761   29.5137 H   0  0  0  0  0
  -21.4206   -0.0406   28.9890 H   0  0  0  0  0
  -22.4366   -1.4462   28.8568 H   0  0  0  0  0
  -22.7834   -1.1360   26.4800 H   0  0  0  0  0
  -22.4304    1.6049   27.4770 H   0  0  0  0  0
  -26.4247   -0.6051   24.8036 H   0  0  0  0  0
  -27.5927    3.7690   25.4520 H   0  0  0  0  0
  -26.5677    5.7086   26.5133 H   0  0  0  0  0
  -24.3514    5.5162   27.6474 H   0  0  0  0  0
  -22.4083    5.2270   28.2161 H   0  0  0  0  0
  -21.8090    4.5915   26.7269 H   0  0  0  0  0
  -21.8286    3.5353   30.3424 H   0  0  0  0  0
  -19.8207    2.6733   31.5046 H   0  0  0  0  0
  -17.6820    2.4464   30.2810 H   0  0  0  0  0
  -17.5600    3.0869   27.8921 H   0  0  0  0  0
  -19.5631    3.9551   26.7268 H   0  0  0  0  0
  1  2  1  0  0  0
  2  3  1  0  0  0
  2  9  1  0  0  0
  3  4  1  0  0  0
  3  5  1  0  0  0
  5  6  1  0  0  0
  5  8  1  0  0  0
  6  7  1  0  0  0
  8  9  1  0  0  0
  9 10  1  0  0  0
 10 11  1  0  0  0
 11 12  4  0  0  0
 11 16  4  0  0  0
 12 13  4  0  0  0
 13 14  4  0  0  0
 14 15  4  0  0  0
 15 16  4  0  0  0
 15 17  4  0  0  0
 16 20  4  0  0  0
 17 18  4  0  0  0
 18 19  4  0  0  0
 19 20  4  0  0  0
 20 21  1  0  0  0
 21 22  1  0  0  0
 22 23  1  0  0  0
 23 24  4  0  0  0
 23 28  4  0  0  0
 24 25  4  0  0  0
 25 26  4  0  0  0
 26 27  4  0  0  0
 27 28  4  0  0  0
  1 29  1  0  0  0
  2 30  1  0  0  0
  3 31  1  0  0  0
  4 32  1  0  0  0
  5 33  1  0  0  0
  6 34  1  0  0  0
  6 35  1  0  0  0
  7 36  1  0  0  0
  8 37  1  0  0  0
  8 38  1  0  0  0
  9 39  1  0  0  0
 10 40  1  0  0  0
 13 41  1  0  0  0
 17 42  1  0  0  0
 18 43  1  0  0  0
 19 44  1  0  0  0
 22 45  1  0  0  0
 22 46  1  0  0  0
 24 47  1  0  0  0
 25 48  1  0  0  0
 26 49  1  0  0  0
 27 50  1  0  0  0
 28 51  1  0  0  0
M  END
$$$$
