6d2o_ligand
  -I-interpret- 

 11 11  0  0  0  0  0  0  0  0999 V2000
  -27.9070    9.6610  -16.6420 C   0  0  0  0  0
  -29.1730    9.9460  -16.9740 N   0  0  0  0  0
  -27.8320    9.4990  -15.2480 C   0  0  0  0  0
  -29.8580    9.9720  -15.8400 C   0  0  0  0  0
  -29.0770    9.7090  -14.7960 N   0  0  0  0  0
  -26.7720    9.5130  -17.5970 C   0  0  0  0  0
  -26.9484    9.2543  -14.6586 H   0  0  0  0  0
  -30.9254   10.1821  -15.7715 H   0  0  0  0  0
  -26.9899    8.7055  -18.2959 H   0  0  0  0  0
  -26.6375   10.4446  -18.1467 H   0  0  0  0  0
  -25.8616    9.2811  -17.0442 H   0  0  0  0  0
  1  2  4  0  0  0
  1  3  4  0  0  0
  1  6  1  0  0  0
  2  4  4  0  0  0
  3  5  4  0  0  0
  4  5  4  0  0  0
  3  7  1  0  0  0
  4  8  1  0  0  0
  6  9  1  0  0  0
  6 10  1  0  0  0
  6 11  1  0  0  0
M  END
$$$$
