4zb8_ligand
  -I-interpret- 

 74 73  0  0  0  0  0  0  0  0999 V2000
  -10.5320    4.5070   -3.7610 N   0  3  0  0  0
  -10.5950    5.5150   -4.7970 C   0  0  0  0  0
  -11.7030    5.1920   -5.7640 C   0  0  0  0  0
  -11.8660    4.0090   -6.1010 O   0  0  0  0  0
  -12.4060    6.1150   -6.2000 O   0  0  0  0  0
   -9.2630    5.5710   -5.5470 C   0  0  0  0  0
   -9.0960    6.8910   -6.2860 C   0  0  0  0  0
   -7.8060    6.9250   -7.0800 C   0  0  0  0  0
   -6.8490    6.2610   -6.7360 O   0  0  0  0  0
   -7.7930    7.7130   -8.1510 N   0  0  0  0  0
   -6.5720    8.0640   -8.8520 C   0  0  0  0  0
   -6.1710    9.4970   -8.6290 C   0  0  0  0  0
   -7.0000   10.3860   -8.6030 O   0  0  0  0  0
   -6.7300    7.8020  -10.3490 C   0  0  0  0  0
   -6.5230    6.0890  -10.6970 S   0  0  0  0  0
   -4.8760    9.7330   -8.4670 N   0  0  0  0  0
   -4.3900   11.0570   -8.1360 C   0  0  0  0  0
   -3.5610   11.0720   -6.8740 C   0  0  0  0  0
   -2.5560   11.8070   -6.8310 O   0  0  0  0  0
   -3.9130   10.3430   -5.9280 O   0  0  0  0  0
   -5.1130    4.0490   -6.3280 N   0  0  0  0  0
   -5.3970    2.9930   -5.3810 C   0  0  0  0  0
   -6.7390    2.3320   -5.6110 C   0  0  0  0  0
   -7.2050    2.2650   -6.7670 O   0  0  0  0  0
   -7.3260    1.8730   -4.6200 O   0  0  0  0  0
   -3.9710    4.1060   -7.0040 C   0  0  0  0  0
   -3.0530    3.3380   -6.8080 O   0  0  0  0  0
   -3.8530    5.1750   -8.0610 C   0  0  0  0  0
   -2.4990    5.6800   -8.1520 N   0  0  0  0  0
   -4.3160    4.6200   -9.4090 C   0  0  0  0  0
   -4.5110    5.8810  -10.6330 S   0  0  0  0  0
   -0.7240    8.6650   -5.8630 C   0  0  0  0  0
    0.2660    7.8140   -5.1160 C   0  0  0  0  0
    1.2660    8.3590   -4.6010 O   0  0  0  0  0
    0.0500    6.5930   -5.0440 O   0  0  0  0  0
   -0.6400   10.0270   -5.3810 N   0  3  0  0  0
   -0.4290    8.6430   -7.3600 C   0  0  0  0  0
   -0.7070    7.2920   -8.0100 C   0  0  0  0  0
   -2.1840    6.9630   -7.9960 C   0  0  0  0  0
   -3.0110    7.8400   -7.8490 O   0  0  0  0  0
  -11.4227    4.4748   -3.2650 H   0  0  0  0  0
  -10.3438    3.5980   -4.1837 H   0  0  0  0  0
   -9.7852    4.7401   -3.1065 H   0  0  0  0  0
  -10.7925    6.4828   -4.3361 H   0  0  0  0  0
  -11.2214    3.4577   -5.6514 H   0  0  0  0  0
   -9.2424    4.7613   -6.2764 H   0  0  0  0  0
   -8.4540    5.4753   -4.8228 H   0  0  0  0  0
   -9.0704    7.6963   -5.5519 H   0  0  0  0  0
   -9.9301    7.0066   -6.9782 H   0  0  0  0  0
   -8.6781    8.0862   -8.4940 H   0  0  0  0  0
   -5.7802    7.4349   -8.4453 H   0  0  0  0  0
   -5.9724    8.3685  -10.8906 H   0  0  0  0  0
   -7.7285    8.1094  -10.6599 H   0  0  0  0  0
   -4.2101    8.9683   -8.5775 H   0  0  0  0  0
   -5.2544   11.7019   -7.9774 H   0  0  0  0  0
   -3.7584   11.3975   -8.9565 H   0  0  0  0  0
   -2.4705   12.2793   -7.6624 H   0  0  0  0  0
   -5.8134    4.7744   -6.4818 H   0  0  0  0  0
   -5.4135    3.4371   -4.3857 H   0  0  0  0  0
   -4.6281    2.2292   -5.4971 H   0  0  0  0  0
   -6.5944    2.6787   -7.3814 H   0  0  0  0  0
   -4.4936    6.0108   -7.7798 H   0  0  0  0  0
   -1.7478    5.0177   -8.3457 H   0  0  0  0  0
   -5.2853    4.1440   -9.2606 H   0  0  0  0  0
   -3.5565    3.9232   -9.7635 H   0  0  0  0  0
   -1.7253    8.2677   -5.6964 H   0  0  0  0  0
    1.2392    9.3029   -4.7740 H   0  0  0  0  0
   -1.3103   10.6070   -5.8857 H   0  0  0  0  0
   -0.8540   10.0473   -4.3839 H   0  0  0  0  0
    0.3033   10.3833   -5.5349 H   0  0  0  0  0
    0.6315    8.8590   -7.4899 H   0  0  0  0  0
   -1.0800    9.3771   -7.8348 H   0  0  0  0  0
   -0.1767    6.5230   -7.4482 H   0  0  0  0  0
   -0.3721    7.3322   -9.0465 H   0  0  0  0  0
  2  1  1  0  0  0
  2  3  1  0  0  0
  6  2  1  0  0  0
  3  4  1  0  0  0
  3  5  2  0  0  0
  7  6  1  0  0  0
  8  7  1  0  0  0
  8  9  2  0  0  0
 10  8  1  0  0  0
 11 10  1  0  0  0
 11 12  1  0  0  0
 14 11  1  0  0  0
 12 13  2  0  0  0
 12 16  1  0  0  0
 15 14  1  0  0  0
 31 15  1  0  0  0
 16 17  1  0  0  0
 17 18  1  0  0  0
 18 19  1  0  0  0
 18 20  2  0  0  0
 21 22  1  0  0  0
 26 21  1  0  0  0
 22 23  1  0  0  0
 23 24  1  0  0  0
 23 25  2  0  0  0
 26 27  2  0  0  0
 28 26  1  0  0  0
 29 28  1  0  0  0
 28 30  1  0  0  0
 39 29  1  0  0  0
 30 31  1  0  0  0
 32 33  1  0  0  0
 32 36  1  0  0  0
 37 32  1  0  0  0
 33 34  1  0  0  0
 33 35  2  0  0  0
 38 37  1  0  0  0
 38 39  1  0  0  0
 39 40  2  0  0  0
  1 41  1  0  0  0
  1 42  1  0  0  0
  1 43  1  0  0  0
  2 44  1  0  0  0
  4 45  1  0  0  0
  6 46  1  0  0  0
  6 47  1  0  0  0
  7 48  1  0  0  0
  7 49  1  0  0  0
 10 50  1  0  0  0
 11 51  1  0  0  0
 14 52  1  0  0  0
 14 53  1  0  0  0
 16 54  1  0  0  0
 17 55  1  0  0  0
 17 56  1  0  0  0
 19 57  1  0  0  0
 21 58  1  0  0  0
 22 59  1  0  0  0
 22 60  1  0  0  0
 24 61  1  0  0  0
 28 62  1  0  0  0
 29 63  1  0  0  0
 30 64  1  0  0  0
 30 65  1  0  0  0
 32 66  1  0  0  0
 34 67  1  0  0  0
 36 68  1  0  0  0
 36 69  1  0  0  0
 36 70  1  0  0  0
 37 71  1  0  0  0
 37 72  1  0  0  0
 38 73  1  0  0  0
 38 74  1  0  0  0
M  END
$$$$
