5ula_ligand
  -I-interpret- 

 45 47  0  0  0  0  0  0  0  0999 V2000
    7.7800  -12.1140   -9.0640 C   0  0  0  0  0
    7.0490  -13.8270  -11.1830 C   0  0  0  0  0
    6.4540  -12.3490   -9.4430 C   0  0  0  0  0
    6.0790  -13.1830  -10.4840 C   0  0  0  0  0
    8.3350  -13.6180  -10.8180 C   0  0  0  0  0
    8.7540  -12.7720   -9.7630 C   0  0  0  0  0
   11.7520   -5.1090    0.3270 O   0  0  0  0  0
   11.4540   -5.9760   -0.5370 C   0  0  0  0  0
   12.3300   -7.0870   -0.9980 C   0  0  0  0  0
   11.5950   -7.6720   -2.2180 C   0  0  0  0  0
   10.3140   -6.9440   -2.2680 C   0  0  0  0  0
   10.2300   -5.9460   -1.3650 C   0  0  0  0  0
    9.1590   -4.9410   -1.1310 C   0  0  0  0  0
    9.3070   -7.2010   -3.1200 N   0  0  0  0  0
    9.3220   -8.0920   -4.2180 C   0  0  0  0  0
   10.3620   -8.0850   -5.1510 C   0  0  0  0  0
   10.3120   -8.9630   -6.2320 C   0  0  0  0  0
    8.2560   -8.9180   -4.4280 C   0  0  0  0  0
    6.9730   -9.0240   -3.2040 Cl  0  0  0  0  0
    8.2040   -9.9040   -5.4750 C   0  0  0  0  0
    9.2270   -9.8300   -6.4440 C   0  0  0  0  0
    9.2090  -10.7660   -7.6390 C   0  0  0  0  0
   10.2710  -10.9650   -8.2520 O   0  0  0  0  0
    8.0140  -11.2450   -8.0000 N   0  0  0  0  0
    6.7410  -14.6770  -12.2410 O   0  0  0  0  0
    5.3920  -14.9920  -12.5130 C   0  0  0  0  0
    5.6661  -11.8441   -8.8841 H   0  0  0  0  0
    5.0275  -13.3193  -10.7366 H   0  0  0  0  0
    9.1085  -14.1416  -11.3798 H   0  0  0  0  0
    9.8091  -12.6502   -9.5180 H   0  0  0  0  0
   12.4898   -7.8329   -0.2194 H   0  0  0  0  0
   13.3322   -6.7408   -1.2506 H   0  0  0  0  0
   11.4477   -8.7481   -2.1264 H   0  0  0  0  0
   12.1691   -7.5483   -3.1363 H   0  0  0  0  0
    9.0174   -4.3460   -2.0333 H   0  0  0  0  0
    8.2296   -5.4535   -0.8826 H   0  0  0  0  0
    9.4478   -4.2895   -0.3062 H   0  0  0  0  0
    8.4351   -6.6975   -2.9565 H   0  0  0  0  0
   11.2025   -7.4008   -5.0347 H   0  0  0  0  0
   11.1431   -8.9776   -6.9371 H   0  0  0  0  0
    7.4218  -10.6620   -5.5169 H   0  0  0  0  0
    7.2066  -10.9498   -7.4510 H   0  0  0  0  0
    4.9508  -15.4772  -11.6423 H   0  0  0  0  0
    4.8444  -14.0765  -12.7367 H   0  0  0  0  0
    5.3428  -15.6647  -13.3692 H   0  0  0  0  0
  1  3  4  0  0  0
  1  6  4  0  0  0
 24  1  1  0  0  0
  4  2  4  0  0  0
  5  2  4  0  0  0
  2 25  1  0  0  0
  3  4  4  0  0  0
  6  5  4  0  0  0
  8  7  2  0  0  0
  8  9  1  0  0  0
 12  8  1  0  0  0
 10  9  1  0  0  0
 11 10  1  0  0  0
 11 12  2  0  0  0
 14 11  1  0  0  0
 12 13  1  0  0  0
 15 14  1  0  0  0
 16 15  4  0  0  0
 18 15  4  0  0  0
 17 16  4  0  0  0
 21 17  4  0  0  0
 18 19  1  0  0  0
 20 18  4  0  0  0
 21 20  4  0  0  0
 22 21  1  0  0  0
 22 23  2  0  0  0
 22 24  1  0  0  0
 25 26  1  0  0  0
  3 27  1  0  0  0
  4 28  1  0  0  0
  5 29  1  0  0  0
  6 30  1  0  0  0
  9 31  1  0  0  0
  9 32  1  0  0  0
 10 33  1  0  0  0
 10 34  1  0  0  0
 13 35  1  0  0  0
 13 36  1  0  0  0
 13 37  1  0  0  0
 14 38  1  0  0  0
 16 39  1  0  0  0
 17 40  1  0  0  0
 20 41  1  0  0  0
 24 42  1  0  0  0
 26 43  1  0  0  0
 26 44  1  0  0  0
 26 45  1  0  0  0
M  END
$$$$
