### 
### Created by X-TOOL on Wed Jan  1 15:39:38 2020
### 

@<TRIPOS>MOLECULE
6c4u_ligand
  100   102     1     0     0
SMALL
GAST_HUCK


@<TRIPOS>ATOM
      1 N          86.6200   -9.6250    1.7540 N.4       1 LEU         0.2379
      2 CA         87.8170   -9.8840    0.8990 C.3       1 LEU         0.0654
      3 C          87.7100   -9.0870   -0.4340 C.2       1 LEU         0.2292
      4 O          87.5120   -9.6950   -1.4820 O.2       1 LEU        -0.3905
      5 CB         87.9520  -11.4010    0.6550 C.3       1 LEU         0.0102
      6 CG         87.6980  -12.3870    1.8220 C.3       1 LEU        -0.0394
      7 CD1        87.9790  -13.7930    1.2970 C.3       1 LEU        -0.0623
      8 CD2        88.4920  -12.1140    3.1140 C.3       1 LEU        -0.0623
      9 N          87.8500   -7.7240   -0.3860 N.am      1 PRO        -0.2471
     10 CA         87.4950   -6.6530   -1.3780 C.3       1 PRO         0.1339
     11 C          87.4450   -6.8650   -2.9170 C.2       1 PRO         0.2042
     12 O          87.8840   -7.8750   -3.4580 O.2       1 PRO        -0.3944
     13 CB         88.5080   -5.5550   -1.0470 C.3       1 PRO        -0.0104
     14 CG         88.5840   -5.6270    0.4400 C.3       1 PRO        -0.0281
     15 CD         88.4740   -7.0950    0.8040 C.3       1 PRO         0.0371
     16 N          86.9300   -5.8360   -3.5880 N.am      1 TPO        -0.2611
     17 CA         86.4080   -5.9100   -4.9540 C.3       1 TPO         0.1614
     18 CB         84.9000   -5.5300   -4.8470 C.3       1 TPO         0.1262
     19 CG2        84.1870   -5.5360   -6.2020 C.3       1 TPO        -0.0298
     20 OG1        84.1190   -6.3640   -3.9330 O.3       1 TPO        -0.2685
     21 P          83.0620   -5.5010   -2.9990 P.3       1 TPO         0.2014
     22 O1P        82.5120   -4.3180   -3.8080 O.co2     1 TPO        -0.5537
     23 O2P        83.8580   -5.0130   -1.8130 O.co2     1 TPO        -0.5537
     24 O3P        82.0070   -6.4220   -2.3950 O.co2     1 TPO        -0.5537
     25 C          87.1730   -4.9200   -5.8380 C.2       1 TPO         0.2093
     26 O          87.1210   -3.7180   -5.6120 O.2       1 TPO        -0.3941
     27 N          87.9030   -5.4040   -6.8510 N.am      1 PRO        -0.2497
     28 CA         88.5690   -4.4970   -7.8190 C.3       1 PRO         0.1340
     29 C          87.6260   -3.6650   -8.7350 C.2       1 PRO         0.2066
     30 O          86.7110   -4.2370   -9.3030 O.2       1 PRO        -0.3942
     31 CB         89.3940   -5.4590   -8.6920 C.3       1 PRO        -0.0104
     32 CG         89.5380   -6.7240   -7.9030 C.3       1 PRO        -0.0281
     33 CD         88.3740   -6.8010   -6.9630 C.3       1 PRO         0.0369
     34 N          87.8400   -2.3300   -8.8700 N.am      1 PRO        -0.2498
     35 CA         87.1450   -1.4060   -9.8280 C.3       1 PRO         0.1337
     36 C          87.2240   -1.6640  -11.3580 C.2       1 PRO         0.2035
     37 O          87.6870   -2.7270  -11.7680 O.2       1 PRO        -0.3944
     38 CB         87.7720   -0.0440   -9.4950 C.3       1 PRO        -0.0104
     39 CG         87.9840   -0.1220   -8.0260 C.3       1 PRO        -0.0281
     40 CD         88.3720   -1.5590   -7.7270 C.3       1 PRO         0.0369
     41 N          86.7340   -0.7030  -12.1670 N.am      1 LEU        -0.2695
     42 CA         86.8460   -0.7430  -13.6380 C.3       1 LEU         0.0946
     43 C          88.3160   -0.7710  -14.0460 C.2       1 LEU         0.0601
     44 O          88.6780   -1.3370  -15.0750 O.co2     1 LEU        -0.5666
     45 CB         86.1320    0.4590  -14.3160 C.3       1 LEU        -0.0156
     46 CG         86.6150    1.9450  -14.3070 C.3       1 LEU        -0.0431
     47 CD1        87.9850    2.2140  -14.9550 C.3       1 LEU        -0.0625
     48 CD2        85.5460    2.8320  -14.9630 C.3       1 LEU        -0.0625
     49 OXT        89.1760   -0.2280  -13.3560 O.co2     1 LEU        -0.5666
     50 H1         86.7015  -10.1462    2.6129 H         1 LEU         0.2015
     51 H2         85.7880   -9.9136    1.2636 H         1 LEU         0.2015
     52 H3         86.5627   -8.6405    1.9626 H         1 LEU         0.2015
     53 H4         88.7137   -9.5384    1.4341 H         1 LEU         0.1098
     54 H5         88.9794  -11.5784    0.3042 H         1 LEU         0.0348
     55 H6         87.2418  -11.6610   -0.1437 H         1 LEU         0.0348
     56 H7         86.6319  -12.3201    2.0846 H         1 LEU         0.0299
     57 H8         87.8090  -14.5251    2.1002 H         1 LEU         0.0232
     58 H9         89.0237  -13.8561    0.9586 H         1 LEU         0.0232
     59 H10        87.3067  -14.0108    0.4541 H         1 LEU         0.0232
     60 H11        88.2726  -11.0970    3.4712 H         1 LEU         0.0232
     61 H12        89.5688  -12.2063    2.9091 H         1 LEU         0.0232
     62 H13        88.2014  -12.8437    3.8841 H         1 LEU         0.0232
     63 H14        86.4858   -6.3086   -1.1081 H         1 PRO         0.0802
     64 H15        88.1498   -4.5697   -1.3798 H         1 PRO         0.0313
     65 H16        89.4856   -5.7640   -1.5059 H         1 PRO         0.0313
     66 H17        87.7562   -5.0602    0.8911 H         1 PRO         0.0287
     67 H18        89.5428   -5.2186    0.7921 H         1 PRO         0.0287
     68 H19        89.4686   -7.5243    0.9948 H         1 PRO         0.0524
     69 H20        87.8400   -7.2292    1.6928 H         1 PRO         0.0524
     70 H21        86.8976   -4.9498   -3.1259 H         1 TPO         0.1884
     71 H22        86.5175   -6.9269   -5.3589 H         1 TPO         0.0830
     72 H23        84.8687   -4.5016   -4.4579 H         1 TPO         0.0695
     73 H24        83.1311   -5.2613   -6.0619 H         1 TPO         0.0260
     74 H25        84.2487   -6.5412   -6.6444 H         1 TPO         0.0260
     75 H26        84.6688   -4.8098   -6.8731 H         1 TPO         0.0260
     76 H27        89.2249   -3.8010   -7.2756 H         1 PRO         0.0802
     77 H28        90.3834   -5.0276   -8.9038 H         1 PRO         0.0313
     78 H29        88.8705   -5.6582   -9.6387 H         1 PRO         0.0313
     79 H30        90.4796   -6.7075   -7.3347 H         1 PRO         0.0287
     80 H31        89.5330   -7.5915   -8.5793 H         1 PRO         0.0287
     81 H32        87.5839   -7.4471   -7.3731 H         1 PRO         0.0524
     82 H33        88.6899   -7.1857   -5.9821 H         1 PRO         0.0524
     83 H34        86.0758   -1.3985   -9.5697 H         1 PRO         0.0802
     84 H35        87.0890    0.7789   -9.7524 H         1 PRO         0.0313
     85 H36        88.7262    0.0919  -10.0252 H         1 PRO         0.0313
     86 H37        87.0584    0.1413   -7.4931 H         1 PRO         0.0287
     87 H38        88.7900    0.5615   -7.7207 H         1 PRO         0.0287
     88 H39        89.4654   -1.6616   -7.6637 H         1 PRO         0.0524
     89 H40        87.9168   -1.8967   -6.7843 H         1 PRO         0.0524
     90 H41        86.2704    0.0778  -11.7482 H         1 LEU         0.1875
     91 H42        86.3671   -1.6679  -13.9917 H         1 LEU         0.0726
     92 H43        85.1252    0.4817  -13.8736 H         1 LEU         0.0308
     93 H44        86.0593    0.1872  -15.3794 H         1 LEU         0.0308
     94 H45        86.7020    2.2430  -13.2517 H         1 LEU         0.0297
     95 H46        88.2172    3.2872  -14.8894 H         1 LEU         0.0232
     96 H47        87.9572    1.9088  -16.0114 H         1 LEU         0.0232
     97 H48        88.7596    1.6384  -14.4272 H         1 LEU         0.0232
     98 H49        84.5696    2.6355  -14.4961 H         1 LEU         0.0232
     99 H50        85.4906    2.6053  -16.0380 H         1 LEU         0.0232
    100 H51        85.8122    3.8903  -14.8246 H         1 LEU         0.0232
@<TRIPOS>BOND
     1    1    2 1  
     2    2    3 1  
     3    2    5 1  
     4    3    4 2  
     5    3    9 am 
     6    5    6 1  
     7    6    7 1  
     8    6    8 1  
     9    9   10 1  
    10    9   15 1  
    11   10   11 1  
    12   10   13 1  
    13   11   12 2  
    14   11   16 am 
    15   13   14 1  
    16   14   15 1  
    17   16   17 1  
    18   17   18 1  
    19   17   25 1  
    20   18   19 1  
    21   18   20 1  
    22   20   21 1  
    23   21   22 ar 
    24   21   23 ar 
    25   21   24 ar 
    26   25   26 2  
    27   25   27 am 
    28   27   28 1  
    29   27   33 1  
    30   28   29 1  
    31   28   31 1  
    32   29   30 2  
    33   29   34 am 
    34   31   32 1  
    35   32   33 1  
    36   34   35 1  
    37   34   40 1  
    38   35   36 1  
    39   35   38 1  
    40   36   37 2  
    41   36   41 am 
    42   38   39 1  
    43   39   40 1  
    44   41   42 1  
    45   42   43 1  
    46   42   45 1  
    47   43   44 ar 
    48   43   49 ar 
    49   45   46 1  
    50   46   47 1  
    51   46   48 1  
    52    1   50 1  
    53    1   51 1  
    54    1   52 1  
    55    2   53 1  
    56    5   54 1  
    57    5   55 1  
    58    6   56 1  
    59    7   57 1  
    60    7   58 1  
    61    7   59 1  
    62    8   60 1  
    63    8   61 1  
    64    8   62 1  
    65   10   63 1  
    66   13   64 1  
    67   13   65 1  
    68   14   66 1  
    69   14   67 1  
    70   15   68 1  
    71   15   69 1  
    72   16   70 1  
    73   17   71 1  
    74   18   72 1  
    75   19   73 1  
    76   19   74 1  
    77   19   75 1  
    78   28   76 1  
    79   31   77 1  
    80   31   78 1  
    81   32   79 1  
    82   32   80 1  
    83   33   81 1  
    84   33   82 1  
    85   35   83 1  
    86   38   84 1  
    87   38   85 1  
    88   39   86 1  
    89   39   87 1  
    90   40   88 1  
    91   40   89 1  
    92   41   90 1  
    93   42   91 1  
    94   45   92 1  
    95   45   93 1  
    96   46   94 1  
    97   47   95 1  
    98   47   96 1  
    99   47   97 1  
   100   48   98 1  
   101   48   99 1  
   102   48  100 1  
@<TRIPOS>SUBSTRUCTURE
     1 LEU         1

