6c4u_ligand
  -I-interpret- 

103105  0  0  0  0  0  0  0  0999 V2000
   86.6200   -9.6250    1.7540 N   0  3  0  0  0
   87.8170   -9.8840    0.8990 C   0  0  0  0  0
   87.7100   -9.0870   -0.4340 C   0  0  0  0  0
   87.5120   -9.6950   -1.4820 O   0  0  0  0  0
   87.9520  -11.4010    0.6550 C   0  0  0  0  0
   87.6980  -12.3870    1.8220 C   0  0  0  0  0
   87.9790  -13.7930    1.2970 C   0  0  0  0  0
   88.4920  -12.1140    3.1140 C   0  0  0  0  0
   87.8500   -7.7240   -0.3860 N   0  0  0  0  0
   87.4950   -6.6530   -1.3780 C   0  0  0  0  0
   87.4450   -6.8650   -2.9170 C   0  0  0  0  0
   87.8840   -7.8750   -3.4580 O   0  0  0  0  0
   88.5080   -5.5550   -1.0470 C   0  0  0  0  0
   88.5840   -5.6270    0.4400 C   0  0  0  0  0
   88.4740   -7.0950    0.8040 C   0  0  0  0  0
   86.9300   -5.8360   -3.5880 N   0  0  0  0  0
   86.4080   -5.9100   -4.9540 C   0  0  0  0  0
   84.9000   -5.5300   -4.8470 C   0  0  0  0  0
   84.1870   -5.5360   -6.2020 C   0  0  0  0  0
   84.1190   -6.3640   -3.9330 O   0  0  0  0  0
   83.0620   -5.5010   -2.9990 P   0  0  0  0  0
   82.5120   -4.3180   -3.8080 O   0  0  0  0  0
   83.8580   -5.0130   -1.8130 O   0  0  0  0  0
   82.0070   -6.4220   -2.3950 O   0  0  0  0  0
   87.1730   -4.9200   -5.8380 C   0  0  0  0  0
   87.1210   -3.7180   -5.6120 O   0  0  0  0  0
   87.9030   -5.4040   -6.8510 N   0  0  0  0  0
   88.5690   -4.4970   -7.8190 C   0  0  0  0  0
   87.6260   -3.6650   -8.7350 C   0  0  0  0  0
   86.7110   -4.2370   -9.3030 O   0  0  0  0  0
   89.3940   -5.4590   -8.6920 C   0  0  0  0  0
   89.5380   -6.7240   -7.9030 C   0  0  0  0  0
   88.3740   -6.8010   -6.9630 C   0  0  0  0  0
   87.8400   -2.3300   -8.8700 N   0  0  0  0  0
   87.1450   -1.4060   -9.8280 C   0  0  0  0  0
   87.2240   -1.6640  -11.3580 C   0  0  0  0  0
   87.6870   -2.7270  -11.7680 O   0  0  0  0  0
   87.7720   -0.0440   -9.4950 C   0  0  0  0  0
   87.9840   -0.1220   -8.0260 C   0  0  0  0  0
   88.3720   -1.5590   -7.7270 C   0  0  0  0  0
   86.7340   -0.7030  -12.1670 N   0  0  0  0  0
   86.8460   -0.7430  -13.6380 C   0  0  0  0  0
   88.3160   -0.7710  -14.0460 C   0  0  0  0  0
   88.6780   -1.3370  -15.0750 O   0  0  0  0  0
   86.1320    0.4590  -14.3160 C   0  0  0  0  0
   86.6150    1.9450  -14.3070 C   0  0  0  0  0
   87.9850    2.2140  -14.9550 C   0  0  0  0  0
   85.5460    2.8320  -14.9630 C   0  0  0  0  0
   89.1760   -0.2280  -13.3560 O   0  0  0  0  0
   86.5299   -8.6220    1.9159 H   0  0  0  0  0
   85.7848   -9.9707    1.2813 H   0  0  0  0  0
   86.7307  -10.1061    2.6466 H   0  0  0  0  0
   88.7178   -9.5408    1.4078 H   0  0  0  0  0
   88.9999  -11.5468    0.3929 H   0  0  0  0  0
   87.1782  -11.6333   -0.0767 H   0  0  0  0  0
   86.6612  -12.2585    2.1329 H   0  0  0  0  0
   89.0431  -13.8937    1.0831 H   0  0  0  0  0
   87.6875  -14.5255    2.0497 H   0  0  0  0  0
   87.4063  -13.9600    0.3847 H   0  0  0  0  0
   88.2032  -12.8377    3.8762 H   0  0  0  0  0
   89.5587  -12.2058    2.9096 H   0  0  0  0  0
   88.2738  -11.1061    3.4669 H   0  0  0  0  0
   86.4263   -6.4905   -1.2379 H   0  0  0  0  0
   88.2093   -4.5727   -1.4131 H   0  0  0  0  0
   89.4728   -5.7024   -1.5324 H   0  0  0  0  0
   87.7832   -5.0488    0.9009 H   0  0  0  0  0
   89.5194   -5.2027    0.8047 H   0  0  0  0  0
   89.4445   -7.5330    1.0373 H   0  0  0  0  0
   87.8829   -7.2500    1.7066 H   0  0  0  0  0
   86.8969   -4.9321   -3.1166 H   0  0  0  0  0
   86.5251   -6.8977   -5.3998 H   0  0  0  0  0
   84.9396   -4.5194   -4.4405 H   0  0  0  0  0
   84.6654   -4.8161   -6.8660 H   0  0  0  0  0
   84.2489   -6.5325   -6.6393 H   0  0  0  0  0
   83.1409   -5.2637   -6.0619 H   0  0  0  0  0
   82.0099   -4.6493   -4.5562 H   0  0  0  0  0
   81.4543   -6.7763   -3.0954 H   0  0  0  0  0
   89.1302   -3.7381   -7.2738 H   0  0  0  0  0
   90.3684   -5.0332   -8.9314 H   0  0  0  0  0
   88.8991   -5.6456   -9.6451 H   0  0  0  0  0
   90.4768   -6.7239   -7.3492 H   0  0  0  0  0
   89.5509   -7.5886   -8.5666 H   0  0  0  0  0
   87.5943   -7.4692   -7.3287 H   0  0  0  0  0
   88.6540   -7.2187   -5.9960 H   0  0  0  0  0
   86.0725   -1.5285   -9.6768 H   0  0  0  0  0
   87.1389    0.7943   -9.7859 H   0  0  0  0  0
   88.6945    0.1415  -10.0451 H   0  0  0  0  0
   87.0816    0.1612   -7.4842 H   0  0  0  0  0
   88.7633    0.5693   -7.7052 H   0  0  0  0  0
   89.4502   -1.6777   -7.6199 H   0  0  0  0  0
   87.9648   -1.9033   -6.7764 H   0  0  0  0  0
   86.2611    0.0934  -11.7399 H   0  0  0  0  0
   86.3490   -1.6515  -13.9782 H   0  0  0  0  0
   85.2075    0.5217  -13.7420 H   0  0  0  0  0
   86.2187    0.2029  -15.3719 H   0  0  0  0  0
   86.7567    2.1901  -13.2544 H   0  0  0  0  0
   88.7516    1.6430  -14.4312 H   0  0  0  0  0
   87.9562    1.9111  -16.0017 H   0  0  0  0  0
   88.2139    3.2777  -14.8894 H   0  0  0  0  0
   85.3863    2.5064  -15.9909 H   0  0  0  0  0
   84.6135    2.7480  -14.4049 H   0  0  0  0  0
   85.8823    3.8688  -14.9570 H   0  0  0  0  0
   88.7624    0.1731  -12.5881 H   0  0  0  0  0
  1  2  1  0  0  0
  2  3  1  0  0  0
  2  5  1  0  0  0
  3  4  2  0  0  0
  3  9  1  0  0  0
  5  6  1  0  0  0
  6  7  1  0  0  0
  6  8  1  0  0  0
  9 10  1  0  0  0
  9 15  1  0  0  0
 10 11  1  0  0  0
 10 13  1  0  0  0
 11 12  2  0  0  0
 11 16  1  0  0  0
 13 14  1  0  0  0
 14 15  1  0  0  0
 16 17  1  0  0  0
 17 18  1  0  0  0
 17 25  1  0  0  0
 18 19  1  0  0  0
 18 20  1  0  0  0
 20 21  1  0  0  0
 21 22  1  0  0  0
 21 23  2  0  0  0
 21 24  1  0  0  0
 25 26  2  0  0  0
 25 27  1  0  0  0
 27 28  1  0  0  0
 27 33  1  0  0  0
 28 29  1  0  0  0
 28 31  1  0  0  0
 29 30  2  0  0  0
 29 34  1  0  0  0
 31 32  1  0  0  0
 32 33  1  0  0  0
 34 35  1  0  0  0
 34 40  1  0  0  0
 35 36  1  0  0  0
 35 38  1  0  0  0
 36 37  2  0  0  0
 36 41  1  0  0  0
 38 39  1  0  0  0
 39 40  1  0  0  0
 41 42  1  0  0  0
 42 43  1  0  0  0
 42 45  1  0  0  0
 43 44  2  0  0  0
 43 49  1  0  0  0
 45 46  1  0  0  0
 46 47  1  0  0  0
 46 48  1  0  0  0
  1 50  1  0  0  0
  1 51  1  0  0  0
  1 52  1  0  0  0
  2 53  1  0  0  0
  5 54  1  0  0  0
  5 55  1  0  0  0
  6 56  1  0  0  0
  7 57  1  0  0  0
  7 58  1  0  0  0
  7 59  1  0  0  0
  8 60  1  0  0  0
  8 61  1  0  0  0
  8 62  1  0  0  0
 10 63  1  0  0  0
 13 64  1  0  0  0
 13 65  1  0  0  0
 14 66  1  0  0  0
 14 67  1  0  0  0
 15 68  1  0  0  0
 15 69  1  0  0  0
 16 70  1  0  0  0
 17 71  1  0  0  0
 18 72  1  0  0  0
 19 73  1  0  0  0
 19 74  1  0  0  0
 19 75  1  0  0  0
 22 76  1  0  0  0
 24 77  1  0  0  0
 28 78  1  0  0  0
 31 79  1  0  0  0
 31 80  1  0  0  0
 32 81  1  0  0  0
 32 82  1  0  0  0
 33 83  1  0  0  0
 33 84  1  0  0  0
 35 85  1  0  0  0
 38 86  1  0  0  0
 38 87  1  0  0  0
 39 88  1  0  0  0
 39 89  1  0  0  0
 40 90  1  0  0  0
 40 91  1  0  0  0
 41 92  1  0  0  0
 42 93  1  0  0  0
 45 94  1  0  0  0
 45 95  1  0  0  0
 46 96  1  0  0  0
 47 97  1  0  0  0
 47 98  1  0  0  0
 47 99  1  0  0  0
 48100  1  0  0  0
 48101  1  0  0  0
 48102  1  0  0  0
 49103  1  0  0  0
M  END
$$$$
