2a4m_ligand
  -I-interpret- 

 27 28  0  0  0  0  0  0  0  0999 V2000
   49.4880   14.8270   20.1100 N   0  3  0  0  0
   49.9380   13.4530   20.2700 C   0  0  0  0  0
   49.5240   12.6060   19.0680 C   0  0  0  0  0
   49.3770   13.1450   17.9550 O   0  0  0  0  0
   49.3420   12.8360   21.5570 C   0  0  0  0  0
   49.6470   11.3910   21.7860 C   0  0  0  0  0
   50.8910   10.8190   21.8960 C   0  0  0  0  0
   48.7050   10.3210   21.9340 C   0  0  0  0  0
   50.7810    9.4710   22.0810 N   0  0  0  0  0
   49.4530    9.1340   22.1260 C   0  0  0  0  0
   47.3060   10.2410   21.9050 C   0  0  0  0  0
   48.8360    7.8720   22.2650 C   0  0  0  0  0
   46.7100    8.9900   22.0530 C   0  0  0  0  0
   47.4680    7.8360   22.2390 C   0  0  0  0  0
   49.3770   11.3690   19.2460 O   0  0  0  0  0
   49.8897   15.2180   19.2579 H   0  0  0  0  0
   48.4701   14.8450   20.0468 H   0  0  0  0  0
   49.7898   15.3781   20.9135 H   0  0  0  0  0
   51.0255   13.4629   20.3429 H   0  0  0  0  0
   48.2588   12.9110   21.4616 H   0  0  0  0  0
   49.7828   13.3801   22.3923 H   0  0  0  0  0
   51.8332   11.3646   21.8430 H   0  0  0  0  0
   46.6986   11.1360   21.7699 H   0  0  0  0  0
   49.4250    6.9632   22.3880 H   0  0  0  0  0
   45.6232    8.9125   22.0225 H   0  0  0  0  0
   46.9590    6.8807   22.3670 H   0  0  0  0  0
   49.5341   11.1588   20.1694 H   0  0  0  0  0
  1  2  1  0  0  0
  2  3  1  0  0  0
  2  5  1  0  0  0
  3  4  2  0  0  0
  3 15  1  0  0  0
  5  6  1  0  0  0
  6  7  4  0  0  0
  6  8  4  0  0  0
  7  9  4  0  0  0
  8 10  4  0  0  0
  8 11  4  0  0  0
  9 10  4  0  0  0
 10 12  4  0  0  0
 11 13  4  0  0  0
 12 14  4  0  0  0
 13 14  4  0  0  0
  1 16  1  0  0  0
  1 17  1  0  0  0
  1 18  1  0  0  0
  2 19  1  0  0  0
  5 20  1  0  0  0
  5 21  1  0  0  0
  7 22  1  0  0  0
 11 23  1  0  0  0
 12 24  1  0  0  0
 13 25  1  0  0  0
 14 26  1  0  0  0
 15 27  1  0  0  0
M  END
$$$$
