### 
### Created by X-TOOL on Wed Jan  1 15:39:35 2020
### 

@<TRIPOS>MOLECULE
6f6d_ligand
  267   267     1     0     0
SMALL
GAST_HUCK


@<TRIPOS>ATOM
      1 N         113.7200  -27.3980   15.7130 N.4       1 ARG         0.2379
      2 CA        113.2530  -26.1510   16.3090 C.3       1 ARG         0.0651
      3 C         112.4690  -26.4460   17.5880 C.2       1 ARG         0.2267
      4 O         112.0190  -27.5710   17.8120 O.2       1 ARG        -0.3907
      5 CB        112.4100  -25.3610   15.3040 C.3       1 ARG         0.0110
      6 CG        111.1970  -26.0900   14.8070 C.3       1 ARG        -0.0125
      7 CD        110.8120  -25.6760   13.3810 C.3       1 ARG         0.0629
      8 NE        110.5090  -24.2450   13.2270 N.pl3     1 ARG        -0.2723
      9 CZ        109.3380  -23.6810   13.5050 C.cat     1 ARG         0.2882
     10 NH1       108.3310  -24.4090   13.9830 N.pl3     1 ARG        -0.2849
     11 NH2       109.1730  -22.3750   13.3120 N.pl3     1 ARG        -0.2849
     12 N         112.3220  -25.4440   18.4380 N.am      1 ILE        -0.2608
     13 CA        111.7400  -25.6440   19.7560 C.3       1 ILE         0.1336
     14 C         110.2620  -25.2540   19.7330 C.2       1 ILE         0.2042
     15 O         109.8290  -24.3660   18.9830 O.2       1 ILE        -0.3944
     16 CB        112.5180  -24.8760   20.8380 C.3       1 ILE        -0.0037
     17 CG1       112.6720  -23.4040   20.4840 C.3       1 ILE        -0.0491
     18 CG2       113.9050  -25.4720   21.0140 C.3       1 ILE        -0.0582
     19 CD1       113.0920  -22.5730   21.6830 C.3       1 ILE        -0.0648
     20 N         109.4820  -25.9450   20.5670 N.am      1 GLN        -0.2636
     21 CA        108.0290  -25.7940   20.5990 C.3       1 GLN         0.1330
     22 C         107.6450  -24.6430   21.5200 C.2       1 GLN         0.2040
     23 O         107.8990  -24.6840   22.7330 O.2       1 GLN        -0.3944
     24 CB        107.3690  -27.1050   21.0470 C.3       1 GLN         0.0045
     25 CG        105.8640  -27.0230   21.0550 C.3       1 GLN         0.0412
     26 CD        105.1930  -28.3300   21.4790 C.2       1 GLN         0.1737
     27 OE1       105.8490  -29.2680   21.8890 O.2       1 GLN        -0.3973
     28 NE2       103.8700  -28.3860   21.3500 N.am      1 GLN        -0.3009
     29 N         107.0610  -23.5990   20.9340 N.am      1 LEU        -0.2637
     30 CA        106.6270  -22.4180   21.6630 C.3       1 LEU         0.1312
     31 C         105.1330  -22.5360   21.8990 C.2       1 LEU         0.2039
     32 O         104.3920  -22.8890   20.9810 O.2       1 LEU        -0.3944
     33 CB        106.9210  -21.1430   20.8780 C.3       1 LEU        -0.0101
     34 CG        108.3690  -21.0000   20.4200 C.3       1 LEU        -0.0425
     35 CD1       108.5890  -19.6910   19.7120 C.3       1 LEU        -0.0625
     36 CD2       109.3250  -21.1200   21.6310 C.3       1 LEU        -0.0625
     37 N         104.7040  -22.2660   23.1200 N.am      1 MET        -0.2637
     38 CA        103.2970  -22.4190   23.4580 C.3       1 MET         0.1317
     39 C         102.5940  -21.0810   23.2920 C.2       1 MET         0.2040
     40 O         103.1920  -20.0200   23.4740 O.2       1 MET        -0.3944
     41 CB        103.0990  -22.9200   24.8870 C.3       1 MET        -0.0034
     42 CG        103.7760  -24.2430   25.2650 C.3       1 MET        -0.0024
     43 SD        103.6850  -25.6030   24.0810 S.3       1 MET        -0.1639
     44 CE        101.9250  -26.0410   24.0970 C.3       1 MET        -0.0181
     45 N         101.3110  -21.1450   22.9270 N.am      1 THR        -0.2613
     46 CA        100.4990  -19.9480   22.7220 C.3       1 THR         0.1565
     47 C          99.1420  -20.1520   23.3730 C.2       1 THR         0.2065
     48 O          98.6490  -21.2820   23.4670 O.2       1 THR        -0.3943
     49 CB        100.2950  -19.6510   21.2320 C.3       1 THR         0.0924
     50 OG1        99.6090  -20.7530   20.6180 O.3       1 THR        -0.3874
     51 CG2       101.6170  -19.4650   20.5340 C.3       1 THR        -0.0346
     52 N          98.5490  -19.0580   23.8280 N.am      1 LYS        -0.2637
     53 CA         97.1750  -19.0960   24.3280 C.3       1 LYS         0.1310
     54 C          96.1900  -19.0180   23.1710 C.2       1 LYS         0.2039
     55 O          96.3430  -18.2040   22.2580 O.2       1 LYS        -0.3944
     56 CB         96.9210  -17.9390   25.2900 C.3       1 LYS        -0.0122
     57 CG         97.8220  -17.9320   26.5000 C.3       1 LYS        -0.0440
     58 CD         97.4090  -16.8200   27.4500 C.3       1 LYS        -0.0124
     59 CE         98.3270  -16.7770   28.6490 C.3       1 LYS        -0.0354
     60 NZ         98.2490  -15.4900   29.4240 N.4       1 LYS         0.2185
     61 N          95.1610  -19.8500   23.2080 N.am      1 ALA        -0.2640
     62 CA         94.1810  -19.8220   22.1360 C.3       1 ALA         0.1282
     63 C          93.4430  -18.4950   22.1790 C.2       1 ALA         0.2036
     64 O          93.1400  -17.9830   23.2530 O.2       1 ALA        -0.3944
     65 CB         93.2000  -20.9880   22.2630 C.3       1 ALA        -0.0244
     66 N          93.2010  -17.9190   21.0040 N.am      1 ALA        -0.2640
     67 CA         92.4640  -16.6660   20.8710 C.3       1 ALA         0.1282
     68 C          91.0130  -16.9620   20.4880 C.2       1 ALA         0.2036
     69 O          90.7570  -17.7090   19.5380 O.2       1 ALA        -0.3944
     70 CB         93.1230  -15.7770   19.8130 C.3       1 ALA        -0.0244
     71 N          90.0710  -16.3920   21.2330 N.am      1 ARG        -0.2637
     72 CA         88.6680  -16.6670   20.9570 C.3       1 ARG         0.1311
     73 C          87.8050  -15.4890   21.3750 C.2       1 ARG         0.2039
     74 O          87.9800  -14.9310   22.4690 O.2       1 ARG        -0.3944
     75 CB         88.2080  -17.9530   21.6740 C.3       1 ARG        -0.0092
     76 CG         86.7460  -18.3050   21.3720 C.3       1 ARG        -0.0156
     77 CD         86.3690  -19.6600   21.9160 C.3       1 ARG         0.0627
     78 NE         84.9270  -19.8500   21.8430 N.pl3     1 ARG        -0.2723
     79 CZ         84.0830  -19.4970   22.7980 C.cat     1 ARG         0.2882
     80 NH1        84.5160  -18.9530   23.9330 N.pl3     1 ARG        -0.2849
     81 NH2        82.7880  -19.6900   22.6260 N.pl3     1 ARG        -0.2849
     82 N          86.8690  -15.1130   20.5000 N.am      1 LYS        -0.2637
     83 CA         85.8460  -14.1510   20.8740 C.3       1 LYS         0.1310
     84 C          84.8130  -14.8180   21.7660 C.2       1 LYS         0.2040
     85 O          84.3170  -15.8960   21.4470 O.2       1 LYS        -0.3944
     86 CB         85.1520  -13.5780   19.6330 C.3       1 LYS        -0.0122
     87 CG         84.0200  -12.5730   19.9780 C.3       1 LYS        -0.0440
     88 CD         82.9940  -12.4450   18.8640 C.3       1 LYS        -0.0124
     89 CE         83.6590  -12.0550   17.5880 C.3       1 LYS        -0.0354
     90 NZ         82.6840  -11.4960   16.6060 N.4       1 LYS         0.2185
     91 N          84.4370  -14.1460   22.8480 N.am      1 SER        -0.2616
     92 CA         83.4850  -14.6830   23.8090 C.3       1 SER         0.1539
     93 C          82.7750  -13.4890   24.4260 C.2       1 SER         0.2062
     94 O          83.4240  -12.5040   24.7640 O.2       1 SER        -0.3943
     95 CB         84.1720  -15.5180   24.8960 C.3       1 SER         0.0843
     96 OG         83.2190  -16.1170   25.7810 O.3       1 SER        -0.3903
     97 N          81.4580  -13.5910   24.5990 N.am      1 ALA        -0.2639
     98 CA         80.7100  -12.4780   25.1310 C.3       1 ALA         0.1284
     99 C          81.1600  -12.1610   26.5570 C.2       1 ALA         0.2061
    100 O          81.6280  -13.0420   27.2910 O.2       1 ALA        -0.3942
    101 CB         79.2060  -12.7850   25.1160 C.3       1 ALA        -0.0244
    102 N          80.9650  -10.9240   27.0080 N.am      1 PRO        -0.2498
    103 CA         81.2210  -10.6370   28.4180 C.3       1 PRO         0.1338
    104 C          80.3390  -11.4980   29.3110 C.2       1 PRO         0.2041
    105 O          79.2890  -11.9960   28.9060 O.2       1 PRO        -0.3944
    106 CB         80.8790   -9.1470   28.5620 C.3       1 PRO        -0.0104
    107 CG         80.1100   -8.8180   27.4060 C.3       1 PRO        -0.0281
    108 CD         80.4270   -9.7520   26.3000 C.3       1 PRO         0.0369
    109 N          80.8040  -11.6890   30.5370 N.am      1 ALA        -0.2640
    110 CA         80.0810  -12.4240   31.5590 C.3       1 ALA         0.1282
    111 C          80.2330  -11.7220   32.8980 C.2       1 ALA         0.2037
    112 O          81.3210  -11.2400   33.2450 O.2       1 ALA        -0.3944
    113 CB         80.5990  -13.8650   31.6860 C.3       1 ALA        -0.0244
    114 N          79.1430  -11.6880   33.6570 N.am      1 THR        -0.2613
    115 CA         79.1370  -11.0760   34.9740 C.3       1 THR         0.1564
    116 C          79.2260  -12.1560   36.0510 C.2       1 THR         0.2057
    117 O          79.0360  -13.3480   35.7950 O.2       1 THR        -0.3943
    118 CB         77.8620  -10.2460   35.1730 C.3       1 THR         0.0924
    119 OG1        76.7220  -11.0820   34.9440 O.3       1 THR        -0.3874
    120 CG2        77.8170   -9.0350   34.2120 C.3       1 THR        -0.0346
    121 N          79.4960  -11.7130   37.2750 N.am      1 GLY        -0.2721
    122 CA         79.4890  -12.5810   38.4400 C.3       1 GLY         0.0833
    123 C          80.2770  -13.8540   38.2380 C.2       1 GLY         0.0570
    124 O          79.7060  -14.8750   37.8590 O.co2     1 GLY        -0.5669
    125 OXT        81.4880  -13.8660   38.4530 O.co2     1 GLY        -0.5669
    126 H1        114.2356  -27.1955   14.8709 H         1 ARG         0.2015
    127 H2        112.9285  -27.9811   15.4903 H         1 ARG         0.2015
    128 H3        114.3186  -27.8790   16.3659 H         1 ARG         0.2015
    129 H4        114.1296  -25.5420   16.5748 H         1 ARG         0.1098
    130 H5        113.0441  -25.1176   14.4387 H         1 ARG         0.0347
    131 H6        112.0782  -24.4309   15.7886 H         1 ARG         0.0347
    132 H7        110.3535  -25.8719   15.4784 H         1 ARG         0.0302
    133 H8        111.4044  -27.1702   14.8178 H         1 ARG         0.0302
    134 H9        109.9222  -26.2504   13.0839 H         1 ARG         0.0689
    135 H10       111.6492  -25.9247   12.7122 H         1 ARG         0.0689
    136 H11       111.2609  -23.6339   12.8774 H         1 ARG         0.2642
    137 H12       107.4276  -23.9620   14.1951 H         1 ARG         0.2615
    138 H13       108.4553  -25.4192   14.1407 H         1 ARG         0.2615
    139 H14       109.9487  -21.8070   12.9424 H         1 ARG         0.2615
    140 H15       108.2696  -21.9320   13.5322 H         1 ARG         0.2615
    141 H16       112.6178  -24.5275   18.1686 H         1 ILE         0.1885
    142 H17       111.8042  -26.7153   19.9973 H         1 ILE         0.0803
    143 H18       111.9674  -24.9577   21.7868 H         1 ILE         0.0345
    144 H19       111.7094  -23.0260   20.1093 H         1 ILE         0.0267
    145 H20       113.4355  -23.3054   19.6983 H         1 ILE         0.0267
    146 H21       113.8161  -26.5379   21.2708 H         1 ILE         0.0235
    147 H22       114.4317  -24.9429   21.8219 H         1 ILE         0.0235
    148 H23       114.4710  -25.3667   20.0767 H         1 ILE         0.0235
    149 H24       113.1910  -21.5195   21.3824 H         1 ILE         0.0230
    150 H25       114.0578  -22.9383   22.0622 H         1 ILE         0.0230
    151 H26       112.3316  -22.6589   22.4732 H         1 ILE         0.0230
    152 H27       109.9101  -26.5934   21.1965 H         1 GLN         0.1883
    153 H28       107.6782  -25.5585   19.5834 H         1 GLN         0.0801
    154 H29       107.7142  -27.3438   22.0638 H         1 GLN         0.0337
    155 H30       107.6745  -27.9065   20.3584 H         1 GLN         0.0337
    156 H31       105.5222  -26.7671   20.0413 H         1 GLN         0.0504
    157 H32       105.5605  -26.2308   21.7552 H         1 GLN         0.0504
    158 H33       103.3768  -29.2157   21.6115 H         1 GLN         0.1814
    159 H34       103.3688  -27.5984   20.9915 H         1 GLN         0.1814
    160 H35       106.9140  -23.6288   19.9453 H         1 LEU         0.1883
    161 H36       107.1519  -22.3731   22.6286 H         1 LEU         0.0800
    162 H37       106.6767  -20.2820   21.5176 H         1 LEU         0.0315
    163 H38       106.2765  -21.1323   19.9867 H         1 LEU         0.0315
    164 H39       108.5917  -21.8156   19.7164 H         1 LEU         0.0298
    165 H40       109.6397  -19.6178   19.3948 H         1 LEU         0.0232
    166 H41       108.3533  -18.8610   20.3942 H         1 LEU         0.0232
    167 H42       107.9349  -19.6371   18.8292 H         1 LEU         0.0232
    168 H43       109.1541  -22.0804   22.1393 H         1 LEU         0.0232
    169 H44       109.1335  -20.2947   22.3326 H         1 LEU         0.0232
    170 H45       110.3670  -21.0703   21.2820 H         1 LEU         0.0232
    171 H46       105.3509  -21.9545   23.8161 H         1 MET         0.1883
    172 H47       102.8492  -23.1487   22.7673 H         1 MET         0.0800
    173 H48       102.0179  -23.0436   25.0477 H         1 MET         0.0320
    174 H49       103.4844  -22.1451   25.5659 H         1 MET         0.0320
    175 H50       103.3155  -24.5916   26.2011 H         1 MET         0.0378
    176 H51       104.8411  -24.0290   25.4377 H         1 MET         0.0378
    177 H52       101.7480  -26.8735   23.4001 H         1 MET         0.0340
    178 H53       101.3277  -25.1706   23.7877 H         1 MET         0.0340
    179 H54       101.6319  -26.3446   25.1128 H         1 MET         0.0340
    180 H55       100.8920  -22.0425   22.7894 H         1 THR         0.1884
    181 H56       101.0044  -19.0906   23.1904 H         1 THR         0.0826
    182 H57        99.6948  -18.7354   21.1252 H         1 THR         0.0639
    183 H58        98.7650  -20.8725   21.0375 H         1 THR         0.2101
    184 H59       101.4426  -19.2536   19.4687 H         1 THR         0.0257
    185 H60       102.2159  -20.3824   20.6325 H         1 THR         0.0257
    186 H61       102.1578  -18.6232   20.9911 H         1 THR         0.0257
    187 H62        99.0491  -18.1920   23.8296 H         1 LYS         0.1883
    188 H63        97.0212  -20.0442   24.8640 H         1 LYS         0.0800
    189 H64        95.8788  -18.0007   25.6363 H         1 LYS         0.0312
    190 H65        97.0705  -16.9964   24.7431 H         1 LYS         0.0312
    191 H66        98.8615  -17.7694   26.1791 H         1 LYS         0.0269
    192 H67        97.7450  -18.8999   27.0170 H         1 LYS         0.0269
    193 H68        96.3784  -16.9992   27.7901 H         1 LYS         0.0317
    194 H69        97.4586  -15.8563   26.9220 H         1 LYS         0.0317
    195 H70        99.3615  -16.9097   28.2994 H         1 LYS         0.0813
    196 H71        98.0583  -17.6045   29.3220 H         1 LYS         0.0813
    197 H72        98.8838  -15.5297   30.2060 H         1 LYS         0.1994
    198 H73        97.3084  -15.3573   29.7613 H         1 LYS         0.1994
    199 H74        98.5026  -14.7206   28.8241 H         1 LYS         0.1994
    200 H75        95.0591  -20.4924   23.9676 H         1 ALA         0.1883
    201 H76        94.7045  -19.9086   21.1725 H         1 ALA         0.0797
    202 H77        92.4700  -20.9441   21.4413 H         1 ALA         0.0277
    203 H78        92.6726  -20.9203   23.2259 H         1 ALA         0.0277
    204 H79        93.7516  -21.9384   22.2130 H         1 ALA         0.0277
    205 H80        93.5392  -18.3645   20.1750 H         1 ALA         0.1883
    206 H81        92.4778  -16.1387   21.8363 H         1 ALA         0.0797
    207 H82        92.5596  -14.8367   19.7216 H         1 ALA         0.0277
    208 H83        93.1246  -16.2990   18.8448 H         1 ALA         0.0277
    209 H84        94.1582  -15.5565   20.1125 H         1 ALA         0.0277
    210 H85        90.3248  -15.7771   21.9796 H         1 ARG         0.1883
    211 H86        88.5517  -16.8153   19.8733 H         1 ARG         0.0800
    212 H87        88.3193  -17.8106   22.7590 H         1 ARG         0.0313
    213 H88        88.8462  -18.7868   21.3462 H         1 ARG         0.0313
    214 H89        86.5985  -18.3060   20.2819 H         1 ARG         0.0301
    215 H90        86.0956  -17.5449   21.8293 H         1 ARG         0.0301
    216 H91        86.6920  -19.7327   22.9650 H         1 ARG         0.0689
    217 H92        86.8684  -20.4408   21.3236 H         1 ARG         0.0689
    218 H93        84.5401  -20.2868   20.9942 H         1 ARG         0.2642
    219 H94        83.8430  -18.6847   24.6651 H         1 ARG         0.2615
    220 H95        85.5241  -18.8004   24.0792 H         1 ARG         0.2615
    221 H96        82.4416  -20.1102   21.7517 H         1 ARG         0.2615
    222 H97        82.1243  -19.4203   23.3661 H         1 ARG         0.2615
    223 H98        86.8720  -15.4977   19.5770 H         1 LYS         0.1883
    224 H99        86.3206  -13.3274   21.4275 H         1 LYS         0.0800
    225 H100       84.7184  -14.4100   19.0588 H         1 LYS         0.0312
    226 H101       85.9039  -13.0610   19.0187 H         1 LYS         0.0312
    227 H102       84.4687  -11.5852   20.1591 H         1 LYS         0.0269
    228 H103       83.5094  -12.9165   20.8897 H         1 LYS         0.0269
    229 H104       82.2557  -11.6768   19.1375 H         1 LYS         0.0317
    230 H105       82.4850  -13.4105   18.7272 H         1 LYS         0.0317
    231 H106       84.1373  -12.9431   17.1493 H         1 LYS         0.0813
    232 H107       84.4243  -11.2946   17.8027 H         1 LYS         0.0813
    233 H108       83.1678  -11.2442   15.7583 H         1 LYS         0.1994
    234 H109       82.2444  -10.6778   16.9976 H         1 LYS         0.1994
    235 H110       81.9814  -12.1884   16.3988 H         1 LYS         0.1994
    236 H111       84.8223  -13.2373   23.0084 H         1 SER         0.1884
    237 H112       82.7561  -15.3190   23.2853 H         1 SER         0.0823
    238 H113       84.8396  -14.8661   25.4785 H         1 SER         0.0606
    239 H114       84.7623  -16.3126   24.4162 H         1 SER         0.0606
    240 H115       82.6418  -16.6856   25.2851 H         1 SER         0.2097
    241 H116       80.9873  -14.4402   24.3598 H         1 ALA         0.1883
    242 H117       80.8963  -11.5973   24.4989 H         1 ALA         0.0797
    243 H118       78.6525  -11.9266   25.5245 H         1 ALA         0.0277
    244 H119       79.0073  -13.6754   25.7306 H         1 ALA         0.0277
    245 H120       78.8804  -12.9728   24.0822 H         1 ALA         0.0277
    246 H121       82.2770  -10.8177   28.6672 H         1 PRO         0.0802
    247 H122       81.7979   -8.5434   28.5967 H         1 PRO         0.0313
    248 H123       80.2919   -8.9741   29.4760 H         1 PRO         0.0313
    249 H124       80.3456   -7.7902   27.0928 H         1 PRO         0.0287
    250 H125       79.0395   -8.8912   27.6483 H         1 PRO         0.0287
    251 H126       79.5228  -10.0135   25.7307 H         1 PRO         0.0524
    252 H127       81.1767   -9.3211   25.6200 H         1 PRO         0.0524
    253 H128       81.6985  -11.3074   30.7701 H         1 ALA         0.1883
    254 H129       79.0160  -12.4529   31.2854 H         1 ALA         0.0797
    255 H130       80.0307  -14.3914   32.4669 H         1 ALA         0.0277
    256 H131       81.6651  -13.8489   31.9563 H         1 ALA         0.0277
    257 H132       80.4720  -14.3863   30.7258 H         1 ALA         0.0277
    258 H133       78.2991  -12.0972   33.3100 H         1 THR         0.1884
    259 H134       80.0100  -10.4124   35.0609 H         1 THR         0.0826
    260 H135       77.8375   -9.8757   36.2085 H         1 THR         0.0639
    261 H136       76.7508  -11.4186   34.0561 H         1 THR         0.2101
    262 H137       76.8917   -8.4653   34.3832 H         1 THR         0.0257
    263 H138       77.8410   -9.3914   33.1716 H         1 THR         0.0257
    264 H139       78.6862   -8.3870   34.3978 H         1 THR         0.0257
    265 H140       79.7124  -10.7445   37.3986 H         1 GLY         0.1873
    266 H141       78.4472  -12.8477   38.6711 H         1 GLY         0.0689
    267 H142       79.9237  -12.0316   39.2880 H         1 GLY         0.0689
@<TRIPOS>BOND
     1    1    2 1  
     2    2    3 1  
     3    2    5 1  
     4    3    4 2  
     5    3   12 am 
     6    5    6 1  
     7    6    7 1  
     8    7    8 1  
     9    8    9 ar 
    10    9   10 ar 
    11    9   11 ar 
    12   12   13 1  
    13   13   14 1  
    14   13   16 1  
    15   14   15 2  
    16   14   20 am 
    17   16   17 1  
    18   16   18 1  
    19   17   19 1  
    20   20   21 1  
    21   21   22 1  
    22   21   24 1  
    23   22   23 2  
    24   22   29 am 
    25   24   25 1  
    26   25   26 1  
    27   26   27 2  
    28   26   28 am 
    29   29   30 1  
    30   30   31 1  
    31   30   33 1  
    32   31   32 2  
    33   31   37 am 
    34   33   34 1  
    35   34   35 1  
    36   34   36 1  
    37   37   38 1  
    38   38   39 1  
    39   38   41 1  
    40   39   40 2  
    41   39   45 am 
    42   41   42 1  
    43   42   43 1  
    44   43   44 1  
    45   45   46 1  
    46   46   47 1  
    47   46   49 1  
    48   47   48 2  
    49   47   52 am 
    50   49   50 1  
    51   49   51 1  
    52   52   53 1  
    53   53   54 1  
    54   53   56 1  
    55   54   55 2  
    56   54   61 am 
    57   56   57 1  
    58   57   58 1  
    59   58   59 1  
    60   59   60 1  
    61   61   62 1  
    62   62   63 1  
    63   62   65 1  
    64   63   64 2  
    65   63   66 am 
    66   66   67 1  
    67   67   68 1  
    68   67   70 1  
    69   68   69 2  
    70   68   71 am 
    71   71   72 1  
    72   72   73 1  
    73   72   75 1  
    74   73   74 2  
    75   73   82 am 
    76   75   76 1  
    77   76   77 1  
    78   77   78 1  
    79   78   79 ar 
    80   79   80 ar 
    81   79   81 ar 
    82   82   83 1  
    83   83   84 1  
    84   83   86 1  
    85   84   85 2  
    86   84   91 am 
    87   86   87 1  
    88   87   88 1  
    89   88   89 1  
    90   89   90 1  
    91   91   92 1  
    92   92   93 1  
    93   92   95 1  
    94   93   94 2  
    95   93   97 am 
    96   95   96 1  
    97   97   98 1  
    98   98   99 1  
    99   98  101 1  
   100   99  100 2  
   101   99  102 am 
   102  102  103 1  
   103  102  108 1  
   104  103  104 1  
   105  103  106 1  
   106  104  105 2  
   107  104  109 am 
   108  106  107 1  
   109  107  108 1  
   110  109  110 1  
   111  110  111 1  
   112  110  113 1  
   113  111  112 2  
   114  111  114 am 
   115  114  115 1  
   116  115  116 1  
   117  115  118 1  
   118  116  117 2  
   119  116  121 am 
   120  118  119 1  
   121  118  120 1  
   122  121  122 1  
   123  122  123 1  
   124  123  124 ar 
   125  123  125 ar 
   126    1  126 1  
   127    1  127 1  
   128    1  128 1  
   129    2  129 1  
   130    5  130 1  
   131    5  131 1  
   132    6  132 1  
   133    6  133 1  
   134    7  134 1  
   135    7  135 1  
   136    8  136 1  
   137   10  137 1  
   138   10  138 1  
   139   11  139 1  
   140   11  140 1  
   141   12  141 1  
   142   13  142 1  
   143   16  143 1  
   144   17  144 1  
   145   17  145 1  
   146   18  146 1  
   147   18  147 1  
   148   18  148 1  
   149   19  149 1  
   150   19  150 1  
   151   19  151 1  
   152   20  152 1  
   153   21  153 1  
   154   24  154 1  
   155   24  155 1  
   156   25  156 1  
   157   25  157 1  
   158   28  158 1  
   159   28  159 1  
   160   29  160 1  
   161   30  161 1  
   162   33  162 1  
   163   33  163 1  
   164   34  164 1  
   165   35  165 1  
   166   35  166 1  
   167   35  167 1  
   168   36  168 1  
   169   36  169 1  
   170   36  170 1  
   171   37  171 1  
   172   38  172 1  
   173   41  173 1  
   174   41  174 1  
   175   42  175 1  
   176   42  176 1  
   177   44  177 1  
   178   44  178 1  
   179   44  179 1  
   180   45  180 1  
   181   46  181 1  
   182   49  182 1  
   183   50  183 1  
   184   51  184 1  
   185   51  185 1  
   186   51  186 1  
   187   52  187 1  
   188   53  188 1  
   189   56  189 1  
   190   56  190 1  
   191   57  191 1  
   192   57  192 1  
   193   58  193 1  
   194   58  194 1  
   195   59  195 1  
   196   59  196 1  
   197   60  197 1  
   198   60  198 1  
   199   60  199 1  
   200   61  200 1  
   201   62  201 1  
   202   65  202 1  
   203   65  203 1  
   204   65  204 1  
   205   66  205 1  
   206   67  206 1  
   207   70  207 1  
   208   70  208 1  
   209   70  209 1  
   210   71  210 1  
   211   72  211 1  
   212   75  212 1  
   213   75  213 1  
   214   76  214 1  
   215   76  215 1  
   216   77  216 1  
   217   77  217 1  
   218   78  218 1  
   219   80  219 1  
   220   80  220 1  
   221   81  221 1  
   222   81  222 1  
   223   82  223 1  
   224   83  224 1  
   225   86  225 1  
   226   86  226 1  
   227   87  227 1  
   228   87  228 1  
   229   88  229 1  
   230   88  230 1  
   231   89  231 1  
   232   89  232 1  
   233   90  233 1  
   234   90  234 1  
   235   90  235 1  
   236   91  236 1  
   237   92  237 1  
   238   95  238 1  
   239   95  239 1  
   240   96  240 1  
   241   97  241 1  
   242   98  242 1  
   243  101  243 1  
   244  101  244 1  
   245  101  245 1  
   246  103  246 1  
   247  106  247 1  
   248  106  248 1  
   249  107  249 1  
   250  107  250 1  
   251  108  251 1  
   252  108  252 1  
   253  109  253 1  
   254  110  254 1  
   255  113  255 1  
   256  113  256 1  
   257  113  257 1  
   258  114  258 1  
   259  115  259 1  
   260  118  260 1  
   261  119  261 1  
   262  120  262 1  
   263  120  263 1  
   264  120  264 1  
   265  121  265 1  
   266  122  266 1  
   267  122  267 1  
@<TRIPOS>SUBSTRUCTURE
     1 ARG         1

