6f6d_ligand
  -I-interpret- 

266266  0  0  0  0  0  0  0  0999 V2000
  113.7200  -27.3980   15.7130 N   0  3  0  0  0
  113.2530  -26.1510   16.3090 C   0  0  0  0  0
  112.4690  -26.4460   17.5880 C   0  0  0  0  0
  112.0190  -27.5710   17.8120 O   0  0  0  0  0
  112.4100  -25.3610   15.3040 C   0  0  0  0  0
  111.1970  -26.0900   14.8070 C   0  0  0  0  0
  110.8120  -25.6760   13.3810 C   0  0  0  0  0
  110.5090  -24.2450   13.2270 N   0  0  0  0  0
  109.3380  -23.6810   13.5050 C   0  0  0  0  0
  108.3310  -24.4090   13.9830 N   0  0  0  0  0
  109.1730  -22.3750   13.3120 N   0  0  0  0  0
  112.3220  -25.4440   18.4380 N   0  0  0  0  0
  111.7400  -25.6440   19.7560 C   0  0  0  0  0
  110.2620  -25.2540   19.7330 C   0  0  0  0  0
  109.8290  -24.3660   18.9830 O   0  0  0  0  0
  112.5180  -24.8760   20.8380 C   0  0  0  0  0
  112.6720  -23.4040   20.4840 C   0  0  0  0  0
  113.9050  -25.4720   21.0140 C   0  0  0  0  0
  113.0920  -22.5730   21.6830 C   0  0  0  0  0
  109.4820  -25.9450   20.5670 N   0  0  0  0  0
  108.0290  -25.7940   20.5990 C   0  0  0  0  0
  107.6450  -24.6430   21.5200 C   0  0  0  0  0
  107.8990  -24.6840   22.7330 O   0  0  0  0  0
  107.3690  -27.1050   21.0470 C   0  0  0  0  0
  105.8640  -27.0230   21.0550 C   0  0  0  0  0
  105.1930  -28.3300   21.4790 C   0  0  0  0  0
  105.8490  -29.2680   21.8890 O   0  0  0  0  0
  103.8700  -28.3860   21.3500 N   0  0  0  0  0
  107.0610  -23.5990   20.9340 N   0  0  0  0  0
  106.6270  -22.4180   21.6630 C   0  0  0  0  0
  105.1330  -22.5360   21.8990 C   0  0  0  0  0
  104.3920  -22.8890   20.9810 O   0  0  0  0  0
  106.9210  -21.1430   20.8780 C   0  0  0  0  0
  108.3690  -21.0000   20.4200 C   0  0  0  0  0
  108.5890  -19.6910   19.7120 C   0  0  0  0  0
  109.3250  -21.1200   21.6310 C   0  0  0  0  0
  104.7040  -22.2660   23.1200 N   0  0  0  0  0
  103.2970  -22.4190   23.4580 C   0  0  0  0  0
  102.5940  -21.0810   23.2920 C   0  0  0  0  0
  103.1920  -20.0200   23.4740 O   0  0  0  0  0
  103.0990  -22.9200   24.8870 C   0  0  0  0  0
  103.7760  -24.2430   25.2650 C   0  0  0  0  0
  103.6850  -25.6030   24.0810 S   0  0  0  0  0
  101.9250  -26.0410   24.0970 C   0  0  0  0  0
  101.3110  -21.1450   22.9270 N   0  0  0  0  0
  100.4990  -19.9480   22.7220 C   0  0  0  0  0
   99.1420  -20.1520   23.3730 C   0  0  0  0  0
   98.6490  -21.2820   23.4670 O   0  0  0  0  0
  100.2950  -19.6510   21.2320 C   0  0  0  0  0
   99.6090  -20.7530   20.6180 O   0  0  0  0  0
  101.6170  -19.4650   20.5340 C   0  0  0  0  0
   98.5490  -19.0580   23.8280 N   0  0  0  0  0
   97.1750  -19.0960   24.3280 C   0  0  0  0  0
   96.1900  -19.0180   23.1710 C   0  0  0  0  0
   96.3430  -18.2040   22.2580 O   0  0  0  0  0
   96.9210  -17.9390   25.2900 C   0  0  0  0  0
   97.8220  -17.9320   26.5000 C   0  0  0  0  0
   97.4090  -16.8200   27.4500 C   0  0  0  0  0
   98.3270  -16.7770   28.6490 C   0  0  0  0  0
   98.2490  -15.4900   29.4240 N   0  3  0  0  0
   95.1610  -19.8500   23.2080 N   0  0  0  0  0
   94.1810  -19.8220   22.1360 C   0  0  0  0  0
   93.4430  -18.4950   22.1790 C   0  0  0  0  0
   93.1400  -17.9830   23.2530 O   0  0  0  0  0
   93.2000  -20.9880   22.2630 C   0  0  0  0  0
   93.2010  -17.9190   21.0040 N   0  0  0  0  0
   92.4640  -16.6660   20.8710 C   0  0  0  0  0
   91.0130  -16.9620   20.4880 C   0  0  0  0  0
   90.7570  -17.7090   19.5380 O   0  0  0  0  0
   93.1230  -15.7770   19.8130 C   0  0  0  0  0
   90.0710  -16.3920   21.2330 N   0  0  0  0  0
   88.6680  -16.6670   20.9570 C   0  0  0  0  0
   87.8050  -15.4890   21.3750 C   0  0  0  0  0
   87.9800  -14.9310   22.4690 O   0  0  0  0  0
   88.2080  -17.9530   21.6740 C   0  0  0  0  0
   86.7460  -18.3050   21.3720 C   0  0  0  0  0
   86.3690  -19.6600   21.9160 C   0  0  0  0  0
   84.9270  -19.8500   21.8430 N   0  0  0  0  0
   84.0830  -19.4970   22.7980 C   0  0  0  0  0
   84.5160  -18.9530   23.9330 N   0  0  0  0  0
   82.7880  -19.6900   22.6260 N   0  0  0  0  0
   86.8690  -15.1130   20.5000 N   0  0  0  0  0
   85.8460  -14.1510   20.8740 C   0  0  0  0  0
   84.8130  -14.8180   21.7660 C   0  0  0  0  0
   84.3170  -15.8960   21.4470 O   0  0  0  0  0
   85.1520  -13.5780   19.6330 C   0  0  0  0  0
   84.0200  -12.5730   19.9780 C   0  0  0  0  0
   82.9940  -12.4450   18.8640 C   0  0  0  0  0
   83.6590  -12.0550   17.5880 C   0  0  0  0  0
   82.6840  -11.4960   16.6060 N   0  3  0  0  0
   84.4370  -14.1460   22.8480 N   0  0  0  0  0
   83.4850  -14.6830   23.8090 C   0  0  0  0  0
   82.7750  -13.4890   24.4260 C   0  0  0  0  0
   83.4240  -12.5040   24.7640 O   0  0  0  0  0
   84.1720  -15.5180   24.8960 C   0  0  0  0  0
   83.2190  -16.1170   25.7810 O   0  0  0  0  0
   81.4580  -13.5910   24.5990 N   0  0  0  0  0
   80.7100  -12.4780   25.1310 C   0  0  0  0  0
   81.1600  -12.1610   26.5570 C   0  0  0  0  0
   81.6280  -13.0420   27.2910 O   0  0  0  0  0
   79.2060  -12.7850   25.1160 C   0  0  0  0  0
   80.9650  -10.9240   27.0080 N   0  0  0  0  0
   81.2210  -10.6370   28.4180 C   0  0  0  0  0
   80.3390  -11.4980   29.3110 C   0  0  0  0  0
   79.2890  -11.9960   28.9060 O   0  0  0  0  0
   80.8790   -9.1470   28.5620 C   0  0  0  0  0
   80.1100   -8.8180   27.4060 C   0  0  0  0  0
   80.4270   -9.7520   26.3000 C   0  0  0  0  0
   80.8040  -11.6890   30.5370 N   0  0  0  0  0
   80.0810  -12.4240   31.5590 C   0  0  0  0  0
   80.2330  -11.7220   32.8980 C   0  0  0  0  0
   81.3210  -11.2400   33.2450 O   0  0  0  0  0
   80.5990  -13.8650   31.6860 C   0  0  0  0  0
   79.1430  -11.6880   33.6570 N   0  0  0  0  0
   79.1370  -11.0760   34.9740 C   0  0  0  0  0
   79.2260  -12.1560   36.0510 C   0  0  0  0  0
   79.0360  -13.3480   35.7950 O   0  0  0  0  0
   77.8620  -10.2460   35.1730 C   0  0  0  0  0
   76.7220  -11.0820   34.9440 O   0  0  0  0  0
   77.8170   -9.0350   34.2120 C   0  0  0  0  0
   79.4960  -11.7130   37.2750 N   0  0  0  0  0
   79.4890  -12.5810   38.4400 C   0  0  0  0  0
   80.2770  -13.8540   38.2380 C   0  0  0  0  0
   79.7060  -14.8750   37.8590 O   0  0  0  0  0
   81.4880  -13.8660   38.4530 O   0  0  0  0  0
  114.2789  -27.9109   16.3948 H   0  0  0  0  0
  112.9170  -27.9627   15.4360 H   0  0  0  0  0
  114.2894  -27.1892   14.8929 H   0  0  0  0  0
  114.1130  -25.5356   16.5732 H   0  0  0  0  0
  113.0431  -25.1651   14.4386 H   0  0  0  0  0
  112.0583  -24.4648   15.8151 H   0  0  0  0  0
  110.3633  -25.8476   15.4660 H   0  0  0  0  0
  111.4228  -27.1563   14.8001 H   0  0  0  0  0
  109.9071  -26.2252   13.1209 H   0  0  0  0  0
  111.6679  -25.8931   12.7419 H   0  0  0  0  0
  111.2536  -23.6399   12.8808 H   0  0  0  0  0
  107.4385  -23.9651   14.1993 H   0  0  0  0  0
  108.4520  -25.4106   14.1329 H   0  0  0  0  0
  109.9432  -21.8113   12.9522 H   0  0  0  0  0
  112.6237  -24.5092   18.1632 H   0  0  0  0  0
  111.8121  -26.7006   20.0139 H   0  0  0  0  0
  111.9459  -24.9614   21.7618 H   0  0  0  0  0
  111.7083  -23.0346   20.1335 H   0  0  0  0  0
  113.4445  -23.3157   19.7201 H   0  0  0  0  0
  113.8150  -26.5162   21.3133 H   0  0  0  0  0
  114.4487  -25.4084   20.0714 H   0  0  0  0  0
  114.4425  -24.9173   21.7831 H   0  0  0  0  0
  112.3378  -22.6590   22.4652 H   0  0  0  0  0
  114.0490  -22.9360   22.0578 H   0  0  0  0  0
  113.1897  -21.5294   21.3839 H   0  0  0  0  0
  109.9186  -26.6064   21.2091 H   0  0  0  0  0
  107.6709  -25.5623   19.5959 H   0  0  0  0  0
  107.6989  -27.3161   22.0642 H   0  0  0  0  0
  107.6587  -27.8844   20.3422 H   0  0  0  0  0
  105.5396  -26.7991   20.0388 H   0  0  0  0  0
  105.5784  -26.2559   21.7748 H   0  0  0  0  0
  103.3689  -29.2388   21.5991 H   0  0  0  0  0
  103.3568  -27.5761   21.0020 H   0  0  0  0  0
  106.9110  -23.6294   19.9255 H   0  0  0  0  0
  107.1687  -22.3584   22.6070 H   0  0  0  0  0
  106.7130  -20.3046   21.5428 H   0  0  0  0  0
  106.3043  -21.1728   19.9797 H   0  0  0  0  0
  108.5821  -21.8041   19.7157 H   0  0  0  0  0
  107.9403  -19.6388   18.8376 H   0  0  0  0  0
  108.3551  -18.8694   20.3890 H   0  0  0  0  0
  109.6304  -19.6196   19.3982 H   0  0  0  0  0
  109.0979  -20.3337   22.3509 H   0  0  0  0  0
  109.1928  -22.0943   22.1015 H   0  0  0  0  0
  110.3553  -21.0162   21.2906 H   0  0  0  0  0
  105.3638  -21.9483   23.8300 H   0  0  0  0  0
  102.8722  -23.1635   22.7847 H   0  0  0  0  0
  102.0283  -23.0939   24.9943 H   0  0  0  0  0
  103.5471  -22.1633   25.5310 H   0  0  0  0  0
  103.2515  -24.5949   26.1534 H   0  0  0  0  0
  104.8366  -24.0104   25.3601 H   0  0  0  0  0
  101.6358  -26.3416   25.1040 H   0  0  0  0  0
  101.3343  -25.1778   23.7904 H   0  0  0  0  0
  101.7509  -26.8659   23.4061 H   0  0  0  0  0
  100.8836  -22.0604   22.7866 H   0  0  0  0  0
  101.0222  -19.1032   23.1700 H   0  0  0  0  0
   99.7119  -18.7344   21.1433 H   0  0  0  0  0
   99.4805  -20.5685   19.6847 H   0  0  0  0  0
  102.1518  -18.6307   20.9878 H   0  0  0  0  0
  102.2095  -20.3746   20.6323 H   0  0  0  0  0
  101.4429  -19.2556   19.4786 H   0  0  0  0  0
   99.0591  -18.1747   23.8296 H   0  0  0  0  0
   97.0336  -20.0371   24.8595 H   0  0  0  0  0
   95.8977  -18.0399   25.6515 H   0  0  0  0  0
   97.1119  -17.0167   24.7414 H   0  0  0  0  0
   98.8507  -17.7662   26.1799 H   0  0  0  0  0
   97.7405  -18.8903   27.0130 H   0  0  0  0  0
   96.3908  -17.0069   27.7912 H   0  0  0  0  0
   97.4686  -15.8666   26.9251 H   0  0  0  0  0
   99.3484  -16.8748   28.2813 H   0  0  0  0  0
   98.0244  -17.5807   29.3203 H   0  0  0  0  0
   98.8917  -15.5313   30.2149 H   0  0  0  0  0
   98.5057  -14.7123   28.8160 H   0  0  0  0  0
   97.2968  -15.3568   29.7647 H   0  0  0  0  0
   95.0571  -20.5053   23.9827 H   0  0  0  0  0
   94.6915  -19.9254   21.1785 H   0  0  0  0  0
   93.7478  -21.9291   22.2134 H   0  0  0  0  0
   92.6782  -20.9198   23.2175 H   0  0  0  0  0
   92.4772  -20.9434   21.4483 H   0  0  0  0  0
   93.5459  -18.3734   20.1585 H   0  0  0  0  0
   92.4789  -16.1377   21.8243 H   0  0  0  0  0
   94.1487  -15.5593   20.1109 H   0  0  0  0  0
   93.1240  -16.2954   18.8541 H   0  0  0  0  0
   92.5639  -14.8456   19.7234 H   0  0  0  0  0
   90.3299  -15.7648   21.9946 H   0  0  0  0  0
   88.5558  -16.8180   19.8834 H   0  0  0  0  0
   88.2990  -17.7895   22.7478 H   0  0  0  0  0
   88.8309  -18.7750   21.3214 H   0  0  0  0  0
   86.6156  -18.3231   20.2900 H   0  0  0  0  0
   86.1099  -17.5576   21.8462 H   0  0  0  0  0
   86.6846  -19.7260   22.9572 H   0  0  0  0  0
   86.8602  -20.4312   21.3226 H   0  0  0  0  0
   84.5439  -20.2825   21.0024 H   0  0  0  0  0
   83.8497  -18.6898   24.6591 H   0  0  0  0  0
   85.5141  -18.7993   24.0767 H   0  0  0  0  0
   82.4452  -20.1086   21.7613 H   0  0  0  0  0
   86.8721  -15.5054   19.5585 H   0  0  0  0  0
   86.3273  -13.3346   21.4125 H   0  0  0  0  0
   84.7025  -14.4100   19.0910 H   0  0  0  0  0
   85.9028  -13.0441   19.0504 H   0  0  0  0  0
   84.4748  -11.5941   20.1298 H   0  0  0  0  0
   83.5063  -12.9381   20.8673 H   0  0  0  0  0
   82.2688  -11.6779   19.1355 H   0  0  0  0  0
   82.4972  -13.4054   18.7266 H   0  0  0  0  0
   84.1140  -12.9444   17.1520 H   0  0  0  0  0
   84.4023  -11.2888   17.8082 H   0  0  0  0  0
   83.1747  -11.2416   15.7487 H   0  0  0  0  0
   81.9735  -12.1975   16.3972 H   0  0  0  0  0
   82.2398  -10.6682   17.0033 H   0  0  0  0  0
   84.8300  -13.2191   23.0116 H   0  0  0  0  0
   82.7864  -15.3539   23.3090 H   0  0  0  0  0
   84.8177  -14.8610   25.4786 H   0  0  0  0  0
   84.7401  -16.3127   24.4125 H   0  0  0  0  0
   83.6814  -16.6309   26.4471 H   0  0  0  0  0
   80.9778  -14.4572   24.3550 H   0  0  0  0  0
   80.8997  -11.6092   24.5007 H   0  0  0  0  0
   78.8846  -12.9710   24.0912 H   0  0  0  0  0
   79.0105  -13.6674   25.7252 H   0  0  0  0  0
   78.6587  -11.9338   25.5210 H   0  0  0  0  0
   82.2464  -10.8555   28.7162 H   0  0  0  0  0
   81.7789   -8.5358   28.6299 H   0  0  0  0  0
   80.3237   -8.9519   29.4795 H   0  0  0  0  0
   80.3494   -7.8011   27.0949 H   0  0  0  0  0
   79.0500   -8.8965   27.6475 H   0  0  0  0  0
   79.5601   -9.9896   25.6834 H   0  0  0  0  0
   81.1284   -9.3330   25.5785 H   0  0  0  0  0
   81.7164  -11.2998   30.7748 H   0  0  0  0  0
   79.0313  -12.4582   31.2673 H   0  0  0  0  0
   80.4726  -14.3804   30.7339 H   0  0  0  0  0
   81.6554  -13.8477   31.9538 H   0  0  0  0  0
   80.0351  -14.3855   32.4601 H   0  0  0  0  0
   78.2822  -12.1054   33.3031 H   0  0  0  0  0
   80.0007  -10.4160   35.0552 H   0  0  0  0  0
   77.8554   -9.8632   36.1935 H   0  0  0  0  0
   75.9202  -10.5686   35.0669 H   0  0  0  0  0
   78.6788   -8.3937   34.3970 H   0  0  0  0  0
   77.8409   -9.3895   33.1815 H   0  0  0  0  0
   76.8998   -8.4713   34.3826 H   0  0  0  0  0
   79.7167  -10.7252   37.4011 H   0  0  0  0  0
   78.4542  -12.8608   38.6374 H   0  0  0  0  0
   79.9500  -12.0340   39.2624 H   0  0  0  0  0
   81.7696  -12.9941   38.7395 H   0  0  0  0  0
  1  2  1  0  0  0
  2  3  1  0  0  0
  2  5  1  0  0  0
  3  4  2  0  0  0
  3 12  1  0  0  0
  5  6  1  0  0  0
  6  7  1  0  0  0
  7  8  1  0  0  0
  8  9  1  0  0  0
  9 10  1  0  0  0
  9 11  2  0  0  0
 12 13  1  0  0  0
 13 14  1  0  0  0
 13 16  1  0  0  0
 14 15  2  0  0  0
 14 20  1  0  0  0
 16 17  1  0  0  0
 16 18  1  0  0  0
 17 19  1  0  0  0
 20 21  1  0  0  0
 21 22  1  0  0  0
 21 24  1  0  0  0
 22 23  2  0  0  0
 22 29  1  0  0  0
 24 25  1  0  0  0
 25 26  1  0  0  0
 26 27  2  0  0  0
 26 28  1  0  0  0
 29 30  1  0  0  0
 30 31  1  0  0  0
 30 33  1  0  0  0
 31 32  2  0  0  0
 31 37  1  0  0  0
 33 34  1  0  0  0
 34 35  1  0  0  0
 34 36  1  0  0  0
 37 38  1  0  0  0
 38 39  1  0  0  0
 38 41  1  0  0  0
 39 40  2  0  0  0
 39 45  1  0  0  0
 41 42  1  0  0  0
 42 43  1  0  0  0
 43 44  1  0  0  0
 45 46  1  0  0  0
 46 47  1  0  0  0
 46 49  1  0  0  0
 47 48  2  0  0  0
 47 52  1  0  0  0
 49 50  1  0  0  0
 49 51  1  0  0  0
 52 53  1  0  0  0
 53 54  1  0  0  0
 53 56  1  0  0  0
 54 55  2  0  0  0
 54 61  1  0  0  0
 56 57  1  0  0  0
 57 58  1  0  0  0
 58 59  1  0  0  0
 59 60  1  0  0  0
 61 62  1  0  0  0
 62 63  1  0  0  0
 62 65  1  0  0  0
 63 64  2  0  0  0
 63 66  1  0  0  0
 66 67  1  0  0  0
 67 68  1  0  0  0
 67 70  1  0  0  0
 68 69  2  0  0  0
 68 71  1  0  0  0
 71 72  1  0  0  0
 72 73  1  0  0  0
 72 75  1  0  0  0
 73 74  2  0  0  0
 73 82  1  0  0  0
 75 76  1  0  0  0
 76 77  1  0  0  0
 77 78  1  0  0  0
 78 79  1  0  0  0
 79 80  1  0  0  0
 79 81  2  0  0  0
 82 83  1  0  0  0
 83 84  1  0  0  0
 83 86  1  0  0  0
 84 85  2  0  0  0
 84 91  1  0  0  0
 86 87  1  0  0  0
 87 88  1  0  0  0
 88 89  1  0  0  0
 89 90  1  0  0  0
 91 92  1  0  0  0
 92 93  1  0  0  0
 92 95  1  0  0  0
 93 94  2  0  0  0
 93 97  1  0  0  0
 95 96  1  0  0  0
 97 98  1  0  0  0
 98 99  1  0  0  0
 98101  1  0  0  0
 99100  2  0  0  0
 99102  1  0  0  0
102103  1  0  0  0
102108  1  0  0  0
103104  1  0  0  0
103106  1  0  0  0
104105  2  0  0  0
104109  1  0  0  0
106107  1  0  0  0
107108  1  0  0  0
109110  1  0  0  0
110111  1  0  0  0
110113  1  0  0  0
111112  2  0  0  0
111114  1  0  0  0
114115  1  0  0  0
115116  1  0  0  0
115118  1  0  0  0
116117  2  0  0  0
116121  1  0  0  0
118119  1  0  0  0
118120  1  0  0  0
121122  1  0  0  0
122123  1  0  0  0
123124  2  0  0  0
123125  1  0  0  0
  1126  1  0  0  0
  1127  1  0  0  0
  1128  1  0  0  0
  2129  1  0  0  0
  5130  1  0  0  0
  5131  1  0  0  0
  6132  1  0  0  0
  6133  1  0  0  0
  7134  1  0  0  0
  7135  1  0  0  0
  8136  1  0  0  0
 10137  1  0  0  0
 10138  1  0  0  0
 11139  1  0  0  0
 12140  1  0  0  0
 13141  1  0  0  0
 16142  1  0  0  0
 17143  1  0  0  0
 17144  1  0  0  0
 18145  1  0  0  0
 18146  1  0  0  0
 18147  1  0  0  0
 19148  1  0  0  0
 19149  1  0  0  0
 19150  1  0  0  0
 20151  1  0  0  0
 21152  1  0  0  0
 24153  1  0  0  0
 24154  1  0  0  0
 25155  1  0  0  0
 25156  1  0  0  0
 28157  1  0  0  0
 28158  1  0  0  0
 29159  1  0  0  0
 30160  1  0  0  0
 33161  1  0  0  0
 33162  1  0  0  0
 34163  1  0  0  0
 35164  1  0  0  0
 35165  1  0  0  0
 35166  1  0  0  0
 36167  1  0  0  0
 36168  1  0  0  0
 36169  1  0  0  0
 37170  1  0  0  0
 38171  1  0  0  0
 41172  1  0  0  0
 41173  1  0  0  0
 42174  1  0  0  0
 42175  1  0  0  0
 44176  1  0  0  0
 44177  1  0  0  0
 44178  1  0  0  0
 45179  1  0  0  0
 46180  1  0  0  0
 49181  1  0  0  0
 50182  1  0  0  0
 51183  1  0  0  0
 51184  1  0  0  0
 51185  1  0  0  0
 52186  1  0  0  0
 53187  1  0  0  0
 56188  1  0  0  0
 56189  1  0  0  0
 57190  1  0  0  0
 57191  1  0  0  0
 58192  1  0  0  0
 58193  1  0  0  0
 59194  1  0  0  0
 59195  1  0  0  0
 60196  1  0  0  0
 60197  1  0  0  0
 60198  1  0  0  0
 61199  1  0  0  0
 62200  1  0  0  0
 65201  1  0  0  0
 65202  1  0  0  0
 65203  1  0  0  0
 66204  1  0  0  0
 67205  1  0  0  0
 70206  1  0  0  0
 70207  1  0  0  0
 70208  1  0  0  0
 71209  1  0  0  0
 72210  1  0  0  0
 75211  1  0  0  0
 75212  1  0  0  0
 76213  1  0  0  0
 76214  1  0  0  0
 77215  1  0  0  0
 77216  1  0  0  0
 78217  1  0  0  0
 80218  1  0  0  0
 80219  1  0  0  0
 81220  1  0  0  0
 82221  1  0  0  0
 83222  1  0  0  0
 86223  1  0  0  0
 86224  1  0  0  0
 87225  1  0  0  0
 87226  1  0  0  0
 88227  1  0  0  0
 88228  1  0  0  0
 89229  1  0  0  0
 89230  1  0  0  0
 90231  1  0  0  0
 90232  1  0  0  0
 90233  1  0  0  0
 91234  1  0  0  0
 92235  1  0  0  0
 95236  1  0  0  0
 95237  1  0  0  0
 96238  1  0  0  0
 97239  1  0  0  0
 98240  1  0  0  0
101241  1  0  0  0
101242  1  0  0  0
101243  1  0  0  0
103244  1  0  0  0
106245  1  0  0  0
106246  1  0  0  0
107247  1  0  0  0
107248  1  0  0  0
108249  1  0  0  0
108250  1  0  0  0
109251  1  0  0  0
110252  1  0  0  0
113253  1  0  0  0
113254  1  0  0  0
113255  1  0  0  0
114256  1  0  0  0
115257  1  0  0  0
118258  1  0  0  0
119259  1  0  0  0
120260  1  0  0  0
120261  1  0  0  0
120262  1  0  0  0
121263  1  0  0  0
122264  1  0  0  0
122265  1  0  0  0
125266  1  0  0  0
M  END
$$$$
