4di2_ligand
  -I-interpret- 

 87 91  0  0  0  0  0  0  0  0999 V2000
   27.5020    0.2960   11.6700 C   0  0  0  0  0
   28.0810   -1.0320   11.1450 C   0  0  0  0  0
   29.2960   -0.2830   10.5860 C   0  0  0  0  0
   28.7770    1.0150   11.2310 C   0  0  0  0  0
   29.6360    1.4710   12.4240 C   0  0  0  0  0
   28.4980    2.0840   10.3030 O   0  0  0  0  0
   29.5780    2.8130    9.9040 C   0  0  0  0  0
   29.4230    3.5570    8.7930 N   0  0  0  0  0
   30.4070    4.3020    8.3130 C   0  0  0  0  0
   31.6490    4.3450    8.9440 C   0  0  0  0  0
   32.7720    5.2070    8.3370 C   0  0  0  0  0
   33.5630    4.4350    7.2380 C   0  0  0  0  0
   32.6220    3.7560    6.2300 C   0  0  0  0  0
   34.4850    3.3860    7.8570 C   0  0  0  0  0
   34.4350    5.4190    6.4540 C   0  0  0  0  0
   31.8550    3.5890   10.1020 C   0  0  0  0  0
   30.8030    2.8160   10.6060 C   0  0  0  0  0
   30.9990    1.9730   11.8970 C   0  0  0  0  0
   31.7140    2.7350   12.9620 N   0  3  0  0  0
   31.0660    4.0210   13.3300 C   0  0  0  0  0
   32.1010    4.9720   13.9810 C   0  0  0  0  0
   33.2450    5.0620   13.1410 O   0  0  0  0  0
   31.5700    6.4040   14.2400 C   0  0  0  0  0
   30.2940    6.3690   14.9830 N   0  0  0  0  0
   29.1130    6.5630   14.3880 C   0  0  0  0  0
   28.9900    6.7860   13.1830 O   0  0  0  0  0
   27.8340    6.5140   15.2230 C   0  0  0  0  0
   27.2390    5.1100   15.1770 C   0  0  0  0  0
   28.1260    6.8720   16.5750 O   0  0  0  0  0
   27.8590    8.2570   16.7610 C   0  0  0  0  0
   32.6220    7.2620   14.9790 C   0  0  0  0  0
   32.0680    8.5880   15.5200 C   0  0  0  0  0
   31.5920    8.6330   16.8270 C   0  0  0  0  0
   32.0380    9.7420   14.7370 C   0  0  0  0  0
   31.5230   10.9300   15.2700 C   0  0  0  0  0
   31.0440   10.9650   16.5860 C   0  0  0  0  0
   31.0880    9.8050   17.3710 C   0  0  0  0  0
   30.5850    9.7720   18.6730 C   0  0  0  0  0
   29.5530   10.4620   19.1700 N   0  0  0  0  0
   29.2560   10.1980   20.4580 C   0  0  0  0  0
   30.0150    9.2690   21.0590 C   0  0  0  0  0
   31.1360    8.7330   19.9090 S   0  0  0  0  0
   27.1560    0.3738   12.7007 H   0  0  0  0  0
   26.5291    0.6448   11.3238 H   0  0  0  0  0
   27.4831   -1.6654   10.4897 H   0  0  0  0  0
   28.2245   -1.8706   11.8264 H   0  0  0  0  0
   29.5185   -0.3156    9.5195 H   0  0  0  0  0
   30.3049   -0.6367   10.7984 H   0  0  0  0  0
   29.7902    0.6359   13.1073 H   0  0  0  0  0
   29.1286    2.2749   12.9573 H   0  0  0  0  0
   30.2431    4.8907    7.4104 H   0  0  0  0  0
   33.4658    5.4768    9.1333 H   0  0  0  0  0
   32.3198    6.0871    7.8798 H   0  0  0  0  0
   31.9812    3.0468    6.7539 H   0  0  0  0  0
   32.0067    4.5124    5.7428 H   0  0  0  0  0
   33.2131    3.2290    5.4811 H   0  0  0  0  0
   35.1976    3.8764    8.5202 H   0  0  0  0  0
   33.8900    2.6713    8.4256 H   0  0  0  0  0
   35.0230    2.8644    7.0654 H   0  0  0  0  0
   33.8005    6.1716    5.9860 H   0  0  0  0  0
   35.1349    5.9041    7.1344 H   0  0  0  0  0
   34.9883    4.8795    5.6853 H   0  0  0  0  0
   32.8218    3.6016   10.6053 H   0  0  0  0  0
   31.6206    1.1173   11.6335 H   0  0  0  0  0
   32.6418    2.9577   12.6015 H   0  0  0  0  0
   31.7197    2.1507   13.7980 H   0  0  0  0  0
   30.2629    3.8262   14.0407 H   0  0  0  0  0
   30.6656    4.4897   12.4311 H   0  0  0  0  0
   32.3390    4.5412   14.9535 H   0  0  0  0  0
   33.8890    5.6508   13.5413 H   0  0  0  0  0
   31.3806    6.8707   13.2734 H   0  0  0  0  0
   30.3148    6.1902   15.9870 H   0  0  0  0  0
   27.1123    7.2206   14.8133 H   0  0  0  0  0
   27.0059    4.8492   14.1446 H   0  0  0  0  0
   27.9597    4.3980   15.5791 H   0  0  0  0  0
   26.3277    5.0832   15.7745 H   0  0  0  0  0
   28.4839    8.8402   16.0846 H   0  0  0  0  0
   26.8084    8.4549   16.5485 H   0  0  0  0  0
   28.0809    8.5333   17.7918 H   0  0  0  0  0
   33.4062    7.5049   14.2620 H   0  0  0  0  0
   32.9729    6.6829   15.8331 H   0  0  0  0  0
   31.6158    7.7289   17.4354 H   0  0  0  0  0
   32.4140    9.7191   13.7142 H   0  0  0  0  0
   31.4947   11.8317   14.6582 H   0  0  0  0  0
   30.6392   11.8897   16.9972 H   0  0  0  0  0
   28.4472   10.7089   20.9804 H   0  0  0  0  0
   29.9268    8.9254   22.0897 H   0  0  0  0  0
  1  2  1  0  0  0
  1  4  1  0  0  0
  2  3  1  0  0  0
  3  4  1  0  0  0
  4  5  1  0  0  0
  4  6  1  0  0  0
  5 18  1  0  0  0
  6  7  1  0  0  0
  7  8  4  0  0  0
  7 17  4  0  0  0
  8  9  4  0  0  0
  9 10  4  0  0  0
 10 11  1  0  0  0
 10 16  4  0  0  0
 11 12  1  0  0  0
 12 13  1  0  0  0
 12 14  1  0  0  0
 12 15  1  0  0  0
 16 17  4  0  0  0
 17 18  1  0  0  0
 18 19  1  0  0  0
 19 20  1  0  0  0
 20 21  1  0  0  0
 21 22  1  0  0  0
 21 23  1  0  0  0
 23 24  1  0  0  0
 23 31  1  0  0  0
 24 25  1  0  0  0
 25 26  2  0  0  0
 25 27  1  0  0  0
 27 28  1  0  0  0
 27 29  1  0  0  0
 29 30  1  0  0  0
 31 32  1  0  0  0
 32 33  4  0  0  0
 32 34  4  0  0  0
 33 37  4  0  0  0
 34 35  4  0  0  0
 35 36  4  0  0  0
 36 37  4  0  0  0
 37 38  1  0  0  0
 38 39  4  0  0  0
 38 42  4  0  0  0
 39 40  4  0  0  0
 40 41  4  0  0  0
 41 42  4  0  0  0
  1 43  1  0  0  0
  1 44  1  0  0  0
  2 45  1  0  0  0
  2 46  1  0  0  0
  3 47  1  0  0  0
  3 48  1  0  0  0
  5 49  1  0  0  0
  5 50  1  0  0  0
  9 51  1  0  0  0
 11 52  1  0  0  0
 11 53  1  0  0  0
 13 54  1  0  0  0
 13 55  1  0  0  0
 13 56  1  0  0  0
 14 57  1  0  0  0
 14 58  1  0  0  0
 14 59  1  0  0  0
 15 60  1  0  0  0
 15 61  1  0  0  0
 15 62  1  0  0  0
 16 63  1  0  0  0
 18 64  1  0  0  0
 19 65  1  0  0  0
 19 66  1  0  0  0
 20 67  1  0  0  0
 20 68  1  0  0  0
 21 69  1  0  0  0
 22 70  1  0  0  0
 23 71  1  0  0  0
 24 72  1  0  0  0
 27 73  1  0  0  0
 28 74  1  0  0  0
 28 75  1  0  0  0
 28 76  1  0  0  0
 30 77  1  0  0  0
 30 78  1  0  0  0
 30 79  1  0  0  0
 31 80  1  0  0  0
 31 81  1  0  0  0
 33 82  1  0  0  0
 34 83  1  0  0  0
 35 84  1  0  0  0
 36 85  1  0  0  0
 40 86  1  0  0  0
 41 87  1  0  0  0
M  END
$$$$
