4hvh_ligand
  -I-interpret- 

 40 42  0  0  0  0  0  0  0  0999 V2000
   -2.6400  -15.4800   -3.0690 C   0  0  0  0  0
   -1.6140  -16.2060   -3.6600 C   0  0  0  0  0
   -0.5440  -15.5790   -4.1140 N   0  0  0  0  0
   -2.5860  -14.1620   -2.9550 N   0  0  0  0  0
   -1.5190  -13.5090   -3.4130 C   0  0  0  0  0
   -0.4650  -14.2450   -4.0070 C   0  0  0  0  0
    0.5350  -13.2440   -4.3840 C   0  0  0  0  0
    0.0410  -12.0250   -4.0130 C   0  0  0  0  0
   -1.1700  -12.1780   -3.4340 N   0  0  0  0  0
    1.8090  -13.4930   -5.0660 C   0  0  0  0  0
    2.6070  -12.5790   -5.2010 O   0  0  0  0  0
   -1.7520  -17.7060   -3.7520 C   0  0  0  0  0
    2.0350  -14.7320   -5.5540 N   0  0  0  0  0
   -1.0660  -18.4290   -4.9170 C   0  0  0  0  0
   -0.5140  -18.5650   -3.4910 C   0  0  0  0  0
    3.2530  -15.1170   -6.2850 C   0  0  0  0  0
    3.6120  -16.5860   -5.9860 C   0  0  0  0  0
    4.6920  -17.0810   -6.9600 C   0  0  0  0  0
    4.1230  -16.7180   -4.5460 C   0  0  0  0  0
    2.4530  -17.4070   -6.1070 O   0  0  0  0  0
    2.9780  -14.9270   -7.7850 C   0  0  0  0  0
   -3.5134  -16.0097   -2.6887 H   0  0  0  0  0
    0.5482  -11.0718   -4.1620 H   0  0  0  0  0
   -2.7665  -17.6764   -3.3546 H   0  0  0  0  0
    1.3188  -15.4433   -5.4071 H   0  0  0  0  0
   -0.7004  -18.2047   -5.9191 H   0  0  0  0  0
   -1.3358  -19.0708   -5.7557 H   0  0  0  0  0
   -0.1957  -19.3541   -2.8097 H   0  0  0  0  0
    0.4421  -18.4847   -2.9737 H   0  0  0  0  0
    4.0953  -14.4989   -5.9743 H   0  0  0  0  0
    4.3198  -17.0063   -7.9817 H   0  0  0  0  0
    5.5860  -16.4669   -6.8518 H   0  0  0  0  0
    4.9338  -18.1198   -6.7350 H   0  0  0  0  0
    5.0104  -16.0981   -4.4185 H   0  0  0  0  0
    3.3466  -16.3899   -3.8548 H   0  0  0  0  0
    4.3738  -17.7595   -4.3449 H   0  0  0  0  0
    2.6871  -18.3188   -5.9190 H   0  0  0  0  0
    2.1412  -15.5589   -8.0826 H   0  0  0  0  0
    2.7333  -13.8827   -7.9788 H   0  0  0  0  0
    3.8652  -15.2052   -8.3538 H   0  0  0  0  0
  1  2  4  0  0  0
  1  4  4  0  0  0
  2  3  4  0  0  0
  2 12  1  0  0  0
  3  6  4  0  0  0
  4  5  4  0  0  0
  5  6  4  0  0  0
  5  9  4  0  0  0
  6  7  4  0  0  0
  7  8  4  0  0  0
  7 10  1  0  0  0
  8  9  4  0  0  0
 10 11  2  0  0  0
 10 13  1  0  0  0
 12 14  1  0  0  0
 12 15  1  0  0  0
 13 16  1  0  0  0
 14 15  1  0  0  0
 16 17  1  0  0  0
 16 21  1  0  0  0
 17 18  1  0  0  0
 17 19  1  0  0  0
 17 20  1  0  0  0
  1 22  1  0  0  0
  8 23  1  0  0  0
 12 24  1  0  0  0
 13 25  1  0  0  0
 14 26  1  0  0  0
 14 27  1  0  0  0
 15 28  1  0  0  0
 15 29  1  0  0  0
 16 30  1  0  0  0
 18 31  1  0  0  0
 18 32  1  0  0  0
 18 33  1  0  0  0
 19 34  1  0  0  0
 19 35  1  0  0  0
 19 36  1  0  0  0
 20 37  1  0  0  0
 21 38  1  0  0  0
 21 39  1  0  0  0
 21 40  1  0  0  0
M  END
$$$$
