1j16_ligand
  -I-interpret- 

 17 17  0  0  0  0  0  0  0  0999 V2000
    7.6690   49.7290   54.9860 C   0  0  0  0  0
    7.6600   48.5450   54.2340 C   0  0  0  0  0
    7.7490   47.2910   54.8600 C   0  0  0  0  0
    7.7720   47.2190   56.2540 C   0  0  0  0  0
    7.8360   48.3980   57.0080 C   0  0  0  0  0
    7.7690   49.6510   56.3800 C   0  0  0  0  0
    7.4610   51.0660   54.3070 C   0  0  0  0  0
    7.0030   52.0820   54.9990 N   0  0  0  0  0
    7.7540   51.1930   53.0390 N   0  0  0  0  0
    7.5828   48.5990   53.1481 H   0  0  0  0  0
    7.7997   46.3810   54.2621 H   0  0  0  0  0
    7.7403   46.2505   56.7532 H   0  0  0  0  0
    7.9387   48.3415   58.0917 H   0  0  0  0  0
    7.7948   50.5626   56.9770 H   0  0  0  0  0
    6.8707   52.9876   54.5487 H   0  0  0  0  0
    6.7792   51.9664   55.9874 H   0  0  0  0  0
    7.6274   52.0919   52.5738 H   0  0  0  0  0
  7  1  1  0  0  0
  1  6  4  0  0  0
  1  2  4  0  0  0
  2  3  4  0  0  0
  3  4  4  0  0  0
  4  5  4  0  0  0
  6  5  4  0  0  0
  7  9  2  0  0  0
  7  8  1  0  0  0
  2 10  1  0  0  0
  3 11  1  0  0  0
  4 12  1  0  0  0
  5 13  1  0  0  0
  6 14  1  0  0  0
  8 15  1  0  0  0
  8 16  1  0  0  0
  9 17  1  0  0  0
M  END
$$$$
