2ggx_ligand
  -I-interpret- 

 57 59  0  0  0  0  0  0  0  0999 V2000
   36.9130   53.9980    1.4270 C   0  0  0  0  0
   38.1000   54.6440    0.6670 C   0  0  0  0  0
   39.2360   53.5790    0.5300 C   0  0  0  0  0
   39.6890   53.1750    1.9480 C   0  0  0  0  0
   38.4590   52.5670    2.6910 C   0  0  0  0  0
   38.8710   52.1710    4.1100 C   0  0  0  0  0
   36.4610   52.8670    0.6530 O   0  0  0  0  0
   37.6500   55.0420   -0.6330 O   0  0  0  0  0
   40.3550   54.1430   -0.1670 O   0  0  0  0  0
   40.7430   52.1890    1.8420 O   0  0  0  0  0
   37.3720   53.5690    2.7720 O   0  0  0  0  0
   37.7220   51.6630    4.8010 O   0  0  0  0  0
   32.5130   51.6670   -0.5720 C   0  0  0  0  0
   32.8660   53.1590   -0.6730 C   0  0  0  0  0
   34.3920   53.3130   -0.6680 C   0  0  0  0  0
   34.9400   52.7000    0.6420 C   0  0  0  0  0
   34.5240   51.2090    0.6770 C   0  0  0  0  0
   35.0510   50.5760    1.9660 C   0  0  0  0  0
   32.9920   50.9400   -1.7130 O   0  0  0  0  0
   32.3270   53.7030   -1.8830 O   0  0  0  0  0
   34.7360   54.7050   -0.7490 O   0  0  0  0  0
   33.0700   51.0930    0.6540 O   0  0  0  0  0
   34.6790   49.1950    2.0080 O   0  0  0  0  0
   32.1040   47.2350   -3.6410 C   0  0  0  0  0
   31.7580   47.4590   -2.2620 C   0  0  0  0  0
   32.0580   48.6660   -1.6590 C   0  0  0  0  0
   32.7080   49.6960   -2.3900 C   0  0  0  0  0
   33.0620   49.5020   -3.7510 C   0  0  0  0  0
   32.7680   48.2900   -4.3770 C   0  0  0  0  0
   31.8020   46.0430   -4.2280 N   0  0  0  0  0
   32.0850   45.8300   -5.3970 O   0  0  0  0  0
   31.2400   45.1670   -3.5870 O   0  0  0  0  0
   36.0930   54.7044    1.5567 H   0  0  0  0  0
   38.4752   55.5153    1.2038 H   0  0  0  0  0
   38.8669   52.7155   -0.0234 H   0  0  0  0  0
   40.0659   54.0371    2.4983 H   0  0  0  0  0
   38.1087   51.6924    2.1429 H   0  0  0  0  0
   39.2635   53.0409    4.6366 H   0  0  0  0  0
   39.6455   51.4051    4.0692 H   0  0  0  0  0
   36.9528   55.6957   -0.5428 H   0  0  0  0  0
   40.0838   54.3982   -1.0518 H   0  0  0  0  0
   41.4941   52.5731    1.3838 H   0  0  0  0  0
   37.9717   51.4118    5.6933 H   0  0  0  0  0
   31.4265   51.5837   -0.5453 H   0  0  0  0  0
   32.4410   53.6955    0.1753 H   0  0  0  0  0
   34.8283   52.7990   -1.5245 H   0  0  0  0  0
   34.5385   53.1950    1.5262 H   0  0  0  0  0
   34.9390   50.7008   -0.1934 H   0  0  0  0  0
   34.6235   51.0930    2.8251 H   0  0  0  0  0
   36.1374   50.6599    1.9934 H   0  0  0  0  0
   32.5504   54.6348   -1.9409 H   0  0  0  0  0
   35.6915   54.7981   -0.7457 H   0  0  0  0  0
   35.0107   48.7999    2.8176 H   0  0  0  0  0
   31.2585   46.6754   -1.6922 H   0  0  0  0  0
   31.7937   48.8288   -0.6141 H   0  0  0  0  0
   33.5616   50.2968   -4.3049 H   0  0  0  0  0
   33.0387   48.1374   -5.4218 H   0  0  0  0  0
  1  2  1  0  0  0
  7  1  1  0  0  0
  1 11  1  0  0  0
  2  3  1  0  0  0
  2  8  1  0  0  0
  3  4  1  0  0  0
  3  9  1  0  0  0
  5  4  1  0  0  0
  4 10  1  0  0  0
  5  6  1  0  0  0
 11  5  1  0  0  0
  6 12  1  0  0  0
 16  7  1  0  0  0
 13 14  1  0  0  0
 19 13  1  0  0  0
 13 22  1  0  0  0
 14 15  1  0  0  0
 14 20  1  0  0  0
 15 16  1  0  0  0
 15 21  1  0  0  0
 17 16  1  0  0  0
 17 18  1  0  0  0
 22 17  1  0  0  0
 18 23  1  0  0  0
 27 19  1  0  0  0
 25 24  4  0  0  0
 24 29  4  0  0  0
 24 30  1  0  0  0
 26 25  4  0  0  0
 26 27  4  0  0  0
 27 28  4  0  0  0
 28 29  4  0  0  0
 30 31  2  0  0  0
 30 32  2  0  0  0
  1 33  1  0  0  0
  2 34  1  0  0  0
  3 35  1  0  0  0
  4 36  1  0  0  0
  5 37  1  0  0  0
  6 38  1  0  0  0
  6 39  1  0  0  0
  8 40  1  0  0  0
  9 41  1  0  0  0
 10 42  1  0  0  0
 12 43  1  0  0  0
 13 44  1  0  0  0
 14 45  1  0  0  0
 15 46  1  0  0  0
 16 47  1  0  0  0
 17 48  1  0  0  0
 18 49  1  0  0  0
 18 50  1  0  0  0
 20 51  1  0  0  0
 21 52  1  0  0  0
 23 53  1  0  0  0
 25 54  1  0  0  0
 26 55  1  0  0  0
 28 56  1  0  0  0
 29 57  1  0  0  0
M  END
$$$$
