6nri_ligand
  -I-interpret- 

 53 58  0  0  0  0  0  0  0  0999 V2000
   21.1650   -9.7110    6.7740 O   0  0  0  0  0
   22.1740  -10.3250    7.0600 C   0  0  0  0  0
   22.2820  -11.6540    6.8520 N   0  0  0  0  0
   23.3540  -12.4690    7.4210 C   0  0  0  0  0
   22.5690  -13.0930    8.5390 C   0  0  0  0  0
   22.9340  -13.2840    9.7830 N   0  0  0  0  0
   21.8530  -13.8730   10.4390 N   0  0  0  0  0
   20.8880  -14.0130    9.5560 C   0  0  0  0  0
   19.5470  -14.6330    9.8090 C   0  0  0  0  0
   19.0630  -15.7450    8.9160 C   0  0  0  0  0
   19.4230  -16.0440   10.3190 C   0  0  0  0  0
   21.2820  -13.5260    8.3310 N   0  0  0  0  0
   20.5580  -13.4180    7.0460 C   0  0  0  0  0
   21.2820  -12.4420    6.1160 C   0  0  0  0  0
   23.3800   -9.5650    7.5110 C   0  0  0  0  0
   24.4940   -9.5190    6.6770 C   0  0  0  0  0
   25.6050   -8.7740    7.0230 C   0  0  0  0  0
   23.4150   -8.8510    8.7060 C   0  0  0  0  0
   24.5210   -8.0880    9.0410 C   0  0  0  0  0
   25.6360   -8.0210    8.1980 C   0  0  0  0  0
   26.8360   -7.2160    8.3870 C   0  0  0  0  0
   27.1690   -6.3200    9.3190 C   0  0  0  0  0
   28.2860   -5.3780    9.2480 C   0  0  0  0  0
   29.1250   -5.3020    8.3510 O   0  0  0  0  0
   26.4370   -6.0700   10.4640 O   0  0  0  0  0
   27.0190   -5.0170   11.1440 C   0  0  0  0  0
   26.6630   -4.4740   12.3830 C   0  0  0  0  0
   25.5040   -4.9280   13.2070 C   0  0  0  0  0
   25.1670   -4.2690   14.2050 O   0  0  0  0  0
   24.8700   -6.0420   12.8310 N   0  0  0  0  0
   28.1360   -4.5490   10.4630 C   0  0  0  0  0
   28.9230   -3.5460   11.0200 C   0  0  0  0  0
   28.5780   -3.0110   12.2500 C   0  0  0  0  0
   27.4570   -3.4600   12.9210 C   0  0  0  0  0
   24.2488  -11.9243    7.7223 H   0  0  0  0  0
   23.8282  -13.1685    6.7326 H   0  0  0  0  0
   19.1698  -13.6634   10.1340 H   0  0  0  0  0
   18.7066  -16.0834    7.9431 H   0  0  0  0  0
   19.5247  -16.7633   11.1317 H   0  0  0  0  0
   19.5486  -13.0520    7.2334 H   0  0  0  0  0
   20.5181  -14.3996    6.5739 H   0  0  0  0  0
   21.7902  -13.0124    5.3385 H   0  0  0  0  0
   20.5483  -11.7605    5.6855 H   0  0  0  0  0
   24.4896  -10.0770    5.7407 H   0  0  0  0  0
   26.4744   -8.7743    6.3655 H   0  0  0  0  0
   22.5631   -8.8931    9.3847 H   0  0  0  0  0
   24.5231   -7.5300    9.9774 H   0  0  0  0  0
   27.6023   -7.3745    7.6282 H   0  0  0  0  0
   24.0746   -6.3831   13.3708 H   0  0  0  0  0
   25.1813   -6.5516   12.0041 H   0  0  0  0  0
   29.8051   -3.1837   10.4920 H   0  0  0  0  0
   29.1959   -2.2294   12.6921 H   0  0  0  0  0
   27.1898   -3.0177   13.8807 H   0  0  0  0  0
  1  2  2  0  0  0
  2  3  1  0  0  0
  2 15  1  0  0  0
  3  4  1  0  0  0
  3 14  1  0  0  0
  4  5  1  0  0  0
  5  6  4  0  0  0
  5 12  4  0  0  0
  6  7  4  0  0  0
  7  8  4  0  0  0
  8  9  1  0  0  0
  8 12  4  0  0  0
  9 10  1  0  0  0
  9 11  1  0  0  0
 10 11  2  0  0  0
 12 13  1  0  0  0
 13 14  1  0  0  0
 15 16  4  0  0  0
 15 18  4  0  0  0
 16 17  4  0  0  0
 17 20  4  0  0  0
 18 19  4  0  0  0
 19 20  4  0  0  0
 20 21  1  0  0  0
 21 22  2  0  0  0
 22 23  1  0  0  0
 22 25  1  0  0  0
 23 24  2  0  0  0
 23 31  1  0  0  0
 25 26  1  0  0  0
 26 27  4  0  0  0
 26 31  4  0  0  0
 27 28  1  0  0  0
 27 34  4  0  0  0
 28 29  2  0  0  0
 28 30  1  0  0  0
 31 32  4  0  0  0
 32 33  4  0  0  0
 33 34  4  0  0  0
  4 35  1  0  0  0
  4 36  1  0  0  0
  9 37  1  0  0  0
 10 38  1  0  0  0
 11 39  1  0  0  0
 13 40  1  0  0  0
 13 41  1  0  0  0
 14 42  1  0  0  0
 14 43  1  0  0  0
 16 44  1  0  0  0
 17 45  1  0  0  0
 18 46  1  0  0  0
 19 47  1  0  0  0
 21 48  1  0  0  0
 30 49  1  0  0  0
 30 50  1  0  0  0
 32 51  1  0  0  0
 33 52  1  0  0  0
 34 53  1  0  0  0
M  END
$$$$
