2ynr_ligand
  -I-interpret- 

136136  0  0  0  0  0  0  0  0999 V2000
    2.3450   12.5670    5.0130 N   0  3  0  0  0
    1.6200   12.6770    3.7520 C   0  0  0  0  0
    0.8320   11.4140    3.4220 C   0  0  0  0  0
    1.3970   10.3720    3.0980 O   0  0  0  0  0
    2.5600   13.0500    2.6040 C   0  0  0  0  0
    2.6090   14.5510    2.3300 C   0  0  0  0  0
    3.4390   15.2600    3.3870 C   0  0  0  0  0
    3.1190   14.8520    0.9330 C   0  0  0  0  0
   -0.4860   11.5390    3.5030 N   0  0  0  0  0
   -1.3890   10.4370    3.2750 C   0  0  0  0  0
   -1.4960    9.6130    4.5350 C   0  0  0  0  0
   -1.8100   10.1240    5.6060 O   0  0  0  0  0
   -1.2130    8.3270    4.4040 N   0  0  0  0  0
   -1.2960    7.4220    5.5270 C   0  0  0  0  0
    0.0670    6.8240    5.8590 C   0  0  0  0  0
    0.9220    6.6820    4.9960 O   0  0  0  0  0
   -2.3180    6.3260    5.2370 C   0  0  0  0  0
   -3.7590    6.8010    5.2570 C   0  0  0  0  0
   -4.5770    6.1500    4.1610 C   0  0  0  0  0
   -6.0270    6.5970    4.2280 C   0  0  0  0  0
   -6.8760    5.9640    3.1850 N   0  3  0  0  0
    0.2460    6.4930    7.1280 N   0  0  0  0  0
    1.4860    5.9260    7.6550 C   0  0  0  0  0
    1.2240    4.6080    8.4170 C   0  0  0  0  0
    0.4900    4.6030    9.4040 O   0  0  0  0  0
    2.1710    6.9740    8.5680 C   0  0  0  0  0
    3.5290    6.5850    9.1240 C   0  0  0  0  0
    4.2870    7.8150    9.5840 C   0  0  0  0  0
    5.0930    7.5550   10.7800 N   0  0  0  0  0
    4.7740    7.9740   12.0010 C   0  0  0  0  0
    3.6690    8.6810   12.2020 N   0  0  0  0  0
    5.5640    7.6960   13.0300 N   0  0  0  0  0
    1.8440    3.5000    7.9550 N   0  0  0  0  0
    1.7550    2.1740    8.6050 C   0  0  0  0  0
    2.8700    1.9930    9.6490 C   0  0  0  0  0
    3.9780    2.5090    9.4500 O   0  0  0  0  0
    1.8020    1.0240    7.5740 C   0  0  0  0  0
    3.0270    1.0070    6.6460 C   0  0  0  0  0
    3.5670   -0.4170    6.4180 C   0  0  0  0  0
    2.8630   -1.1860    5.3150 C   0  0  0  0  0
    3.3650   -2.5830    5.1950 N   0  3  0  0  0
    2.5850    1.2680   10.7530 N   0  0  0  0  0
    3.6130    0.9940   11.7690 C   0  0  0  0  0
    4.3860   -0.3040   11.4430 C   0  0  0  0  0
    3.7760   -1.3760   11.3240 O   0  0  0  0  0
    3.0440    0.9330   13.2020 C   0  0  0  0  0
    4.1540    0.7080   14.2310 C   0  0  0  0  0
    3.7540    0.8870   15.6730 C   0  0  0  0  0
    4.9270    0.7550   16.5380 N   0  0  0  0  0
    4.9390    0.9710   17.8500 C   0  0  0  0  0
    3.8330    1.3470   18.4780 N   0  0  0  0  0
    6.0610    0.8210   18.5430 N   0  0  0  0  0
    5.7410   -0.1880   11.3450 N   0  0  0  0  0
    6.7140   -1.2730   11.1090 C   0  0  0  0  0
    6.4880   -1.9510    9.7530 C   0  0  0  0  0
    6.6149   -1.2963    8.6840 O   0  0  0  0  0
    6.6470   -2.3080   12.2490 C   0  0  0  0  0
    7.8600   -3.1660   12.3910 C   0  0  0  0  0
    7.8690   -4.4800   11.9540 N   0  0  0  0  0
    9.0530   -2.8870   12.9660 C   0  0  0  0  0
    9.0690   -4.9490   12.2550 C   0  0  0  0  0
    9.8160   -4.0260   12.8650 N   0  0  0  0  0
    6.1735   -3.1702    9.7071 O   0  0  0  0  0
    1.6938   12.3180    5.7576 H   0  0  0  0  0
    3.0609   11.8452    4.9303 H   0  0  0  0  0
    2.7854   13.4611    5.2297 H   0  0  0  0  0
    0.8951   13.4814    3.8767 H   0  0  0  0  0
    2.1901   12.5617    1.7024 H   0  0  0  0  0
    3.5646   12.7324    2.8833 H   0  0  0  0  0
    1.5895   14.9326    2.3847 H   0  0  0  0  0
    4.4748   14.9279    3.3169 H   0  0  0  0  0
    3.3895   16.3366    3.2242 H   0  0  0  0  0
    3.0460   15.0223    4.3755 H   0  0  0  0  0
    3.0671   15.9256    0.7522 H   0  0  0  0  0
    4.1525   14.5169    0.8448 H   0  0  0  0  0
    2.5025   14.3289    0.2020 H   0  0  0  0  0
   -0.8773   12.4517    3.7361 H   0  0  0  0  0
   -1.0101    9.8160    2.4633 H   0  0  0  0  0
   -2.3728   10.8206    3.0045 H   0  0  0  0  0
   -0.9307    7.9676    3.4921 H   0  0  0  0  0
   -1.6242    7.9856    6.4004 H   0  0  0  0  0
   -2.2155    5.5744    6.0197 H   0  0  0  0  0
   -2.1152    5.9537    4.2328 H   0  0  0  0  0
   -3.7680    7.8794    5.0986 H   0  0  0  0  0
   -4.1965    6.5323    6.2185 H   0  0  0  0  0
   -4.5375    5.0684    4.2898 H   0  0  0  0  0
   -4.1645    6.4424    3.1953 H   0  0  0  0  0
   -6.0509    7.6749    4.0678 H   0  0  0  0  0
   -6.4211    6.3041    5.2011 H   0  0  0  0  0
   -7.8345    6.3001    3.2784 H   0  0  0  0  0
   -6.5172    6.2082    2.2619 H   0  0  0  0  0
   -6.8568    4.9508    3.3014 H   0  0  0  0  0
   -0.5270    6.6424    7.7765 H   0  0  0  0  0
    2.1486    5.6832    6.8243 H   0  0  0  0  0
    1.5145    7.1068    9.4279 H   0  0  0  0  0
    2.3343    7.8577    7.9511 H   0  0  0  0  0
    4.1025    6.0877    8.3418 H   0  0  0  0  0
    3.3856    5.9188    9.9747 H   0  0  0  0  0
    3.5598    8.5896    9.8275 H   0  0  0  0  0
    4.9596    8.1180    8.7816 H   0  0  0  0  0
    5.9534    7.0185   10.6688 H   0  0  0  0  0
    3.4344    9.0048   13.1403 H   0  0  0  0  0
    3.0544    8.9005   11.4181 H   0  0  0  0  0
    6.4193    7.1592   12.8859 H   0  0  0  0  0
    2.4066    3.5826    7.1082 H   0  0  0  0  0
    0.7905    2.1333    9.1111 H   0  0  0  0  0
    0.9308    1.1511    6.9313 H   0  0  0  0  0
    1.8375    0.0978    8.1475 H   0  0  0  0  0
    3.8148    1.5966    7.1148 H   0  0  0  0  0
    2.7257    1.4133    5.6805 H   0  0  0  0  0
    3.4101   -0.9704    7.3439 H   0  0  0  0  0
    4.6117   -0.3193    6.1229 H   0  0  0  0  0
    3.0525   -0.6751    4.3710 H   0  0  0  0  0
    1.8005   -1.2267    5.5547 H   0  0  0  0  0
    2.8651   -3.0593    4.4443 H   0  0  0  0  0
    4.3629   -2.5675    4.9843 H   0  0  0  0  0
    3.2096   -3.0756    6.0746 H   0  0  0  0  0
    1.6410    0.9045   10.8842 H   0  0  0  0  0
    4.3031    1.8371   11.7360 H   0  0  0  0  0
    2.3415    0.1017   13.2616 H   0  0  0  0  0
    2.5539    1.8815   13.4217 H   0  0  0  0  0
    4.9198    1.4565   14.0278 H   0  0  0  0  0
    4.4681   -0.3303   14.1243 H   0  0  0  0  0
    3.0238    0.1231   15.9400 H   0  0  0  0  0
    3.3212    1.8787   15.8046 H   0  0  0  0  0
    5.8046    0.4752   16.0999 H   0  0  0  0  0
    2.9666    1.4721   17.9544 H   0  0  0  0  0
    6.0667    0.9945   19.5481 H   0  0  0  0  0
    6.9176    0.5322   18.0705 H   0  0  0  0  0
    6.1246    0.7517   11.4458 H   0  0  0  0  0
    7.7094   -0.8292   11.0916 H   0  0  0  0  0
    6.8553   -0.3903    8.8915 H   0  0  0  0  0
    5.8144   -2.9738   12.0221 H   0  0  0  0  0
    6.5464   -1.7476   13.1785 H   0  0  0  0  0
    9.3510   -1.9424   13.4209 H   0  0  0  0  0
    9.4054   -5.9617   12.0328 H   0  0  0  0  0
  1  2  1  0  0  0
  2  3  1  0  0  0
  2  5  1  0  0  0
  3  4  2  0  0  0
  3  9  1  0  0  0
  5  6  1  0  0  0
  6  7  1  0  0  0
  6  8  1  0  0  0
  9 10  1  0  0  0
 10 11  1  0  0  0
 11 12  2  0  0  0
 11 13  1  0  0  0
 13 14  1  0  0  0
 14 15  1  0  0  0
 14 17  1  0  0  0
 15 16  2  0  0  0
 15 22  1  0  0  0
 17 18  1  0  0  0
 18 19  1  0  0  0
 19 20  1  0  0  0
 20 21  1  0  0  0
 22 23  1  0  0  0
 23 24  1  0  0  0
 23 26  1  0  0  0
 24 25  2  0  0  0
 24 33  1  0  0  0
 26 27  1  0  0  0
 27 28  1  0  0  0
 28 29  1  0  0  0
 29 30  1  0  0  0
 30 31  1  0  0  0
 30 32  2  0  0  0
 33 34  1  0  0  0
 34 35  1  0  0  0
 34 37  1  0  0  0
 35 36  2  0  0  0
 35 42  1  0  0  0
 37 38  1  0  0  0
 38 39  1  0  0  0
 39 40  1  0  0  0
 40 41  1  0  0  0
 42 43  1  0  0  0
 43 44  1  0  0  0
 43 46  1  0  0  0
 44 45  2  0  0  0
 44 53  1  0  0  0
 46 47  1  0  0  0
 47 48  1  0  0  0
 48 49  1  0  0  0
 49 50  1  0  0  0
 50 51  2  0  0  0
 50 52  1  0  0  0
 53 54  1  0  0  0
 54 55  1  0  0  0
 54 57  1  0  0  0
 55 56  1  0  0  0
 57 58  1  0  0  0
 58 59  4  0  0  0
 58 60  4  0  0  0
 59 61  4  0  0  0
 60 62  4  0  0  0
 61 62  4  0  0  0
 55 63  2  0  0  0
  1 64  1  0  0  0
  1 65  1  0  0  0
  1 66  1  0  0  0
  2 67  1  0  0  0
  5 68  1  0  0  0
  5 69  1  0  0  0
  6 70  1  0  0  0
  7 71  1  0  0  0
  7 72  1  0  0  0
  7 73  1  0  0  0
  8 74  1  0  0  0
  8 75  1  0  0  0
  8 76  1  0  0  0
  9 77  1  0  0  0
 10 78  1  0  0  0
 10 79  1  0  0  0
 13 80  1  0  0  0
 14 81  1  0  0  0
 17 82  1  0  0  0
 17 83  1  0  0  0
 18 84  1  0  0  0
 18 85  1  0  0  0
 19 86  1  0  0  0
 19 87  1  0  0  0
 20 88  1  0  0  0
 20 89  1  0  0  0
 21 90  1  0  0  0
 21 91  1  0  0  0
 21 92  1  0  0  0
 22 93  1  0  0  0
 23 94  1  0  0  0
 26 95  1  0  0  0
 26 96  1  0  0  0
 27 97  1  0  0  0
 27 98  1  0  0  0
 28 99  1  0  0  0
 28100  1  0  0  0
 29101  1  0  0  0
 31102  1  0  0  0
 31103  1  0  0  0
 32104  1  0  0  0
 33105  1  0  0  0
 34106  1  0  0  0
 37107  1  0  0  0
 37108  1  0  0  0
 38109  1  0  0  0
 38110  1  0  0  0
 39111  1  0  0  0
 39112  1  0  0  0
 40113  1  0  0  0
 40114  1  0  0  0
 41115  1  0  0  0
 41116  1  0  0  0
 41117  1  0  0  0
 42118  1  0  0  0
 43119  1  0  0  0
 46120  1  0  0  0
 46121  1  0  0  0
 47122  1  0  0  0
 47123  1  0  0  0
 48124  1  0  0  0
 48125  1  0  0  0
 49126  1  0  0  0
 51127  1  0  0  0
 52128  1  0  0  0
 52129  1  0  0  0
 53130  1  0  0  0
 54131  1  0  0  0
 56132  1  0  0  0
 57133  1  0  0  0
 57134  1  0  0  0
 60135  1  0  0  0
 61136  1  0  0  0
M  END
$$$$
