### 
### Created by X-TOOL on Mon Sep 10 21:13:14 2018
### 

@<TRIPOS>MOLECULE
2ynr_ligand
  138   138     1     0     0
SMALL
GAST_HUCK


@<TRIPOS>ATOM
      1 N           2.3450   12.5670    5.0130 N.4       1 LEU         0.2379
      2 CA          1.6200   12.6770    3.7520 C.3       1 LEU         0.0652
      3 C           0.8320   11.4140    3.4220 C.2       1 LEU         0.2265
      4 O           1.3970   10.3720    3.0980 O.2       1 LEU        -0.3907
      5 CB          2.5600   13.0500    2.6040 C.3       1 LEU         0.0102
      6 CG          2.6090   14.5510    2.3300 C.3       1 LEU        -0.0394
      7 CD1         3.4390   15.2600    3.3870 C.3       1 LEU        -0.0623
      8 CD2         3.1190   14.8520    0.9330 C.3       1 LEU        -0.0623
      9 N          -0.4860   11.5390    3.5030 N.am      1 GLY        -0.2637
     10 CA         -1.3890   10.4370    3.2750 C.3       1 GLY         0.1202
     11 C          -1.4960    9.6130    4.5350 C.2       1 GLY         0.2007
     12 O          -1.8100   10.1240    5.6060 O.2       1 GLY        -0.3947
     13 N          -1.2130    8.3270    4.4040 N.am      1 LYS        -0.2640
     14 CA         -1.2960    7.4220    5.5270 C.3       1 LYS         0.1310
     15 C           0.0670    6.8240    5.8590 C.2       1 LYS         0.2039
     16 O           0.9220    6.6820    4.9960 O.2       1 LYS        -0.3944
     17 CB         -2.3180    6.3260    5.2370 C.3       1 LYS        -0.0122
     18 CG         -3.7590    6.8010    5.2570 C.3       1 LYS        -0.0440
     19 CD         -4.5770    6.1500    4.1610 C.3       1 LYS        -0.0124
     20 CE         -6.0270    6.5970    4.2280 C.3       1 LYS        -0.0354
     21 NZ         -6.8760    5.9640    3.1850 N.4       1 LYS         0.2185
     22 N           0.2460    6.4930    7.1280 N.am      1 ARG        -0.2637
     23 CA          1.4860    5.9260    7.6550 C.3       1 ARG         0.1311
     24 C           1.2240    4.6080    8.4170 C.2       1 ARG         0.2039
     25 O           0.4900    4.6030    9.4040 O.2       1 ARG        -0.3944
     26 CB          2.1710    6.9740    8.5680 C.3       1 ARG        -0.0092
     27 CG          3.5290    6.5850    9.1240 C.3       1 ARG        -0.0156
     28 CD          4.2870    7.8150    9.5840 C.3       1 ARG         0.0627
     29 NE          5.0930    7.5550   10.7800 N.pl3     1 ARG        -0.2723
     30 CZ          4.7740    7.9740   12.0010 C.cat     1 ARG         0.2882
     31 NH1         3.6690    8.6810   12.2020 N.pl3     1 ARG        -0.2849
     32 NH2         5.5640    7.6960   13.0300 N.pl3     1 ARG        -0.2849
     33 N           1.8440    3.5000    7.9550 N.am      1 LYS        -0.2637
     34 CA          1.7550    2.1740    8.6050 C.3       1 LYS         0.1310
     35 C           2.8700    1.9930    9.6490 C.2       1 LYS         0.2039
     36 O           3.9780    2.5090    9.4500 O.2       1 LYS        -0.3944
     37 CB          1.8020    1.0240    7.5740 C.3       1 LYS        -0.0122
     38 CG          3.0270    1.0070    6.6460 C.3       1 LYS        -0.0440
     39 CD          3.5670   -0.4170    6.4180 C.3       1 LYS        -0.0124
     40 CE          2.8630   -1.1860    5.3150 C.3       1 LYS        -0.0354
     41 NZ          3.3650   -2.5830    5.1950 N.4       1 LYS         0.2185
     42 N           2.5850    1.2680   10.7530 N.am      1 ARG        -0.2637
     43 CA          3.6130    0.9940   11.7690 C.3       1 ARG         0.1311
     44 C           4.3860   -0.3040   11.4430 C.2       1 ARG         0.2035
     45 O           3.7760   -1.3760   11.3240 O.2       1 ARG        -0.3944
     46 CB          3.0440    0.9330   13.2020 C.3       1 ARG        -0.0092
     47 CG          4.1540    0.7080   14.2310 C.3       1 ARG        -0.0156
     48 CD          3.7540    0.8870   15.6730 C.3       1 ARG         0.0627
     49 NE          4.9270    0.7550   16.5380 N.pl3     1 ARG        -0.2723
     50 CZ          4.9390    0.9710   17.8500 C.cat     1 ARG         0.2882
     51 NH1         3.8330    1.3470   18.4780 N.pl3     1 ARG        -0.2849
     52 NH2         6.0610    0.8210   18.5430 N.pl3     1 ARG        -0.2849
     53 N           5.7410   -0.1880   11.3450 N.am      1 HIS        -0.2677
     54 CA          6.7140   -1.2730   11.1090 C.3       1 HIS         0.1056
     55 C           6.4880   -1.9510    9.7530 C.2       1 HIS         0.0621
     56 O           6.6149   -1.2963    8.6840 O.co2     1 HIS        -0.5664
     57 CB          6.6470   -2.3080   12.2490 C.3       1 HIS         0.0372
     58 CG          7.8600   -3.1660   12.3910 C.2       1 HIS         0.0555
     59 ND1         7.8690   -4.4800   11.9540 N.pl3     1 HIS        -0.2623
     60 CD2         9.0530   -2.8870   12.9660 C.2       1 HIS        -0.0276
     61 CE1         9.0690   -4.9490   12.2550 C.2       1 HIS         0.0875
     62 NE2         9.8160   -4.0260   12.8650 N.2       1 HIS        -0.3437
     63 O           6.1735   -3.1702    9.7071 O.co2     1 HIS        -0.5664
     64 H1          2.8484   13.4228    5.1869 H         1 LEU         0.2015
     65 H2          2.9959   11.7991    4.9605 H         1 LEU         0.2015
     66 H3          1.6918   12.4031    5.7630 H         1 LEU         0.2015
     67 H4          0.8936   13.4953    3.8643 H         1 LEU         0.1098
     68 H5          2.2177   12.5392    1.6919 H         1 LEU         0.0348
     69 H6          3.5742   12.7077    2.8574 H         1 LEU         0.0348
     70 H7          1.5809   14.9362    2.3970 H         1 LEU         0.0299
     71 H8          3.4622   16.3386    3.1724 H         1 LEU         0.0232
     72 H9          4.4644   14.8619    3.3760 H         1 LEU         0.0232
     73 H10         2.9913   15.0929    4.3778 H         1 LEU         0.0232
     74 H11         2.4976   14.3246    0.1943 H         1 LEU         0.0232
     75 H12         4.1619   14.5142    0.8427 H         1 LEU         0.0232
     76 H13         3.0671   15.9353    0.7492 H         1 LEU         0.0232
     77 H14        -0.8696   12.4338    3.7315 H         1 GLY         0.1882
     78 H15        -1.0048    9.8099    2.4571 H         1 GLY         0.0763
     79 H16        -2.3819   10.8252    3.0041 H         1 GLY         0.0763
     80 H17        -0.9362    7.9746    3.5100 H         1 LYS         0.1883
     81 H18        -1.6400    7.9915    6.4030 H         1 LYS         0.0800
     82 H19        -2.2037    5.5377    5.9956 H         1 LYS         0.0312
     83 H20        -2.1053    5.9102    4.2411 H         1 LYS         0.0312
     84 H21        -3.7771    7.8917    5.1157 H         1 LYS         0.0269
     85 H22        -4.2039    6.5500    6.2312 H         1 LYS         0.0269
     86 H23        -4.5314    5.0572    4.2784 H         1 LYS         0.0317
     87 H24        -4.1583    6.4316    3.1836 H         1 LYS         0.0317
     88 H25        -6.0643    7.6884    4.0962 H         1 LYS         0.0813
     89 H26        -6.4304    6.3330    5.2167 H         1 LYS         0.0813
     90 H27        -7.8236    6.2954    3.2764 H         1 LYS         0.1994
     91 H28        -6.8579    4.9627    3.2991 H         1 LYS         0.1994
     92 H29        -6.5224    6.2047    2.2723 H         1 LYS         0.1994
     93 H30        -0.5118    6.6395    7.7638 H         1 ARG         0.1883
     94 H31         2.1560    5.7053    6.8110 H         1 ARG         0.0800
     95 H32         1.5017    7.1678    9.4192 H         1 ARG         0.0313
     96 H33         2.2983    7.8974    7.9840 H         1 ARG         0.0313
     97 H34         4.1084    6.0749    8.3403 H         1 ARG         0.0301
     98 H35         3.3895    5.9056    9.9778 H         1 ARG         0.0301
     99 H36         3.5638    8.6122    9.8110 H         1 ARG         0.0689
    100 H37         4.9532    8.1442    8.7729 H         1 ARG         0.0689
    101 H38         5.9618    7.0133   10.6677 H         1 ARG         0.2642
    102 H39         3.4285    9.0021   13.1507 H         1 ARG         0.2615
    103 H40         3.0519    8.9086   11.4093 H         1 ARG         0.2615
    104 H41         6.4241    7.1480   12.8856 H         1 ARG         0.2615
    105 H42         5.3172    8.0281   13.9732 H         1 ARG         0.2615
    106 H43         2.3955    3.5810    7.1248 H         1 LYS         0.1883
    107 H44         0.7879    2.1213    9.1265 H         1 LYS         0.0800
    108 H45         0.9029    1.0981    6.9446 H         1 LYS         0.0312
    109 H46         1.7848    0.0736    8.1275 H         1 LYS         0.0312
    110 H47         3.8218    1.6186    7.0979 H         1 LYS         0.0269
    111 H48         2.7411    1.4367    5.6746 H         1 LYS         0.0269
    112 H49         3.4557   -0.9813    7.3556 H         1 LYS         0.0317
    113 H50         4.6335   -0.3430    6.1589 H         1 LYS         0.0317
    114 H51         3.0287   -0.6667    4.3596 H         1 LYS         0.0813
    115 H52         1.7856   -1.2144    5.5349 H         1 LYS         0.0813
    116 H53         2.8716   -3.0547    4.4533 H         1 LYS         0.1994
    117 H54         3.2119   -3.0708    6.0637 H         1 LYS         0.1994
    118 H55         4.3511   -2.5690    4.9867 H         1 LYS         0.1994
    119 H56         1.6595    0.9116   10.8816 H         1 ARG         0.1883
    120 H57         4.3306    1.8271   11.7372 H         1 ARG         0.0800
    121 H58         2.3225    0.1052   13.2663 H         1 ARG         0.0313
    122 H59         2.5345    1.8818   13.4261 H         1 ARG         0.0313
    123 H60         4.9649    1.4190   14.0144 H         1 ARG         0.0301
    124 H61         4.5253   -0.3201   14.1084 H         1 ARG         0.0301
    125 H62         3.0137    0.1197   15.9436 H         1 ARG         0.0689
    126 H63         3.3129    1.8857   15.8074 H         1 ARG         0.0689
    127 H64         5.8132    0.4725   16.0956 H         1 ARG         0.2642
    128 H65         3.8489    1.5127   19.4945 H         1 ARG         0.2615
    129 H66         2.9581    1.4733   17.9493 H         1 ARG         0.2615
    130 H67         6.9260    0.5294   18.0658 H         1 ARG         0.2615
    131 H68         6.0668    0.9962   19.5580 H         1 ARG         0.2615
    132 H69         6.1171    0.7333   11.4438 H         1 HIS         0.1877
    133 H70         7.7214   -0.8314   11.1038 H         1 HIS         0.0750
    134 H71         5.7839   -2.9645   12.0642 H         1 HIS         0.0484
    135 H72         6.4995   -1.7657   13.1946 H         1 HIS         0.0484
    136 H73         7.1012   -4.9869   11.4909 H         1 HIS         0.2386
    137 H74         9.3507   -1.9432   13.4205 H         1 HIS         0.0324
    138 H75         9.4051   -5.9608   12.0330 H         1 HIS         0.1149
@<TRIPOS>BOND
     1    1    2 1  
     2    2    3 1  
     3    2    5 1  
     4    3    4 2  
     5    3    9 am 
     6    5    6 1  
     7    6    7 1  
     8    6    8 1  
     9    9   10 1  
    10   10   11 1  
    11   11   12 2  
    12   11   13 am 
    13   13   14 1  
    14   14   15 1  
    15   14   17 1  
    16   15   16 2  
    17   15   22 am 
    18   17   18 1  
    19   18   19 1  
    20   19   20 1  
    21   20   21 1  
    22   22   23 1  
    23   23   24 1  
    24   23   26 1  
    25   24   25 2  
    26   24   33 am 
    27   26   27 1  
    28   27   28 1  
    29   28   29 1  
    30   29   30 ar 
    31   30   31 ar 
    32   30   32 ar 
    33   33   34 1  
    34   34   35 1  
    35   34   37 1  
    36   35   36 2  
    37   35   42 am 
    38   37   38 1  
    39   38   39 1  
    40   39   40 1  
    41   40   41 1  
    42   42   43 1  
    43   43   44 1  
    44   43   46 1  
    45   44   45 2  
    46   44   53 am 
    47   46   47 1  
    48   47   48 1  
    49   48   49 1  
    50   49   50 ar 
    51   50   51 ar 
    52   50   52 ar 
    53   53   54 1  
    54   54   55 1  
    55   54   57 1  
    56   55   56 ar 
    57   57   58 1  
    58   58   59 1  
    59   58   60 2  
    60   59   61 1  
    61   60   62 1  
    62   61   62 2  
    63   55   63 ar 
    64    1   64 1  
    65    1   65 1  
    66    1   66 1  
    67    2   67 1  
    68    5   68 1  
    69    5   69 1  
    70    6   70 1  
    71    7   71 1  
    72    7   72 1  
    73    7   73 1  
    74    8   74 1  
    75    8   75 1  
    76    8   76 1  
    77    9   77 1  
    78   10   78 1  
    79   10   79 1  
    80   13   80 1  
    81   14   81 1  
    82   17   82 1  
    83   17   83 1  
    84   18   84 1  
    85   18   85 1  
    86   19   86 1  
    87   19   87 1  
    88   20   88 1  
    89   20   89 1  
    90   21   90 1  
    91   21   91 1  
    92   21   92 1  
    93   22   93 1  
    94   23   94 1  
    95   26   95 1  
    96   26   96 1  
    97   27   97 1  
    98   27   98 1  
    99   28   99 1  
   100   28  100 1  
   101   29  101 1  
   102   31  102 1  
   103   31  103 1  
   104   32  104 1  
   105   32  105 1  
   106   33  106 1  
   107   34  107 1  
   108   37  108 1  
   109   37  109 1  
   110   38  110 1  
   111   38  111 1  
   112   39  112 1  
   113   39  113 1  
   114   40  114 1  
   115   40  115 1  
   116   41  116 1  
   117   41  117 1  
   118   41  118 1  
   119   42  119 1  
   120   43  120 1  
   121   46  121 1  
   122   46  122 1  
   123   47  123 1  
   124   47  124 1  
   125   48  125 1  
   126   48  126 1  
   127   49  127 1  
   128   51  128 1  
   129   51  129 1  
   130   52  130 1  
   131   52  131 1  
   132   53  132 1  
   133   54  133 1  
   134   57  134 1  
   135   57  135 1  
   136   59  136 1  
   137   60  137 1  
   138   61  138 1  
@<TRIPOS>SUBSTRUCTURE
     1 LEU         1

