1kv5_ligand
  -I-interpret- 

 14 13  0  0  0  0  0  0  0  0999 V2000
  -10.7190   -6.8840   49.1150 P   0  0  0  0  0
   -9.3330   -6.9950   48.2510 O   0  0  0  0  0
  -10.5790   -7.9230   50.1910 O   0  0  0  0  0
  -11.8880   -7.0630   48.1350 O   0  0  0  0  0
  -10.8080   -5.4900   49.7160 O   0  0  0  0  0
   -8.6610   -8.2300   48.2170 C   0  0  0  0  0
   -7.3980   -7.9930   47.4570 C   0  0  0  0  0
   -6.2480   -8.6200   47.8500 O   0  0  0  0  0
   -7.4160   -7.1420   46.4690 O   0  0  0  0  0
  -11.8803   -6.3472   47.4954 H   0  0  0  0  0
  -10.8968   -4.8440   49.0114 H   0  0  0  0  0
   -9.2704   -8.9971   47.7391 H   0  0  0  0  0
   -8.4529   -8.5931   49.2234 H   0  0  0  0  0
   -6.4392   -9.2038   48.5877 H   0  0  0  0  0
  1  2  1  0  0  0
  1  3  2  0  0  0
  1  4  1  0  0  0
  1  5  1  0  0  0
  2  6  1  0  0  0
  6  7  1  0  0  0
  7  8  1  0  0  0
  7  9  2  0  0  0
  4 10  1  0  0  0
  5 11  1  0  0  0
  6 12  1  0  0  0
  6 13  1  0  0  0
  8 14  1  0  0  0
M  END
$$$$
