1hvj_ligand
  -I-interpret- 

115118  0  0  0  0  0  0  0  0999 V2000
    3.5270    3.3460   10.7580 C   0  0  0  0  0
    3.3350    4.0090   11.7660 O   0  0  0  0  0
    4.0100    3.9090    9.6330 N   0  0  0  0  0
    4.2050    3.1390    8.4010 C   0  0  0  0  0
    4.4000    5.3360    9.6910 C   0  0  0  0  0
    5.8860    5.5810    9.5290 C   0  0  0  0  0
    6.4060    5.7230    8.2420 C   0  0  0  0  0
    6.6350    5.6520   10.6390 N   0  0  0  0  0
    7.7800    5.9410    8.1120 C   0  0  0  0  0
    7.9520    5.8470   10.5070 C   0  0  0  0  0
    8.5730    5.9970    9.2640 C   0  0  0  0  0
    3.2690    2.0450   10.7340 N   0  0  0  0  0
    2.9070    1.3460   11.9890 C   0  0  0  0  0
    4.0640    0.4480   12.4540 C   0  0  0  0  0
    4.1130   -0.6900   12.0270 O   0  0  0  0  0
    1.5820    0.5560   11.7900 C   0  0  0  0  0
    1.1550   -0.2390   13.0310 C   0  0  0  0  0
    0.4170    1.4470   11.3060 C   0  0  0  0  0
    4.9740    0.9640   13.3080 N   0  0  0  0  0
    6.1680    0.2220   13.7830 C   0  0  0  0  0
    7.4380    0.9690   13.4190 C   0  0  0  0  0
    7.6880    0.9710   11.9480 C   0  0  0  0  0
    7.2460    2.0350   11.1560 C   0  0  0  0  0
    7.4670    2.0110    9.7730 C   0  0  0  0  0
    8.1230    0.9320    9.1940 C   0  0  0  0  0
    8.5720   -0.1250    9.9970 C   0  0  0  0  0
    8.3570   -0.1110   11.3790 C   0  0  0  0  0
    6.2000    0.1220   15.2830 C   0  0  0  0  0
    5.1250   -0.2650   17.3020 O   0  0  0  0  0
    4.9470   -0.4390   15.9060 C   0  0  0  0  0
    5.8120   -2.7360   16.1800 N   0  0  0  0  0
    4.7250   -1.9340   15.6160 C   0  0  0  0  0
    3.3720   -2.4220   16.1650 C   0  0  0  0  0
    3.1250   -3.9070   16.0270 C   0  0  0  0  0
    3.3910   -4.7760   17.0980 C   0  0  0  0  0
    3.1550   -6.1500   16.9550 C   0  0  0  0  0
    2.6560   -6.6690   15.7520 C   0  0  0  0  0
    2.3840   -5.8090   14.6860 C   0  0  0  0  0
    2.6190   -4.4280   14.8220 C   0  0  0  0  0
    7.0530   -5.8530   16.7090 N   0  0  0  0  0
    7.4760   -4.4810   16.3820 C   0  0  0  0  0
    6.4510   -3.7120   15.5290 C   0  0  0  0  0
    6.2670   -3.9610   14.3500 O   0  0  0  0  0
    8.8220   -4.4670   15.6440 C   0  0  0  0  0
    9.2900   -3.0270   15.3250 C   0  0  0  0  0
    9.9000   -5.1910   16.4690 C   0  0  0  0  0
    6.9290   -6.3640   17.9260 C   0  0  0  0  0
    7.2550   -5.7600   18.9360 O   0  0  0  0  0
    6.4020   -7.6110   17.9990 N   0  0  0  0  0
    6.0120   -8.3800   16.8120 C   0  0  0  0  0
    6.1420   -8.2340   19.2990 C   0  0  0  0  0
    4.8150   -7.8110   19.8750 C   0  0  0  0  0
    3.7140   -8.6790   19.8170 C   0  0  0  0  0
    4.7670   -6.5870   20.4230 N   0  0  0  0  0
    2.5000   -8.2420   20.3570 C   0  0  0  0  0
    3.5920   -6.1840   20.9340 C   0  0  0  0  0
    2.4320   -6.9690   20.9320 C   0  0  0  0  0
    3.6359    3.5986    7.5929 H   0  0  0  0  0
    5.2639    3.1313    8.1426 H   0  0  0  0  0
    3.8597    2.1166    8.5546 H   0  0  0  0  0
    4.1187    5.7063   10.6768 H   0  0  0  0  0
    3.8991    5.8400    8.8645 H   0  0  0  0  0
    5.7606    5.6657    7.3655 H   0  0  0  0  0
    8.2284    6.0658    7.1264 H   0  0  0  0  0
    8.5662    5.8907   11.4064 H   0  0  0  0  0
    9.6493    6.1539    9.1933 H   0  0  0  0  0
    3.3196    1.5285    9.8559 H   0  0  0  0  0
    2.7359    2.0760   12.7802 H   0  0  0  0  0
    1.8106   -0.1609   11.0014 H   0  0  0  0  0
    1.9322   -0.9601   13.2841 H   0  0  0  0  0
    1.0067    0.4455   13.8662 H   0  0  0  0  0
    0.2238   -0.7652   12.8211 H   0  0  0  0  0
    0.2301    2.2296   12.0413 H   0  0  0  0  0
    0.6806    1.9001   10.3503 H   0  0  0  0  0
   -0.4790    0.8379   11.1860 H   0  0  0  0  0
    4.8328    1.9163   13.6451 H   0  0  0  0  0
    6.1112   -0.7621   13.3178 H   0  0  0  0  0
    8.2764    0.4700   13.9050 H   0  0  0  0  0
    7.3291    2.0030   13.7461 H   0  0  0  0  0
    6.7313    2.8801   11.6131 H   0  0  0  0  0
    7.1245    2.8384    9.1515 H   0  0  0  0  0
    8.2882    0.9076    8.1169 H   0  0  0  0  0
    9.0937   -0.9660    9.5403 H   0  0  0  0  0
    8.7075   -0.9341   12.0017 H   0  0  0  0  0
    6.3169    1.1360   15.6654 H   0  0  0  0  0
    7.0122   -0.5589   15.5375 H   0  0  0  0  0
    4.3561   -0.6040   17.7662 H   0  0  0  0  0
    4.0760    0.0720   15.4956 H   0  0  0  0  0
    6.1019   -2.5356   17.1372 H   0  0  0  0  0
    4.7157   -2.0581   14.5331 H   0  0  0  0  0
    2.5975   -1.9189   15.5861 H   0  0  0  0  0
    3.3667   -2.1998   17.2321 H   0  0  0  0  0
    3.7798   -4.3829   18.0374 H   0  0  0  0  0
    3.3616   -6.8222   17.7878 H   0  0  0  0  0
    2.4810   -7.7399   15.6492 H   0  0  0  0  0
    1.9905   -6.2064   13.7504 H   0  0  0  0  0
    2.4077   -3.7580   13.9886 H   0  0  0  0  0
    6.8348   -6.4683   15.9253 H   0  0  0  0  0
    7.5665   -3.9795   17.3455 H   0  0  0  0  0
    8.6749   -4.9919   14.7001 H   0  0  0  0  0
    8.5487   -2.5369   14.6938 H   0  0  0  0  0
    9.4037   -2.4690   16.2544 H   0  0  0  0  0
   10.2461   -3.0643   14.8029 H   0  0  0  0  0
   10.0183   -4.6897   17.4296 H   0  0  0  0  0
    9.5971   -6.2252   16.6323 H   0  0  0  0  0
   10.8457   -5.1692   15.9275 H   0  0  0  0  0
    5.2471   -7.8326   16.2612 H   0  0  0  0  0
    6.8837   -8.5293   16.1748 H   0  0  0  0  0
    5.6165   -9.3475   17.1212 H   0  0  0  0  0
    6.9267   -7.9225   19.9884 H   0  0  0  0  0
    6.1235   -9.3150   19.1604 H   0  0  0  0  0
    3.8024   -9.6663   19.3637 H   0  0  0  0  0
    1.6198   -8.8843   20.3300 H   0  0  0  0  0
    3.5381   -5.1889   21.3756 H   0  0  0  0  0
    1.5033   -6.5985   21.3660 H   0  0  0  0  0
  1  2  2  0  0  0
  1  3  1  0  0  0
 12  1  1  0  0  0
  3  4  1  0  0  0
  3  5  1  0  0  0
  5  6  1  0  0  0
  6  7  4  0  0  0
  6  8  4  0  0  0
  7  9  4  0  0  0
  8 10  4  0  0  0
  9 11  4  0  0  0
 10 11  4  0  0  0
 13 12  1  0  0  0
 14 13  1  0  0  0
 13 16  1  0  0  0
 14 15  2  0  0  0
 19 14  1  0  0  0
 16 17  1  0  0  0
 16 18  1  0  0  0
 20 19  1  0  0  0
 20 21  1  0  0  0
 28 20  1  0  0  0
 21 22  1  0  0  0
 22 23  4  0  0  0
 22 27  4  0  0  0
 23 24  4  0  0  0
 24 25  4  0  0  0
 26 25  4  0  0  0
 27 26  4  0  0  0
 30 28  1  0  0  0
 32 30  1  0  0  0
 32 33  1  0  0  0
 33 34  1  0  0  0
 34 35  4  0  0  0
 34 39  4  0  0  0
 35 36  4  0  0  0
 36 37  4  0  0  0
 38 37  4  0  0  0
 39 38  4  0  0  0
 41 40  1  0  0  0
 40 47  1  0  0  0
 42 41  1  0  0  0
 41 44  1  0  0  0
 42 43  2  0  0  0
 44 45  1  0  0  0
 44 46  1  0  0  0
 47 48  2  0  0  0
 47 49  1  0  0  0
 49 50  1  0  0  0
 49 51  1  0  0  0
 51 52  1  0  0  0
 52 53  4  0  0  0
 52 54  4  0  0  0
 53 55  4  0  0  0
 54 56  4  0  0  0
 55 57  4  0  0  0
 56 57  4  0  0  0
 31 42  1  0  0  0
 32 31  1  0  0  0
 30 29  1  0  0  0
  4 58  1  0  0  0
  4 59  1  0  0  0
  4 60  1  0  0  0
  5 61  1  0  0  0
  5 62  1  0  0  0
  7 63  1  0  0  0
  9 64  1  0  0  0
 10 65  1  0  0  0
 11 66  1  0  0  0
 12 67  1  0  0  0
 13 68  1  0  0  0
 16 69  1  0  0  0
 17 70  1  0  0  0
 17 71  1  0  0  0
 17 72  1  0  0  0
 18 73  1  0  0  0
 18 74  1  0  0  0
 18 75  1  0  0  0
 19 76  1  0  0  0
 20 77  1  0  0  0
 21 78  1  0  0  0
 21 79  1  0  0  0
 23 80  1  0  0  0
 24 81  1  0  0  0
 25 82  1  0  0  0
 26 83  1  0  0  0
 27 84  1  0  0  0
 28 85  1  0  0  0
 28 86  1  0  0  0
 29 87  1  0  0  0
 30 88  1  0  0  0
 31 89  1  0  0  0
 32 90  1  0  0  0
 33 91  1  0  0  0
 33 92  1  0  0  0
 35 93  1  0  0  0
 36 94  1  0  0  0
 37 95  1  0  0  0
 38 96  1  0  0  0
 39 97  1  0  0  0
 40 98  1  0  0  0
 41 99  1  0  0  0
 44100  1  0  0  0
 45101  1  0  0  0
 45102  1  0  0  0
 45103  1  0  0  0
 46104  1  0  0  0
 46105  1  0  0  0
 46106  1  0  0  0
 50107  1  0  0  0
 50108  1  0  0  0
 50109  1  0  0  0
 51110  1  0  0  0
 51111  1  0  0  0
 53112  1  0  0  0
 55113  1  0  0  0
 56114  1  0  0  0
 57115  1  0  0  0
M  END
$$$$
