1gzg_ligand
  -I-interpret- 

 16 15  0  0  0  0  0  0  0  0999 V2000
  118.9690   33.6120  -28.3970 C   0  0  0  0  0
  117.9510   34.0230  -29.4770 C   0  0  0  0  0
  118.5230   32.6710  -27.2660 C   0  0  0  0  0
  119.6580   32.3770  -26.2840 C   0  0  0  0  0
  120.2260   30.9650  -26.4440 C   0  0  0  0  0
  120.0490   33.8910  -28.2690 O   0  0  0  0  0
  119.3850   30.0360  -26.5040 O   0  0  0  0  0
  121.4660   30.8210  -26.5050 O   0  0  0  0  0
  118.3360   34.5170  -30.6940 F   0  0  0  0  0
  117.4196   34.8580  -29.0205 H   0  0  0  0  0
  117.4553   33.0854  -29.7287 H   0  0  0  0  0
  118.2057   31.7285  -27.7121 H   0  0  0  0  0
  117.7152   33.1559  -26.7179 H   0  0  0  0  0
  119.2578   32.4644  -25.2739 H   0  0  0  0  0
  120.4625   33.0857  -26.4803 H   0  0  0  0  0
  118.5002   30.4019  -26.4345 H   0  0  0  0  0
  1  2  1  0  0  0
  1  3  1  0  0  0
  1  6  2  0  0  0
  2  9  1  0  0  0
  3  4  1  0  0  0
  4  5  1  0  0  0
  5  7  1  0  0  0
  5  8  2  0  0  0
  2 10  1  0  0  0
  2 11  1  0  0  0
  3 12  1  0  0  0
  3 13  1  0  0  0
  4 14  1  0  0  0
  4 15  1  0  0  0
  7 16  1  0  0  0
M  END
$$$$
