1njs_ligand
  -I-interpret- 

 64 65  0  0  0  0  0  0  0  0999 V2000
   72.8400   19.0450   38.0060 O   0  0  0  0  0
   74.1420   19.1610   37.8330 C   0  0  0  0  0
   74.9970   18.3170   38.1130 O   0  0  0  0  0
   74.4610   20.4780   37.2500 C   0  0  0  0  0
   75.9560   20.7030   37.0350 C   0  0  0  0  0
   76.2790   22.0330   36.4470 C   0  0  0  0  0
   75.5580   22.0070   35.1200 N   0  0  0  0  0
   74.6150   22.9670   34.7900 C   0  0  0  0  0
   74.3110   23.8530   35.5570 O   0  0  0  0  0
   74.0250   22.9100   33.4760 C   0  0  0  0  0
   73.0940   24.0280   33.1320 C   0  0  0  0  0
   72.5060   24.0940   31.8190 C   0  0  0  0  0
   72.8640   22.9760   30.8200 C   0  0  0  0  0
   73.7620   21.8770   31.2140 C   0  0  0  0  0
   74.3460   21.8270   32.5030 C   0  0  0  0  0
   72.3640   22.9160   29.2740 C   0  0  0  0  0
   73.4310   22.2360   28.3980 C   0  0  0  0  0
   74.4790   23.5450   28.1090 C   0  0  0  0  0
   75.2560   23.5310   26.7410 C   0  0  0  0  0
   76.5150   24.2100   27.1830 C   0  0  0  0  0
   76.4070   25.5120   26.8780 C   0  0  0  0  0
   75.4060   26.2830   26.2700 O   0  0  0  0  0
   77.5190   26.6430   27.1670 N   0  0  0  0  0
   78.6530   26.2130   27.7690 C   0  0  0  0  0
   79.6460   27.0650   28.0610 N   0  0  0  0  0
   78.7960   24.9900   28.0380 N   0  0  0  0  0
   77.8090   23.9140   27.8210 C   0  0  0  0  0
   78.1340   22.6330   28.2050 N   0  0  0  0  0
   70.9590   22.3460   28.8430 C   0  0  0  0  0
   70.4950   22.7470   27.8530 O   0  0  0  0  0
   70.0730   23.1390   29.9110 O   0  0  0  0  0
   70.5640   20.9330   29.3290 C   0  0  0  0  0
   70.6650   20.6050   30.6730 F   0  0  0  0  0
   71.5150   20.2140   28.7430 F   0  0  0  0  0
   69.3330   20.6340   28.8810 F   0  0  0  0  0
   77.8240   22.3670   36.2490 C   0  0  0  0  0
   78.4540   22.7900   37.2050 O   0  0  0  0  0
   78.4420   22.1830   35.0300 O   0  0  0  0  0
   72.4056   19.8462   37.7044 H   0  0  0  0  0
   74.1124   21.2386   37.9486 H   0  0  0  0  0
   73.9782   20.5299   36.2741 H   0  0  0  0  0
   76.3042   19.9427   36.3358 H   0  0  0  0  0
   76.4386   20.6507   38.0110 H   0  0  0  0  0
   75.9685   22.8220   37.1320 H   0  0  0  0  0
   75.7701   21.2661   34.4518 H   0  0  0  0  0
   72.8606   24.7919   33.8737 H   0  0  0  0  0
   71.8324   24.9049   31.5418 H   0  0  0  0  0
   73.9817   21.0851   30.4979 H   0  0  0  0  0
   75.0167   21.0131   32.7783 H   0  0  0  0  0
   72.2113   23.9847   29.1232 H   0  0  0  0  0
   73.0356   21.7745   27.4931 H   0  0  0  0  0
   73.9108   21.3773   28.8676 H   0  0  0  0  0
   75.2391   23.5018   28.8890 H   0  0  0  0  0
   73.8519   24.4364   28.0916 H   0  0  0  0  0
   74.7385   24.0141   25.9122 H   0  0  0  0  0
   75.3952   22.5439   26.3002 H   0  0  0  0  0
   77.3772   27.6205   26.9125 H   0  0  0  0  0
   80.5025   26.7206   28.4949 H   0  0  0  0  0
   79.5451   28.0577   27.8493 H   0  0  0  0  0
   77.4742   21.8709   28.0490 H   0  0  0  0  0
   79.0347   22.4457   28.6456 H   0  0  0  0  0
   69.6458   22.3245   27.7048 H   0  0  0  0  0
   69.1488   22.9071   29.7937 H   0  0  0  0  0
   77.8037   21.8474   34.3963 H   0  0  0  0  0
  1  2  1  0  0  0
  2  3  2  0  0  0
  2  4  1  0  0  0
  4  5  1  0  0  0
  5  6  1  0  0  0
  6  7  1  0  0  0
  6 36  1  0  0  0
  7  8  1  0  0  0
  8  9  2  0  0  0
  8 10  1  0  0  0
 10 11  4  0  0  0
 10 15  4  0  0  0
 11 12  4  0  0  0
 12 13  4  0  0  0
 13 14  4  0  0  0
 13 16  1  0  0  0
 14 15  4  0  0  0
 16 17  1  0  0  0
 16 29  1  0  0  0
 17 18  1  0  0  0
 18 19  1  0  0  0
 19 20  1  0  0  0
 20 21  1  0  0  0
 20 27  2  0  0  0
 21 22  2  0  0  0
 21 23  1  0  0  0
 23 24  1  0  0  0
 24 25  1  0  0  0
 24 26  2  0  0  0
 26 27  1  0  0  0
 27 28  1  0  0  0
 29 30  1  0  0  0
 29 31  1  0  0  0
 29 32  1  0  0  0
 32 33  1  0  0  0
 32 34  1  0  0  0
 32 35  1  0  0  0
 36 37  2  0  0  0
 36 38  1  0  0  0
  1 39  1  0  0  0
  4 40  1  0  0  0
  4 41  1  0  0  0
  5 42  1  0  0  0
  5 43  1  0  0  0
  6 44  1  0  0  0
  7 45  1  0  0  0
 11 46  1  0  0  0
 12 47  1  0  0  0
 14 48  1  0  0  0
 15 49  1  0  0  0
 16 50  1  0  0  0
 17 51  1  0  0  0
 17 52  1  0  0  0
 18 53  1  0  0  0
 18 54  1  0  0  0
 19 55  1  0  0  0
 19 56  1  0  0  0
 23 57  1  0  0  0
 25 58  1  0  0  0
 25 59  1  0  0  0
 28 60  1  0  0  0
 28 61  1  0  0  0
 30 62  1  0  0  0
 31 63  1  0  0  0
 38 64  1  0  0  0
M  END
$$$$
