5hkm_ligand
  -I-interpret- 

 36 39  0  0  0  0  0  0  0  0999 V2000
   32.7090  -25.9880  -13.0240 C   0  0  0  0  0
   31.4300  -26.5150  -12.9510 C   0  0  0  0  0
   32.2260  -28.5370  -12.2770 C   0  0  0  0  0
   33.5200  -30.2210  -11.6680 C   0  0  0  0  0
   34.3610  -29.2170  -11.9070 C   0  0  0  0  0
   35.8220  -29.3400  -11.8110 C   0  0  0  0  0
   37.5710  -30.6620  -11.2610 C   0  0  0  0  0
   38.0630  -28.6340  -12.1390 C   0  0  0  0  0
   36.7150  -28.3680  -12.2410 C   0  0  0  0  0
   39.8430  -27.1230  -11.3440 C   0  0  0  0  0
   31.9730  -23.8270  -14.0610 C   0  0  0  0  0
   32.8820  -24.5870  -13.4420 C   0  0  0  0  0
   34.0110  -23.8040  -13.2590 C   0  0  0  0  0
   33.7940  -22.6330  -13.7410 N   0  0  0  0  0
   32.5200  -22.6320  -14.2550 N   0  0  0  0  0
   31.2370  -27.7340  -12.6030 N   0  0  0  0  0
   33.7960  -26.7890  -12.7020 C   0  0  0  0  0
   33.5410  -28.0890  -12.3140 C   0  0  0  0  0
   32.2660  -29.8270  -11.8820 N   0  0  0  0  0
   36.2970  -30.4620  -11.3460 N   0  0  0  0  0
   38.4550  -29.7780  -11.6380 N   0  0  0  0  0
   37.9990  -31.8500  -10.7370 N   0  0  0  0  0
   39.0960  -27.6300  -12.5610 C   0  0  0  0  0
   30.5748  -25.8840  -13.1930 H   0  0  0  0  0
   33.8147  -31.2193  -11.3445 H   0  0  0  0  0
   36.3598  -27.4212  -12.6478 H   0  0  0  0  0
   39.1395  -26.6517  -10.6577 H   0  0  0  0  0
   40.3335  -27.9593  -10.8459 H   0  0  0  0  0
   40.5915  -26.3946  -11.6560 H   0  0  0  0  0
   30.9680  -24.1317  -14.3528 H   0  0  0  0  0
   34.9355  -24.1298  -12.7822 H   0  0  0  0  0
   34.8148  -26.4051  -12.7537 H   0  0  0  0  0
   37.3197  -32.5453  -10.4278 H   0  0  0  0  0
   38.9976  -32.0411  -10.6552 H   0  0  0  0  0
   38.6047  -26.7933  -13.0578 H   0  0  0  0  0
   39.8000  -28.1023  -13.2461 H   0  0  0  0  0
  2  1  4  0  0  0
  1 12  1  0  0  0
  1 17  4  0  0  0
 16  2  4  0  0  0
  3 16  4  0  0  0
  3 18  4  0  0  0
 19  3  4  0  0  0
  4  5  4  0  0  0
  4 19  4  0  0  0
  5  6  1  0  0  0
  5 18  4  0  0  0
  6  9  4  0  0  0
  6 20  4  0  0  0
 20  7  4  0  0  0
  7 21  4  0  0  0
  7 22  1  0  0  0
  9  8  4  0  0  0
  8 21  4  0  0  0
  8 23  1  0  0  0
 23 10  1  0  0  0
 12 11  4  0  0  0
 11 15  4  0  0  0
 12 13  4  0  0  0
 13 14  4  0  0  0
 14 15  4  0  0  0
 17 18  4  0  0  0
  2 24  1  0  0  0
  4 25  1  0  0  0
  9 26  1  0  0  0
 10 27  1  0  0  0
 10 28  1  0  0  0
 10 29  1  0  0  0
 11 30  1  0  0  0
 13 31  1  0  0  0
 17 32  1  0  0  0
 22 33  1  0  0  0
 22 34  1  0  0  0
 23 35  1  0  0  0
 23 36  1  0  0  0
M  END
$$$$
