1lke_ligand
  -I-interpret- 

 62 66  0  0  0  0  0  0  0  0999 V2000
   15.2650  -21.2770   37.4530 O   0  0  0  0  0
   14.6030  -22.2720   37.4610 C   0  0  0  0  0
   13.4710  -22.6250   36.6410 C   0  0  0  0  0
   14.8390  -23.3060   38.2920 O   0  0  0  0  0
   13.9160  -24.3950   38.0480 C   0  0  0  0  0
   13.0620  -23.8540   36.9790 C   0  0  0  0  0
   11.9260  -24.6400   36.4590 C   0  0  0  0  0
   12.1300  -26.1830   36.3780 C   0  0  0  0  0
   10.5510  -24.4330   37.2170 C   0  0  0  0  0
   10.5420  -23.2570   38.1900 C   0  0  0  0  0
    9.4700  -24.2150   36.1290 C   0  0  0  0  0
    9.6080  -22.8950   35.5440 O   0  0  0  0  0
   10.3040  -25.7990   37.9190 C   0  0  0  0  0
   10.8390  -26.8230   36.9020 C   0  0  0  0  0
   11.2120  -25.9320   39.0410 O   0  0  0  0  0
    8.8450  -26.0090   38.3570 C   0  0  0  0  0
    8.6220  -27.4280   38.8860 C   0  0  0  0  0
    7.7830  -25.6750   37.2840 C   0  0  0  0  0
    8.0680  -24.2710   36.6520 C   0  0  0  0  0
    6.3470  -25.8090   37.8600 C   0  0  0  0  0
    6.0900  -24.7760   38.9900 C   0  0  0  0  0
    6.1190  -27.2550   38.3960 C   0  0  0  0  0
    7.2120  -27.6550   39.4110 C   0  0  0  0  0
    6.0880  -28.3180   37.2770 C   0  0  0  0  0
    5.0730  -27.9620   36.1890 C   0  0  0  0  0
    3.7660  -28.0980   36.7460 O   0  0  0  0  0
    5.2890  -26.5800   35.6480 C   0  0  0  0  0
    5.2750  -25.5600   36.7670 C   0  0  0  0  0
   13.0223  -21.9952   35.8728 H   0  0  0  0  0
   13.3555  -24.6873   38.9360 H   0  0  0  0  0
   14.4144  -25.3231   37.7683 H   0  0  0  0  0
   11.8844  -24.2186   35.4546 H   0  0  0  0  0
   12.9885  -26.4942   36.9732 H   0  0  0  0  0
   12.3320  -26.4960   35.3536 H   0  0  0  0  0
   11.3068  -23.4110   38.9512 H   0  0  0  0  0
   10.7493  -22.3354   37.6461 H   0  0  0  0  0
    9.5635  -23.1877   38.6651 H   0  0  0  0  0
    9.6281  -25.0224   35.4140 H   0  0  0  0  0
    8.9335  -22.7719   34.8721 H   0  0  0  0  0
   11.0146  -27.8001   37.3520 H   0  0  0  0  0
   10.1245  -27.0260   36.1043 H   0  0  0  0  0
   11.0608  -26.7746   39.4754 H   0  0  0  0  0
    8.6981  -25.2833   39.1569 H   0  0  0  0  0
    9.3129  -27.5849   39.7143 H   0  0  0  0  0
    8.7823  -28.1189   38.0583 H   0  0  0  0  0
    7.8513  -26.4022   36.4749 H   0  0  0  0  0
    7.3731  -24.1020   35.8294 H   0  0  0  0  0
    7.9408  -23.5034   37.4153 H   0  0  0  0  0
    6.8035  -24.9382   39.7979 H   0  0  0  0  0
    6.2112  -23.7680   38.5934 H   0  0  0  0  0
    5.0756  -24.8991   39.3692 H   0  0  0  0  0
    5.1417  -27.2315   38.8782 H   0  0  0  0  0
    7.0841  -27.0351   40.2984 H   0  0  0  0  0
    7.1013  -28.7198   39.6161 H   0  0  0  0  0
    5.8000  -29.2727   37.7172 H   0  0  0  0  0
    7.0772  -28.3675   36.8219 H   0  0  0  0  0
    5.1966  -28.6392   35.3439 H   0  0  0  0  0
    3.1109  -27.8790   36.0793 H   0  0  0  0  0
    4.4873  -26.3461   34.9475 H   0  0  0  0  0
    6.2578  -26.5437   35.1498 H   0  0  0  0  0
    5.4868  -24.5880   36.3215 H   0  0  0  0  0
    4.2998  -25.6228   37.2499 H   0  0  0  0  0
  1  2  2  0  0  0
  2  3  1  0  0  0
  2  4  1  0  0  0
  3  6  2  0  0  0
  4  5  1  0  0  0
  5  6  1  0  0  0
  6  7  1  0  0  0
  7  8  1  0  0  0
  7  9  1  0  0  0
  8 14  1  0  0  0
  9 10  1  0  0  0
  9 11  1  0  0  0
  9 13  1  0  0  0
 11 12  1  0  0  0
 11 19  1  0  0  0
 13 14  1  0  0  0
 13 15  1  0  0  0
 13 16  1  0  0  0
 16 17  1  0  0  0
 16 18  1  0  0  0
 17 23  1  0  0  0
 18 19  1  0  0  0
 18 20  1  0  0  0
 20 21  1  0  0  0
 20 22  1  0  0  0
 20 28  1  0  0  0
 22 23  1  0  0  0
 22 24  1  0  0  0
 24 25  1  0  0  0
 25 26  1  0  0  0
 25 27  1  0  0  0
 27 28  1  0  0  0
  3 29  1  0  0  0
  5 30  1  0  0  0
  5 31  1  0  0  0
  7 32  1  0  0  0
  8 33  1  0  0  0
  8 34  1  0  0  0
 10 35  1  0  0  0
 10 36  1  0  0  0
 10 37  1  0  0  0
 11 38  1  0  0  0
 12 39  1  0  0  0
 14 40  1  0  0  0
 14 41  1  0  0  0
 15 42  1  0  0  0
 16 43  1  0  0  0
 17 44  1  0  0  0
 17 45  1  0  0  0
 18 46  1  0  0  0
 19 47  1  0  0  0
 19 48  1  0  0  0
 21 49  1  0  0  0
 21 50  1  0  0  0
 21 51  1  0  0  0
 22 52  1  0  0  0
 23 53  1  0  0  0
 23 54  1  0  0  0
 24 55  1  0  0  0
 24 56  1  0  0  0
 25 57  1  0  0  0
 26 58  1  0  0  0
 27 59  1  0  0  0
 27 60  1  0  0  0
 28 61  1  0  0  0
 28 62  1  0  0  0
M  END
$$$$
