5twj_ligand
  -I-interpret- 

 51 53  0  0  0  0  0  0  0  0999 V2000
   11.8500    0.8280   43.7140 N   0  3  0  0  0
   11.1460    0.9920   44.9840 C   0  0  0  0  0
   10.7520   -0.3540   45.6050 C   0  0  0  0  0
   10.7390   -0.5110   46.8280 O   0  0  0  0  0
   10.4420   -1.3230   44.9120 O   0  0  0  0  0
    9.9320    1.9200   44.8480 C   0  0  0  0  0
   10.2230    3.4000   44.5970 C   0  0  0  0  0
    8.7050    4.3830   44.7210 S   0  0  0  0  0
    8.7910    5.4680   43.2710 C   0  0  0  0  0
    8.9900    5.5480   46.0890 C   0  0  0  0  0
    8.3020    5.2070   47.4260 C   0  0  0  0  0
    6.8820    5.3390   47.3850 O   0  0  0  0  0
    8.5250    3.7800   47.8800 C   0  0  0  0  0
    9.7440    3.6330   48.5810 O   0  0  0  0  0
    7.3110    3.4890   48.7450 C   0  0  0  0  0
    7.4950    3.9910   50.0660 O   0  0  0  0  0
    6.2180    4.3320   48.1270 C   0  0  0  0  0
    5.3080    3.5310   47.2640 N   0  0  0  0  0
    5.2710    3.5090   45.8680 C   0  0  0  0  0
    4.3050    2.6510   45.4630 N   0  0  0  0  0
    3.7100    2.1290   46.5820 C   0  0  0  0  0
    2.6770    1.2180   46.7390 C   0  0  0  0  0
    2.0800    0.6990   45.6630 N   0  0  0  0  0
    2.2660    0.8530   48.0070 N   0  0  0  0  0
    2.8920    1.4020   49.1240 C   0  0  0  0  0
    3.9240    2.3090   48.9740 N   0  0  0  0  0
    4.3260    2.6660   47.7150 C   0  0  0  0  0
   12.6477    0.2063   43.8466 H   0  0  0  0  0
   11.2152    0.4261   43.0241 H   0  0  0  0  0
   12.1768    1.7375   43.3879 H   0  0  0  0  0
   11.8475    1.4686   45.6687 H   0  0  0  0  0
   10.9967    0.3080   47.2574 H   0  0  0  0  0
    9.4110    1.8746   45.8044 H   0  0  0  0  0
    9.3830    1.5697   43.9739 H   0  0  0  0  0
   10.6342    3.5126   43.5938 H   0  0  0  0  0
   10.9320    3.7513   45.3467 H   0  0  0  0  0
    9.6905    6.0807   43.3301 H   0  0  0  0  0
    8.8220    4.8612   42.3661 H   0  0  0  0  0
    7.9120    6.1121   43.2481 H   0  0  0  0  0
    8.5750    6.5033   45.7675 H   0  0  0  0  0
   10.0621    5.5318   46.2849 H   0  0  0  0  0
    8.7605    5.9247   48.1062 H   0  0  0  0  0
    8.6165    3.0789   47.0505 H   0  0  0  0  0
    9.8482    2.7177   48.8510 H   0  0  0  0  0
    7.1111    2.4187   48.7948 H   0  0  0  0  0
    6.7165    3.7956   50.5927 H   0  0  0  0  0
    5.5753    4.7581   48.8973 H   0  0  0  0  0
    5.9168    4.0899   45.2095 H   0  0  0  0  0
    2.3844    0.9732   44.7289 H   0  0  0  0  0
    1.3196    0.0285   45.7753 H   0  0  0  0  0
    2.5655    1.1142   50.1233 H   0  0  0  0  0
  1  2  1  0  0  0
  2  3  1  0  0  0
  2  6  1  0  0  0
  3  4  1  0  0  0
  3  5  2  0  0  0
  6  7  1  0  0  0
  7  8  1  0  0  0
  8  9  1  0  0  0
  8 10  1  0  0  0
 10 11  1  0  0  0
 11 12  1  0  0  0
 11 13  1  0  0  0
 12 17  1  0  0  0
 13 14  1  0  0  0
 13 15  1  0  0  0
 15 16  1  0  0  0
 15 17  1  0  0  0
 17 18  1  0  0  0
 18 19  4  0  0  0
 18 27  4  0  0  0
 19 20  4  0  0  0
 20 21  4  0  0  0
 21 22  4  0  0  0
 21 27  4  0  0  0
 22 23  1  0  0  0
 22 24  4  0  0  0
 24 25  4  0  0  0
 25 26  4  0  0  0
 26 27  4  0  0  0
  1 28  1  0  0  0
  1 29  1  0  0  0
  1 30  1  0  0  0
  2 31  1  0  0  0
  4 32  1  0  0  0
  6 33  1  0  0  0
  6 34  1  0  0  0
  7 35  1  0  0  0
  7 36  1  0  0  0
  9 37  1  0  0  0
  9 38  1  0  0  0
  9 39  1  0  0  0
 10 40  1  0  0  0
 10 41  1  0  0  0
 11 42  1  0  0  0
 13 43  1  0  0  0
 14 44  1  0  0  0
 15 45  1  0  0  0
 16 46  1  0  0  0
 17 47  1  0  0  0
 19 48  1  0  0  0
 23 49  1  0  0  0
 23 50  1  0  0  0
 25 51  1  0  0  0
M  END
$$$$
