4hbm_ligand
  -I-interpret- 

 55 57  0  0  0  0  0  0  0  0999 V2000
   15.0760   17.5450   17.4790 Cl  0  0  0  0  0
   16.1130   16.2870   16.8820 C   0  0  0  0  0
   17.4940   16.4200   17.0740 C   0  0  0  0  0
   18.3480   15.4060   16.6410 C   0  0  0  0  0
   15.5720   15.1560   16.2510 C   0  0  0  0  0
   16.4260   14.1430   15.8170 C   0  0  0  0  0
   17.8090   14.2640   16.0170 C   0  0  0  0  0
   18.6830   13.1440   15.6010 C   0  0  0  0  0
   19.5810   13.5180   14.4850 N   0  0  0  0  0
   19.0220   14.3390   13.3610 C   0  0  0  0  0
   18.7980   13.4630   12.1330 C   0  0  0  0  0
   17.7450   12.5510   12.3890 O   0  0  0  0  0
   20.8810   13.1460   14.4370 C   0  0  0  0  0
   21.6180   13.4950   13.5270 O   0  0  0  0  0
   21.4670   12.2360   15.5760 C   0  0  0  0  0
   22.4070   13.0380   16.5000 C   0  0  0  0  0
   23.2300   12.0260   17.3250 C   0  0  0  0  0
   23.0770   11.7510   18.4880 O   0  0  0  0  0
   24.1740   11.4530   16.5640 O   0  0  0  0  0
   20.4440   11.4740   16.3950 C   0  0  0  0  0
   19.3450   12.4070   16.8340 C   0  0  0  0  0
   18.3520   11.7210   17.7430 C   0  0  0  0  0
   17.8270   10.4410   17.4460 C   0  0  0  0  0
   16.8890    9.8570   18.2960 C   0  0  0  0  0
   16.4600   10.5230   19.4440 C   0  0  0  0  0
   16.9870   11.7870   19.7340 C   0  0  0  0  0
   16.4600   12.6050   21.1180 Cl  0  0  0  0  0
   17.9220   12.3910   18.9060 C   0  0  0  0  0
   19.8270   15.5800   12.9560 C   0  0  0  0  0
   19.4840   16.8960   13.6380 C   0  0  0  0  0
   17.8981   17.3091   17.5581 H   0  0  0  0  0
   19.4247   15.4966   16.7844 H   0  0  0  0  0
   14.4956   15.0705   16.1019 H   0  0  0  0  0
   16.0202   13.2597   15.3238 H   0  0  0  0  0
   18.0599   12.3652   15.1613 H   0  0  0  0  0
   18.0857   14.7289   13.7601 H   0  0  0  0  0
   19.7107   12.9106   11.9095 H   0  0  0  0  0
   18.5356   14.0911   11.2817 H   0  0  0  0  0
   17.6050   12.0002   11.6153 H   0  0  0  0  0
   22.0306   11.4698   15.0437 H   0  0  0  0  0
   21.8289   13.6845   17.1603 H   0  0  0  0  0
   23.0680   13.6728   15.9099 H   0  0  0  0  0
   24.1265   11.8102   15.6742 H   0  0  0  0  0
   20.9293   11.0497   17.2739 H   0  0  0  0  0
   20.0180   10.6756   15.7875 H   0  0  0  0  0
   19.7936   13.1930   17.4415 H   0  0  0  0  0
   18.1562    9.9113   16.5521 H   0  0  0  0  0
   16.4873    8.8712   18.0614 H   0  0  0  0  0
   15.7247   10.0656   20.1060 H   0  0  0  0  0
   18.3206   13.3751   19.1527 H   0  0  0  0  0
   19.6140   15.7345   11.8982 H   0  0  0  0  0
   20.8578   15.3647   13.2373 H   0  0  0  0  0
   18.4434   17.1488   13.4345 H   0  0  0  0  0
   19.6313   16.7957   14.7133 H   0  0  0  0  0
   20.1324   17.6831   13.2531 H   0  0  0  0  0
  1  2  1  0  0  0
  2  3  4  0  0  0
  2  5  4  0  0  0
  3  4  4  0  0  0
  4  7  4  0  0  0
  5  6  4  0  0  0
  6  7  4  0  0  0
  7  8  1  0  0  0
  8  9  1  0  0  0
  8 21  1  0  0  0
  9 10  1  0  0  0
  9 13  1  0  0  0
 10 11  1  0  0  0
 10 29  1  0  0  0
 11 12  1  0  0  0
 13 14  2  0  0  0
 13 15  1  0  0  0
 15 16  1  0  0  0
 15 20  1  0  0  0
 16 17  1  0  0  0
 17 18  2  0  0  0
 17 19  1  0  0  0
 20 21  1  0  0  0
 21 22  1  0  0  0
 22 23  4  0  0  0
 22 28  4  0  0  0
 23 24  4  0  0  0
 24 25  4  0  0  0
 25 26  4  0  0  0
 26 27  1  0  0  0
 26 28  4  0  0  0
 29 30  1  0  0  0
  3 31  1  0  0  0
  4 32  1  0  0  0
  5 33  1  0  0  0
  6 34  1  0  0  0
  8 35  1  0  0  0
 10 36  1  0  0  0
 11 37  1  0  0  0
 11 38  1  0  0  0
 12 39  1  0  0  0
 15 40  1  0  0  0
 16 41  1  0  0  0
 16 42  1  0  0  0
 19 43  1  0  0  0
 20 44  1  0  0  0
 20 45  1  0  0  0
 21 46  1  0  0  0
 23 47  1  0  0  0
 24 48  1  0  0  0
 25 49  1  0  0  0
 28 50  1  0  0  0
 29 51  1  0  0  0
 29 52  1  0  0  0
 30 53  1  0  0  0
 30 54  1  0  0  0
 30 55  1  0  0  0
M  END
$$$$
