4z2k_ligand
  -I-interpret- 

118119  0  0  0  0  0  0  0  0999 V2000
  -20.7070   -7.0260  -31.1300 C   0  0  0  0  0
  -21.1590   -6.0300  -30.1910 N   0  0  0  0  0
  -20.5120   -4.8720  -29.9760 C   0  0  0  0  0
  -19.4520   -4.6220  -30.5840 O   0  0  0  0  0
  -21.1030   -4.1000  -29.0310 N   0  0  0  0  0
  -20.6500   -2.9120  -28.5980 C   0  0  0  0  0
  -19.6820   -2.2580  -29.1240 N   0  0  0  0  0
  -21.1550   -2.4350  -27.4700 N   0  0  0  0  0
  -22.9260    3.5860  -26.8150 C   0  0  0  0  0
  -23.2030    5.0740  -27.0210 C   0  0  0  0  0
  -23.9510    5.5560  -25.8740 N   0  0  0  0  0
  -23.3620    5.7200  -24.6890 C   0  0  0  0  0
  -22.1490    5.8180  -24.5890 O   0  0  0  0  0
  -24.2110    5.6240  -23.4950 O   0  0  0  0  0
  -23.5970    5.7190  -22.1880 C   0  0  0  0  0
  -24.6580    6.3850  -21.2720 C   0  0  0  0  0
  -25.9200    5.5220  -21.1480 C   0  0  0  0  0
  -23.0560    4.3470  -21.6610 C   0  0  0  0  0
  -21.8440    3.7410  -22.3960 C   0  0  0  0  0
  -22.6810    4.3940  -20.2040 C   0  0  0  0  0
  -21.5180    4.5040  -19.8540 O   0  0  0  0  0
  -23.7510    4.2350  -19.2260 O   0  0  0  0  0
  -23.4040    4.1630  -17.8350 C   0  0  0  0  0
  -23.3270    2.7030  -17.3580 C   0  0  0  0  0
  -21.8990    2.2620  -17.0770 C   0  0  0  0  0
  -24.4300    5.0260  -17.0780 C   0  0  0  0  0
  -24.3530    4.7210  -15.6840 O   0  0  0  0  0
  -25.8780    4.7450  -17.5140 C   0  0  0  0  0
  -24.0160    6.4940  -17.3370 C   0  0  0  0  0
  -25.0130    7.5590  -16.8580 C   0  0  0  0  0
  -25.3060    7.5240  -15.3620 C   0  0  0  0  0
  -22.6980    6.7680  -16.8140 O   0  0  0  0  0
  -22.1480    8.0420  -17.1760 C   0  0  0  0  0
  -20.9620    7.8630  -18.1190 C   0  0  0  0  0
  -21.5590    8.6770  -15.9250 C   0  0  0  0  0
  -23.1480    8.8810  -17.8210 O   0  0  0  0  0
  -24.4990    8.9430  -17.2770 C   0  0  0  0  0
  -25.4880    9.6250  -18.2520 C   0  0  0  0  0
  -26.7930   10.0270  -17.5440 C   0  0  0  0  0
  -25.8050    8.7620  -19.4850 C   0  0  0  0  0
  -24.8100    8.9120  -20.6390 C   0  0  0  0  0
  -23.4790    8.8010  -20.1240 O   0  0  0  0  0
  -24.9480   10.3140  -21.2450 C   0  0  0  0  0
  -25.0210    7.8210  -21.7200 C   0  0  0  0  0
  -26.3870    7.8700  -22.1750 O   0  0  0  0  0
  -26.5930    7.8500  -23.6000 C   0  0  0  0  0
  -27.8770    8.5040  -23.9530 C   0  0  0  0  0
  -28.9810    9.0610  -24.2800 C   0  0  0  0  0
  -22.0210    3.0110  -27.8950 C   0  0  0  0  0
  -22.4000    1.5600  -28.1890 C   0  0  0  0  0
  -21.2230    0.5880  -28.0410 C   0  0  0  0  0
  -21.1250   -0.0580  -26.6560 C   0  0  0  0  0
  -20.4370   -1.4210  -26.6970 C   0  0  0  0  0
  -20.6717   -6.5920  -32.1292 H   0  0  0  0  0
  -19.7116   -7.3668  -30.8452 H   0  0  0  0  0
  -21.3971   -7.8697  -31.1231 H   0  0  0  0  0
  -22.0125   -6.2134  -29.6635 H   0  0  0  0  0
  -19.1927   -2.6357  -29.9353 H   0  0  0  0  0
  -22.0554   -2.7788  -27.1362 H   0  0  0  0  0
  -23.8779    3.0565  -26.8548 H   0  0  0  0  0
  -22.4246    3.4655  -25.8547 H   0  0  0  0  0
  -23.7769    5.2265  -27.9351 H   0  0  0  0  0
  -22.2651    5.6214  -27.1152 H   0  0  0  0  0
  -24.9425    5.7726  -25.9761 H   0  0  0  0  0
  -22.6927    6.3268  -22.2160 H   0  0  0  0  0
  -24.1974    6.4636  -20.2872 H   0  0  0  0  0
  -26.3589    5.3785  -22.1353 H   0  0  0  0  0
  -25.6562    4.5540  -20.7220 H   0  0  0  0  0
  -26.6385    6.0225  -20.4988 H   0  0  0  0  0
  -23.9162    3.7059  -21.8539 H   0  0  0  0  0
  -22.1021    3.5718  -23.4414 H   0  0  0  0  0
  -21.0019    4.4305  -22.3353 H   0  0  0  0  0
  -21.5740    2.7937  -21.9292 H   0  0  0  0  0
  -22.4064    4.5568  -17.6406 H   0  0  0  0  0
  -23.7278    2.0677  -18.1478 H   0  0  0  0  0
  -23.8951    2.6196  -16.4315 H   0  0  0  0  0
  -21.3065    2.3519  -17.9875 H   0  0  0  0  0
  -21.4710    2.8948  -16.2995 H   0  0  0  0  0
  -21.8995    1.2243  -16.7434 H   0  0  0  0  0
  -24.9904    5.2556  -15.2049 H   0  0  0  0  0
  -25.9832    4.9563  -18.5781 H   0  0  0  0  0
  -26.1165    3.6984  -17.3248 H   0  0  0  0  0
  -26.5569    5.3819  -16.9470 H   0  0  0  0  0
  -24.0105    6.5787  -18.4237 H   0  0  0  0  0
  -25.9672    7.3358  -17.3352 H   0  0  0  0  0
  -25.7267    6.5537  -15.0981 H   0  0  0  0  0
  -24.3808    7.6832  -14.8080 H   0  0  0  0  0
  -26.0192    8.3102  -15.1143 H   0  0  0  0  0
  -20.1918    7.2717  -17.6238 H   0  0  0  0  0
  -21.2918    7.3493  -19.0220 H   0  0  0  0  0
  -20.5582    8.8406  -18.3825 H   0  0  0  0  0
  -22.3442    8.8049  -15.1799 H   0  0  0  0  0
  -20.7779    8.0308  -15.5244 H   0  0  0  0  0
  -21.1344    9.6486  -16.1777 H   0  0  0  0  0
  -24.4409    9.5609  -16.3809 H   0  0  0  0  0
  -24.9832   10.5251  -18.6030 H   0  0  0  0  0
  -27.2711    9.1375  -17.1336 H   0  0  0  0  0
  -26.5673   10.7246  -16.7375 H   0  0  0  0  0
  -27.4622   10.5027  -18.2609 H   0  0  0  0  0
  -26.7770    9.0845  -19.8583 H   0  0  0  0  0
  -25.7661    7.7211  -19.1639 H   0  0  0  0  0
  -22.8500    8.8943  -20.8432 H   0  0  0  0  0
  -25.9636   10.4493  -21.6170 H   0  0  0  0  0
  -24.7373   11.0614  -20.4801 H   0  0  0  0  0
  -24.2409   10.4243  -22.0671 H   0  0  0  0  0
  -24.3258    8.0500  -22.5277 H   0  0  0  0  0
  -26.6205    6.8140  -23.9377 H   0  0  0  0  0
  -25.7780    8.3904  -24.0816 H   0  0  0  0  0
  -20.9881    3.0454  -27.5486 H   0  0  0  0  0
  -22.1354    3.5997  -28.8052 H   0  0  0  0  0
  -22.7422    1.5103  -29.2227 H   0  0  0  0  0
  -23.1647    1.2656  -27.4702 H   0  0  0  0  0
  -20.3081    1.1591  -28.1986 H   0  0  0  0  0
  -21.3711   -0.2142  -28.7640 H   0  0  0  0  0
  -22.1374   -0.2023  -26.2787 H   0  0  0  0  0
  -20.5339    0.5992  -26.0183 H   0  0  0  0  0
  -19.4691   -1.2774  -27.1773 H   0  0  0  0  0
  -20.3790   -1.7820  -25.6702 H   0  0  0  0  0
  2  1  1  0  0  0
  3  2  1  0  0  0
  3  4  2  0  0  0
  5  3  1  0  0  0
  6  5  4  0  0  0
  6  7  2  0  0  0
  8  6  1  0  0  0
 53  8  1  0  0  0
  9 10  1  0  0  0
 49  9  1  0  0  0
 10 11  1  0  0  0
 11 12  1  0  0  0
 12 13  2  0  0  0
 12 14  1  0  0  0
 14 15  1  0  0  0
 15 16  1  0  0  0
 15 18  1  0  0  0
 16 17  1  0  0  0
 16 44  1  0  0  0
 18 19  1  0  0  0
 18 20  1  0  0  0
 20 21  2  0  0  0
 20 22  1  0  0  0
 22 23  1  0  0  0
 23 24  1  0  0  0
 23 26  1  0  0  0
 24 25  1  0  0  0
 26 27  1  0  0  0
 26 28  1  0  0  0
 26 29  1  0  0  0
 29 30  1  0  0  0
 29 32  1  0  0  0
 30 31  1  0  0  0
 37 30  1  0  0  0
 32 33  1  0  0  0
 33 34  1  0  0  0
 33 35  1  0  0  0
 36 33  1  0  0  0
 37 36  1  0  0  0
 38 37  1  0  0  0
 38 39  1  0  0  0
 40 38  1  0  0  0
 41 40  1  0  0  0
 41 42  1  0  0  0
 41 43  1  0  0  0
 44 41  1  0  0  0
 44 45  1  0  0  0
 45 46  1  0  0  0
 46 47  1  0  0  0
 47 48  3  0  0  0
 50 49  1  0  0  0
 51 50  1  0  0  0
 52 51  1  0  0  0
 52 53  1  0  0  0
  1 54  1  0  0  0
  1 55  1  0  0  0
  1 56  1  0  0  0
  2 57  1  0  0  0
  7 58  1  0  0  0
  8 59  1  0  0  0
  9 60  1  0  0  0
  9 61  1  0  0  0
 10 62  1  0  0  0
 10 63  1  0  0  0
 11 64  1  0  0  0
 15 65  1  0  0  0
 16 66  1  0  0  0
 17 67  1  0  0  0
 17 68  1  0  0  0
 17 69  1  0  0  0
 18 70  1  0  0  0
 19 71  1  0  0  0
 19 72  1  0  0  0
 19 73  1  0  0  0
 23 74  1  0  0  0
 24 75  1  0  0  0
 24 76  1  0  0  0
 25 77  1  0  0  0
 25 78  1  0  0  0
 25 79  1  0  0  0
 27 80  1  0  0  0
 28 81  1  0  0  0
 28 82  1  0  0  0
 28 83  1  0  0  0
 29 84  1  0  0  0
 30 85  1  0  0  0
 31 86  1  0  0  0
 31 87  1  0  0  0
 31 88  1  0  0  0
 34 89  1  0  0  0
 34 90  1  0  0  0
 34 91  1  0  0  0
 35 92  1  0  0  0
 35 93  1  0  0  0
 35 94  1  0  0  0
 37 95  1  0  0  0
 38 96  1  0  0  0
 39 97  1  0  0  0
 39 98  1  0  0  0
 39 99  1  0  0  0
 40100  1  0  0  0
 40101  1  0  0  0
 42102  1  0  0  0
 43103  1  0  0  0
 43104  1  0  0  0
 43105  1  0  0  0
 44106  1  0  0  0
 46107  1  0  0  0
 46108  1  0  0  0
 49109  1  0  0  0
 49110  1  0  0  0
 50111  1  0  0  0
 50112  1  0  0  0
 51113  1  0  0  0
 51114  1  0  0  0
 52115  1  0  0  0
 52116  1  0  0  0
 53117  1  0  0  0
 53118  1  0  0  0
M  END
$$$$
