2c6n_ligand
  -I-interpret- 

 60 61  0  0  0  0  0  0  0  0999 V2000
  -28.3030  -20.4080  -34.7740 O   0  0  0  0  0
  -26.2890  -21.2360  -34.7760 O   0  0  0  0  0
  -27.0740  -20.3500  -34.4390 C   0  0  0  0  0
  -26.5420  -19.1290  -33.6480 C   0  0  0  0  0
  -26.4180  -19.7210  -32.3000 C   0  0  0  0  0
  -25.1380  -20.3740  -31.8460 C   0  0  0  0  0
  -24.9480  -20.9490  -30.4960 C   0  0  0  0  0
  -25.5160  -20.3160  -29.2880 C   0  0  0  0  0
  -25.2750  -20.9120  -27.9950 C   0  0  0  0  0
  -24.4700  -22.1380  -27.8800 C   0  0  0  0  0
  -23.9090  -22.7670  -29.0800 C   0  0  0  0  0
  -24.1500  -22.1680  -30.3820 C   0  0  0  0  0
  -27.1190  -18.1380  -33.9690 N   0  3  0  0  0
  -28.5840  -11.5430  -36.0340 N   0  3  0  0  0
  -25.8070  -17.1520  -35.8840 C   0  0  0  0  0
  -27.2610  -17.5220  -35.3340 C   0  0  0  0  0
  -24.8520  -17.0380  -35.0470 O   0  0  0  0  0
  -28.1220  -16.2850  -35.2840 C   0  0  0  0  0
  -27.6920  -15.0040  -34.7730 C   0  0  0  0  0
  -28.2810  -13.8180  -35.6110 C   0  0  0  0  0
  -27.9410  -12.5420  -35.1450 C   0  0  0  0  0
  -22.5700  -15.1820  -36.9960 O   0  0  0  0  0
  -24.4740  -14.2250  -37.5470 O   0  0  0  0  0
  -25.6100  -16.9680  -37.2440 N   0  0  0  0  0
  -24.2490  -16.6190  -37.8570 C   0  0  0  0  0
  -24.6010  -16.5590  -39.3420 C   0  0  0  0  0
  -25.9190  -16.8080  -39.5360 C   0  0  0  0  0
  -26.6480  -17.0770  -38.3050 C   0  0  0  0  0
  -23.7700  -15.1860  -37.4400 C   0  0  0  0  0
  -28.7643  -19.6403  -34.4285 H   0  0  0  0  0
  -25.5715  -18.6637  -33.8204 H   0  0  0  0  0
  -27.1406  -20.5370  -32.3050 H   0  0  0  0  0
  -26.5297  -18.8694  -31.6289 H   0  0  0  0  0
  -24.4245  -19.5502  -31.8629 H   0  0  0  0  0
  -25.0656  -21.2466  -32.4952 H   0  0  0  0  0
  -26.1117  -19.4071  -29.3720 H   0  0  0  0  0
  -25.6917  -20.4511  -27.0994 H   0  0  0  0  0
  -24.2901  -22.5801  -26.9001 H   0  0  0  0  0
  -23.3155  -23.6774  -28.9960 H   0  0  0  0  0
  -23.7338  -22.6299  -31.2773 H   0  0  0  0  0
  -26.5523  -17.4305  -33.5014 H   0  0  0  0  0
  -28.0837  -18.4143  -33.7860 H   0  0  0  0  0
  -28.3498  -10.6035  -35.7132 H   0  0  0  0  0
  -28.2468  -11.6717  -36.9880 H   0  0  0  0  0
  -29.5958  -11.6695  -36.0098 H   0  0  0  0  0
  -27.7441  -18.2381  -35.9988 H   0  0  0  0  0
  -28.9016  -16.5699  -34.5775 H   0  0  0  0  0
  -28.2892  -16.0725  -36.3399 H   0  0  0  0  0
  -26.6045  -14.9587  -34.8312 H   0  0  0  0  0
  -28.0454  -14.9077  -33.7464 H   0  0  0  0  0
  -29.3665  -13.8973  -35.5510 H   0  0  0  0  0
  -27.8699  -13.9070  -36.6166 H   0  0  0  0  0
  -28.2864  -12.4111  -34.1195 H   0  0  0  0  0
  -26.8586  -12.4135  -35.1548 H   0  0  0  0  0
  -22.2219  -16.0765  -37.0099 H   0  0  0  0  0
  -23.4664  -17.3180  -37.5620 H   0  0  0  0  0
  -23.8883  -16.3448  -40.1384 H   0  0  0  0  0
  -26.3883  -16.8069  -40.5198 H   0  0  0  0  0
  -27.4723  -16.3806  -38.1511 H   0  0  0  0  0
  -27.1298  -18.0547  -38.3142 H   0  0  0  0  0
  3  1  1  0  0  0
  3  2  2  0  0  0
  4  3  1  0  0  0
  4  5  1  0  0  0
 13  4  1  0  0  0
  5  6  1  0  0  0
  6  7  1  0  0  0
  7  8  4  0  0  0
  7 12  4  0  0  0
  8  9  4  0  0  0
  9 10  4  0  0  0
 11 10  4  0  0  0
 12 11  4  0  0  0
 16 13  1  0  0  0
 21 14  1  0  0  0
 15 16  1  0  0  0
 15 17  2  0  0  0
 24 15  1  0  0  0
 16 18  1  0  0  0
 18 19  1  0  0  0
 19 20  1  0  0  0
 20 21  1  0  0  0
 29 22  1  0  0  0
 29 23  2  0  0  0
 25 24  1  0  0  0
 24 28  1  0  0  0
 25 26  1  0  0  0
 25 29  1  0  0  0
 26 27  2  0  0  0
 27 28  1  0  0  0
  1 30  1  0  0  0
  4 31  1  0  0  0
  5 32  1  0  0  0
  5 33  1  0  0  0
  6 34  1  0  0  0
  6 35  1  0  0  0
  8 36  1  0  0  0
  9 37  1  0  0  0
 10 38  1  0  0  0
 11 39  1  0  0  0
 12 40  1  0  0  0
 13 41  1  0  0  0
 13 42  1  0  0  0
 14 43  1  0  0  0
 14 44  1  0  0  0
 14 45  1  0  0  0
 16 46  1  0  0  0
 18 47  1  0  0  0
 18 48  1  0  0  0
 19 49  1  0  0  0
 19 50  1  0  0  0
 20 51  1  0  0  0
 20 52  1  0  0  0
 21 53  1  0  0  0
 21 54  1  0  0  0
 22 55  1  0  0  0
 25 56  1  0  0  0
 26 57  1  0  0  0
 27 58  1  0  0  0
 28 59  1  0  0  0
 28 60  1  0  0  0
M  END
$$$$
