3rxp_ligand
  -I-interpret- 

 21 21  0  0  0  0  0  0  0  0999 V2000
   -1.0050  -14.1400   13.4810 C   0  0  0  0  0
   -3.1200  -13.5550   18.9450 N   0  3  0  0  0
   -1.3460  -14.4720   14.9100 C   0  0  0  0  0
   -1.8970  -15.3340   16.8790 N   0  0  0  0  0
   -1.3340  -13.4410   15.8310 C   0  0  0  0  0
   -1.6800  -15.5930   15.5240 N   0  0  0  0  0
   -1.6850  -14.0050   17.0590 C   0  0  0  0  0
   -1.8130  -13.2910   18.3840 C   0  0  0  0  0
   -1.8490  -16.9950   15.0660 C   0  0  0  0  0
   -1.7164  -13.4073   13.0999 H   0  0  0  0  0
    0.0029  -13.7274   13.4358 H   0  0  0  0  0
   -1.0556  -15.0458   12.8769 H   0  0  0  0  0
   -3.2081  -13.0735   19.8399 H   0  0  0  0  0
   -3.8382  -13.2179   18.3040 H   0  0  0  0  0
   -3.2320  -14.5591   19.0853 H   0  0  0  0  0
   -1.0973  -12.3949   15.6368 H   0  0  0  0  0
   -1.0433  -13.6495   19.0675 H   0  0  0  0  0
   -1.6902  -12.2184   18.2339 H   0  0  0  0  0
   -2.6250  -17.0351   14.3016 H   0  0  0  0  0
   -0.9084  -17.3558   14.6499 H   0  0  0  0  0
   -2.1372  -17.6198   15.9114 H   0  0  0  0  0
  3  1  1  0  0  0
  8  2  1  0  0  0
  5  3  4  0  0  0
  3  6  4  0  0  0
  4  6  4  0  0  0
  7  4  4  0  0  0
  7  5  4  0  0  0
  6  9  1  0  0  0
  7  8  1  0  0  0
  1 10  1  0  0  0
  1 11  1  0  0  0
  1 12  1  0  0  0
  2 13  1  0  0  0
  2 14  1  0  0  0
  2 15  1  0  0  0
  5 16  1  0  0  0
  8 17  1  0  0  0
  8 18  1  0  0  0
  9 19  1  0  0  0
  9 20  1  0  0  0
  9 21  1  0  0  0
M  END
$$$$
