2chz_ligand
  -I-interpret- 

 40 41  0  0  0  0  0  0  0  0999 V2000
   44.3600   14.0700   34.5390 O   0  0  0  0  0
   43.1120   13.3650   34.1170 S   0  0  0  0  0
   42.7760   12.3580   35.1680 O   0  0  0  0  0
   41.9560   14.3530   34.0230 N   0  0  0  0  0
   42.2120   15.7750   33.8090 C   0  0  0  0  0
   40.8750   16.3870   33.3920 C   0  0  0  0  0
   40.9830   16.9600   32.0940 O   0  0  0  0  0
   43.4250   12.5360   32.5900 C   0  0  0  0  0
   42.4200   11.8410   31.9140 C   0  0  0  0  0
   40.8130   11.7790   32.5390 Cl  0  0  0  0  0
   42.6890   11.1820   30.7180 C   0  0  0  0  0
   43.9670   11.1960   30.1730 C   0  0  0  0  0
   44.7030   12.5410   32.0240 C   0  0  0  0  0
   44.9890   11.8790   30.8220 C   0  0  0  0  0
   46.2860   11.9110   30.2930 C   0  0  0  0  0
   46.7240   11.2980   29.1190 C   0  0  0  0  0
   45.8850   10.4650   28.1490 C   0  0  0  0  0
   48.0130   11.5100   28.8790 N   0  0  0  0  0
   47.5390   12.7680   31.0890 S   0  0  0  0  0
   48.5840   12.2600   29.8180 C   0  0  0  0  0
   49.8860   12.5750   29.7820 N   0  0  0  0  0
   50.4440   13.7270   30.1800 C   0  0  0  0  0
   49.8210   14.6770   30.6220 O   0  0  0  0  0
   51.9360   13.7990   30.0350 C   0  0  0  0  0
   40.9962   14.0189   34.1102 H   0  0  0  0  0
   42.9718   15.9279   33.0426 H   0  0  0  0  0
   42.5967   16.2468   34.7131 H   0  0  0  0  0
   40.5999   17.1647   34.1045 H   0  0  0  0  0
   40.1139   15.6069   33.3764 H   0  0  0  0  0
   40.1386   17.3410   31.8424 H   0  0  0  0  0
   41.8890   10.6495   30.2037 H   0  0  0  0  0
   44.1678   10.6724   29.2383 H   0  0  0  0  0
   45.5034   13.0772   32.5339 H   0  0  0  0  0
   45.4726    9.6037   28.6746 H   0  0  0  0  0
   45.0722   11.0761   27.7564 H   0  0  0  0  0
   46.5143   10.1236   27.3271 H   0  0  0  0  0
   50.5181   11.8644   29.4135 H   0  0  0  0  0
   52.1953   14.6163   29.3620 H   0  0  0  0  0
   52.3867   13.9741   31.0119 H   0  0  0  0  0
   52.3058   12.8587   29.6261 H   0  0  0  0  0
  1  2  2  0  0  0
  2  3  2  0  0  0
  2  4  1  0  0  0
  2  8  1  0  0  0
  4  5  1  0  0  0
  5  6  1  0  0  0
  6  7  1  0  0  0
  8  9  4  0  0  0
  8 13  4  0  0  0
  9 10  1  0  0  0
  9 11  4  0  0  0
 11 12  4  0  0  0
 12 14  4  0  0  0
 13 14  4  0  0  0
 14 15  1  0  0  0
 15 16  4  0  0  0
 15 19  4  0  0  0
 16 17  1  0  0  0
 16 18  4  0  0  0
 18 20  4  0  0  0
 19 20  4  0  0  0
 20 21  1  0  0  0
 21 22  1  0  0  0
 22 23  2  0  0  0
 22 24  1  0  0  0
  4 25  1  0  0  0
  5 26  1  0  0  0
  5 27  1  0  0  0
  6 28  1  0  0  0
  6 29  1  0  0  0
  7 30  1  0  0  0
 11 31  1  0  0  0
 12 32  1  0  0  0
 13 33  1  0  0  0
 17 34  1  0  0  0
 17 35  1  0  0  0
 17 36  1  0  0  0
 21 37  1  0  0  0
 24 38  1  0  0  0
 24 39  1  0  0  0
 24 40  1  0  0  0
M  END
$$$$
