4jnj_ligand
  -I-interpret- 

 32 33  0  0  0  0  0  0  0  0999 V2000
   32.6240  -10.6610  -26.6080 C   0  0  0  0  0
   31.5020  -10.5000  -26.0930 O   0  0  0  0  0
   33.5670  -11.1680  -25.9810 O   0  0  0  0  0
   32.8300  -10.2460  -28.0640 C   0  0  0  0  0
   34.2600   -9.7520  -28.3220 C   0  0  0  0  0
   34.4980   -8.3410  -27.7850 C   0  0  0  0  0
   35.9390   -7.8860  -28.0130 C   0  0  0  0  0
   36.1900   -6.5900  -27.2460 C   0  0  0  0  0
   35.2910   -5.2070  -27.8970 S   0  0  0  0  0
   36.2900   -4.0110  -27.0880 C   0  0  0  0  0
   37.6990   -4.6100  -27.0960 C   0  0  0  0  0
   38.4130   -4.1220  -28.2610 N   0  0  0  0  0
   38.7160   -5.1970  -29.1780 C   0  0  0  0  0
   39.2630   -5.0640  -30.2830 O   0  0  0  0  0
   38.2680   -6.4310  -28.5630 N   0  0  0  0  0
   37.6500   -6.1430  -27.2700 C   0  0  0  0  0
   30.9122  -10.0958  -26.7335 H   0  0  0  0  0
   32.1415   -9.4311  -28.2876 H   0  0  0  0  0
   32.6498  -11.1157  -28.6958 H   0  0  0  0  0
   34.4196   -9.7328  -29.4001 H   0  0  0  0  0
   34.9462  -10.4267  -27.8101 H   0  0  0  0  0
   34.3042   -8.3442  -26.7124 H   0  0  0  0  0
   33.8338   -7.6560  -28.3120 H   0  0  0  0  0
   36.1027   -7.7162  -29.0772 H   0  0  0  0  0
   36.6239   -8.6565  -27.6590 H   0  0  0  0  0
   35.8655   -6.8450  -26.2371 H   0  0  0  0  0
   35.9408   -3.8078  -26.0757 H   0  0  0  0  0
   36.2563   -3.0453  -27.5924 H   0  0  0  0  0
   38.1746   -4.3354  -26.1545 H   0  0  0  0  0
   38.6681   -3.1462  -28.4131 H   0  0  0  0  0
   38.3689   -7.3603  -28.9711 H   0  0  0  0  0
   38.1769   -6.6718  -26.4757 H   0  0  0  0  0
  1  2  1  0  0  0
  1  3  2  0  0  0
  1  4  1  0  0  0
  4  5  1  0  0  0
  5  6  1  0  0  0
  6  7  1  0  0  0
  7  8  1  0  0  0
  8  9  1  0  0  0
  8 16  1  0  0  0
  9 10  1  0  0  0
 10 11  1  0  0  0
 11 12  1  0  0  0
 11 16  1  0  0  0
 12 13  1  0  0  0
 13 14  2  0  0  0
 13 15  1  0  0  0
 15 16  1  0  0  0
  2 17  1  0  0  0
  4 18  1  0  0  0
  4 19  1  0  0  0
  5 20  1  0  0  0
  5 21  1  0  0  0
  6 22  1  0  0  0
  6 23  1  0  0  0
  7 24  1  0  0  0
  7 25  1  0  0  0
  8 26  1  0  0  0
 10 27  1  0  0  0
 10 28  1  0  0  0
 11 29  1  0  0  0
 12 30  1  0  0  0
 15 31  1  0  0  0
 16 32  1  0  0  0
M  END
$$$$
