4ew3_ligand
  -I-interpret- 

 60 61  0  0  0  0  0  0  0  0999 V2000
    1.3850   72.1720   88.2490 O   0  0  0  0  0
    1.0580   72.0550   89.4610 C   0  0  0  0  0
    0.0810   72.6600   90.0110 O   0  0  0  0  0
    1.9870   71.1120   90.3140 C   0  0  0  0  0
    3.1130   71.8660   91.0410 C   0  0  0  0  0
    3.6970   71.0780   92.2340 C   0  0  0  0  0
    3.8320   72.0260   93.4290 C   0  0  0  0  0
    2.9370   72.0280   94.2920 O   0  0  0  0  0
    4.8240   72.7690   93.4300 O   0  0  0  0  0
    2.9140   69.8680   92.5540 N   0  0  0  0  0
    3.5120   68.6940   92.6630 C   0  0  0  0  0
    4.7220   68.5420   92.4910 O   0  0  0  0  0
    2.6120   67.5360   92.9900 C   0  0  0  0  0
    1.2640   67.7350   93.1270 C   0  0  0  0  0
    0.4420   66.6520   93.4190 C   0  0  0  0  0
    3.1140   66.2620   93.1950 C   0  0  0  0  0
    2.2920   65.1800   93.5000 C   0  0  0  0  0
    0.9240   65.3720   93.6150 C   0  0  0  0  0
   -0.0370   64.2200   93.9680 C   0  0  0  0  0
   -0.9620   63.6800   92.4750 S   0  0  0  0  0
   -2.5730   64.4730   92.6570 C   0  0  0  0  0
   -1.0410   64.6150   95.1110 C   0  0  0  0  0
   -0.3750   64.5990   96.4780 C   0  0  0  0  0
   -1.3100   64.8650   97.6970 C   0  0  0  0  0
   -0.4470   65.6020   98.7030 C   0  0  0  0  0
    0.3350   64.8920   99.6200 C   0  0  0  0  0
    0.3200   63.6620   99.6640 O   0  0  0  0  0
    1.1220   65.5590  100.5110 N   0  0  0  0  0
    1.1870   66.9410  100.4900 C   0  0  0  0  0
    1.9870   67.5650  101.3430 N   0  0  0  0  0
    0.4370   67.6310   99.6050 N   0  0  0  0  0
   -0.3600   67.0030   98.7220 C   0  0  0  0  0
   -1.0760   67.7500   97.8490 N   0  0  0  0  0
    0.0322   72.4110   90.9369 H   0  0  0  0  0
    2.4529   70.4018   89.6308 H   0  0  0  0  0
    1.3660   70.6350   91.0723 H   0  0  0  0  0
    2.6932   72.7936   91.4301 H   0  0  0  0  0
    3.9187   72.0290   90.3252 H   0  0  0  0  0
    4.6848   70.7051   91.9635 H   0  0  0  0  0
    2.2796   71.3642   94.0711 H   0  0  0  0  0
    1.9058   69.9382   92.6918 H   0  0  0  0  0
    0.8398   68.7320   93.0084 H   0  0  0  0  0
   -0.6321   66.8207   93.4968 H   0  0  0  0  0
    4.1890   66.1005   93.1150 H   0  0  0  0  0
    2.7214   64.1890   93.6473 H   0  0  0  0  0
    0.5709   63.3937   94.3365 H   0  0  0  0  0
   -3.0424   64.1316   93.5796 H   0  0  0  0  0
   -2.4422   65.5545   92.6930 H   0  0  0  0  0
   -3.2039   64.2101   91.8079 H   0  0  0  0  0
   -1.8548   63.8899   95.1179 H   0  0  0  0  0
   -1.4008   65.6254   94.9170 H   0  0  0  0  0
    0.3567   65.4069   96.4715 H   0  0  0  0  0
    0.0243   63.5937   96.6122 H   0  0  0  0  0
   -1.7079   63.9379   98.1097 H   0  0  0  0  0
   -2.1860   65.4483   97.4134 H   0  0  0  0  0
   -1.5265   65.5101   98.5831 H   0  0  0  0  0
    1.6662   65.0362  101.1973 H   0  0  0  0  0
    2.5459   67.0268  102.0050 H   0  0  0  0  0
    0.4754   68.6503   99.6058 H   0  0  0  0  0
   -1.6857   67.2955   97.1693 H   0  0  0  0  0
  1  2  2  0  0  0
  2  3  1  0  0  0
  2  4  1  0  0  0
  4  5  1  0  0  0
  5  6  1  0  0  0
  6  7  1  0  0  0
  6 10  1  0  0  0
  7  8  1  0  0  0
  7  9  2  0  0  0
 10 11  1  0  0  0
 11 12  2  0  0  0
 11 13  1  0  0  0
 13 14  4  0  0  0
 13 16  4  0  0  0
 14 15  4  0  0  0
 15 18  4  0  0  0
 16 17  4  0  0  0
 17 18  4  0  0  0
 18 19  1  0  0  0
 19 20  1  0  0  0
 19 22  1  0  0  0
 20 21  1  0  0  0
 22 23  1  0  0  0
 23 24  1  0  0  0
 24 25  1  0  0  0
 25 26  1  0  0  0
 25 32  1  0  0  0
 26 27  2  0  0  0
 26 28  1  0  0  0
 28 29  1  0  0  0
 29 30  2  0  0  0
 29 31  1  0  0  0
 31 32  1  0  0  0
 32 33  2  0  0  0
  3 34  1  0  0  0
  4 35  1  0  0  0
  4 36  1  0  0  0
  5 37  1  0  0  0
  5 38  1  0  0  0
  6 39  1  0  0  0
  8 40  1  0  0  0
 10 41  1  0  0  0
 14 42  1  0  0  0
 15 43  1  0  0  0
 16 44  1  0  0  0
 17 45  1  0  0  0
 19 46  1  0  0  0
 21 47  1  0  0  0
 21 48  1  0  0  0
 21 49  1  0  0  0
 22 50  1  0  0  0
 22 51  1  0  0  0
 23 52  1  0  0  0
 23 53  1  0  0  0
 24 54  1  0  0  0
 24 55  1  0  0  0
 25 56  1  0  0  0
 28 57  1  0  0  0
 30 58  1  0  0  0
 31 59  1  0  0  0
 33 60  1  0  0  0
M  END
$$$$
