### 
### Created by X-TOOL on Sun Sep  9 21:50:04 2018
### 

@<TRIPOS>MOLECULE
1q4k_ligand
   98    98     1     0     0
SMALL
GAST_HUCK


@<TRIPOS>ATOM
      1 N          34.9380    3.8680  -44.4760 N.4       1 NON         0.2379
      2 CA         33.6010    4.3520  -43.9920 C.3       1 NON         0.0658
      3 C          33.7660    5.3340  -42.8300 C.2       1 NON         0.2267
      4 O          34.7060    5.2240  -42.0540 O.2       1 NON        -0.3907
      5 CB         32.7790    3.1720  -43.5030 C.3       1 NON         0.0168
      6 CG         32.0110    2.4230  -44.5500 C.3       1 NON         0.0007
      7 SD         30.6480    1.5520  -43.7340 S.3       1 NON        -0.1638
      8 CE         29.4550    2.9190  -43.5180 C.3       1 NON        -0.0181
      9 N          32.8350    6.2740  -42.7130 N.am      1 NON        -0.2609
     10 CA         32.8920    7.3390  -41.7090 C.3       1 NON         0.1331
     11 C          31.4920    7.6260  -41.1630 C.2       1 NON         0.2041
     12 O          30.4950    7.3220  -41.8110 O.2       1 NON        -0.3944
     13 CB         33.4500    8.6190  -42.3210 C.3       1 NON         0.0045
     14 CG         32.6060    9.1390  -43.4760 C.3       1 NON         0.0412
     15 CD         33.0380   10.5000  -44.0040 C.2       1 NON         0.1737
     16 OE1        32.2870   11.1290  -44.7530 O.2       1 NON        -0.3973
     17 NE2        34.2480   10.9470  -43.6400 N.am      1 NON        -0.3009
     18 N          31.4250    8.2440  -39.9890 N.am      1 NON        -0.2616
     19 CA         30.1500    8.5250  -39.3730 C.3       1 NON         0.1539
     20 C          29.5570    9.6860  -40.1900 C.2       1 NON         0.2063
     21 O          30.1870   10.1280  -41.1470 O.2       1 NON        -0.3943
     22 CB         30.3000    8.8220  -37.8670 C.3       1 NON         0.0843
     23 OG         30.9920   10.0340  -37.6120 O.3       1 NON        -0.3903
     24 N          28.3640   10.1550  -39.8270 N.am      1 NON        -0.2610
     25 CA         27.5940   11.1180  -40.6030 C.3       1 NON         0.1614
     26 CB         26.2880   11.2140  -39.8170 C.3       1 NON         0.1262
     27 CG2        25.2910   12.1370  -40.4970 C.3       1 NON        -0.0298
     28 OG1        25.7770    9.8780  -39.6770 O.3       1 NON        -0.2685
     29 P          25.1750    9.2320  -38.3170 P.3       1 NON         0.2014
     30 O1P        24.4760   10.5580  -37.5410 O.co2     1 NON        -0.5537
     31 O2P        26.8050    8.9130  -38.0280 O.co2     1 NON        -0.5537
     32 O3P        24.2450    8.0580  -39.0800 O.co2     1 NON        -0.5537
     33 C          28.2950   12.4730  -40.7990 C.2       1 NON         0.2093
     34 O          28.7130   13.0820  -39.5910 O.2       1 NON        -0.3941
     35 N          28.4680   13.0070  -42.0230 N.am      1 NON        -0.2498
     36 CA         29.1750   14.2930  -42.2390 C.3       1 NON         0.1337
     37 C          28.3920   15.5490  -41.8470 C.2       1 NON         0.2035
     38 O          27.1740   15.5010  -41.6770 O.2       1 NON        -0.3944
     39 CB         29.4380   14.2940  -43.7480 C.3       1 NON        -0.0104
     40 CG         28.3020   13.5050  -44.3210 C.3       1 NON        -0.0281
     41 CD         28.0300   12.4210  -43.3070 C.3       1 NON         0.0369
     42 N          29.1110   16.6590  -41.6930 N.am      1 NON        -0.2695
     43 CA         28.5220   17.9430  -41.3190 C.3       1 NON         0.0946
     44 C          27.6190   18.5090  -42.4280 C.2       1 NON         0.0601
     45 O          27.0550   17.7660  -43.2360 O.co2     1 NON        -0.5666
     46 CB         29.6240   18.9670  -40.9920 C.3       1 NON        -0.0156
     47 CG         30.4160   18.7420  -39.7030 C.3       1 NON        -0.0431
     48 CD1        31.7540   19.4620  -39.7570 C.3       1 NON        -0.0625
     49 CD2        29.6390   19.1750  -38.4620 C.3       1 NON        -0.0625
     50 O1         27.4519   19.7550  -42.5132 O.co2     1 NON        -0.5666
     51 H1         34.8057    3.2237  -45.2399 H         1 NON         0.2015
     52 H2         35.4194    3.4019  -43.7229 H         1 NON         0.2015
     53 H3         35.4861    4.6535  -44.7901 H         1 NON         0.2015
     54 H4         33.0764    4.8507  -44.8203 H         1 NON         0.1098
     55 H5         32.0579    3.5487  -42.7627 H         1 NON         0.0354
     56 H6         33.4655    2.4624  -43.0181 H         1 NON         0.0354
     57 H7         32.6708    1.6981  -45.0491 H         1 NON         0.0380
     58 H8         31.6108    3.1274  -45.2940 H         1 NON         0.0380
     59 H9         28.5490    2.5401  -43.0224 H         1 NON         0.0340
     60 H10        29.1890    3.3324  -44.5020 H         1 NON         0.0340
     61 H11        29.9087    3.7074  -42.8995 H         1 NON         0.0340
     62 H12        32.0571    6.2537  -43.3411 H         1 NON         0.1885
     63 H13        33.5447    7.0173  -40.8841 H         1 NON         0.0801
     64 H14        34.4659    8.4173  -42.6914 H         1 NON         0.0337
     65 H15        33.4913    9.3926  -41.5401 H         1 NON         0.0337
     66 H16        31.5637    9.2174  -43.1332 H         1 NON         0.0504
     67 H17        32.6671    8.4141  -44.3011 H         1 NON         0.0504
     68 H18        34.5710   11.8361  -43.9644 H         1 NON         0.1814
     69 H19        34.8278   10.3914  -43.0440 H         1 NON         0.1814
     70 H20        32.2681    8.5179  -39.5263 H         1 NON         0.1884
     71 H21        29.4942    7.6478  -39.4749 H         1 NON         0.0823
     72 H22        30.8549    7.9954  -37.3993 H         1 NON         0.0606
     73 H23        29.2970    8.8893  -37.4204 H         1 NON         0.0606
     74 H24        31.8635    9.9847  -37.9868 H         1 NON         0.2097
     75 H25        27.9725    9.8253  -38.9679 H         1 NON         0.1884
     76 H26        27.3928   10.7055  -41.6027 H         1 NON         0.0830
     77 H27        26.5012   11.6204  -38.8173 H         1 NON         0.0695
     78 H28        24.3664   12.1797  -39.9026 H         1 NON         0.0260
     79 H29        25.0630   11.7536  -41.5025 H         1 NON         0.0260
     80 H30        25.7216   13.1459  -40.5782 H         1 NON         0.0260
     81 H31        30.1221   14.2898  -41.6795 H         1 NON         0.0802
     82 H32        30.4007   13.8133  -43.9763 H         1 NON         0.0313
     83 H33        29.4379   15.3206  -44.1431 H         1 NON         0.0313
     84 H34        27.4156   14.1429  -44.4525 H         1 NON         0.0287
     85 H35        28.5852   13.0666  -45.2893 H         1 NON         0.0287
     86 H36        26.9584   12.1742  -43.2778 H         1 NON         0.0524
     87 H37        28.6087   11.5150  -43.5399 H         1 NON         0.0524
     88 H38        30.0990   16.6119  -41.8400 H         1 NON         0.1875
     89 H39        27.9085   17.7877  -40.4193 H         1 NON         0.0726
     90 H40        29.1483   19.9563  -40.9215 H         1 NON         0.0308
     91 H41        30.3400   18.9630  -41.8271 H         1 NON         0.0308
     92 H42        30.6123   17.6631  -39.6169 H         1 NON         0.0297
     93 H43        32.3035   19.2852  -38.8207 H         1 NON         0.0232
     94 H44        31.5847   20.5414  -39.8845 H         1 NON         0.0232
     95 H45        32.3419   19.0803  -40.6048 H         1 NON         0.0232
     96 H46        28.6734   18.6491  -38.4320 H         1 NON         0.0232
     97 H47        29.4643   20.2604  -38.4989 H         1 NON         0.0232
     98 H48        30.2195   18.9274  -37.5610 H         1 NON         0.0232
@<TRIPOS>BOND
     1    2    1 1  
     2    2    5 1  
     3    3    2 1  
     4    3    4 2  
     5    5    6 1  
     6    6    7 1  
     7    7    8 1  
     8   10    9 1  
     9   10   13 1  
    10   11   10 1  
    11   11   12 2  
    12   13   14 1  
    13   14   15 1  
    14   15   17 am 
    15   15   16 2  
    16    9    3 am 
    17   19   18 1  
    18   19   22 1  
    19   20   19 1  
    20   20   21 2  
    21   22   23 1  
    22   18   11 am 
    23   36   37 1  
    24   36   39 1  
    25   35   36 1  
    26   35   41 1  
    27   41   40 1  
    28   40   39 1  
    29   37   38 2  
    30   42   43 1  
    31   43   46 1  
    32   43   44 1  
    33   44   45 ar 
    34   46   47 1  
    35   47   48 1  
    36   47   49 1  
    37   37   42 am 
    38   25   24 1  
    39   25   26 1  
    40   33   25 1  
    41   26   27 1  
    42   26   28 1  
    43   28   29 1  
    44   29   30 ar 
    45   29   31 ar 
    46   29   32 ar 
    47   33   34 2  
    48   24   20 am 
    49   35   33 am 
    50   44   50 ar 
    51    1   51 1  
    52    1   52 1  
    53    1   53 1  
    54    2   54 1  
    55    5   55 1  
    56    5   56 1  
    57    6   57 1  
    58    6   58 1  
    59    8   59 1  
    60    8   60 1  
    61    8   61 1  
    62    9   62 1  
    63   10   63 1  
    64   13   64 1  
    65   13   65 1  
    66   14   66 1  
    67   14   67 1  
    68   17   68 1  
    69   17   69 1  
    70   18   70 1  
    71   19   71 1  
    72   22   72 1  
    73   22   73 1  
    74   23   74 1  
    75   24   75 1  
    76   25   76 1  
    77   26   77 1  
    78   27   78 1  
    79   27   79 1  
    80   27   80 1  
    81   36   81 1  
    82   39   82 1  
    83   39   83 1  
    84   40   84 1  
    85   40   85 1  
    86   41   86 1  
    87   41   87 1  
    88   42   88 1  
    89   43   89 1  
    90   46   90 1  
    91   46   91 1  
    92   47   92 1  
    93   48   93 1  
    94   48   94 1  
    95   48   95 1  
    96   49   96 1  
    97   49   97 1  
    98   49   98 1  
@<TRIPOS>SUBSTRUCTURE
     1 NON         1

