1q4k_ligand
  -I-interpret- 

101101  0  0  0  0  0  0  0  0999 V2000
   34.9380    3.8680  -44.4760 N   0  3  0  0  0
   33.6010    4.3520  -43.9920 C   0  0  0  0  0
   33.7660    5.3340  -42.8300 C   0  0  0  0  0
   34.7060    5.2240  -42.0540 O   0  0  0  0  0
   32.7790    3.1720  -43.5030 C   0  0  0  0  0
   32.0110    2.4230  -44.5500 C   0  0  0  0  0
   30.6480    1.5520  -43.7340 S   0  0  0  0  0
   29.4550    2.9190  -43.5180 C   0  0  0  0  0
   32.8350    6.2740  -42.7130 N   0  0  0  0  0
   32.8920    7.3390  -41.7090 C   0  0  0  0  0
   31.4920    7.6260  -41.1630 C   0  0  0  0  0
   30.4950    7.3220  -41.8110 O   0  0  0  0  0
   33.4500    8.6190  -42.3210 C   0  0  0  0  0
   32.6060    9.1390  -43.4760 C   0  0  0  0  0
   33.0380   10.5000  -44.0040 C   0  0  0  0  0
   32.2870   11.1290  -44.7530 O   0  0  0  0  0
   34.2480   10.9470  -43.6400 N   0  0  0  0  0
   31.4250    8.2440  -39.9890 N   0  0  0  0  0
   30.1500    8.5250  -39.3730 C   0  0  0  0  0
   29.5570    9.6860  -40.1900 C   0  0  0  0  0
   30.1870   10.1280  -41.1470 O   0  0  0  0  0
   30.3000    8.8220  -37.8670 C   0  0  0  0  0
   30.9920   10.0340  -37.6120 O   0  0  0  0  0
   28.3640   10.1550  -39.8270 N   0  0  0  0  0
   27.5940   11.1180  -40.6030 C   0  0  0  0  0
   26.2880   11.2140  -39.8170 C   0  0  0  0  0
   25.2910   12.1370  -40.4970 C   0  0  0  0  0
   25.7770    9.8780  -39.6770 O   0  0  0  0  0
   25.1750    9.2320  -38.3170 P   0  0  0  0  0
   24.4760   10.5580  -37.5410 O   0  0  0  0  0
   26.8050    8.9130  -38.0280 O   0  0  0  0  0
   24.2450    8.0580  -39.0800 O   0  0  0  0  0
   28.2950   12.4730  -40.7990 C   0  0  0  0  0
   28.7130   13.0820  -39.5910 O   0  0  0  0  0
   28.4680   13.0070  -42.0230 N   0  0  0  0  0
   29.1750   14.2930  -42.2390 C   0  0  0  0  0
   28.3920   15.5490  -41.8470 C   0  0  0  0  0
   27.1740   15.5010  -41.6770 O   0  0  0  0  0
   29.4380   14.2940  -43.7480 C   0  0  0  0  0
   28.3020   13.5050  -44.3210 C   0  0  0  0  0
   28.0300   12.4210  -43.3070 C   0  0  0  0  0
   29.1110   16.6590  -41.6930 N   0  0  0  0  0
   28.5220   17.9430  -41.3190 C   0  0  0  0  0
   27.6190   18.5090  -42.4280 C   0  0  0  0  0
   27.0550   17.7660  -43.2360 O   0  0  0  0  0
   29.6240   18.9670  -40.9920 C   0  0  0  0  0
   30.4160   18.7420  -39.7030 C   0  0  0  0  0
   31.7540   19.4620  -39.7570 C   0  0  0  0  0
   29.6390   19.1750  -38.4620 C   0  0  0  0  0
   27.4519   19.7550  -42.5132 O   0  0  0  0  0
   34.8029    3.2162  -45.2489 H   0  0  0  0  0
   35.4917    4.6636  -44.7935 H   0  0  0  0  0
   35.4241    3.3966  -43.7132 H   0  0  0  0  0
   33.1016    4.8520  -44.8218 H   0  0  0  0  0
   32.0384    3.5804  -42.8154 H   0  0  0  0  0
   33.4882    2.4615  -43.0784 H   0  0  0  0  0
   32.6626    1.7105  -45.0558 H   0  0  0  0  0
   31.6210    3.1149  -45.2965 H   0  0  0  0  0
   29.9058    3.6995  -42.9051 H   0  0  0  0  0
   29.1922    3.3278  -44.4937 H   0  0  0  0  0
   28.5578    2.5423  -43.0269 H   0  0  0  0  0
   32.0415    6.2532  -43.3536 H   0  0  0  0  0
   33.5432    7.0067  -40.9006 H   0  0  0  0  0
   34.4444    8.3973  -42.7083 H   0  0  0  0  0
   33.4589    9.3835  -41.5441 H   0  0  0  0  0
   31.5867    9.2474  -43.1052 H   0  0  0  0  0
   32.7115    8.4285  -44.2959 H   0  0  0  0  0
   34.5849   11.8457  -43.9854 H   0  0  0  0  0
   34.8320   10.3885  -43.0175 H   0  0  0  0  0
   32.2850    8.5234  -39.5170 H   0  0  0  0  0
   29.4741    7.6701  -39.3943 H   0  0  0  0  0
   30.8746    8.0096  -37.4221 H   0  0  0  0  0
   29.2998    8.9132  -37.4435 H   0  0  0  0  0
   31.0574   10.1704  -36.6640 H   0  0  0  0  0
   27.9647    9.8187  -38.9507 H   0  0  0  0  0
   27.4490   10.8005  -41.6356 H   0  0  0  0  0
   26.4660   11.6513  -38.8346 H   0  0  0  0  0
   25.7189   13.1363  -40.5769 H   0  0  0  0  0
   25.0660   11.7560  -41.4932 H   0  0  0  0  0
   24.3754   12.1785  -39.9071 H   0  0  0  0  0
   25.1673   11.1108  -37.1693 H   0  0  0  0  0
   27.2048    9.6677  -37.5897 H   0  0  0  0  0
   30.0608   14.3429  -41.6058 H   0  0  0  0  0
   30.4063   13.8595  -43.9964 H   0  0  0  0  0
   29.4839   15.3036  -44.1562 H   0  0  0  0  0
   27.4238   14.1273  -44.4930 H   0  0  0  0  0
   28.5496   13.0913  -45.2986 H   0  0  0  0  0
   26.9800   12.1291  -43.2888 H   0  0  0  0  0
   28.5605   11.4977  -43.5398 H   0  0  0  0  0
   30.1188   16.6109  -41.8429 H   0  0  0  0  0
   27.9080   17.7646  -40.4362 H   0  0  0  0  0
   29.1158   19.9232  -40.8674 H   0  0  0  0  0
   30.3480   18.8962  -41.8037 H   0  0  0  0  0
   30.5901   17.6688  -39.6253 H   0  0  0  0  0
   32.3355   19.0830  -40.5974 H   0  0  0  0  0
   31.5849   20.5314  -39.8834 H   0  0  0  0  0
   32.2975   19.2861  -38.8287 H   0  0  0  0  0
   29.4047   20.2371  -38.5338 H   0  0  0  0  0
   28.7145   18.6014  -38.3952 H   0  0  0  0  0
   30.2450   18.9945  -37.5741 H   0  0  0  0  0
   27.9521   20.1919  -41.8200 H   0  0  0  0  0
  2  1  1  0  0  0
  2  5  1  0  0  0
  3  2  1  0  0  0
  3  4  2  0  0  0
  5  6  1  0  0  0
  6  7  1  0  0  0
  7  8  1  0  0  0
 10  9  1  0  0  0
 10 13  1  0  0  0
 11 10  1  0  0  0
 11 12  2  0  0  0
 13 14  1  0  0  0
 14 15  1  0  0  0
 15 17  1  0  0  0
 15 16  2  0  0  0
  9  3  1  0  0  0
 19 18  1  0  0  0
 19 22  1  0  0  0
 20 19  1  0  0  0
 20 21  2  0  0  0
 22 23  1  0  0  0
 18 11  1  0  0  0
 36 37  1  0  0  0
 36 39  1  0  0  0
 35 36  1  0  0  0
 35 41  1  0  0  0
 41 40  1  0  0  0
 40 39  1  0  0  0
 37 38  2  0  0  0
 42 43  1  0  0  0
 43 46  1  0  0  0
 43 44  1  0  0  0
 44 45  2  0  0  0
 46 47  1  0  0  0
 47 48  1  0  0  0
 47 49  1  0  0  0
 37 42  1  0  0  0
 25 24  1  0  0  0
 25 26  1  0  0  0
 33 25  1  0  0  0
 26 27  1  0  0  0
 26 28  1  0  0  0
 28 29  1  0  0  0
 29 30  1  0  0  0
 29 31  1  0  0  0
 29 32  2  0  0  0
 33 34  2  0  0  0
 24 20  1  0  0  0
 35 33  1  0  0  0
 44 50  1  0  0  0
  1 51  1  0  0  0
  1 52  1  0  0  0
  1 53  1  0  0  0
  2 54  1  0  0  0
  5 55  1  0  0  0
  5 56  1  0  0  0
  6 57  1  0  0  0
  6 58  1  0  0  0
  8 59  1  0  0  0
  8 60  1  0  0  0
  8 61  1  0  0  0
  9 62  1  0  0  0
 10 63  1  0  0  0
 13 64  1  0  0  0
 13 65  1  0  0  0
 14 66  1  0  0  0
 14 67  1  0  0  0
 17 68  1  0  0  0
 17 69  1  0  0  0
 18 70  1  0  0  0
 19 71  1  0  0  0
 22 72  1  0  0  0
 22 73  1  0  0  0
 23 74  1  0  0  0
 24 75  1  0  0  0
 25 76  1  0  0  0
 26 77  1  0  0  0
 27 78  1  0  0  0
 27 79  1  0  0  0
 27 80  1  0  0  0
 30 81  1  0  0  0
 31 82  1  0  0  0
 36 83  1  0  0  0
 39 84  1  0  0  0
 39 85  1  0  0  0
 40 86  1  0  0  0
 40 87  1  0  0  0
 41 88  1  0  0  0
 41 89  1  0  0  0
 42 90  1  0  0  0
 43 91  1  0  0  0
 46 92  1  0  0  0
 46 93  1  0  0  0
 47 94  1  0  0  0
 48 95  1  0  0  0
 48 96  1  0  0  0
 48 97  1  0  0  0
 49 98  1  0  0  0
 49 99  1  0  0  0
 49100  1  0  0  0
 50101  1  0  0  0
M  END
$$$$
