5svi_ligand
  -I-interpret- 

137136  0  0  0  0  0  0  0  0999 V2000
  -32.8880   45.0210  -53.8340 N   0  3  0  0  0
  -32.1710   43.7660  -53.6260 C   0  0  0  0  0
  -32.4520   42.8340  -54.7890 C   0  0  0  0  0
  -33.4760   42.9590  -55.4510 O   0  0  0  0  0
  -32.6040   43.1170  -52.3210 C   0  0  0  0  0
  -31.5470   41.8950  -55.0310 N   0  0  0  0  0
  -31.7490   40.9180  -56.0840 C   0  0  0  0  0
  -32.4350   39.7020  -55.4930 C   0  0  0  0  0
  -31.8720   39.0360  -54.6260 O   0  0  0  0  0
  -30.4130   40.5180  -56.7020 C   0  0  0  0  0
  -30.5680   39.5610  -57.8540 C   0  0  0  0  0
  -29.2540   38.9400  -58.2470 C   0  0  0  0  0
  -29.3660   38.3220  -59.5580 N   0  0  0  0  0
  -28.4080   37.6140  -60.1390 C   0  0  0  0  0
  -27.2450   37.4170  -59.5250 N   0  0  0  0  0
  -28.6200   37.1080  -61.3420 N   0  0  0  0  0
  -33.6520   39.4130  -55.9490 N   0  0  0  0  0
  -34.3820   38.2610  -55.4280 C   0  0  0  0  0
  -34.7960   37.2870  -56.5310 C   0  0  0  0  0
  -34.9050   37.6620  -57.7060 O   0  0  0  0  0
  -35.6260   38.6920  -54.6280 C   0  0  0  0  0
  -36.5050   39.4510  -55.4750 O   0  0  0  0  0
  -35.2260   39.5400  -53.3980 C   0  0  0  0  0
  -34.9930   36.0320  -56.1380 N   0  0  0  0  0
  -35.5150   34.9930  -57.0170 C   0  0  0  0  0
  -36.3970   34.0430  -56.2230 C   0  0  0  0  0
  -36.1620   33.7920  -55.0380 O   0  0  0  0  0
  -34.3800   34.2140  -57.6960 C   0  0  0  0  0
  -33.7090   34.9480  -58.8620 C   0  0  0  0  0
  -32.7000   34.0540  -59.5830 C   0  0  0  0  0
  -31.9300   34.8320  -60.6540 C   0  0  0  0  0
  -32.8280   35.3760  -61.7140 N   0  3  0  0  0
  -37.4350   33.5290  -56.8730 N   0  0  0  0  0
  -38.3160   32.5610  -56.2400 C   0  0  0  0  0
  -38.0370   31.1660  -56.7820 C   0  0  0  0  0
  -37.8710   30.9900  -57.9870 O   0  0  0  0  0
  -39.7740   32.9070  -56.5430 C   0  0  0  0  0
  -40.1430   34.3680  -56.2900 C   0  0  0  0  0
  -39.9020   34.7740  -54.8620 C   0  0  0  0  0
  -39.0830   35.6530  -54.5890 O   0  0  0  0  0
  -40.6100   34.1330  -53.9350 N   0  0  0  0  0
  -37.9890   30.1760  -55.8990 N   0  0  0  0  0
  -37.8740   28.7820  -56.3250 C   0  0  0  0  0
  -39.1230   28.0490  -55.8690 C   0  0  0  0  0
  -39.7620   28.4490  -54.9000 O   0  0  0  0  0
  -36.6220   28.0780  -55.7470 C   0  0  0  0  0
  -36.7030   28.0440  -54.3120 O   0  0  0  0  0
  -35.3320   28.7890  -56.1920 C   0  0  0  0  0
  -39.4970   26.9800  -56.5610 N   0  0  0  0  0
  -40.7530   26.3300  -56.2090 C   0  0  0  0  0
  -40.5350   25.2790  -55.1400 C   0  0  0  0  0
  -40.3370   24.1020  -55.4400 O   0  0  0  0  0
  -41.4260   25.7390  -57.4220 C   0  0  0  0  0
  -40.5650   25.7250  -53.8910 N   0  0  0  0  0
  -40.4000   24.8580  -52.7400 C   0  0  0  0  0
  -41.6170   23.9600  -52.5660 C   0  0  0  0  0
  -41.6590   22.8460  -53.0850 O   0  0  0  0  0
  -40.2260   25.7140  -51.4880 C   0  0  0  0  0
  -41.4920   26.5120  -51.1540 C   0  0  0  0  0
  -41.4230   27.3300  -49.8540 C   0  0  0  0  0
  -42.7380   27.8960  -49.5710 N   0  0  0  0  0
  -43.0070   29.2010  -49.5670 C   0  0  0  0  0
  -42.0360   30.0860  -49.7780 N   0  0  0  0  0
  -44.2400   29.6360  -49.3180 N   0  0  0  0  0
  -42.5840   24.3290  -51.9030 O   0  0  0  0  0
  -32.5859   45.4422  -54.7124 H   0  0  0  0  0
  -33.8905   44.8363  -53.8712 H   0  0  0  0  0
  -32.6867   45.6580  -53.0632 H   0  0  0  0  0
  -31.1015   43.9685  -53.5693 H   0  0  0  0  0
  -33.6722   42.9037  -52.3597 H   0  0  0  0  0
  -32.0517   42.1882  -52.1778 H   0  0  0  0  0
  -32.3974   43.7954  -51.4932 H   0  0  0  0  0
  -30.6968   41.8594  -54.4686 H   0  0  0  0  0
  -32.3703   41.3495  -56.8687 H   0  0  0  0  0
  -29.8236   40.0210  -55.9315 H   0  0  0  0  0
  -29.9355   41.4219  -57.0802 H   0  0  0  0  0
  -30.9542   40.1150  -58.7096 H   0  0  0  0  0
  -31.2453   38.7638  -57.5479 H   0  0  0  0  0
  -28.9846   38.1790  -57.5146 H   0  0  0  0  0
  -28.4881   39.7148  -58.2809 H   0  0  0  0  0
  -30.2425   38.4415  -60.0659 H   0  0  0  0  0
  -26.5126   36.8739  -59.9821 H   0  0  0  0  0
  -27.0854   37.8090  -58.5970 H   0  0  0  0  0
  -29.5121   37.2645  -61.8112 H   0  0  0  0  0
  -34.0770   40.0000  -56.6668 H   0  0  0  0  0
  -33.6915   37.7456  -54.7604 H   0  0  0  0  0
  -36.1373   37.7961  -54.2757 H   0  0  0  0  0
  -37.2790   39.7180  -54.9737 H   0  0  0  0  0
  -34.5776   38.9521  -52.7483 H   0  0  0  0  0
  -34.6963   40.4327  -53.7305 H   0  0  0  0  0
  -36.1231   39.8307  -52.8514 H   0  0  0  0  0
  -34.7679   35.7843  -55.1745 H   0  0  0  0  0
  -36.1061   35.4724  -57.7973 H   0  0  0  0  0
  -34.8194   33.3039  -58.1043 H   0  0  0  0  0
  -33.6119   34.0489  -56.9405 H   0  0  0  0  0
  -33.1799   35.8143  -58.4650 H   0  0  0  0  0
  -34.4803   35.2411  -59.5742 H   0  0  0  0  0
  -33.2414   33.2414  -60.0674 H   0  0  0  0  0
  -31.9872   33.6754  -58.8504 H   0  0  0  0  0
  -31.2243   34.1488  -61.1265 H   0  0  0  0  0
  -31.4316   35.6715  -60.1694 H   0  0  0  0  0
  -32.2716   35.8839  -62.4016 H   0  0  0  0  0
  -33.3167   34.6066  -62.1717 H   0  0  0  0  0
  -33.5075   36.0081  -61.2908 H   0  0  0  0  0
  -37.6174   33.8187  -57.8338 H   0  0  0  0  0
  -38.1374   32.5873  -55.1651 H   0  0  0  0  0
  -40.3907   32.3021  -55.8782 H   0  0  0  0  0
  -39.9336   32.7164  -57.6043 H   0  0  0  0  0
  -41.2045   34.4923  -56.5040 H   0  0  0  0  0
  -39.5194   34.9917  -56.9304 H   0  0  0  0  0
  -40.4858   34.3628  -52.9490 H   0  0  0  0  0
  -41.2767   33.4120  -54.2106 H   0  0  0  0  0
  -38.0332   30.3921  -54.9031 H   0  0  0  0  0
  -37.7698   28.7641  -57.4099 H   0  0  0  0  0
  -36.5916   27.0581  -56.1303 H   0  0  0  0  0
  -35.9247   27.6067  -53.9590 H   0  0  0  0  0
  -35.2686   28.7766  -57.2801 H   0  0  0  0  0
  -35.3469   29.8203  -55.8394 H   0  0  0  0  0
  -34.4699   28.2720  -55.7707 H   0  0  0  0  0
  -38.9190   26.6218  -57.3213 H   0  0  0  0  0
  -41.4191   27.0917  -55.8038 H   0  0  0  0  0
  -41.6354   26.5305  -58.1415 H   0  0  0  0  0
  -40.7680   24.9981  -57.8762 H   0  0  0  0  0
  -42.3594   25.2626  -57.1221 H   0  0  0  0  0
  -40.7106   26.7221  -53.7330 H   0  0  0  0  0
  -39.5209   24.2325  -52.8949 H   0  0  0  0  0
  -40.8449   22.6887  -53.5688 H   0  0  0  0  0
  -39.4165   26.4211  -51.6695 H   0  0  0  0  0
  -40.0113   25.0509  -50.6500 H   0  0  0  0  0
  -42.2956   25.7868  -51.0263 H   0  0  0  0  0
  -41.6372   27.2246  -51.9659 H   0  0  0  0  0
  -40.6958   28.1341  -49.9666 H   0  0  0  0  0
  -41.1191   26.6830  -49.0311 H   0  0  0  0  0
  -43.5003   27.2511  -49.3628 H   0  0  0  0  0
  -41.0817   29.7663  -49.9436 H   0  0  0  0  0
  -44.4317   30.6375  -49.2906 H   0  0  0  0  0
  -44.9932   28.9679  -49.1545 H   0  0  0  0  0
  1  2  1  0  0  0
  2  3  1  0  0  0
  2  5  1  0  0  0
  3  4  2  0  0  0
  3  6  1  0  0  0
  6  7  1  0  0  0
  7  8  1  0  0  0
  7 10  1  0  0  0
  8  9  2  0  0  0
  8 17  1  0  0  0
 10 11  1  0  0  0
 11 12  1  0  0  0
 12 13  1  0  0  0
 13 14  1  0  0  0
 14 15  1  0  0  0
 14 16  2  0  0  0
 17 18  1  0  0  0
 18 19  1  0  0  0
 18 21  1  0  0  0
 19 20  2  0  0  0
 19 24  1  0  0  0
 21 22  1  0  0  0
 21 23  1  0  0  0
 24 25  1  0  0  0
 25 26  1  0  0  0
 25 28  1  0  0  0
 26 27  2  0  0  0
 26 33  1  0  0  0
 28 29  1  0  0  0
 29 30  1  0  0  0
 30 31  1  0  0  0
 31 32  1  0  0  0
 33 34  1  0  0  0
 34 35  1  0  0  0
 34 37  1  0  0  0
 35 36  2  0  0  0
 35 42  1  0  0  0
 37 38  1  0  0  0
 38 39  1  0  0  0
 39 40  2  0  0  0
 39 41  1  0  0  0
 42 43  1  0  0  0
 43 44  1  0  0  0
 43 46  1  0  0  0
 44 45  2  0  0  0
 44 49  1  0  0  0
 46 47  1  0  0  0
 46 48  1  0  0  0
 49 50  1  0  0  0
 50 51  1  0  0  0
 50 53  1  0  0  0
 51 52  2  0  0  0
 51 54  1  0  0  0
 54 55  1  0  0  0
 55 56  1  0  0  0
 55 58  1  0  0  0
 56 57  1  0  0  0
 56 65  2  0  0  0
 58 59  1  0  0  0
 59 60  1  0  0  0
 60 61  1  0  0  0
 61 62  1  0  0  0
 62 63  2  0  0  0
 62 64  1  0  0  0
  1 66  1  0  0  0
  1 67  1  0  0  0
  1 68  1  0  0  0
  2 69  1  0  0  0
  5 70  1  0  0  0
  5 71  1  0  0  0
  5 72  1  0  0  0
  6 73  1  0  0  0
  7 74  1  0  0  0
 10 75  1  0  0  0
 10 76  1  0  0  0
 11 77  1  0  0  0
 11 78  1  0  0  0
 12 79  1  0  0  0
 12 80  1  0  0  0
 13 81  1  0  0  0
 15 82  1  0  0  0
 15 83  1  0  0  0
 16 84  1  0  0  0
 17 85  1  0  0  0
 18 86  1  0  0  0
 21 87  1  0  0  0
 22 88  1  0  0  0
 23 89  1  0  0  0
 23 90  1  0  0  0
 23 91  1  0  0  0
 24 92  1  0  0  0
 25 93  1  0  0  0
 28 94  1  0  0  0
 28 95  1  0  0  0
 29 96  1  0  0  0
 29 97  1  0  0  0
 30 98  1  0  0  0
 30 99  1  0  0  0
 31100  1  0  0  0
 31101  1  0  0  0
 32102  1  0  0  0
 32103  1  0  0  0
 32104  1  0  0  0
 33105  1  0  0  0
 34106  1  0  0  0
 37107  1  0  0  0
 37108  1  0  0  0
 38109  1  0  0  0
 38110  1  0  0  0
 41111  1  0  0  0
 41112  1  0  0  0
 42113  1  0  0  0
 43114  1  0  0  0
 46115  1  0  0  0
 47116  1  0  0  0
 48117  1  0  0  0
 48118  1  0  0  0
 48119  1  0  0  0
 49120  1  0  0  0
 50121  1  0  0  0
 53122  1  0  0  0
 53123  1  0  0  0
 53124  1  0  0  0
 54125  1  0  0  0
 55126  1  0  0  0
 57127  1  0  0  0
 58128  1  0  0  0
 58129  1  0  0  0
 59130  1  0  0  0
 59131  1  0  0  0
 60132  1  0  0  0
 60133  1  0  0  0
 61134  1  0  0  0
 63135  1  0  0  0
 64136  1  0  0  0
 64137  1  0  0  0
M  END
$$$$
