### 
### Created by X-TOOL on Mon Sep 10 21:13:28 2018
### 

@<TRIPOS>MOLECULE
5svi_ligand
  138   137     1     0     0
SMALL
GAST_HUCK


@<TRIPOS>ATOM
      1 N         -32.8880   45.0210  -53.8340 N.4       1 ALA         0.2377
      2 CA        -32.1710   43.7660  -53.6260 C.3       1 ALA         0.0621
      3 C         -32.4520   42.8340  -54.7890 C.2       1 ALA         0.2264
      4 O         -33.4760   42.9590  -55.4510 O.2       1 ALA        -0.3907
      5 CB        -32.6040   43.1170  -52.3210 C.3       1 ALA        -0.0040
      6 N         -31.5470   41.8950  -55.0310 N.am      1 ARG        -0.2610
      7 CA        -31.7490   40.9180  -56.0840 C.3       1 ARG         0.1312
      8 C         -32.4350   39.7020  -55.4930 C.2       1 ARG         0.2040
      9 O         -31.8720   39.0360  -54.6260 O.2       1 ARG        -0.3944
     10 CB        -30.4130   40.5180  -56.7020 C.3       1 ARG        -0.0092
     11 CG        -30.5680   39.5610  -57.8540 C.3       1 ARG        -0.0156
     12 CD        -29.2540   38.9400  -58.2470 C.3       1 ARG         0.0627
     13 NE        -29.3660   38.3220  -59.5580 N.pl3     1 ARG        -0.2723
     14 CZ        -28.4080   37.6140  -60.1390 C.cat     1 ARG         0.2882
     15 NH1       -27.2450   37.4170  -59.5250 N.pl3     1 ARG        -0.2849
     16 NH2       -28.6200   37.1080  -61.3420 N.pl3     1 ARG        -0.2849
     17 N         -33.6520   39.4130  -55.9490 N.am      1 THR        -0.2613
     18 CA        -34.3820   38.2610  -55.4280 C.3       1 THR         0.1565
     19 C         -34.7960   37.2870  -56.5310 C.2       1 THR         0.2065
     20 O         -34.9050   37.6620  -57.7060 O.2       1 THR        -0.3943
     21 CB        -35.6260   38.6920  -54.6280 C.3       1 THR         0.0924
     22 OG1       -36.5050   39.4510  -55.4750 O.3       1 THR        -0.3874
     23 CG2       -35.2260   39.5400  -53.3980 C.3       1 THR        -0.0346
     24 N         -34.9930   36.0320  -56.1380 N.am      1 LYS        -0.2637
     25 CA        -35.5150   34.9930  -57.0170 C.3       1 LYS         0.1310
     26 C         -36.3970   34.0430  -56.2230 C.2       1 LYS         0.2039
     27 O         -36.1620   33.7920  -55.0380 O.2       1 LYS        -0.3944
     28 CB        -34.3800   34.2140  -57.6960 C.3       1 LYS        -0.0122
     29 CG        -33.7090   34.9480  -58.8620 C.3       1 LYS        -0.0440
     30 CD        -32.7000   34.0540  -59.5830 C.3       1 LYS        -0.0124
     31 CE        -31.9300   34.8320  -60.6540 C.3       1 LYS        -0.0354
     32 NZ        -32.8280   35.3760  -61.7140 N.4       1 LYS         0.2185
     33 N         -37.4350   33.5290  -56.8730 N.am      1 GLN        -0.2636
     34 CA        -38.3160   32.5610  -56.2400 C.3       1 GLN         0.1330
     35 C         -38.0370   31.1660  -56.7820 C.2       1 GLN         0.2041
     36 O         -37.8710   30.9900  -57.9870 O.2       1 GLN        -0.3944
     37 CB        -39.7740   32.9070  -56.5430 C.3       1 GLN         0.0045
     38 CG        -40.1430   34.3680  -56.2900 C.3       1 GLN         0.0412
     39 CD        -39.9020   34.7740  -54.8620 C.2       1 GLN         0.1737
     40 OE1       -39.0830   35.6530  -54.5890 O.2       1 GLN        -0.3973
     41 NE2       -40.6100   34.1330  -53.9350 N.am      1 GLN        -0.3009
     42 N         -37.9890   30.1760  -55.8990 N.am      1 THR        -0.2613
     43 CA        -37.8740   28.7820  -56.3250 C.3       1 THR         0.1565
     44 C         -39.1230   28.0490  -55.8690 C.2       1 THR         0.2065
     45 O         -39.7620   28.4490  -54.9000 O.2       1 THR        -0.3943
     46 CB        -36.6220   28.0780  -55.7470 C.3       1 THR         0.0924
     47 OG1       -36.7030   28.0440  -54.3120 O.3       1 THR        -0.3874
     48 CG2       -35.3320   28.7890  -56.1920 C.3       1 THR        -0.0346
     49 N         -39.4970   26.9800  -56.5610 N.am      1 ALA        -0.2639
     50 CA        -40.7530   26.3300  -56.2090 C.3       1 ALA         0.1282
     51 C         -40.5350   25.2790  -55.1400 C.2       1 ALA         0.2031
     52 O         -40.3370   24.1020  -55.4400 O.2       1 ALA        -0.3944
     53 CB        -41.4260   25.7390  -57.4220 C.3       1 ALA        -0.0244
     54 N         -40.5650   25.7250  -53.8910 N.am      1 ARG        -0.2695
     55 CA        -40.4000   24.8580  -52.7400 C.3       1 ARG         0.0945
     56 C         -41.6170   23.9600  -52.5660 C.2       1 ARG         0.0601
     57 O         -41.6590   22.8460  -53.0850 O.co2     1 ARG        -0.5666
     58 CB        -40.2260   25.7140  -51.4880 C.3       1 ARG        -0.0148
     59 CG        -41.4920   26.5120  -51.1540 C.3       1 ARG        -0.0162
     60 CD        -41.4230   27.3300  -49.8540 C.3       1 ARG         0.0627
     61 NE        -42.7380   27.8960  -49.5710 N.pl3     1 ARG        -0.2723
     62 CZ        -43.0070   29.2010  -49.5670 C.cat     1 ARG         0.2882
     63 NH1       -42.0360   30.0860  -49.7780 N.pl3     1 ARG        -0.2849
     64 NH2       -44.2400   29.6360  -49.3180 N.pl3     1 ARG        -0.2849
     65 OXT       -42.5840   24.3290  -51.9030 O.co2     1 ARG        -0.5666
     66 H1        -32.7046   45.6444  -53.0634 H         1 ALA         0.2015
     67 H2        -33.8776   44.8374  -53.8894 H         1 ALA         0.2015
     68 H3        -32.5767   45.4475  -54.6926 H         1 ALA         0.2015
     69 H4        -31.0914   43.9717  -53.5807 H         1 ALA         0.1095
     70 H5        -32.0549   42.1743  -52.1805 H         1 ALA         0.0310
     71 H6        -33.6839   42.9107  -52.3547 H         1 ALA         0.0310
     72 H7        -32.3864   43.7964  -51.4837 H         1 ALA         0.0310
     73 H8        -30.7135   41.8601  -54.4796 H         1 ARG         0.1884
     74 H9        -32.3889   41.3534  -56.8656 H         1 ARG         0.0800
     75 H10       -29.7964   40.0388  -55.9272 H         1 ARG         0.0313
     76 H11       -29.9072   41.4252  -57.0641 H         1 ARG         0.0313
     77 H12       -30.9761   40.1067  -58.7175 H         1 ARG         0.0301
     78 H13       -31.2657   38.7624  -57.5618 H         1 ARG         0.0301
     79 H14       -28.9772   38.1750  -57.5066 H         1 ARG         0.0689
     80 H15       -28.4779   39.7190  -58.2771 H         1 ARG         0.0689
     81 H16       -30.2511   38.4427  -60.0708 H         1 ARG         0.2642
     82 H17       -26.5068   36.8653  -59.9849 H         1 ARG         0.2615
     83 H18       -27.0824   37.8161  -58.5895 H         1 ARG         0.2615
     84 H19       -29.5222   37.2629  -61.8142 H         1 ARG         0.2615
     85 H20       -27.8829   36.5589  -61.8070 H         1 ARG         0.2615
     86 H21       -34.0686   39.9885  -56.6527 H         1 THR         0.1884
     87 H22       -33.7072   37.7264  -54.7433 H         1 THR         0.0826
     88 H23       -36.1528   37.7912  -54.2802 H         1 THR         0.0639
     89 H24       -36.7732   38.9153  -56.2123 H         1 THR         0.2101
     90 H25       -36.1306   39.8340  -52.8455 H         1 THR         0.0257
     91 H26       -34.6913   40.4414  -53.7322 H         1 THR         0.0257
     92 H27       -34.5717   38.9478  -52.7414 H         1 THR         0.0257
     93 H28       -34.7723   35.7892  -55.1934 H         1 LYS         0.1883
     94 H29       -36.1243   35.4710  -57.7982 H         1 LYS         0.0800
     95 H30       -34.7936   33.2691  -58.0783 H         1 LYS         0.0312
     96 H31       -33.6116   33.9983  -56.9391 H         1 LYS         0.0312
     97 H32       -33.1865   35.8343  -58.4728 H         1 LYS         0.0269
     98 H33       -34.4823   35.2632  -59.5780 H         1 LYS         0.0269
     99 H34       -33.2370   33.2219  -60.0618 H         1 LYS         0.0317
    100 H35       -31.9858   33.6549  -58.8477 H         1 LYS         0.0317
    101 H36       -31.1974   34.1584  -61.1225 H         1 LYS         0.0813
    102 H37       -31.4031   35.6692  -60.1729 H         1 LYS         0.0813
    103 H38       -32.2791   35.8782  -62.3941 H         1 LYS         0.1994
    104 H39       -33.5000   36.0009  -61.2969 H         1 LYS         0.1994
    105 H40       -33.3115   34.6165  -62.1671 H         1 LYS         0.1994
    106 H41       -37.6138   33.8130  -57.8150 H         1 GLN         0.1883
    107 H42       -38.1502   32.5753  -55.1527 H         1 GLN         0.0801
    108 H43       -40.4157   32.2759  -55.9106 H         1 GLN         0.0337
    109 H44       -39.9678   32.6820  -57.6021 H         1 GLN         0.0337
    110 H45       -41.2083   34.5103  -56.5240 H         1 GLN         0.0504
    111 H46       -39.5346   35.0064  -56.9476 H         1 GLN         0.0504
    112 H47       -40.4913   34.3613  -52.9687 H         1 GLN         0.1814
    113 H48       -41.2606   33.4231  -54.2049 H         1 GLN         0.1814
    114 H49       -38.0324   30.3879  -54.9227 H         1 THR         0.1884
    115 H50       -37.8134   28.7523  -57.4229 H         1 THR         0.0826
    116 H51       -36.5969   27.0447  -56.1233 H         1 THR         0.0639
    117 H52       -37.4817   27.5664  -54.0511 H         1 THR         0.2101
    118 H53       -34.4611   28.2682  -55.7674 H         1 THR         0.0257
    119 H54       -35.3458   29.8299  -55.8367 H         1 THR         0.0257
    120 H55       -35.2668   28.7771  -57.2900 H         1 THR         0.0257
    121 H56       -38.9303   26.6288  -57.3064 H         1 ALA         0.1883
    122 H57       -41.4235   27.0974  -55.7950 H         1 ALA         0.0797
    123 H58       -42.3682   25.2579  -57.1206 H         1 ALA         0.0277
    124 H59       -40.7630   24.9911  -57.8813 H         1 ALA         0.0277
    125 H60       -41.6379   26.5369  -58.1490 H         1 ALA         0.0277
    126 H61       -40.7077   26.7026  -53.7361 H         1 ARG         0.1875
    127 H62       -39.5067   24.2325  -52.8837 H         1 ARG         0.0726
    128 H63       -39.3964   26.4174  -51.6518 H         1 ARG         0.0307
    129 H64       -39.9871   25.0564  -50.6392 H         1 ARG         0.0307
    130 H65       -42.3286   25.8031  -51.0666 H         1 ARG         0.0301
    131 H66       -41.6856   27.2072  -51.9842 H         1 ARG         0.0301
    132 H67       -40.6903   28.1423  -49.9692 H         1 ARG         0.0689
    133 H68       -41.1179   26.6760  -49.0238 H         1 ARG         0.0689
    134 H69       -43.5078   27.2447  -49.3608 H         1 ARG         0.2642
    135 H70       -42.2481   31.0939  -49.7741 H         1 ARG         0.2615
    136 H71       -41.0723   29.7631  -49.9452 H         1 ARG         0.2615
    137 H72       -45.0006   28.9614  -49.1529 H         1 ARG         0.2615
    138 H73       -44.4336   30.6473  -49.2904 H         1 ARG         0.2615
@<TRIPOS>BOND
     1    1    2 1  
     2    2    3 1  
     3    2    5 1  
     4    3    4 2  
     5    3    6 am 
     6    6    7 1  
     7    7    8 1  
     8    7   10 1  
     9    8    9 2  
    10    8   17 am 
    11   10   11 1  
    12   11   12 1  
    13   12   13 1  
    14   13   14 ar 
    15   14   15 ar 
    16   14   16 ar 
    17   17   18 1  
    18   18   19 1  
    19   18   21 1  
    20   19   20 2  
    21   19   24 am 
    22   21   22 1  
    23   21   23 1  
    24   24   25 1  
    25   25   26 1  
    26   25   28 1  
    27   26   27 2  
    28   26   33 am 
    29   28   29 1  
    30   29   30 1  
    31   30   31 1  
    32   31   32 1  
    33   33   34 1  
    34   34   35 1  
    35   34   37 1  
    36   35   36 2  
    37   35   42 am 
    38   37   38 1  
    39   38   39 1  
    40   39   40 2  
    41   39   41 am 
    42   42   43 1  
    43   43   44 1  
    44   43   46 1  
    45   44   45 2  
    46   44   49 am 
    47   46   47 1  
    48   46   48 1  
    49   49   50 1  
    50   50   51 1  
    51   50   53 1  
    52   51   52 2  
    53   51   54 am 
    54   54   55 1  
    55   55   56 1  
    56   55   58 1  
    57   56   57 ar 
    58   56   65 ar 
    59   58   59 1  
    60   59   60 1  
    61   60   61 1  
    62   61   62 ar 
    63   62   63 ar 
    64   62   64 ar 
    65    1   66 1  
    66    1   67 1  
    67    1   68 1  
    68    2   69 1  
    69    5   70 1  
    70    5   71 1  
    71    5   72 1  
    72    6   73 1  
    73    7   74 1  
    74   10   75 1  
    75   10   76 1  
    76   11   77 1  
    77   11   78 1  
    78   12   79 1  
    79   12   80 1  
    80   13   81 1  
    81   15   82 1  
    82   15   83 1  
    83   16   84 1  
    84   16   85 1  
    85   17   86 1  
    86   18   87 1  
    87   21   88 1  
    88   22   89 1  
    89   23   90 1  
    90   23   91 1  
    91   23   92 1  
    92   24   93 1  
    93   25   94 1  
    94   28   95 1  
    95   28   96 1  
    96   29   97 1  
    97   29   98 1  
    98   30   99 1  
    99   30  100 1  
   100   31  101 1  
   101   31  102 1  
   102   32  103 1  
   103   32  104 1  
   104   32  105 1  
   105   33  106 1  
   106   34  107 1  
   107   37  108 1  
   108   37  109 1  
   109   38  110 1  
   110   38  111 1  
   111   41  112 1  
   112   41  113 1  
   113   42  114 1  
   114   43  115 1  
   115   46  116 1  
   116   47  117 1  
   117   48  118 1  
   118   48  119 1  
   119   48  120 1  
   120   49  121 1  
   121   50  122 1  
   122   53  123 1  
   123   53  124 1  
   124   53  125 1  
   125   54  126 1  
   126   55  127 1  
   127   58  128 1  
   128   58  129 1  
   129   59  130 1  
   130   59  131 1  
   131   60  132 1  
   132   60  133 1  
   133   61  134 1  
   134   63  135 1  
   135   63  136 1  
   136   64  137 1  
   137   64  138 1  
@<TRIPOS>SUBSTRUCTURE
     1 ALA         1

