6aa5_ligand
  -I-interpret- 

 58 61  0  0  0  0  0  0  0  0999 V2000
   22.7930  -16.0760   18.1280 C   0  0  0  0  0
   23.1600  -15.6120   16.7120 C   0  0  0  0  0
   22.7390  -16.4540   15.5140 C   0  0  0  0  0
   23.9480  -14.3210   16.4760 C   0  0  0  0  0
   24.3060  -13.5300   17.7240 C   0  0  0  0  0
   24.0750  -12.1510   17.5730 C   0  0  0  0  0
   25.0500  -11.1890   17.1840 C   0  0  0  0  0
   26.3910  -11.4800   16.8430 C   0  0  0  0  0
   26.8360  -12.6260   16.7880 O   0  0  0  0  0
   27.2550  -10.4360   16.5230 C   0  0  0  0  0
   28.5920  -10.6880   16.2330 C   0  0  0  0  0
   29.0370  -11.9730   16.2600 O   0  0  0  0  0
   29.5000   -9.6840   15.9230 C   0  0  0  0  0
   30.8270  -10.0340   15.6530 C   0  0  0  0  0
   31.4780   -8.9880   14.7750 C   0  0  0  0  0
   31.3260   -7.6620   15.4880 C   0  0  0  0  0
   31.9670   -7.7450   16.8840 C   0  0  0  0  0
   32.0330   -6.5580   14.6920 C   0  0  0  0  0
   29.9070   -7.3450   15.5930 O   0  0  0  0  0
   29.0430   -8.3600   15.9110 C   0  0  0  0  0
   27.7050   -8.0810   16.1870 C   0  0  0  0  0
   26.8300   -9.1190   16.4920 C   0  0  0  0  0
   25.5230   -8.8600   16.7600 O   0  0  0  0  0
   24.6410   -9.8470   17.1150 C   0  0  0  0  0
   23.3460   -9.4400   17.4080 C   0  0  0  0  0
   22.4110  -10.3780   17.7880 C   0  0  0  0  0
   21.1310  -10.0140   18.0800 O   0  0  0  0  0
   22.7780  -11.7160   17.8600 C   0  0  0  0  0
   21.8510  -12.6450   18.2490 O   0  0  0  0  0
   20.8580  -12.9650   17.2610 C   0  0  0  0  0
   23.7041  -16.2293   18.7063 H   0  0  0  0  0
   22.1786  -15.3157   18.6103 H   0  0  0  0  0
   22.2365  -17.0114   18.0696 H   0  0  0  0  0
   23.1958  -15.0148   17.6231 H   0  0  0  0  0
   22.0998  -15.8601   14.8607 H   0  0  0  0  0
   23.6256  -16.7722   14.9656 H   0  0  0  0  0
   22.1914  -17.3300   15.8617 H   0  0  0  0  0
   23.3092  -13.6751   15.8737 H   0  0  0  0  0
   24.8912  -14.6148   16.0155 H   0  0  0  0  0
   25.3687  -13.6733   17.9194 H   0  0  0  0  0
   23.6790  -13.8884   18.5404 H   0  0  0  0  0
   29.9715  -11.9915   16.0411 H   0  0  0  0  0
   30.8437  -10.9932   15.1356 H   0  0  0  0  0
   31.3754  -10.1012   16.5926 H   0  0  0  0  0
   31.0045   -8.9567   13.7937 H   0  0  0  0  0
   32.5300   -9.2208   14.6101 H   0  0  0  0  0
   31.4733   -8.5252   17.4633 H   0  0  0  0  0
   33.0263   -7.9812   16.7826 H   0  0  0  0  0
   31.8540   -6.7872   17.3918 H   0  0  0  0  0
   33.0921   -6.7989   14.6010 H   0  0  0  0  0
   31.5888   -6.4863   13.6992 H   0  0  0  0  0
   31.9188   -5.6069   15.2121 H   0  0  0  0  0
   27.3454   -7.0523   16.1639 H   0  0  0  0  0
   23.0716   -8.3874   17.3380 H   0  0  0  0  0
   20.6255  -10.7931   18.3231 H   0  0  0  0  0
   20.3050  -12.0632   16.9982 H   0  0  0  0  0
   21.3469  -13.3648   16.3726 H   0  0  0  0  0
   20.1715  -13.7089   17.6653 H   0  0  0  0  0
  1  2  1  0  0  0
  2  3  1  0  0  0
  2  4  1  0  0  0
  4  5  1  0  0  0
  5  6  1  0  0  0
  6  7  4  0  0  0
  6 28  4  0  0  0
  7  8  1  0  0  0
  7 24  4  0  0  0
  8  9  2  0  0  0
  8 10  1  0  0  0
 10 11  4  0  0  0
 10 22  4  0  0  0
 11 12  1  0  0  0
 11 13  4  0  0  0
 13 14  1  0  0  0
 13 20  4  0  0  0
 14 15  1  0  0  0
 15 16  1  0  0  0
 16 17  1  0  0  0
 16 18  1  0  0  0
 16 19  1  0  0  0
 19 20  1  0  0  0
 20 21  4  0  0  0
 21 22  4  0  0  0
 22 23  1  0  0  0
 23 24  1  0  0  0
 24 25  4  0  0  0
 25 26  4  0  0  0
 26 27  1  0  0  0
 26 28  4  0  0  0
 28 29  1  0  0  0
 29 30  1  0  0  0
  1 31  1  0  0  0
  1 32  1  0  0  0
  1 33  1  0  0  0
  2 34  1  0  0  0
  3 35  1  0  0  0
  3 36  1  0  0  0
  3 37  1  0  0  0
  4 38  1  0  0  0
  4 39  1  0  0  0
  5 40  1  0  0  0
  5 41  1  0  0  0
 12 42  1  0  0  0
 14 43  1  0  0  0
 14 44  1  0  0  0
 15 45  1  0  0  0
 15 46  1  0  0  0
 17 47  1  0  0  0
 17 48  1  0  0  0
 17 49  1  0  0  0
 18 50  1  0  0  0
 18 51  1  0  0  0
 18 52  1  0  0  0
 21 53  1  0  0  0
 25 54  1  0  0  0
 27 55  1  0  0  0
 30 56  1  0  0  0
 30 57  1  0  0  0
 30 58  1  0  0  0
M  END
$$$$
