4unp_ligand
  -I-interpret- 

 29 30  0  0  0  0  0  0  0  0999 V2000
   41.8050   32.3730   55.9920 C   0  0  0  0  0
   43.0690   31.8060   57.9360 C   0  0  0  0  0
   42.4600   31.4280   56.7420 C   0  0  0  0  0
   41.7690   33.6670   56.4540 C   0  0  0  0  0
   43.0030   33.1410   58.3270 C   0  0  0  0  0
   43.7330   30.7810   58.6950 C   0  0  0  0  0
   43.7630   29.4990   58.2620 C   0  0  0  0  0
   43.1190   29.1040   57.0140 C   0  0  0  0  0
   43.6760   33.6680   59.5620 C   0  0  0  0  0
   43.2760   35.7710   55.4730 C   0  0  0  0  0
   41.0470   34.7410   55.6760 C   0  0  0  0  0
   41.9350   35.5970   54.8220 C   0  0  0  0  0
   42.3560   34.0450   57.5890 N   0  0  0  0  0
   42.4890   30.1060   56.3320 N   0  0  0  0  0
   43.1280   27.9490   56.5600 O   0  0  0  0  0
   41.3244   32.1033   55.0516 H   0  0  0  0  0
   44.2203   31.0408   59.6348 H   0  0  0  0  0
   44.2789   28.7462   58.8580 H   0  0  0  0  0
   43.2844   33.1493   60.4370 H   0  0  0  0  0
   44.7504   33.4995   59.4887 H   0  0  0  0  0
   43.4799   34.7363   59.6533 H   0  0  0  0  0
   43.1477   36.2492   56.4441 H   0  0  0  0  0
   43.7433   34.7952   55.6060 H   0  0  0  0  0
   43.9075   36.3945   54.8401 H   0  0  0  0  0
   40.5757   35.3998   56.4053 H   0  0  0  0  0
   40.3519   34.2355   55.0056 H   0  0  0  0  0
   42.0699   35.1141   53.8542 H   0  0  0  0  0
   41.4713   36.5755   54.6965 H   0  0  0  0  0
   42.0091   29.8647   55.4649 H   0  0  0  0  0
  1  3  4  0  0  0
  4  1  4  0  0  0
  3  2  4  0  0  0
  5  2  4  0  0  0
  2  6  1  0  0  0
  3 14  1  0  0  0
 11  4  1  0  0  0
  4 13  4  0  0  0
  5  9  1  0  0  0
 13  5  4  0  0  0
  6  7  2  0  0  0
  8  7  1  0  0  0
 14  8  1  0  0  0
  8 15  2  0  0  0
 12 10  1  0  0  0
 11 12  1  0  0  0
  1 16  1  0  0  0
  6 17  1  0  0  0
  7 18  1  0  0  0
  9 19  1  0  0  0
  9 20  1  0  0  0
  9 21  1  0  0  0
 10 22  1  0  0  0
 10 23  1  0  0  0
 10 24  1  0  0  0
 11 25  1  0  0  0
 11 26  1  0  0  0
 12 27  1  0  0  0
 12 28  1  0  0  0
 14 29  1  0  0  0
M  END
$$$$
