6g7f_ligand
  -I-interpret- 

 55 54  0  0  0  0  0  0  0  0999 V2000
   62.6030 -136.2810   41.9280 C   0  0  0  0  0
   63.7160 -135.3120   41.7910 C   0  0  0  0  0
   63.1680 -134.0660   42.4080 C   0  0  0  0  0
   63.8720 -134.9960   40.3430 C   0  0  0  0  0
   61.2010 -141.7140   41.9460 C   0  0  0  0  0
   61.8900 -141.8680   40.6080 C   0  0  0  0  0
   58.3570 -139.7960   44.9120 C   0  0  0  0  0
   57.5790 -138.5260   45.0530 C   0  0  0  0  0
   56.3340 -138.6850   44.2260 C   0  0  0  0  0
   62.5230 -136.7030   43.3710 C   0  0  0  0  0
   61.5820 -136.4100   44.0880 O   0  0  0  0  0
   62.8440 -137.4500   41.0150 C   0  0  0  0  0
   64.0080 -138.0730   41.4690 O   0  0  0  0  0
   61.6500 -138.3700   41.1240 C   0  0  0  0  0
   60.6210 -138.1390   40.5100 O   0  0  0  0  0
   61.7780 -139.4040   41.9190 N   0  0  0  0  0
   60.6710 -140.3180   42.0630 C   0  0  0  0  0
   60.0380 -142.6750   42.0630 C   0  0  0  0  0
   60.1570 -140.1630   43.4490 C   0  0  0  0  0
   60.9060 -140.2260   44.3930 O   0  0  0  0  0
   58.8840 -139.9500   43.5770 N   0  0  0  0  0
   57.3940 -140.9120   45.1670 C   0  0  0  0  0
   56.7520 -141.3530   44.2020 O   0  0  0  0  0
   57.2930 -141.2850   46.3410 O   0  0  0  0  0
   57.1330 -138.4350   46.4850 C   0  0  0  0  0
   61.6516 -135.8327   41.6415 H   0  0  0  0  0
   64.6501 -135.6734   42.2210 H   0  0  0  0  0
   63.8680 -133.2456   42.2499 H   0  0  0  0  0
   62.2114 -133.8234   41.9453 H   0  0  0  0  0
   63.0264 -134.2235   43.4772 H   0  0  0  0  0
   62.9009 -134.7343   39.9229 H   0  0  0  0  0
   64.5575 -134.1565   40.2274 H   0  0  0  0  0
   64.2713 -135.8670   39.8233 H   0  0  0  0  0
   61.9228 -141.9252   42.7349 H   0  0  0  0  0
   61.1744 -141.6774   39.8082 H   0  0  0  0  0
   62.7117 -141.1550   40.5397 H   0  0  0  0  0
   62.2786 -142.8822   40.5155 H   0  0  0  0  0
   59.1972 -139.7920   45.6064 H   0  0  0  0  0
   58.1664 -137.6580   44.7535 H   0  0  0  0  0
   56.6099 -138.8568   43.1856 H   0  0  0  0  0
   55.7596 -139.5343   44.5959 H   0  0  0  0  0
   55.7328 -137.7787   44.2988 H   0  0  0  0  0
   63.3378 -137.2931   43.7905 H   0  0  0  0  0
   62.9653 -137.1621   39.9707 H   0  0  0  0  0
   64.7472 -137.4658   41.3877 H   0  0  0  0  0
   62.6477 -139.5603   42.4286 H   0  0  0  0  0
   59.9022 -140.1254   41.3147 H   0  0  0  0  0
   59.5516 -142.5389   43.0289 H   0  0  0  0  0
   59.3234 -142.4776   41.2639 H   0  0  0  0  0
   60.4042 -143.6983   41.9801 H   0  0  0  0  0
   58.2750 -139.8932   42.7607 H   0  0  0  0  0
   57.0206 -140.8931   43.4033 H   0  0  0  0  0
   56.5094 -139.2961   46.7254 H   0  0  0  0  0
   58.0069 -138.4244   47.1364 H   0  0  0  0  0
   56.5603 -137.5187   46.6283 H   0  0  0  0  0
  1  2  1  0  0  0
  1 10  1  0  0  0
 12  1  1  0  0  0
  2  3  1  0  0  0
  2  4  1  0  0  0
  5  6  1  0  0  0
 17  5  1  0  0  0
  5 18  1  0  0  0
  7  8  1  0  0  0
 21  7  1  0  0  0
  7 22  1  0  0  0
  8  9  1  0  0  0
  8 25  1  0  0  0
 10 11  2  0  0  0
 12 13  1  0  0  0
 14 12  1  0  0  0
 14 15  2  0  0  0
 16 14  1  0  0  0
 17 16  1  0  0  0
 19 17  1  0  0  0
 19 20  2  0  0  0
 19 21  1  0  0  0
 22 23  1  0  0  0
 22 24  2  0  0  0
  1 26  1  0  0  0
  2 27  1  0  0  0
  3 28  1  0  0  0
  3 29  1  0  0  0
  3 30  1  0  0  0
  4 31  1  0  0  0
  4 32  1  0  0  0
  4 33  1  0  0  0
  5 34  1  0  0  0
  6 35  1  0  0  0
  6 36  1  0  0  0
  6 37  1  0  0  0
  7 38  1  0  0  0
  8 39  1  0  0  0
  9 40  1  0  0  0
  9 41  1  0  0  0
  9 42  1  0  0  0
 10 43  1  0  0  0
 12 44  1  0  0  0
 13 45  1  0  0  0
 16 46  1  0  0  0
 17 47  1  0  0  0
 18 48  1  0  0  0
 18 49  1  0  0  0
 18 50  1  0  0  0
 21 51  1  0  0  0
 23 52  1  0  0  0
 25 53  1  0  0  0
 25 54  1  0  0  0
 25 55  1  0  0  0
M  END
$$$$
