### 
### Created by X-TOOL on Mon Sep 10 21:13:25 2018
### 

@<TRIPOS>MOLECULE
4rxd_ligand
   24    24     1     0     0
SMALL
GAST_HUCK


@<TRIPOS>ATOM
      1 O12        31.6420    4.6430   14.9160 O.co2     1 RIS        -0.5593
      2 P9         32.3210    4.1540   13.6710 P.3       1 RIS         0.1123
      3 O11        31.7460    4.7730   12.4170 O.co2     1 RIS        -0.5593
      4 O10        32.3940    2.6390   13.5850 O.co2     1 RIS        -0.5593
      5 C8         34.0480    4.7270   13.8330 C.3       1 RIS         0.2151
      6 O13        34.7570    4.2980   12.6730 O.3       1 RIS        -0.3578
      7 P14        34.1190    6.5520   13.9970 P.3       1 RIS         0.1123
      8 O16        33.3810    7.0870   12.7930 O.co2     1 RIS        -0.5593
      9 O15        33.4870    6.8950   15.3160 O.co2     1 RIS        -0.5593
     10 O17        35.5900    6.9240   14.0030 O.co2     1 RIS        -0.5593
     11 C7         34.6310    3.9830   15.0350 C.3       1 RIS         0.0477
     12 C2         36.0710    4.2630   15.4870 C.ar      1 RIS        -0.0094
     13 C1         36.3320    4.2550   16.8480 C.ar      1 RIS        -0.0403
     14 C6         37.6220    4.4960   17.3290 C.ar      1 RIS        -0.0404
     15 C5         38.6340    4.7280   16.4110 C.ar      1 RIS         0.0042
     16 N4         38.3630    4.7280   15.0980 N.ar      1 RIS        -0.3044
     17 C3         37.1230    4.4940   14.6150 C.ar      1 RIS         0.0127
     18 H1         34.3543    4.6750   11.8996 H         1 RIS         0.2134
     19 H2         34.5746    2.9095   14.8017 H         1 RIS         0.0500
     20 H3         33.9799    4.2065   15.8930 H         1 RIS         0.0500
     21 H4         35.5269    4.0597   17.5471 H         1 RIS         0.0678
     22 H5         37.8259    4.5013   18.3936 H         1 RIS         0.0693
     23 H6         39.6458    4.9097   16.7550 H         1 RIS         0.0767
     24 H7         36.9510    4.4870   13.5448 H         1 RIS         0.0765
@<TRIPOS>BOND
     1    1    2 ar 
     2    2    3 ar 
     3    2    4 ar 
     4    2    5 1  
     5    5    6 1  
     6    5    7 1  
     7    5   11 1  
     8    7    8 ar 
     9    7    9 ar 
    10    7   10 ar 
    11   11   12 1  
    12   12   13 ar 
    13   12   17 ar 
    14   13   14 ar 
    15   14   15 ar 
    16   15   16 ar 
    17   16   17 ar 
    18    6   18 1  
    19   11   19 1  
    20   11   20 1  
    21   13   21 1  
    22   14   22 1  
    23   15   23 1  
    24   17   24 1  
@<TRIPOS>SUBSTRUCTURE
     1 RIS         1

