4rxd_ligand
  -I-interpret- 

 28 28  0  0  0  0  0  0  0  0999 V2000
   31.6420    4.6430   14.9160 O   0  0  0  0  0
   32.3210    4.1540   13.6710 P   0  0  0  0  0
   31.7460    4.7730   12.4170 O   0  0  0  0  0
   32.3940    2.6390   13.5850 O   0  0  0  0  0
   34.0480    4.7270   13.8330 C   0  0  0  0  0
   34.7570    4.2980   12.6730 O   0  0  0  0  0
   34.1190    6.5520   13.9970 P   0  0  0  0  0
   33.3810    7.0870   12.7930 O   0  0  0  0  0
   33.4870    6.8950   15.3160 O   0  0  0  0  0
   35.5900    6.9240   14.0030 O   0  0  0  0  0
   34.6310    3.9830   15.0350 C   0  0  0  0  0
   36.0710    4.2630   15.4870 C   0  0  0  0  0
   36.3320    4.2550   16.8480 C   0  0  0  0  0
   37.6220    4.4960   17.3290 C   0  0  0  0  0
   38.6340    4.7280   16.4110 C   0  0  0  0  0
   38.3630    4.7280   15.0980 N   0  0  0  0  0
   37.1230    4.4940   14.6150 C   0  0  0  0  0
   32.2110    4.4305   11.6502 H   0  0  0  0  0
   32.8366    2.3868   12.7713 H   0  0  0  0  0
   34.7082    3.3417   12.6050 H   0  0  0  0  0
   33.8445    6.8272   11.9935 H   0  0  0  0  0
   35.9793    6.6991   13.1548 H   0  0  0  0  0
   34.6401    2.9368   14.7294 H   0  0  0  0  0
   34.0150    4.3001   15.8765 H   0  0  0  0  0
   35.5225    4.0586   17.5510 H   0  0  0  0  0
   37.8270    4.5013   18.3995 H   0  0  0  0  0
   39.6514    4.9107   16.7569 H   0  0  0  0  0
   36.9500    4.4869   13.5388 H   0  0  0  0  0
  1  2  2  0  0  0
  2  3  1  0  0  0
  2  4  1  0  0  0
  2  5  1  0  0  0
  5  6  1  0  0  0
  5  7  1  0  0  0
  5 11  1  0  0  0
  7  8  1  0  0  0
  7  9  2  0  0  0
  7 10  1  0  0  0
 11 12  1  0  0  0
 12 13  4  0  0  0
 12 17  4  0  0  0
 13 14  4  0  0  0
 14 15  4  0  0  0
 15 16  4  0  0  0
 16 17  4  0  0  0
  3 18  1  0  0  0
  4 19  1  0  0  0
  6 20  1  0  0  0
  8 21  1  0  0  0
 10 22  1  0  0  0
 11 23  1  0  0  0
 11 24  1  0  0  0
 13 25  1  0  0  0
 14 26  1  0  0  0
 15 27  1  0  0  0
 17 28  1  0  0  0
M  END
$$$$
