3oy3_ligand
  -I-interpret- 

 74 77  0  0  0  0  0  0  0  0999 V2000
   24.8300    9.5410    3.7640 N   0  0  0  0  0
    9.2620    4.9440    5.3110 N   0  3  0  0  0
   20.3560    9.8190    2.3720 C   0  0  0  0  0
   18.9550   10.0990    2.2990 C   0  0  0  0  0
   18.4510   11.2980    1.6760 C   0  0  0  0  0
   17.0520   11.5210    1.6480 C   0  0  0  0  0
   16.1480   10.5620    2.2220 C   0  0  0  0  0
   18.0830    9.1540    2.8590 C   0  0  0  0  0
   13.4560    7.6850    4.0430 C   0  0  0  0  0
   11.0810    7.0100    4.2800 C   0  0  0  0  0
   12.7320    6.2390    5.9830 C   0  0  0  0  0
   10.2130    5.5360    6.2040 C   0  0  0  0  0
    9.8130    3.9040    4.3850 C   0  0  0  0  0
    8.7300    3.5040    3.3360 C   0  0  0  0  0
    8.0450    4.4480    6.0100 C   0  0  0  0  0
   23.4610    8.4620    0.5800 C   0  0  0  0  0
   26.2290    8.4960    1.9470 C   0  0  0  0  0
   26.2580    8.1960    0.6080 O   0  0  0  0  0
   23.7740    9.0310    1.8000 N   0  0  0  0  0
   25.0210    9.0120    2.5520 C   0  0  0  0  0
   23.4850    9.7220    3.8910 C   0  0  0  0  0
   22.8630    9.4620    2.7170 C   0  0  0  0  0
   21.5140    9.6270    2.5040 C   0  0  0  0  0
   16.6700    9.3530    2.8380 C   0  0  0  0  0
   19.3940   12.3320    1.0510 C   0  0  0  0  0
   15.8070    8.2880    3.4620 C   0  0  0  0  0
   16.3510    7.3650    4.1180 O   0  0  0  0  0
   14.4590    8.3940    3.2930 N   0  0  0  0  0
   12.1160    7.7070    3.5720 C   0  0  0  0  0
   11.3770    6.2720    5.4910 C   0  0  0  0  0
   13.7530    6.9410    5.2560 C   0  0  0  0  0
   13.1210    5.4700    7.2590 C   0  0  0  0  0
   13.0280    4.1700    7.0270 F   0  0  0  0  0
   14.3550    5.6860    7.6580 F   0  0  0  0  0
   12.3230    5.8250    8.2610 F   0  0  0  0  0
    6.9510    4.0860    4.9680 C   0  0  0  0  0
    6.4400    2.6170    2.9750 C   0  0  0  0  0
    7.4550    3.0520    3.9930 N   0  3  0  0  0
   27.1300    8.3730    2.5860 N   0  0  0  0  0
    5.3990    2.3950    3.4020 C   0  0  0  0  0
    5.3430    0.9830    4.0450 O   0  0  0  0  0
    8.9908    5.7222    4.7099 H   0  0  0  0  0
   16.6581   12.4270    1.1875 H   0  0  0  0  0
   15.0731   10.7409    2.1955 H   0  0  0  0  0
   18.4910    8.2532    3.3176 H   0  0  0  0  0
   10.0590    7.0360    3.9020 H   0  0  0  0  0
   10.6523    4.7283    6.7894 H   0  0  0  0  0
    9.6791    6.2768    6.7992 H   0  0  0  0  0
   10.0996    3.0240    4.9608 H   0  0  0  0  0
   10.6842    4.3065    3.8682 H   0  0  0  0  0
    9.1192    2.6786    2.7399 H   0  0  0  0  0
    8.5082    4.3775    2.7229 H   0  0  0  0  0
    7.6677    5.2263    6.6733 H   0  0  0  0  0
    8.2986    3.5604    6.5896 H   0  0  0  0  0
   24.1174    8.8697   -0.1887 H   0  0  0  0  0
   23.5956    7.3820    0.6390 H   0  0  0  0  0
   22.4240    8.6871    0.3309 H   0  0  0  0  0
   22.9820   10.0318    4.8070 H   0  0  0  0  0
   20.0707   12.7137    1.8156 H   0  0  0  0  0
   19.9713   11.8612    0.2553 H   0  0  0  0  0
   18.8083   13.1539    0.6392 H   0  0  0  0  0
   14.1312    9.0338    2.5694 H   0  0  0  0  0
   11.8718    8.2586    2.6641 H   0  0  0  0  0
   14.7786    6.9150    5.6241 H   0  0  0  0  0
    6.6826    4.9864    4.4154 H   0  0  0  0  0
    6.0876    3.6791    5.4943 H   0  0  0  0  0
    6.8077    1.6895    2.5360 H   0  0  0  0  0
    6.3251    3.4398    2.2693 H   0  0  0  0  0
    7.6486    2.2207    4.5515 H   0  0  0  0  0
   28.0008    8.0311    2.1794 H   0  0  0  0  0
   27.0861    8.6020    3.5790 H   0  0  0  0  0
    4.6744    2.4351    2.5887 H   0  0  0  0  0
    5.1735    3.1352    4.1697 H   0  0  0  0  0
    4.4621    0.8257    4.3928 H   0  0  0  0  0
  1 20  4  0  0  0
 21  1  4  0  0  0
 12  2  1  0  0  0
  2 13  1  0  0  0
  2 15  1  0  0  0
  4  3  1  0  0  0
  3 23  3  0  0  0
  4  5  4  0  0  0
  8  4  4  0  0  0
  6  5  4  0  0  0
  5 25  1  0  0  0
  7  6  4  0  0  0
 24  7  4  0  0  0
 24  8  4  0  0  0
 28  9  1  0  0  0
  9 29  4  0  0  0
  9 31  4  0  0  0
 29 10  4  0  0  0
 10 30  4  0  0  0
 11 30  4  0  0  0
 31 11  4  0  0  0
 11 32  1  0  0  0
 30 12  1  0  0  0
 13 14  1  0  0  0
 14 38  1  0  0  0
 15 36  1  0  0  0
 19 16  1  0  0  0
 17 18  2  0  0  0
 20 17  1  0  0  0
 17 39  1  0  0  0
 19 20  4  0  0  0
 22 19  4  0  0  0
 22 21  4  0  0  0
 23 22  1  0  0  0
 26 24  1  0  0  0
 26 27  2  0  0  0
 26 28  1  0  0  0
 32 33  1  0  0  0
 32 34  1  0  0  0
 32 35  1  0  0  0
 36 38  1  0  0  0
 38 37  1  0  0  0
 37 40  1  0  0  0
 40 41  1  0  0  0
  2 42  1  0  0  0
  6 43  1  0  0  0
  7 44  1  0  0  0
  8 45  1  0  0  0
 10 46  1  0  0  0
 12 47  1  0  0  0
 12 48  1  0  0  0
 13 49  1  0  0  0
 13 50  1  0  0  0
 14 51  1  0  0  0
 14 52  1  0  0  0
 15 53  1  0  0  0
 15 54  1  0  0  0
 16 55  1  0  0  0
 16 56  1  0  0  0
 16 57  1  0  0  0
 21 58  1  0  0  0
 25 59  1  0  0  0
 25 60  1  0  0  0
 25 61  1  0  0  0
 28 62  1  0  0  0
 29 63  1  0  0  0
 31 64  1  0  0  0
 36 65  1  0  0  0
 36 66  1  0  0  0
 37 67  1  0  0  0
 37 68  1  0  0  0
 38 69  1  0  0  0
 39 70  1  0  0  0
 39 71  1  0  0  0
 40 72  1  0  0  0
 40 73  1  0  0  0
 41 74  1  0  0  0
M  END
$$$$
