5nut_ligand
  -I-interpret- 

 37 39  0  0  0  0  0  0  0  0999 V2000
    8.5870   37.2280    6.2400 C   0  0  0  0  0
    7.2440   37.5200    5.5830 C   0  0  0  0  0
    7.5030   38.3050    4.2950 C   0  0  0  0  0
    6.4180   38.3090    6.4480 O   0  0  0  0  0
    6.5280   38.0860    7.7910 C   0  0  0  0  0
    5.9900   36.9370    8.3470 C   0  0  0  0  0
    6.0960   36.7020    9.7130 C   0  0  0  0  0
    7.1530   39.0200    8.6160 C   0  0  0  0  0
    7.2500   38.7860    9.9920 C   0  0  0  0  0
    6.7340   37.6150   10.5400 C   0  0  0  0  0
    6.7890   37.3360   11.9100 C   0  0  0  0  0
    5.9760   36.3870   12.3800 N   0  0  0  0  0
    5.9580   36.0670   13.6810 C   0  0  0  0  0
    5.0790   35.0740   14.0870 C   0  0  0  0  0
    5.0240   34.7100   15.4160 C   0  0  0  0  0
    5.8340   35.3560   16.3480 C   0  0  0  0  0
    6.7160   36.3540   15.9380 C   0  0  0  0  0
    6.7750   36.7190   14.5970 C   0  0  0  0  0
    7.6530   37.7090   14.1390 C   0  0  0  0  0
    8.4240   38.3090   14.8850 O   0  0  0  0  0
    7.6520   38.0170   12.7780 N   0  0  0  0  0
    9.0968   38.1672    6.4548 H   0  0  0  0  0
    8.4244   36.6808    7.1685 H   0  0  0  0  0
    9.1973   36.6279    5.5651 H   0  0  0  0  0
    6.7327   36.5802    5.3745 H   0  0  0  0  0
    6.5535   38.5195    3.8046 H   0  0  0  0  0
    8.0082   39.2402    4.5364 H   0  0  0  0  0
    8.1311   37.7124    3.6299 H   0  0  0  0  0
    5.4810   36.2135    7.7102 H   0  0  0  0  0
    5.6738   35.7916   10.1384 H   0  0  0  0  0
    7.5665   39.9335    8.1886 H   0  0  0  0  0
    7.7306   39.5222   10.6363 H   0  0  0  0  0
    4.4340   34.5831   13.3583 H   0  0  0  0  0
    4.3477   33.9178   15.7371 H   0  0  0  0  0
    5.7775   35.0798   17.4009 H   0  0  0  0  0
    7.3586   36.8478   16.6669 H   0  0  0  0  0
    8.2782   38.7363   12.4161 H   0  0  0  0  0
  1  2  1  0  0  0
  2  3  1  0  0  0
  2  4  1  0  0  0
  4  5  1  0  0  0
  5  6  4  0  0  0
  5  8  4  0  0  0
  6  7  4  0  0  0
  7 10  4  0  0  0
  8  9  4  0  0  0
  9 10  4  0  0  0
 10 11  1  0  0  0
 11 12  2  0  0  0
 11 21  1  0  0  0
 12 13  1  0  0  0
 13 14  4  0  0  0
 13 18  4  0  0  0
 14 15  4  0  0  0
 15 16  4  0  0  0
 16 17  4  0  0  0
 17 18  4  0  0  0
 18 19  1  0  0  0
 19 20  2  0  0  0
 19 21  1  0  0  0
  1 22  1  0  0  0
  1 23  1  0  0  0
  1 24  1  0  0  0
  2 25  1  0  0  0
  3 26  1  0  0  0
  3 27  1  0  0  0
  3 28  1  0  0  0
  6 29  1  0  0  0
  7 30  1  0  0  0
  8 31  1  0  0  0
  9 32  1  0  0  0
 14 33  1  0  0  0
 15 34  1  0  0  0
 16 35  1  0  0  0
 17 36  1  0  0  0
 21 37  1  0  0  0
M  END
$$$$
