4bhz_ligand
  -I-interpret- 

 19 21  0  0  0  0  0  0  0  0999 V2000
    0.8940  -42.2180   17.3370 C   0  0  0  0  0
    1.0660  -42.5600   18.7160 C   0  0  0  0  0
    1.9660  -41.8030   19.4970 C   0  0  0  0  0
    2.6480  -40.7780   18.9150 C   0  0  0  0  0
    1.6730  -41.1280   16.8820 C   0  0  0  0  0
   -1.4180  -43.7900   14.8510 C   0  0  0  0  0
   -0.4840  -42.8620   15.1490 C   0  0  0  0  0
   -0.0340  -42.9790   16.5390 C   0  0  0  0  0
   -0.6930  -44.0460   17.2560 C   0  0  0  0  0
   -0.5350  -44.3720   18.5460 N   0  0  0  0  0
   -1.8050  -44.8290   16.1710 S   0  0  0  0  0
    0.3160  -43.6450   19.2390 C   0  0  0  0  0
    2.5260  -40.4300   17.6280 N   0  0  0  0  0
    2.1130  -42.0358   20.5516 H   0  0  0  0  0
    3.3365  -40.2049   19.5360 H   0  0  0  0  0
    1.5660  -40.8367   15.8371 H   0  0  0  0  0
   -1.8833  -43.8743   13.8689 H   0  0  0  0  0
   -0.1112  -42.1188   14.4442 H   0  0  0  0  0
    0.4545  -43.8947   20.2909 H   0  0  0  0  0
  1  2  4  0  0  0
  1  5  4  0  0  0
  8  1  4  0  0  0
  2  3  4  0  0  0
  2 12  4  0  0  0
  3  4  4  0  0  0
 13  4  4  0  0  0
  5 13  4  0  0  0
  7  6  4  0  0  0
  6 11  4  0  0  0
  7  8  4  0  0  0
  8  9  4  0  0  0
  9 10  4  0  0  0
  9 11  4  0  0  0
 10 12  4  0  0  0
  3 14  1  0  0  0
  4 15  1  0  0  0
  5 16  1  0  0  0
  6 17  1  0  0  0
  7 18  1  0  0  0
 12 19  1  0  0  0
M  END
$$$$
