5mfs_ligand
  -I-interpret- 

 40 42  0  0  0  0  0  0  0  0999 V2000
  -65.6710   16.8700   -4.0060 C   0  0  0  0  0
  -66.1820   17.3720   -7.0340 C   0  0  0  0  0
  -66.9270   17.5240   -8.2070 C   0  0  0  0  0
  -67.6360   16.4360   -8.7080 C   0  0  0  0  0
  -65.3370   18.5760   -6.5650 C   0  0  0  0  0
  -66.9540   18.8610   -8.9100 C   0  0  0  0  0
  -64.1630   18.9530   -7.4440 C   0  0  0  0  0
  -65.6300   19.1450   -9.6280 C   0  0  0  0  0
  -64.5610   19.7580   -8.7190 C   0  0  0  0  0
  -64.9860   16.7330   -2.8140 C   0  0  0  0  0
  -64.0940   15.6990   -2.6370 C   0  0  0  0  0
  -63.9090   14.7830   -3.6370 C   0  0  0  0  0
  -64.5830   14.9190   -4.8390 C   0  0  0  0  0
  -65.4590   15.9800   -5.0510 C   0  0  0  0  0
  -66.1720   16.1460   -6.3510 C   0  0  0  0  0
  -67.6050   15.2120   -8.0580 C   0  0  0  0  0
  -66.8960   15.0680   -6.8740 C   0  0  0  0  0
  -63.3360   20.0410   -9.5700 N   0  3  0  0  0
  -63.2690   19.7500   -6.6910 O   0  0  0  0  0
  -63.4620   17.8370   -7.9200 O   0  0  0  0  0
  -66.3849   17.6847   -4.1275 H   0  0  0  0  0
  -68.2215   16.5476   -9.6206 H   0  0  0  0  0
  -64.9161   18.2944   -5.5998 H   0  0  0  0  0
  -66.0064   19.4362   -6.5664 H   0  0  0  0  0
  -67.1166   19.6397   -8.1648 H   0  0  0  0  0
  -67.7525   18.8450   -9.6518 H   0  0  0  0  0
  -65.8355   19.8629  -10.4221 H   0  0  0  0  0
  -65.2438   18.1928   -9.9916 H   0  0  0  0  0
  -65.0106   20.6598   -8.3033 H   0  0  0  0  0
  -65.1528   17.4481   -2.0084 H   0  0  0  0  0
  -63.5374   15.6103   -1.7040 H   0  0  0  0  0
  -63.2293   13.9442   -3.4868 H   0  0  0  0  0
  -64.4255   14.1855   -5.6297 H   0  0  0  0  0
  -68.1393   14.3600   -8.4783 H   0  0  0  0  0
  -66.9028   14.1125   -6.3495 H   0  0  0  0  0
  -63.6133   20.5673  -10.3986 H   0  0  0  0  0
  -62.6656   20.5862   -9.0281 H   0  0  0  0  0
  -62.9090   19.1590   -9.8531 H   0  0  0  0  0
  -63.0085   19.2750   -5.8985 H   0  0  0  0  0
  -63.1856   17.2939   -7.1782 H   0  0  0  0  0
  1 10  4  0  0  0
 14  1  4  0  0  0
  2  3  4  0  0  0
  2  5  1  0  0  0
 15  2  4  0  0  0
  3  4  4  0  0  0
  3  6  1  0  0  0
  4 16  4  0  0  0
  5  7  1  0  0  0
  6  8  1  0  0  0
  7  9  1  0  0  0
  7 19  1  0  0  0
  7 20  1  0  0  0
  9  8  1  0  0  0
  9 18  1  0  0  0
 10 11  4  0  0  0
 12 11  4  0  0  0
 13 12  4  0  0  0
 14 13  4  0  0  0
 14 15  1  0  0  0
 15 17  4  0  0  0
 16 17  4  0  0  0
  1 21  1  0  0  0
  4 22  1  0  0  0
  5 23  1  0  0  0
  5 24  1  0  0  0
  6 25  1  0  0  0
  6 26  1  0  0  0
  8 27  1  0  0  0
  8 28  1  0  0  0
  9 29  1  0  0  0
 10 30  1  0  0  0
 11 31  1  0  0  0
 12 32  1  0  0  0
 13 33  1  0  0  0
 16 34  1  0  0  0
 17 35  1  0  0  0
 18 36  1  0  0  0
 18 37  1  0  0  0
 18 38  1  0  0  0
 19 39  1  0  0  0
 20 40  1  0  0  0
M  END
$$$$
