2yog_ligand
  -I-interpret- 

 49 51  0  0  0  0  0  0  0  0999 V2000
   17.5240    4.0930    3.9890 O   0  0  0  0  0
   16.3290    4.0730    4.0460 C   0  0  0  0  0
   15.7350    3.4400    5.1160 N   0  0  0  0  0
   14.3420    3.3810    5.2330 C   0  0  0  0  0
   13.8440    2.7820    6.1770 O   0  0  0  0  0
   13.5500    3.9490    4.2490 C   0  0  0  0  0
   12.0200    3.9340    4.3520 C   0  0  0  0  0
   14.1700    4.6070    3.1980 C   0  0  0  0  0
   15.5610    4.6560    3.0550 N   0  0  0  0  0
   16.2670    5.2890    1.8850 C   0  0  0  0  0
   15.2670    5.3630    0.8470 O   0  0  0  0  0
   16.7910    6.6650    2.1350 C   0  0  0  0  0
   15.7460    7.5580    1.5900 C   0  0  0  0  0
   14.7130    7.7140    2.5600 O   0  0  0  0  0
   15.2190    6.7350    0.4050 C   0  0  0  0  0
   16.0990    6.9500   -0.8830 C   0  0  0  0  0
   15.6430    8.2400   -1.4350 N   0  0  0  0  0
   16.2850    9.3850   -1.2780 C   0  0  0  0  0
   17.8360    9.3900   -0.5000 S   0  0  0  0  0
   15.7060   10.4930   -1.7580 N   0  0  0  0  0
   16.3120   11.6740   -1.6230 C   0  0  0  0  0
   15.9420   12.4920   -0.5590 C   0  0  0  0  0
   17.3090   12.0870   -2.4990 C   0  0  0  0  0
   17.9250   13.3190   -2.3050 C   0  0  0  0  0
   17.5500   14.1410   -1.2450 C   0  0  0  0  0
   18.3580   15.6560   -1.0670 Cl  0  0  0  0  0
   16.5490   13.7270   -0.3600 C   0  0  0  0  0
   16.0820   14.5810    0.8310 C   0  0  0  0  0
   15.4630   15.6770    0.4160 F   0  0  0  0  0
   15.2260   13.8720    1.5580 F   0  0  0  0  0
   17.1020   14.9260    1.5990 F   0  0  0  0  0
   16.3187    3.0085    5.8326 H   0  0  0  0  0
   11.6522    4.9572    4.4287 H   0  0  0  0  0
   11.6019    3.4620    3.4629 H   0  0  0  0  0
   11.7222    3.3722    5.2373 H   0  0  0  0  0
   13.5493    5.1059    2.4537 H   0  0  0  0  0
   17.1451    4.6909    1.6413 H   0  0  0  0  0
   17.7587    6.8282    1.6607 H   0  0  0  0  0
   16.9760    6.8478    3.1935 H   0  0  0  0  0
   16.0953    8.5550    1.3215 H   0  0  0  0  0
   14.0320    8.2933    2.2103 H   0  0  0  0  0
   14.2097    7.0361    0.1244 H   0  0  0  0  0
   15.9799    6.1361   -1.5982 H   0  0  0  0  0
   17.1641    6.9597   -0.6516 H   0  0  0  0  0
   14.7762    8.2490   -1.9726 H   0  0  0  0  0
   14.8020   10.4341   -2.2267 H   0  0  0  0  0
   15.1645   12.1592    0.1286 H   0  0  0  0  0
   17.6061   11.4500   -3.3321 H   0  0  0  0  0
   18.7087   13.6443   -2.9891 H   0  0  0  0  0
  1  2  2  0  0  0
  2  3  1  0  0  0
  2  9  1  0  0  0
  3  4  1  0  0  0
  4  5  2  0  0  0
  4  6  1  0  0  0
  6  7  1  0  0  0
  6  8  2  0  0  0
  8  9  1  0  0  0
  9 10  1  0  0  0
 10 11  1  0  0  0
 10 12  1  0  0  0
 11 15  1  0  0  0
 12 13  1  0  0  0
 13 14  1  0  0  0
 13 15  1  0  0  0
 15 16  1  0  0  0
 16 17  1  0  0  0
 17 18  1  0  0  0
 18 19  2  0  0  0
 18 20  1  0  0  0
 20 21  1  0  0  0
 21 22  4  0  0  0
 21 23  4  0  0  0
 22 27  4  0  0  0
 23 24  4  0  0  0
 24 25  4  0  0  0
 25 26  1  0  0  0
 25 27  4  0  0  0
 27 28  1  0  0  0
 28 29  1  0  0  0
 28 30  1  0  0  0
 28 31  1  0  0  0
  3 32  1  0  0  0
  7 33  1  0  0  0
  7 34  1  0  0  0
  7 35  1  0  0  0
  8 36  1  0  0  0
 10 37  1  0  0  0
 12 38  1  0  0  0
 12 39  1  0  0  0
 13 40  1  0  0  0
 14 41  1  0  0  0
 15 42  1  0  0  0
 16 43  1  0  0  0
 16 44  1  0  0  0
 17 45  1  0  0  0
 20 46  1  0  0  0
 22 47  1  0  0  0
 23 48  1  0  0  0
 24 49  1  0  0  0
M  END
$$$$
