1odj_ligand
  -I-interpret- 

 33 35  0  0  0  0  0  0  0  0999 V2000
   -0.9440  -80.5800 -147.7660 O   0  0  0  0  0
    0.2920  -81.2070 -147.4800 C   0  0  0  0  0
    1.3310  -80.2020 -147.9780 C   0  0  0  0  0
    1.2970  -78.8900 -147.3070 O   0  0  0  0  0
    2.7630  -80.6770 -147.7670 C   0  0  0  0  0
    3.4690  -80.3250 -148.9910 O   0  0  0  0  0
    3.3170  -79.9050 -146.5450 C   0  0  0  0  0
    4.5840  -79.2700 -146.7520 O   0  0  0  0  0
    2.1360  -78.9680 -146.1380 C   0  0  0  0  0
    1.3810  -79.3580 -144.8990 N   0  0  0  0  0
    0.3730  -78.6000 -144.3460 C   0  0  0  0  0
   -0.1430  -79.1270 -143.2740 N   0  0  0  0  0
    0.5570  -80.3140 -143.0910 C   0  0  0  0  0
    0.4250  -81.3130 -142.0760 C   0  0  0  0  0
   -0.3620  -81.3440 -141.1160 O   0  0  0  0  0
    1.3250  -82.3540 -142.2610 N   0  0  0  0  0
    2.2380  -82.4320 -143.2770 C   0  0  0  0  0
    3.0130  -83.5290 -143.2710 N   0  0  0  0  0
    2.3790  -81.5090 -144.2340 N   0  0  0  0  0
    1.5090  -80.4810 -144.0790 C   0  0  0  0  0
   -1.6633  -81.1489 -147.4824 H   0  0  0  0  0
    0.3875  -82.1788 -147.9643 H   0  0  0  0  0
    0.4078  -81.4346 -146.4203 H   0  0  0  0  0
    1.0595  -80.1116 -149.0298 H   0  0  0  0  0
    2.8618  -81.7453 -147.5745 H   0  0  0  0  0
    3.1003  -80.8209 -149.7257 H   0  0  0  0  0
    3.5963  -80.5677 -145.7259 H   0  0  0  0  0
    5.2358  -79.9310 -146.9968 H   0  0  0  0  0
    2.5319  -77.9971 -145.8401 H   0  0  0  0  0
    0.0398  -77.6508 -144.7655 H   0  0  0  0  0
    1.3039  -83.1197 -141.5875 H   0  0  0  0  0
    3.7144  -83.6619 -143.9995 H   0  0  0  0  0
    2.9001  -84.2292 -142.5379 H   0  0  0  0  0
  1  2  1  0  0  0
  2  3  1  0  0  0
  3  4  1  0  0  0
  3  5  1  0  0  0
  4  9  1  0  0  0
  5  6  1  0  0  0
  5  7  1  0  0  0
  7  8  1  0  0  0
  7  9  1  0  0  0
  9 10  1  0  0  0
 10 11  4  0  0  0
 10 20  4  0  0  0
 11 12  4  0  0  0
 12 13  4  0  0  0
 13 14  1  0  0  0
 13 20  4  0  0  0
 14 15  2  0  0  0
 14 16  1  0  0  0
 16 17  1  0  0  0
 17 18  1  0  0  0
 17 19  2  0  0  0
 19 20  1  0  0  0
  1 21  1  0  0  0
  2 22  1  0  0  0
  2 23  1  0  0  0
  3 24  1  0  0  0
  5 25  1  0  0  0
  6 26  1  0  0  0
  7 27  1  0  0  0
  8 28  1  0  0  0
  9 29  1  0  0  0
 11 30  1  0  0  0
 16 31  1  0  0  0
 18 32  1  0  0  0
 18 33  1  0  0  0
M  END
$$$$
