5vm0_ligand
  -I-interpret- 

 28 29  0  0  0  0  0  0  0  0999 V2000
   -7.8440   22.5090    8.9090 C   0  0  0  0  0
   -7.1290   23.0620    7.8550 C   0  0  0  0  0
   -8.2320   21.7570   11.5470 Cl  0  0  0  0  0
   -8.5350   26.4110   -0.7510 Cl  0  0  0  0  0
   -7.4650   23.9290    5.6260 C   0  0  0  0  0
   -7.7160   23.0820    6.6330 N   0  0  0  0  0
   -8.3400   24.4660    3.4060 C   0  0  0  0  0
   -8.8570   23.7650    2.3200 C   0  0  0  0  0
   -8.9020   24.3520    1.0450 C   0  0  0  0  0
   -8.4460   25.6680    0.8710 C   0  0  0  0  0
   -7.9450   26.4010    1.9440 C   0  0  0  0  0
   -7.8680   25.7760    3.2030 C   0  0  0  0  0
   -8.3150   23.7940    4.6010 N   0  0  0  0  0
   -6.5680   24.7850    5.6510 O   0  0  0  0  0
   -7.2770   22.4590   10.1890 C   0  0  0  0  0
   -6.0310   23.0210   10.4260 C   0  0  0  0  0
   -5.2920   23.5850    9.3880 C   0  0  0  0  0
   -5.8660   23.6300    8.1180 C   0  0  0  0  0
   -5.3020   22.9750   12.0690 Cl  0  0  0  0  0
   -8.8459   22.1140    8.7405 H   0  0  0  0  0
   -8.4285   22.3727    6.4612 H   0  0  0  0  0
   -9.2305   22.7507    2.4607 H   0  0  0  0  0
   -9.2887   23.7890    0.1956 H   0  0  0  0  0
   -7.6205   27.4332    1.8122 H   0  0  0  0  0
   -7.4322   26.3200    4.0410 H   0  0  0  0  0
   -9.0460   23.0937    4.7262 H   0  0  0  0  0
   -4.2917   23.9805    9.5641 H   0  0  0  0  0
   -5.3239   24.1171    7.3075 H   0  0  0  0  0
  2  1  4  0  0  0
  1 15  4  0  0  0
  6  2  1  0  0  0
  2 18  4  0  0  0
 15  3  1  0  0  0
 10  4  1  0  0  0
  5  6  1  0  0  0
 13  5  1  0  0  0
  5 14  2  0  0  0
  8  7  4  0  0  0
  7 12  4  0  0  0
  7 13  1  0  0  0
  9  8  4  0  0  0
  9 10  4  0  0  0
 10 11  4  0  0  0
 11 12  4  0  0  0
 15 16  4  0  0  0
 16 17  4  0  0  0
 16 19  1  0  0  0
 17 18  4  0  0  0
  1 20  1  0  0  0
  6 21  1  0  0  0
  8 22  1  0  0  0
  9 23  1  0  0  0
 11 24  1  0  0  0
 12 25  1  0  0  0
 13 26  1  0  0  0
 17 27  1  0  0  0
 18 28  1  0  0  0
M  END
$$$$
