6i5g_ligand
  -I-interpret- 

 53 53  0  0  0  0  0  0  0  0999 V2000
  -20.9180   19.8460  -10.0490 C   0  0  0  0  0
  -19.9560   19.2060  -10.9720 C   0  0  0  0  0
  -20.3150   19.6960  -12.3550 C   0  0  0  0  0
  -19.6810   18.6920  -13.2960 C   0  0  0  0  0
  -20.7120   18.1810  -14.2520 C   0  0  0  0  0
  -20.6560   16.6620  -14.3560 C   0  0  0  0  0
  -20.7320   16.2880  -15.6030 C   0  0  0  0  0
  -20.7740   15.1550  -16.2570 C   0  0  0  0  0
  -20.6950   13.7100  -15.9990 C   0  0  0  0  0
  -20.6830   12.9100  -17.0980 C   0  0  0  0  0
  -20.7100   13.4130  -18.2650 O   0  0  0  0  0
  -20.6030   11.5730  -16.7420 C   0  0  0  0  0
  -20.5700   11.5840  -15.3330 C   0  0  0  0  0
  -20.6860   12.9840  -14.7440 C   0  0  0  0  0
  -22.0380   13.1450  -14.0660 C   0  0  0  0  0
  -23.1870   12.4800  -14.8070 C   0  0  0  0  0
  -23.6790   11.3590  -14.2720 C   0  0  0  0  0
  -24.8170   10.5830  -14.8820 C   0  0  0  0  0
  -24.9420    9.2550  -14.1350 C   0  0  0  0  0
  -23.7350    8.3210  -14.3780 C   0  0  0  0  0
  -24.0530    7.2470  -15.4130 C   0  0  0  0  0
  -23.4510    7.1910  -16.4820 O   0  0  0  0  0
  -24.9990    6.3330  -15.1780 O   0  0  0  0  0
  -20.8222   20.9294  -10.1203 H   0  0  0  0  0
  -21.9315   19.5510  -10.3207 H   0  0  0  0  0
  -20.7069   19.5277   -9.0281 H   0  0  0  0  0
  -20.0144   18.1193  -10.9112 H   0  0  0  0  0
  -18.9295   19.4674  -10.7152 H   0  0  0  0  0
  -19.9513   20.7076  -12.5349 H   0  0  0  0  0
  -21.3939   19.7603  -12.4961 H   0  0  0  0  0
  -19.2771   17.8598  -12.7195 H   0  0  0  0  0
  -18.8776   19.1742  -13.8529 H   0  0  0  0  0
  -20.5168   18.6061  -15.2365 H   0  0  0  0  0
  -21.6984   18.4703  -13.8896 H   0  0  0  0  0
  -20.5652   15.9835  -13.5077 H   0  0  0  0  0
  -20.7707   17.1433  -16.2776 H   0  0  0  0  0
  -19.8058   15.2525  -16.7482 H   0  0  0  0  0
  -21.8357   15.1855  -16.5018 H   0  0  0  0  0
  -20.4372   14.4173  -15.2107 H   0  0  0  0  0
  -20.5725   10.7071  -17.4034 H   0  0  0  0  0
  -20.4716   10.6833  -14.7271 H   0  0  0  0  0
  -19.9366   13.2700  -14.0060 H   0  0  0  0  0
  -22.2542   14.2126  -14.0271 H   0  0  0  0  0
  -21.9669   12.6695  -13.0878 H   0  0  0  0  0
  -23.5897   12.8975  -15.7298 H   0  0  0  0  0
  -23.2350   10.9875  -13.3484 H   0  0  0  0  0
  -24.6237   10.4021  -15.9394 H   0  0  0  0  0
  -25.7446   11.1493  -14.7986 H   0  0  0  0  0
  -25.8365    8.7487  -14.4980 H   0  0  0  0  0
  -24.9880    9.4732  -13.0681 H   0  0  0  0  0
  -23.4863    7.8291  -13.4376 H   0  0  0  0  0
  -22.9051    8.9217  -14.7500 H   0  0  0  0  0
  -25.3869    6.4905  -14.3141 H   0  0  0  0  0
  1  2  1  0  0  0
  2  3  1  0  0  0
  3  4  1  0  0  0
  4  5  1  0  0  0
  5  6  1  0  0  0
  6  7  2  0  0  0
  7  8  1  0  0  0
  8  9  1  0  0  0
  9 10  1  0  0  0
  9 14  1  0  0  0
 10 11  2  0  0  0
 10 12  1  0  0  0
 12 13  2  0  0  0
 13 14  1  0  0  0
 14 15  1  0  0  0
 15 16  1  0  0  0
 16 17  2  0  0  0
 17 18  1  0  0  0
 18 19  1  0  0  0
 19 20  1  0  0  0
 20 21  1  0  0  0
 21 22  2  0  0  0
 21 23  1  0  0  0
  1 24  1  0  0  0
  1 25  1  0  0  0
  1 26  1  0  0  0
  2 27  1  0  0  0
  2 28  1  0  0  0
  3 29  1  0  0  0
  3 30  1  0  0  0
  4 31  1  0  0  0
  4 32  1  0  0  0
  5 33  1  0  0  0
  5 34  1  0  0  0
  6 35  1  0  0  0
  7 36  1  0  0  0
  8 37  1  0  0  0
  8 38  1  0  0  0
  9 39  1  0  0  0
 12 40  1  0  0  0
 13 41  1  0  0  0
 14 42  1  0  0  0
 15 43  1  0  0  0
 15 44  1  0  0  0
 16 45  1  0  0  0
 17 46  1  0  0  0
 18 47  1  0  0  0
 18 48  1  0  0  0
 19 49  1  0  0  0
 19 50  1  0  0  0
 20 51  1  0  0  0
 20 52  1  0  0  0
 23 53  1  0  0  0
M  END
$$$$
