4yas_ligand
  -I-interpret- 

  9  8  0  0  0  0  0  0  0  0999 V2000
   13.7250   51.4070   17.8460 C   0  0  0  0  0
   14.8890   50.4800   17.3780 C   0  0  0  0  0
   15.4820   50.9070   16.1450 O   0  0  0  0  0
   12.7360   50.6560   19.1610 Cl  0  0  0  0  0
   14.4140   52.8890   18.5420 Cl  0  0  0  0  0
   12.6950   51.8830   16.4570 Cl  0  0  0  0  0
   14.4776   49.4828   17.2214 H   0  0  0  0  0
   15.6628   50.5047   18.1453 H   0  0  0  0  0
   16.1891   50.3035   15.9054 H   0  0  0  0  0
  1  2  1  0  0  0
  1  4  1  0  0  0
  1  5  1  0  0  0
  1  6  1  0  0  0
  2  3  1  0  0  0
  2  7  1  0  0  0
  2  8  1  0  0  0
  3  9  1  0  0  0
M  END
$$$$
