### 
### Created by X-TOOL on Mon Sep 10 21:12:50 2018
### 

@<TRIPOS>MOLECULE
1lzo_ligand
   11    10     1     0     0
SMALL
GAST_HUCK


@<TRIPOS>ATOM
      1 P          42.1160   18.9080   20.1850 P.3       1 PGA         0.2032
      2 O1P        40.6350   19.2690   20.7920 O.3       1 PGA        -0.2622
      3 O2P        42.0940   19.6060   18.8620 O.co2     1 PGA        -0.5536
      4 O3P        42.0830   17.4170   20.1170 O.co2     1 PGA        -0.5536
      5 O4P        43.0490   19.4720   21.2230 O.co2     1 PGA        -0.5536
      6 C2         39.9760   20.5520   20.7570 C.3       1 PGA         0.1305
      7 C1         38.7070   20.2210   21.4360 C.2       1 PGA         0.0653
      8 O1         37.4930   19.9600   20.8440 O.co2     1 PGA        -0.5663
      9 O2         38.4990   20.1380   22.7810 O.co2     1 PGA        -0.5663
     10 H1         39.8073   20.8940   19.7252 H         1 PGA         0.0783
     11 H2         40.5443   21.3157   21.3082 H         1 PGA         0.0783
@<TRIPOS>BOND
     1    1    2 1  
     2    1    3 ar 
     3    1    4 ar 
     4    1    5 ar 
     5    2    6 1  
     6    6    7 1  
     7    7    8 ar 
     8    7    9 ar 
     9    6   10 1  
    10    6   11 1  
@<TRIPOS>SUBSTRUCTURE
     1 PGA         1

