5eps_ligand
  -I-interpret- 

 22 23  0  0  0  0  0  0  0  0999 V2000
   14.6050    0.4510   -8.6340 O   0  0  0  0  0
   14.4360    1.0160   -7.5490 C   0  0  0  0  0
   15.3980    1.9130   -7.0710 C   0  0  0  0  0
   15.2440    2.2480   -5.6370 N   0  0  0  0  0
   14.0110    2.0650   -5.0300 C   0  0  0  0  0
   13.7600    2.6190   -3.7790 C   0  0  0  0  0
   12.5210    2.4270   -3.1850 C   0  0  0  0  0
   11.5460    1.6810   -3.8390 C   0  0  0  0  0
   11.8060    1.1260   -5.0870 C   0  0  0  0  0
   13.0390    1.3250   -5.6870 C   0  0  0  0  0
   13.2980    0.7760   -6.8850 N   0  0  0  0  0
   12.3270   -0.1720   -7.4620 C   0  0  0  0  0
   15.2866    2.8393   -7.6346 H   0  0  0  0  0
   16.3721    1.4387   -7.1908 H   0  0  0  0  0
   16.0345    2.6086   -5.1028 H   0  0  0  0  0
   14.5299    3.1988   -3.2699 H   0  0  0  0  0
   12.3118    2.8603   -2.2069 H   0  0  0  0  0
   10.5732    1.5308   -3.3707 H   0  0  0  0  0
   11.0416    0.5357   -5.5923 H   0  0  0  0  0
   12.2086   -1.0225   -6.7906 H   0  0  0  0  0
   11.3666    0.3271   -7.5911 H   0  0  0  0  0
   12.6906   -0.5189   -8.4292 H   0  0  0  0  0
  1  2  2  0  0  0
  2  3  1  0  0  0
  2 11  1  0  0  0
  3  4  1  0  0  0
  4  5  1  0  0  0
  5  6  4  0  0  0
  5 10  4  0  0  0
  6  7  4  0  0  0
  7  8  4  0  0  0
  8  9  4  0  0  0
  9 10  4  0  0  0
 10 11  1  0  0  0
 11 12  1  0  0  0
  3 13  1  0  0  0
  3 14  1  0  0  0
  4 15  1  0  0  0
  6 16  1  0  0  0
  7 17  1  0  0  0
  8 18  1  0  0  0
  9 19  1  0  0  0
 12 20  1  0  0  0
 12 21  1  0  0  0
 12 22  1  0  0  0
M  END
$$$$
