1lzq_ligand
  -I-interpret- 

100102  0  0  0  0  0  0  0  0999 V2000
  -22.0500   39.8290   30.2730 O   0  0  0  0  0
  -21.2040   39.1790   30.8690 C   0  0  0  0  0
  -21.2400   38.8070   32.2120 O   0  0  0  0  0
  -22.4690   38.8660   33.0960 C   0  0  0  0  0
  -22.0300   38.3700   34.4650 C   0  0  0  0  0
  -23.5510   37.9510   32.5250 C   0  0  0  0  0
  -22.9610   40.3120   33.1770 C   0  0  0  0  0
  -20.0420   38.6920   30.3250 N   0  0  0  0  0
  -19.6820   38.8830   28.9150 C   0  0  0  0  0
  -19.8910   37.5850   28.1320 C   0  0  0  0  0
  -18.2130   39.3140   28.7860 C   0  0  0  0  0
  -17.9130   40.6630   29.3860 C   0  0  0  0  0
  -16.6420   40.9500   29.8750 C   0  0  0  0  0
  -18.8950   41.6610   29.4400 C   0  0  0  0  0
  -16.3470   42.2090   30.4100 C   0  0  0  0  0
  -18.6100   42.9220   29.9730 C   0  0  0  0  0
  -17.3310   43.1940   30.4590 C   0  0  0  0  0
  -21.1740   37.5450   27.3210 C   0  0  0  0  0
  -21.8560   36.2550   27.4400 N   0  3  0  0  0
  -23.2170   36.2190   26.9060 C   0  0  0  0  0
  -23.5330   37.2710   25.8460 C   0  0  0  0  0
  -23.8410   38.4130   26.1720 O   0  0  0  0  0
  -24.2470   36.3540   28.0300 C   0  0  0  0  0
  -25.6690   36.4240   27.5340 C   0  0  0  0  0
  -26.4760   37.5170   27.8420 C   0  0  0  0  0
  -26.1920   35.4110   26.7340 C   0  0  0  0  0
  -27.7850   37.6110   27.3670 C   0  0  0  0  0
  -27.4990   35.4920   26.2470 C   0  0  0  0  0
  -28.2990   36.6000   26.5670 C   0  0  0  0  0
  -23.4710   36.8670   24.5820 N   0  0  0  0  0
  -23.7710   37.7480   23.4620 C   0  0  0  0  0
  -24.6120   36.9810   22.4450 C   0  0  0  0  0
  -24.3110   35.8300   22.1120 O   0  0  0  0  0
  -22.4700   38.2480   22.8160 C   0  0  0  0  0
  -22.6500   39.0670   21.5350 C   0  0  0  0  0
  -22.9140   38.1990   20.3100 C   0  0  0  0  0
  -23.2640   38.7470   19.2400 O   0  0  0  0  0
  -22.7650   36.9640   20.4180 O   0  0  0  0  0
  -25.6750   37.6110   21.9620 N   0  0  0  0  0
  -26.5190   36.9610   20.9740 C   0  0  0  0  0
  -26.8160   37.8930   19.7970 C   0  0  0  0  0
  -26.9190   39.1110   19.9550 O   0  0  0  0  0
  -27.8170   36.4580   21.6320 C   0  0  0  0  0
  -28.7310   37.5540   22.1130 C   0  0  0  0  0
  -29.7730   38.0150   21.3100 C   0  0  0  0  0
  -28.5540   38.1280   23.3690 C   0  0  0  0  0
  -30.6240   39.0300   21.7530 C   0  0  0  0  0
  -29.4040   39.1490   23.8180 C   0  0  0  0  0
  -30.4380   39.5960   23.0090 C   0  0  0  0  0
  -26.9270   37.3150   18.6080 N   0  0  0  0  0
  -21.2197   38.9982   34.8350 H   0  0  0  0  0
  -22.8726   38.4179   35.1548 H   0  0  0  0  0
  -21.6841   37.3396   34.3830 H   0  0  0  0  0
  -24.4309   37.9861   33.1674 H   0  0  0  0  0
  -23.8175   38.2870   31.5229 H   0  0  0  0  0
  -23.1739   36.9294   32.4788 H   0  0  0  0  0
  -23.2241   40.6614   32.1786 H   0  0  0  0  0
  -23.8376   40.3605   33.8231 H   0  0  0  0  0
  -22.1707   40.9409   33.5869 H   0  0  0  0  0
  -19.4008   38.1749   30.9266 H   0  0  0  0  0
  -20.3242   39.6634   28.5068 H   0  0  0  0  0
  -19.9464   36.7761   28.8605 H   0  0  0  0  0
  -19.0634   37.4980   27.4280 H   0  0  0  0  0
  -17.9877   39.3771   27.7214 H   0  0  0  0  0
  -17.6132   38.5806   29.3250 H   0  0  0  0  0
  -15.8667   40.1846   29.8408 H   0  0  0  0  0
  -19.8953   41.4515   29.0611 H   0  0  0  0  0
  -15.3467   42.4191   30.7886 H   0  0  0  0  0
  -19.3837   43.6889   30.0086 H   0  0  0  0  0
  -17.1021   44.1747   30.8760 H   0  0  0  0  0
  -20.9203   37.7017   26.2726 H   0  0  0  0  0
  -21.8410   38.3200   27.6986 H   0  0  0  0  0
  -21.9270   36.0520   28.4371 H   0  0  0  0  0
  -21.3109   35.5843   26.8983 H   0  0  0  0  0
  -23.2783   35.2476   26.4153 H   0  0  0  0  0
  -24.0371   37.2842   28.5580 H   0  0  0  0  0
  -24.1624   35.4693   28.6611 H   0  0  0  0  0
  -26.0767   38.3156   28.4672 H   0  0  0  0  0
  -25.5758   34.5469   26.4855 H   0  0  0  0  0
  -28.4002   38.4736   27.6229 H   0  0  0  0  0
  -27.8972   34.6951   25.6189 H   0  0  0  0  0
  -29.3192   36.6662   26.1890 H   0  0  0  0  0
  -23.2028   35.9021   24.3884 H   0  0  0  0  0
  -24.3281   38.6160   23.8146 H   0  0  0  0  0
  -21.8962   37.3625   22.5428 H   0  0  0  0  0
  -21.9926   38.9052   23.5428 H   0  0  0  0  0
  -21.7267   39.6192   21.3597 H   0  0  0  0  0
  -23.5127   39.7185   21.6742 H   0  0  0  0  0
  -23.3191   39.6964   19.3711 H   0  0  0  0  0
  -25.8999   38.5522   22.2844 H   0  0  0  0  0
  -25.9813   36.1008   20.5752 H   0  0  0  0  0
  -27.5288   35.8734   22.5057 H   0  0  0  0  0
  -28.3626   35.8933   20.8760 H   0  0  0  0  0
  -29.9257   37.5776   20.3234 H   0  0  0  0  0
  -27.7450   37.7796   24.0111 H   0  0  0  0  0
  -31.4348   39.3787   21.1133 H   0  0  0  0  0
  -29.2521   39.5912   24.8026 H   0  0  0  0  0
  -31.1019   40.3876   23.3565 H   0  0  0  0  0
  -27.1045   37.8828   17.7795 H   0  0  0  0  0
  -26.8348   36.3028   18.5224 H   0  0  0  0  0
  1  2  2  0  0  0
  2  3  1  0  0  0
  2  8  1  0  0  0
  3  4  1  0  0  0
  4  5  1  0  0  0
  4  6  1  0  0  0
  4  7  1  0  0  0
  8  9  1  0  0  0
  9 10  1  0  0  0
  9 11  1  0  0  0
 10 18  1  0  0  0
 11 12  1  0  0  0
 12 13  4  0  0  0
 12 14  4  0  0  0
 13 15  4  0  0  0
 14 16  4  0  0  0
 15 17  4  0  0  0
 16 17  4  0  0  0
 18 19  1  0  0  0
 19 20  1  0  0  0
 20 21  1  0  0  0
 20 23  1  0  0  0
 21 22  2  0  0  0
 21 30  1  0  0  0
 23 24  1  0  0  0
 24 25  4  0  0  0
 24 26  4  0  0  0
 25 27  4  0  0  0
 26 28  4  0  0  0
 27 29  4  0  0  0
 28 29  4  0  0  0
 30 31  1  0  0  0
 31 32  1  0  0  0
 31 34  1  0  0  0
 32 33  2  0  0  0
 32 39  1  0  0  0
 34 35  1  0  0  0
 35 36  1  0  0  0
 36 37  1  0  0  0
 36 38  2  0  0  0
 39 40  1  0  0  0
 40 41  1  0  0  0
 40 43  1  0  0  0
 41 42  2  0  0  0
 41 50  1  0  0  0
 43 44  1  0  0  0
 44 45  4  0  0  0
 44 46  4  0  0  0
 45 47  4  0  0  0
 46 48  4  0  0  0
 47 49  4  0  0  0
 48 49  4  0  0  0
  5 51  1  0  0  0
  5 52  1  0  0  0
  5 53  1  0  0  0
  6 54  1  0  0  0
  6 55  1  0  0  0
  6 56  1  0  0  0
  7 57  1  0  0  0
  7 58  1  0  0  0
  7 59  1  0  0  0
  8 60  1  0  0  0
  9 61  1  0  0  0
 10 62  1  0  0  0
 10 63  1  0  0  0
 11 64  1  0  0  0
 11 65  1  0  0  0
 13 66  1  0  0  0
 14 67  1  0  0  0
 15 68  1  0  0  0
 16 69  1  0  0  0
 17 70  1  0  0  0
 18 71  1  0  0  0
 18 72  1  0  0  0
 19 73  1  0  0  0
 19 74  1  0  0  0
 20 75  1  0  0  0
 23 76  1  0  0  0
 23 77  1  0  0  0
 25 78  1  0  0  0
 26 79  1  0  0  0
 27 80  1  0  0  0
 28 81  1  0  0  0
 29 82  1  0  0  0
 30 83  1  0  0  0
 31 84  1  0  0  0
 34 85  1  0  0  0
 34 86  1  0  0  0
 35 87  1  0  0  0
 35 88  1  0  0  0
 37 89  1  0  0  0
 39 90  1  0  0  0
 40 91  1  0  0  0
 43 92  1  0  0  0
 43 93  1  0  0  0
 45 94  1  0  0  0
 46 95  1  0  0  0
 47 96  1  0  0  0
 48 97  1  0  0  0
 49 98  1  0  0  0
 50 99  1  0  0  0
 50100  1  0  0  0
M  END
$$$$
