### 
### Created by X-TOOL on Mon Sep 10 21:13:24 2018
### 

@<TRIPOS>MOLECULE
3wuv_ligand
  199   205     1     0     0
SMALL
GAST_HUCK


@<TRIPOS>ATOM
      1 N         -64.2030   76.5440   57.7260 N.4       1 GLN         0.2380
      2 CA        -63.9050   75.2180   58.2540 C.3       1 GLN         0.0671
      3 C         -62.4070   75.0150   58.4650 C.2       1 GLN         0.2268
      4 O         -61.8950   73.9020   58.3320 O.2       1 GLN        -0.3907
      5 CB        -64.4550   74.1320   57.3300 C.3       1 GLN         0.0247
      6 CG        -63.8700   74.1500   55.9300 C.3       1 GLN         0.0443
      7 CD        -64.0250   72.8180   55.2300 C.2       1 GLN         0.1738
      8 OE1       -64.7790   71.9540   55.6800 O.2       1 GLN        -0.3973
      9 NE2       -63.3040   72.6370   54.1290 N.am      1 GLN        -0.3009
     10 N         -61.7060   76.0960   58.7840 N.am      1 ALA        -0.2613
     11 CA        -60.3130   75.9930   59.1900 C.3       1 ALA         0.1283
     12 C         -60.2800   75.4530   60.6140 C.2       1 ALA         0.2036
     13 O         -61.1260   75.8050   61.4360 O.2       1 ALA        -0.3944
     14 CB        -59.6300   77.3470   59.1110 C.3       1 ALA        -0.0244
     15 N         -59.3150   74.5880   60.9010 N.am      1 GLN        -0.2636
     16 CA        -59.2260   73.9700   62.2170 C.3       1 GLN         0.1330
     17 C         -57.8760   74.2290   62.8690 C.2       1 GLN         0.2038
     18 O         -56.8390   74.2010   62.2080 O.2       1 GLN        -0.3944
     19 CB        -59.4710   72.4620   62.1220 C.3       1 GLN         0.0045
     20 CG        -60.8010   72.0740   61.4950 C.3       1 GLN         0.0412
     21 CD        -61.0850   70.5870   61.6100 C.2       1 GLN         0.1737
     22 OE1       -60.2670   69.8270   62.1290 O.2       1 GLN        -0.3973
     23 NE2       -62.2500   70.1670   61.1300 N.am      1 GLN        -0.3009
     24 N         -57.8960   74.4890   64.1710 N.am      1 GLY        -0.2664
     25 CA        -56.6710   74.5960   64.9360 C.3       1 GLY         0.1203
     26 C         -56.3060   73.2390   65.5020 C.2       1 GLY         0.2032
     27 O         -56.9450   72.2380   65.1780 O.2       1 GLY        -0.3945
     28 N         -55.2710   73.1970   66.3510 N.am      1 PRO        -0.2501
     29 CA        -54.8760   71.9740   67.0550 C.3       1 PRO         0.1340
     30 C         -56.0050   71.5130   67.9680 C.2       1 PRO         0.2066
     31 O         -56.9370   72.2810   68.2090 O.2       1 PRO        -0.3942
     32 CB        -53.6750   72.4310   67.8930 C.3       1 PRO        -0.0104
     33 CG        -53.1570   73.6380   67.1910 C.3       1 PRO        -0.0281
     34 CD        -54.3750   74.3220   66.6580 C.3       1 PRO         0.0369
     35 N         -55.9380   70.2680   68.4600 N.am      1 PRO        -0.2498
     36 CA        -56.9470   69.8030   69.4170 C.3       1 PRO         0.1338
     37 C         -57.0120   70.7030   70.6520 C.2       1 PRO         0.2042
     38 O         -58.0950   70.9390   71.1880 O.2       1 PRO        -0.3944
     39 CB        -56.4420   68.4090   69.7920 C.3       1 PRO        -0.0104
     40 CG        -55.6870   67.9560   68.5860 C.3       1 PRO        -0.0281
     41 CD        -55.0120   69.1920   68.0650 C.3       1 PRO         0.0369
     42 N         -55.8550   71.1920   71.0910 N.am      1 TYR        -0.2621
     43 CA        -55.7610   72.1080   72.2260 C.3       1 TYR         0.1392
     44 C         -54.4590   72.9070   72.1180 C.2       1 TYR         0.2082
     45 O         -53.5280   72.4710   71.4440 O.2       1 TYR        -0.3940
     46 CB        -55.8300   71.3380   73.5500 C.3       1 TYR         0.0164
     47 CG        -55.6180   69.8510   73.4110 C.ar      1 TYR        -0.0493
     48 CD1       -54.3400   69.3150   73.3570 C.ar      1 TYR        -0.0685
     49 CD2       -56.6980   68.9800   73.3350 C.ar      1 TYR        -0.0685
     50 CE1       -54.1430   67.9560   73.2280 C.ar      1 TYR        -0.0398
     51 CE2       -56.5110   67.6190   73.2050 C.ar      1 TYR        -0.0398
     52 CZ        -55.2310   67.1120   73.1510 C.ar      1 TYR         0.0805
     53 OH        -55.0370   65.7560   73.0230 O.3       1 TYR        -0.3376
     54 N         -54.3930   74.0840   72.7680 N.am      1 PRO        -0.2497
     55 CA        -53.2260   74.9680   72.6180 C.3       1 PRO         0.1338
     56 C         -51.8670   74.3450   72.9690 C.2       1 PRO         0.2042
     57 O         -50.8730   74.7080   72.3410 O.2       1 PRO        -0.3944
     58 CB        -53.5440   76.1420   73.5600 C.3       1 PRO        -0.0104
     59 CG        -54.6470   75.6540   74.4480 C.3       1 PRO        -0.0281
     60 CD        -55.4330   74.7040   73.6070 C.3       1 PRO         0.0369
     61 N         -51.8150   73.4400   73.9430 N.am      1 THR        -0.2613
     62 CA        -50.5510   72.7930   74.2970 C.3       1 THR         0.1565
     63 C         -50.5380   71.3310   73.8720 C.2       1 THR         0.2066
     64 O         -51.5530   70.6420   73.9610 O.2       1 THR        -0.3943
     65 CB        -50.2480   72.8780   75.8080 C.3       1 THR         0.0924
     66 OG1       -51.2460   72.1610   76.5450 O.3       1 THR        -0.3874
     67 CG2       -50.2190   74.3260   76.2670 C.3       1 THR        -0.0346
     68 N         -49.3840   70.8580   73.4150 N.am      1 TYR        -0.2621
     69 CA        -49.2800   69.4830   72.9450 C.3       1 TYR         0.1390
     70 C         -49.3610   68.4780   74.0860 C.2       1 TYR         0.2057
     71 O         -48.7040   68.6310   75.1150 O.2       1 TYR        -0.3942
     72 CB        -47.9950   69.2570   72.1460 C.3       1 TYR         0.0163
     73 CG        -47.8800   67.8450   71.6230 C.ar      1 TYR        -0.0493
     74 CD1       -48.6660   67.4150   70.5620 C.ar      1 TYR        -0.0685
     75 CD2       -46.9990   66.9370   72.1960 C.ar      1 TYR        -0.0685
     76 CE1       -48.5750   66.1250   70.0810 C.ar      1 TYR        -0.0398
     77 CE2       -46.8980   65.6420   71.7190 C.ar      1 TYR        -0.0398
     78 CZ        -47.6890   65.2410   70.6620 C.ar      1 TYR         0.0805
     79 OH        -47.5940   63.9530   70.1820 O.3       1 TYR        -0.3376
     80 N         -50.1790   67.4520   73.8890 N.am      1 ILE        -0.2633
     81 CA        -50.2690   66.3430   74.8250 C.3       1 ILE         0.1337
     82 C         -50.0190   65.0410   74.0740 C.2       1 ILE         0.2067
     83 O         -50.7920   64.6740   73.1900 O.2       1 ILE        -0.3942
     84 CB        -51.6460   66.2920   75.5110 C.3       1 ILE        -0.0037
     85 CG1       -51.8660   67.5540   76.3520 C.3       1 ILE        -0.0491
     86 CG2       -51.7680   65.0380   76.3670 C.3       1 ILE        -0.0582
     87 CD1       -53.2840   67.7130   76.8570 C.3       1 ILE        -0.0648
     88 N         -48.9250   64.3460   74.4190 N.am      1 PRO        -0.2498
     89 CA        -48.5210   63.1040   73.7490 C.3       1 PRO         0.1339
     90 C         -49.6120   62.0430   73.8130 C.2       1 PRO         0.2060
     91 O         -50.4630   62.1000   74.6990 O.2       1 PRO        -0.3942
     92 CB        -47.3070   62.6490   74.5640 C.3       1 PRO        -0.0104
     93 CG        -46.7850   63.8890   75.1960 C.3       1 PRO        -0.0281
     94 CD        -47.9880   64.7280   75.4880 C.3       1 PRO         0.0369
     95 N         -49.6000   61.0900   72.8690 N.am      1 PRO        -0.2556
     96 CA        -50.5610   59.9850   72.9030 C.3       1 PRO         0.0972
     97 C         -50.0980   58.8850   73.8510 C.2       1 PRO         0.0603
     98 O         -50.9100   58.0460   74.2400 O.co2     1 PRO        -0.5666
     99 CB        -50.5470   59.4780   71.4620 C.3       1 PRO        -0.0159
    100 CG        -49.1650   59.7630   70.9940 C.3       1 PRO        -0.0288
    101 CD        -48.7580   61.0530   71.6590 C.3       1 PRO         0.0362
    102 OXT       -48.9210   58.8570   74.2090 O.co2     1 PRO        -0.5666
    103 H1        -65.1986   76.6397   57.6006 H         1 GLN         0.2015
    104 H2        -63.7395   76.6645   56.8390 H         1 GLN         0.2015
    105 H3        -63.8770   77.2445   58.3734 H         1 GLN         0.2015
    106 H4        -64.4023   75.1235   59.2306 H         1 GLN         0.1100
    107 H5        -65.5439   74.2660   57.2503 H         1 GLN         0.0370
    108 H6        -64.2381   73.1527   57.7816 H         1 GLN         0.0370
    109 H7        -62.7992   74.3930   55.9963 H         1 GLN         0.0506
    110 H8        -64.3855   74.9224   55.3403 H         1 GLN         0.0506
    111 H9        -63.3673   71.7751   53.6259 H         1 GLN         0.1814
    112 H10       -62.6979   73.3627   53.8033 H         1 GLN         0.1814
    113 H11       -62.1422   76.9950   58.7446 H         1 ALA         0.1884
    114 H12       -59.7894   75.2927   58.5226 H         1 ALA         0.0797
    115 H13       -58.5796   77.2465   59.4217 H         1 ALA         0.0277
    116 H14       -60.1431   78.0560   59.7773 H         1 ALA         0.0277
    117 H15       -59.6724   77.7193   58.0768 H         1 ALA         0.0277
    118 H16       -58.6380   74.3568   60.2023 H         1 GLN         0.1883
    119 H17       -60.0068   74.4104   62.8544 H         1 GLN         0.0801
    120 H18       -59.4365   72.0442   63.1390 H         1 GLN         0.0337
    121 H19       -58.6651   72.0211   61.5169 H         1 GLN         0.0337
    122 H20       -60.7826   72.3484   60.4300 H         1 GLN         0.0504
    123 H21       -61.6051   72.6271   62.0023 H         1 GLN         0.0504
    124 H22       -62.4906   69.1976   61.1788 H         1 GLN         0.1814
    125 H23       -62.8865   70.8202   60.7198 H         1 GLN         0.1814
    126 H24       -58.7744   74.6134   64.6325 H         1 GLY         0.1881
    127 H25       -56.8152   75.3098   65.7604 H         1 GLY         0.0763
    128 H26       -55.8605   74.9500   64.2820 H         1 GLY         0.0763
    129 H27       -54.6006   71.1722   66.3541 H         1 PRO         0.0802
    130 H28       -52.9066   71.6447   67.9296 H         1 PRO         0.0313
    131 H29       -53.9903   72.6836   68.9161 H         1 PRO         0.0313
    132 H30       -52.4840   73.3498   66.3700 H         1 PRO         0.0287
    133 H31       -52.6201   74.2936   67.8923 H         1 PRO         0.0287
    134 H32       -54.8185   74.9873   67.4134 H         1 PRO         0.0524
    135 H33       -54.1404   74.9005   65.7523 H         1 PRO         0.0524
    136 H34       -57.9407   69.7529   68.9480 H         1 PRO         0.0802
    137 H35       -57.2836   67.7326   70.0021 H         1 PRO         0.0313
    138 H36       -55.7817   68.4565   70.6705 H         1 PRO         0.0313
    139 H37       -56.3736   67.5432   67.8322 H         1 PRO         0.0287
    140 H38       -54.9419   67.1944   68.8595 H         1 PRO         0.0287
    141 H39       -54.0249   69.3293   68.5307 H         1 PRO         0.0524
    142 H40       -54.8989   69.1494   66.9717 H         1 PRO         0.0524
    143 H41       -55.0132   70.9210   70.6241 H         1 TYR         0.1885
    144 H42       -56.6085   72.8082   72.1875 H         1 TYR         0.0821
    145 H43       -56.8219   71.5051   73.9952 H         1 TYR         0.0453
    146 H44       -55.0549   71.7358   74.2215 H         1 TYR         0.0453
    147 H45       -53.4821   69.9748   73.4172 H         1 TYR         0.0530
    148 H46       -57.7058   69.3769   73.3786 H         1 TYR         0.0530
    149 H47       -53.1375   67.5531   73.1873 H         1 TYR         0.0525
    150 H48       -57.3648   66.9537   73.1458 H         1 TYR         0.0525
    151 H49       -54.1054   65.5712   73.0010 H         1 TYR         0.2458
    152 H50       -53.1735   75.3207   71.5774 H         1 PRO         0.0802
    153 H51       -53.8738   77.0190   72.9838 H         1 PRO         0.0313
    154 H52       -52.6587   76.4070   74.1567 H         1 PRO         0.0313
    155 H53       -55.2786   76.4929   74.7756 H         1 PRO         0.0287
    156 H54       -54.2347   75.1397   75.3286 H         1 PRO         0.0287
    157 H55       -55.9432   73.9526   74.2275 H         1 PRO         0.0524
    158 H56       -56.1739   75.2366   72.9927 H         1 PRO         0.0524
    159 H57       -52.6493   73.1992   74.4389 H         1 THR         0.1884
    160 H58       -49.7474   73.3162   73.7581 H         1 THR         0.0826
    161 H59       -49.2646   72.4238   75.9994 H         1 THR         0.0639
    162 H60       -51.2443   71.2502   76.2747 H         1 THR         0.2101
    163 H61       -50.0019   74.3647   77.3447 H         1 THR         0.0257
    164 H62       -51.1964   74.7918   76.0729 H         1 THR         0.0257
    165 H63       -49.4377   74.8698   75.7159 H         1 THR         0.0257
    166 H64       -48.5792   71.4512   73.3934 H         1 TYR         0.1885
    167 H65       -50.1320   69.2988   72.2740 H         1 TYR         0.0821
    168 H66       -47.1333   69.4629   72.7980 H         1 TYR         0.0453
    169 H67       -47.9834   69.9512   71.2928 H         1 TYR         0.0453
    170 H68       -49.3641   68.1057   70.1031 H         1 TYR         0.0530
    171 H69       -46.3806   67.2478   73.0303 H         1 TYR         0.0530
    172 H70       -49.1962   65.8077   69.2512 H         1 TYR         0.0525
    173 H71       -46.2014   64.9466   72.1731 H         1 TYR         0.0525
    174 H72       -48.2006   63.8399   69.4597 H         1 TYR         0.2458
    175 H73       -50.7525   67.4411   73.0698 H         1 ILE         0.1883
    176 H74       -49.4961   66.4680   75.5977 H         1 ILE         0.0803
    177 H75       -52.4219   66.2553   74.7321 H         1 ILE         0.0345
    178 H76       -51.6177   68.4298   75.7345 H         1 ILE         0.0267
    179 H77       -51.1914   67.5142   77.2199 H         1 ILE         0.0267
    180 H78       -51.6060   64.1489   75.7399 H         1 ILE         0.0235
    181 H79       -52.7728   64.9944   76.8124 H         1 ILE         0.0235
    182 H80       -51.0132   65.0651   77.1667 H         1 ILE         0.0235
    183 H81       -53.3610   68.6371   77.4487 H         1 ILE         0.0230
    184 H82       -53.5476   66.8510   77.4874 H         1 ILE         0.0230
    185 H83       -53.9739   67.7666   76.0020 H         1 ILE         0.0230
    186 H84       -48.2511   63.2934   72.6996 H         1 PRO         0.0802
    187 H85       -46.5470   62.1993   73.9082 H         1 PRO         0.0313
    188 H86       -47.6069   61.9202   75.3313 H         1 PRO         0.0313
    189 H87       -46.1077   64.4153   74.5073 H         1 PRO         0.0287
    190 H88       -46.2488   63.6496   76.1261 H         1 PRO         0.0287
    191 H89       -48.4024   64.4934   76.4796 H         1 PRO         0.0524
    192 H90       -47.7447   65.7995   75.4364 H         1 PRO         0.0524
    193 H91       -51.5615   60.3348   73.1972 H         1 PRO         0.0728
    194 H92       -51.2858   60.0170   70.8506 H         1 PRO         0.0306
    195 H93       -50.7576   58.3990   71.4250 H         1 PRO         0.0306
    196 H94       -49.1476   59.8752   69.8999 H         1 PRO         0.0286
    197 H95       -48.4860   58.9498   71.2901 H         1 PRO         0.0286
    198 H96       -47.6900   61.0410   71.9221 H         1 PRO         0.0524
    199 H97       -48.9656   61.9148   71.0077 H         1 PRO         0.0524
@<TRIPOS>BOND
     1    1    2 1  
     2    2    3 1  
     3    2    5 1  
     4    3    4 2  
     5    3   10 am 
     6    5    6 1  
     7    6    7 1  
     8    7    8 2  
     9    7    9 am 
    10   10   11 1  
    11   11   12 1  
    12   11   14 1  
    13   12   13 2  
    14   12   15 am 
    15   15   16 1  
    16   16   17 1  
    17   16   19 1  
    18   17   18 2  
    19   17   24 am 
    20   19   20 1  
    21   20   21 1  
    22   21   22 2  
    23   21   23 am 
    24   24   25 1  
    25   25   26 1  
    26   26   27 2  
    27   26   28 am 
    28   28   29 1  
    29   28   34 1  
    30   29   30 1  
    31   29   32 1  
    32   30   31 2  
    33   30   35 am 
    34   32   33 1  
    35   33   34 1  
    36   35   36 1  
    37   35   41 1  
    38   36   37 1  
    39   36   39 1  
    40   37   38 2  
    41   37   42 am 
    42   39   40 1  
    43   40   41 1  
    44   42   43 1  
    45   43   44 1  
    46   43   46 1  
    47   44   45 2  
    48   44   54 am 
    49   46   47 1  
    50   47   48 ar 
    51   47   49 ar 
    52   48   50 ar 
    53   49   51 ar 
    54   50   52 ar 
    55   51   52 ar 
    56   52   53 1  
    57   54   55 1  
    58   54   60 1  
    59   55   56 1  
    60   55   58 1  
    61   56   57 2  
    62   56   61 am 
    63   58   59 1  
    64   59   60 1  
    65   61   62 1  
    66   62   63 1  
    67   62   65 1  
    68   63   64 2  
    69   63   68 am 
    70   65   66 1  
    71   65   67 1  
    72   68   69 1  
    73   69   70 1  
    74   69   72 1  
    75   70   71 2  
    76   70   80 am 
    77   72   73 1  
    78   73   74 ar 
    79   73   75 ar 
    80   74   76 ar 
    81   75   77 ar 
    82   76   78 ar 
    83   77   78 ar 
    84   78   79 1  
    85   80   81 1  
    86   81   82 1  
    87   81   84 1  
    88   82   83 2  
    89   82   88 am 
    90   84   85 1  
    91   84   86 1  
    92   85   87 1  
    93   88   89 1  
    94   88   94 1  
    95   89   90 1  
    96   89   92 1  
    97   90   91 2  
    98   90   95 am 
    99   92   93 1  
   100   93   94 1  
   101   95   96 1  
   102   95  101 1  
   103   96   97 1  
   104   96   99 1  
   105   97   98 ar 
   106   97  102 ar 
   107   99  100 1  
   108  100  101 1  
   109    1  103 1  
   110    1  104 1  
   111    1  105 1  
   112    2  106 1  
   113    5  107 1  
   114    5  108 1  
   115    6  109 1  
   116    6  110 1  
   117    9  111 1  
   118    9  112 1  
   119   10  113 1  
   120   11  114 1  
   121   14  115 1  
   122   14  116 1  
   123   14  117 1  
   124   15  118 1  
   125   16  119 1  
   126   19  120 1  
   127   19  121 1  
   128   20  122 1  
   129   20  123 1  
   130   23  124 1  
   131   23  125 1  
   132   24  126 1  
   133   25  127 1  
   134   25  128 1  
   135   29  129 1  
   136   32  130 1  
   137   32  131 1  
   138   33  132 1  
   139   33  133 1  
   140   34  134 1  
   141   34  135 1  
   142   36  136 1  
   143   39  137 1  
   144   39  138 1  
   145   40  139 1  
   146   40  140 1  
   147   41  141 1  
   148   41  142 1  
   149   42  143 1  
   150   43  144 1  
   151   46  145 1  
   152   46  146 1  
   153   48  147 1  
   154   49  148 1  
   155   50  149 1  
   156   51  150 1  
   157   53  151 1  
   158   55  152 1  
   159   58  153 1  
   160   58  154 1  
   161   59  155 1  
   162   59  156 1  
   163   60  157 1  
   164   60  158 1  
   165   61  159 1  
   166   62  160 1  
   167   65  161 1  
   168   66  162 1  
   169   67  163 1  
   170   67  164 1  
   171   67  165 1  
   172   68  166 1  
   173   69  167 1  
   174   72  168 1  
   175   72  169 1  
   176   74  170 1  
   177   75  171 1  
   178   76  172 1  
   179   77  173 1  
   180   79  174 1  
   181   80  175 1  
   182   81  176 1  
   183   84  177 1  
   184   85  178 1  
   185   85  179 1  
   186   86  180 1  
   187   86  181 1  
   188   86  182 1  
   189   87  183 1  
   190   87  184 1  
   191   87  185 1  
   192   89  186 1  
   193   92  187 1  
   194   92  188 1  
   195   93  189 1  
   196   93  190 1  
   197   94  191 1  
   198   94  192 1  
   199   96  193 1  
   200   99  194 1  
   201   99  195 1  
   202  100  196 1  
   203  100  197 1  
   204  101  198 1  
   205  101  199 1  
@<TRIPOS>SUBSTRUCTURE
     1 GLN         1

