3wuv_ligand
  -I-interpret- 

200206  0  0  0  0  0  0  0  0999 V2000
  -64.2030   76.5440   57.7260 N   0  3  0  0  0
  -63.9050   75.2180   58.2540 C   0  0  0  0  0
  -62.4070   75.0150   58.4650 C   0  0  0  0  0
  -61.8950   73.9020   58.3320 O   0  0  0  0  0
  -64.4550   74.1320   57.3300 C   0  0  0  0  0
  -63.8700   74.1500   55.9300 C   0  0  0  0  0
  -64.0250   72.8180   55.2300 C   0  0  0  0  0
  -64.7790   71.9540   55.6800 O   0  0  0  0  0
  -63.3040   72.6370   54.1290 N   0  0  0  0  0
  -61.7060   76.0960   58.7840 N   0  0  0  0  0
  -60.3130   75.9930   59.1900 C   0  0  0  0  0
  -60.2800   75.4530   60.6140 C   0  0  0  0  0
  -61.1260   75.8050   61.4360 O   0  0  0  0  0
  -59.6300   77.3470   59.1110 C   0  0  0  0  0
  -59.3150   74.5880   60.9010 N   0  0  0  0  0
  -59.2260   73.9700   62.2170 C   0  0  0  0  0
  -57.8760   74.2290   62.8690 C   0  0  0  0  0
  -56.8390   74.2010   62.2080 O   0  0  0  0  0
  -59.4710   72.4620   62.1220 C   0  0  0  0  0
  -60.8010   72.0740   61.4950 C   0  0  0  0  0
  -61.0850   70.5870   61.6100 C   0  0  0  0  0
  -60.2670   69.8270   62.1290 O   0  0  0  0  0
  -62.2500   70.1670   61.1300 N   0  0  0  0  0
  -57.8960   74.4890   64.1710 N   0  0  0  0  0
  -56.6710   74.5960   64.9360 C   0  0  0  0  0
  -56.3060   73.2390   65.5020 C   0  0  0  0  0
  -56.9450   72.2380   65.1780 O   0  0  0  0  0
  -55.2710   73.1970   66.3510 N   0  0  0  0  0
  -54.8760   71.9740   67.0550 C   0  0  0  0  0
  -56.0050   71.5130   67.9680 C   0  0  0  0  0
  -56.9370   72.2810   68.2090 O   0  0  0  0  0
  -53.6750   72.4310   67.8930 C   0  0  0  0  0
  -53.1570   73.6380   67.1910 C   0  0  0  0  0
  -54.3750   74.3220   66.6580 C   0  0  0  0  0
  -55.9380   70.2680   68.4600 N   0  0  0  0  0
  -56.9470   69.8030   69.4170 C   0  0  0  0  0
  -57.0120   70.7030   70.6520 C   0  0  0  0  0
  -58.0950   70.9390   71.1880 O   0  0  0  0  0
  -56.4420   68.4090   69.7920 C   0  0  0  0  0
  -55.6870   67.9560   68.5860 C   0  0  0  0  0
  -55.0120   69.1920   68.0650 C   0  0  0  0  0
  -55.8550   71.1920   71.0910 N   0  0  0  0  0
  -55.7610   72.1080   72.2260 C   0  0  0  0  0
  -54.4590   72.9070   72.1180 C   0  0  0  0  0
  -53.5280   72.4710   71.4440 O   0  0  0  0  0
  -55.8300   71.3380   73.5500 C   0  0  0  0  0
  -55.6180   69.8510   73.4110 C   0  0  0  0  0
  -54.3400   69.3150   73.3570 C   0  0  0  0  0
  -56.6980   68.9800   73.3350 C   0  0  0  0  0
  -54.1430   67.9560   73.2280 C   0  0  0  0  0
  -56.5110   67.6190   73.2050 C   0  0  0  0  0
  -55.2310   67.1120   73.1510 C   0  0  0  0  0
  -55.0370   65.7560   73.0230 O   0  0  0  0  0
  -54.3930   74.0840   72.7680 N   0  0  0  0  0
  -53.2260   74.9680   72.6180 C   0  0  0  0  0
  -51.8670   74.3450   72.9690 C   0  0  0  0  0
  -50.8730   74.7080   72.3410 O   0  0  0  0  0
  -53.5440   76.1420   73.5600 C   0  0  0  0  0
  -54.6470   75.6540   74.4480 C   0  0  0  0  0
  -55.4330   74.7040   73.6070 C   0  0  0  0  0
  -51.8150   73.4400   73.9430 N   0  0  0  0  0
  -50.5510   72.7930   74.2970 C   0  0  0  0  0
  -50.5380   71.3310   73.8720 C   0  0  0  0  0
  -51.5530   70.6420   73.9610 O   0  0  0  0  0
  -50.2480   72.8780   75.8080 C   0  0  0  0  0
  -51.2460   72.1610   76.5450 O   0  0  0  0  0
  -50.2190   74.3260   76.2670 C   0  0  0  0  0
  -49.3840   70.8580   73.4150 N   0  0  0  0  0
  -49.2800   69.4830   72.9450 C   0  0  0  0  0
  -49.3610   68.4780   74.0860 C   0  0  0  0  0
  -48.7040   68.6310   75.1150 O   0  0  0  0  0
  -47.9950   69.2570   72.1460 C   0  0  0  0  0
  -47.8800   67.8450   71.6230 C   0  0  0  0  0
  -48.6660   67.4150   70.5620 C   0  0  0  0  0
  -46.9990   66.9370   72.1960 C   0  0  0  0  0
  -48.5750   66.1250   70.0810 C   0  0  0  0  0
  -46.8980   65.6420   71.7190 C   0  0  0  0  0
  -47.6890   65.2410   70.6620 C   0  0  0  0  0
  -47.5940   63.9530   70.1820 O   0  0  0  0  0
  -50.1790   67.4520   73.8890 N   0  0  0  0  0
  -50.2690   66.3430   74.8250 C   0  0  0  0  0
  -50.0190   65.0410   74.0740 C   0  0  0  0  0
  -50.7920   64.6740   73.1900 O   0  0  0  0  0
  -51.6460   66.2920   75.5110 C   0  0  0  0  0
  -51.8660   67.5540   76.3520 C   0  0  0  0  0
  -51.7680   65.0380   76.3670 C   0  0  0  0  0
  -53.2840   67.7130   76.8570 C   0  0  0  0  0
  -48.9250   64.3460   74.4190 N   0  0  0  0  0
  -48.5210   63.1040   73.7490 C   0  0  0  0  0
  -49.6120   62.0430   73.8130 C   0  0  0  0  0
  -50.4630   62.1000   74.6990 O   0  0  0  0  0
  -47.3070   62.6490   74.5640 C   0  0  0  0  0
  -46.7850   63.8890   75.1960 C   0  0  0  0  0
  -47.9880   64.7280   75.4880 C   0  0  0  0  0
  -49.6000   61.0900   72.8690 N   0  0  0  0  0
  -50.5610   59.9850   72.9030 C   0  0  0  0  0
  -50.0980   58.8850   73.8510 C   0  0  0  0  0
  -50.9100   58.0460   74.2400 O   0  0  0  0  0
  -50.5470   59.4780   71.4620 C   0  0  0  0  0
  -49.1650   59.7630   70.9940 C   0  0  0  0  0
  -48.7580   61.0530   71.6590 C   0  0  0  0  0
  -48.9210   58.8570   74.2090 O   0  0  0  0  0
  -63.8277   77.2521   58.3570 H   0  0  0  0  0
  -63.7755   76.6461   56.8056 H   0  0  0  0  0
  -65.2135   76.6581   57.6474 H   0  0  0  0  0
  -64.3940   75.1408   59.2251 H   0  0  0  0  0
  -65.5267   74.3056   57.2326 H   0  0  0  0  0
  -64.1958   73.1709   57.7741 H   0  0  0  0  0
  -62.8054   74.3698   56.0097 H   0  0  0  0  0
  -64.4027   74.9029   55.3491 H   0  0  0  0  0
  -63.3622   71.7547   53.6206 H   0  0  0  0  0
  -62.6922   73.3804   53.7921 H   0  0  0  0  0
  -62.1509   77.0130   58.7438 H   0  0  0  0  0
  -59.7750   75.3203   58.5220 H   0  0  0  0  0
  -59.6728   77.7148   58.0858 H   0  0  0  0  0
  -60.1394   78.0486   59.7716 H   0  0  0  0  0
  -58.5893   77.2461   59.4191 H   0  0  0  0  0
  -58.6244   74.3522   60.1883 H   0  0  0  0  0
  -59.9980   74.4227   62.8393 H   0  0  0  0  0
  -59.4756   72.0760   63.1413 H   0  0  0  0  0
  -58.6876   72.0523   61.4844 H   0  0  0  0  0
  -60.7607   72.3281   60.4358 H   0  0  0  0  0
  -61.5907   72.6093   62.0222 H   0  0  0  0  0
  -62.4971   69.1788   61.1833 H   0  0  0  0  0
  -62.8976   70.8326   60.7081 H   0  0  0  0  0
  -58.7920   74.6159   64.6417 H   0  0  0  0  0
  -56.8146   75.3029   65.7532 H   0  0  0  0  0
  -55.8680   74.9460   64.2873 H   0  0  0  0  0
  -54.6477   71.1423   66.3884 H   0  0  0  0  0
  -52.9168   71.6521   67.9732 H   0  0  0  0  0
  -53.9590   72.6512   68.9220 H   0  0  0  0  0
  -52.4580   73.3766   66.3965 H   0  0  0  0  0
  -52.5889   74.2841   67.8603 H   0  0  0  0  0
  -54.8084   75.0294   67.3650 H   0  0  0  0  0
  -54.1654   74.9471   65.7900 H   0  0  0  0  0
  -57.9555   69.8092   69.0036 H   0  0  0  0  0
  -57.2568   67.7309   70.0458 H   0  0  0  0  0
  -55.8184   68.4242   70.6859 H   0  0  0  0  0
  -56.3454   67.5099   67.8406 H   0  0  0  0  0
  -54.9675   67.1742   68.8293 H   0  0  0  0  0
  -54.0094   69.3281   68.4703 H   0  0  0  0  0
  -54.8397   69.1572   66.9893 H   0  0  0  0  0
  -54.9964   70.9156   70.6147 H   0  0  0  0  0
  -56.6039   72.7988   72.2073 H   0  0  0  0  0
  -56.8311   71.4840   73.9556 H   0  0  0  0  0
  -55.0311   71.7191   74.1861 H   0  0  0  0  0
  -53.4773   69.9785   73.4175 H   0  0  0  0  0
  -57.7114   69.3791   73.3789 H   0  0  0  0  0
  -53.1319   67.5509   73.1871 H   0  0  0  0  0
  -57.3695   66.9500   73.1455 H   0  0  0  0  0
  -55.8885   65.3144   72.9833 H   0  0  0  0  0
  -53.0985   75.2384   71.5698 H   0  0  0  0  0
  -53.8421   77.0310   73.0042 H   0  0  0  0  0
  -52.6685   76.4399   74.1370 H   0  0  0  0  0
  -55.2643   76.4754   74.8118 H   0  0  0  0  0
  -54.2583   75.1713   75.3447 H   0  0  0  0  0
  -55.9956   73.9787   74.1948 H   0  0  0  0  0
  -56.2140   75.1943   73.0258 H   0  0  0  0  0
  -52.6660   73.1943   74.4488 H   0  0  0  0  0
  -49.7758   73.3378   73.7582 H   0  0  0  0  0
  -49.2698   72.4328   75.9900 H   0  0  0  0  0
  -51.0517   72.2178   77.4834 H   0  0  0  0  0
  -49.4445   74.8637   75.7201 H   0  0  0  0  0
  -51.1880   74.7864   76.0741 H   0  0  0  0  0
  -50.0038   74.3631   77.3349 H   0  0  0  0  0
  -48.5631   71.4630   73.3929 H   0  0  0  0  0
  -50.1346   69.3204   72.2882 H   0  0  0  0  0
  -47.1498   69.4397   72.8096 H   0  0  0  0  0
  -48.0077   69.9325   71.2906 H   0  0  0  0  0
  -49.3680   68.1096   70.1006 H   0  0  0  0  0
  -46.3772   67.2495   73.0349 H   0  0  0  0  0
  -49.1996   65.8060   69.2466 H   0  0  0  0  0
  -46.1976   64.9427   72.1757 H   0  0  0  0  0
  -46.9379   63.4708   70.6905 H   0  0  0  0  0
  -50.7639   67.4409   73.0534 H   0  0  0  0  0
  -49.5173   66.4834   75.6018 H   0  0  0  0  0
  -52.4196   66.2535   74.7441 H   0  0  0  0  0
  -51.6504   68.4111   75.7140 H   0  0  0  0  0
  -51.2169   67.4801   77.2245 H   0  0  0  0  0
  -51.6525   64.1565   75.7364 H   0  0  0  0  0
  -50.9906   65.0441   77.1310 H   0  0  0  0  0
  -52.7479   65.0192   76.8440 H   0  0  0  0  0
  -53.9666   67.7659   76.0088 H   0  0  0  0  0
  -53.5439   66.8582   77.4814 H   0  0  0  0  0
  -53.3590   68.6289   77.4431 H   0  0  0  0  0
  -48.3166   63.2558   72.6891 H   0  0  0  0  0
  -46.5565   62.1667   73.9378 H   0  0  0  0  0
  -47.5762   61.8982   75.3069 H   0  0  0  0  0
  -46.0870   64.4079   74.5390 H   0  0  0  0  0
  -46.2234   63.6679   76.1036 H   0  0  0  0  0
  -48.3918   64.5550   76.4856 H   0  0  0  0  0
  -47.7672   65.7954   75.4949 H   0  0  0  0  0
  -51.5471   60.2895   73.2536 H   0  0  0  0  0
  -51.7698   58.2322   73.8557 H   0  0  0  0  0
  -51.3012   59.9663   70.8448 H   0  0  0  0  0
  -50.7961   58.4190   71.3941 H   0  0  0  0  0
  -49.1262   59.8496   69.9081 H   0  0  0  0  0
  -48.4848   58.9525   71.2558 H   0  0  0  0  0
  -47.6928   61.0901   71.8872 H   0  0  0  0  0
  -48.9065   61.9215   71.0172 H   0  0  0  0  0
  1  2  1  0  0  0
  2  3  1  0  0  0
  2  5  1  0  0  0
  3  4  2  0  0  0
  3 10  1  0  0  0
  5  6  1  0  0  0
  6  7  1  0  0  0
  7  8  2  0  0  0
  7  9  1  0  0  0
 10 11  1  0  0  0
 11 12  1  0  0  0
 11 14  1  0  0  0
 12 13  2  0  0  0
 12 15  1  0  0  0
 15 16  1  0  0  0
 16 17  1  0  0  0
 16 19  1  0  0  0
 17 18  2  0  0  0
 17 24  1  0  0  0
 19 20  1  0  0  0
 20 21  1  0  0  0
 21 22  2  0  0  0
 21 23  1  0  0  0
 24 25  1  0  0  0
 25 26  1  0  0  0
 26 27  2  0  0  0
 26 28  1  0  0  0
 28 29  1  0  0  0
 28 34  1  0  0  0
 29 30  1  0  0  0
 29 32  1  0  0  0
 30 31  2  0  0  0
 30 35  1  0  0  0
 32 33  1  0  0  0
 33 34  1  0  0  0
 35 36  1  0  0  0
 35 41  1  0  0  0
 36 37  1  0  0  0
 36 39  1  0  0  0
 37 38  2  0  0  0
 37 42  1  0  0  0
 39 40  1  0  0  0
 40 41  1  0  0  0
 42 43  1  0  0  0
 43 44  1  0  0  0
 43 46  1  0  0  0
 44 45  2  0  0  0
 44 54  1  0  0  0
 46 47  1  0  0  0
 47 48  4  0  0  0
 47 49  4  0  0  0
 48 50  4  0  0  0
 49 51  4  0  0  0
 50 52  4  0  0  0
 51 52  4  0  0  0
 52 53  1  0  0  0
 54 55  1  0  0  0
 54 60  1  0  0  0
 55 56  1  0  0  0
 55 58  1  0  0  0
 56 57  2  0  0  0
 56 61  1  0  0  0
 58 59  1  0  0  0
 59 60  1  0  0  0
 61 62  1  0  0  0
 62 63  1  0  0  0
 62 65  1  0  0  0
 63 64  2  0  0  0
 63 68  1  0  0  0
 65 66  1  0  0  0
 65 67  1  0  0  0
 68 69  1  0  0  0
 69 70  1  0  0  0
 69 72  1  0  0  0
 70 71  2  0  0  0
 70 80  1  0  0  0
 72 73  1  0  0  0
 73 74  4  0  0  0
 73 75  4  0  0  0
 74 76  4  0  0  0
 75 77  4  0  0  0
 76 78  4  0  0  0
 77 78  4  0  0  0
 78 79  1  0  0  0
 80 81  1  0  0  0
 81 82  1  0  0  0
 81 84  1  0  0  0
 82 83  2  0  0  0
 82 88  1  0  0  0
 84 85  1  0  0  0
 84 86  1  0  0  0
 85 87  1  0  0  0
 88 89  1  0  0  0
 88 94  1  0  0  0
 89 90  1  0  0  0
 89 92  1  0  0  0
 90 91  2  0  0  0
 90 95  1  0  0  0
 92 93  1  0  0  0
 93 94  1  0  0  0
 95 96  1  0  0  0
 95101  1  0  0  0
 96 97  1  0  0  0
 96 99  1  0  0  0
 97 98  1  0  0  0
 97102  2  0  0  0
 99100  1  0  0  0
100101  1  0  0  0
  1103  1  0  0  0
  1104  1  0  0  0
  1105  1  0  0  0
  2106  1  0  0  0
  5107  1  0  0  0
  5108  1  0  0  0
  6109  1  0  0  0
  6110  1  0  0  0
  9111  1  0  0  0
  9112  1  0  0  0
 10113  1  0  0  0
 11114  1  0  0  0
 14115  1  0  0  0
 14116  1  0  0  0
 14117  1  0  0  0
 15118  1  0  0  0
 16119  1  0  0  0
 19120  1  0  0  0
 19121  1  0  0  0
 20122  1  0  0  0
 20123  1  0  0  0
 23124  1  0  0  0
 23125  1  0  0  0
 24126  1  0  0  0
 25127  1  0  0  0
 25128  1  0  0  0
 29129  1  0  0  0
 32130  1  0  0  0
 32131  1  0  0  0
 33132  1  0  0  0
 33133  1  0  0  0
 34134  1  0  0  0
 34135  1  0  0  0
 36136  1  0  0  0
 39137  1  0  0  0
 39138  1  0  0  0
 40139  1  0  0  0
 40140  1  0  0  0
 41141  1  0  0  0
 41142  1  0  0  0
 42143  1  0  0  0
 43144  1  0  0  0
 46145  1  0  0  0
 46146  1  0  0  0
 48147  1  0  0  0
 49148  1  0  0  0
 50149  1  0  0  0
 51150  1  0  0  0
 53151  1  0  0  0
 55152  1  0  0  0
 58153  1  0  0  0
 58154  1  0  0  0
 59155  1  0  0  0
 59156  1  0  0  0
 60157  1  0  0  0
 60158  1  0  0  0
 61159  1  0  0  0
 62160  1  0  0  0
 65161  1  0  0  0
 66162  1  0  0  0
 67163  1  0  0  0
 67164  1  0  0  0
 67165  1  0  0  0
 68166  1  0  0  0
 69167  1  0  0  0
 72168  1  0  0  0
 72169  1  0  0  0
 74170  1  0  0  0
 75171  1  0  0  0
 76172  1  0  0  0
 77173  1  0  0  0
 79174  1  0  0  0
 80175  1  0  0  0
 81176  1  0  0  0
 84177  1  0  0  0
 85178  1  0  0  0
 85179  1  0  0  0
 86180  1  0  0  0
 86181  1  0  0  0
 86182  1  0  0  0
 87183  1  0  0  0
 87184  1  0  0  0
 87185  1  0  0  0
 89186  1  0  0  0
 92187  1  0  0  0
 92188  1  0  0  0
 93189  1  0  0  0
 93190  1  0  0  0
 94191  1  0  0  0
 94192  1  0  0  0
 96193  1  0  0  0
 98194  1  0  0  0
 99195  1  0  0  0
 99196  1  0  0  0
100197  1  0  0  0
100198  1  0  0  0
101199  1  0  0  0
101200  1  0  0  0
M  END
$$$$
