2xm2_ligand
  -I-interpret- 

 30 30  0  0  0  0  0  0  0  0999 V2000
    7.9720  -11.4390    3.7290 C   0  0  0  0  0
    7.6310  -10.4130    2.6440 C   0  0  0  0  0
    6.7430  -11.0690    1.5840 C   0  0  0  0  0
    5.4150  -11.4700    2.2220 C   0  0  0  0  0
    4.3770  -11.9510    1.1940 C   0  0  0  0  0
    7.2440  -10.3550    5.8410 C   0  0  0  0  0
    7.5830   -9.7100    7.1750 C   0  0  0  0  0
    8.2890  -10.8740    5.0780 N   0  0  0  0  0
    6.1760  -14.2900    4.9660 O   0  0  0  0  0
    8.8850   -9.9820    2.0660 O   0  0  0  0  0
    6.4840  -10.1060    0.5570 O   0  0  0  0  0
    5.6660  -12.5560    3.1250 O   0  0  0  0  0
    4.9300  -13.1380    0.5510 O   0  0  0  0  0
    6.8870  -12.4630    3.8880 C   0  0  0  0  0
    6.0670  -10.4030    5.4490 O   0  0  0  0  0
    7.1250  -13.3280    4.7710 N   0  0  0  0  0
    8.8889  -11.8948    3.3554 H   0  0  0  0  0
    7.0885   -9.5605    3.0528 H   0  0  0  0  0
    7.2366  -11.9490    1.1717 H   0  0  0  0  0
    5.0113  -10.5888    2.7206 H   0  0  0  0  0
    4.1748  -11.1730    0.4578 H   0  0  0  0  0
    3.4304  -12.1830    1.6821 H   0  0  0  0  0
    7.2694   -8.6662    7.1625 H   0  0  0  0  0
    7.0630  -10.2374    7.9747 H   0  0  0  0  0
    8.6589   -9.7655    7.3410 H   0  0  0  0  0
    9.2461  -10.8688    5.4306 H   0  0  0  0  0
    6.4661  -14.8885    5.6583 H   0  0  0  0  0
    9.4261   -9.5741    2.7460 H   0  0  0  0  0
    7.3124   -9.8457    0.1477 H   0  0  0  0  0
    4.3064  -13.4677   -0.1002 H   0  0  0  0  0
  1  2  1  0  0  0
  1  8  1  0  0  0
 14  1  1  0  0  0
  2  3  1  0  0  0
  2 10  1  0  0  0
  4  3  1  0  0  0
  3 11  1  0  0  0
  4  5  1  0  0  0
 12  4  1  0  0  0
  5 13  1  0  0  0
  6  7  1  0  0  0
  8  6  1  0  0  0
  6 15  2  0  0  0
 16  9  1  0  0  0
 14 12  1  0  0  0
 14 16  2  0  0  0
  1 17  1  0  0  0
  2 18  1  0  0  0
  3 19  1  0  0  0
  4 20  1  0  0  0
  5 21  1  0  0  0
  5 22  1  0  0  0
  7 23  1  0  0  0
  7 24  1  0  0  0
  7 25  1  0  0  0
  8 26  1  0  0  0
  9 27  1  0  0  0
 10 28  1  0  0  0
 11 29  1  0  0  0
 13 30  1  0  0  0
M  END
$$$$
