5ea3_ligand
  -I-interpret- 

 63 66  0  0  0  0  0  0  0  0999 V2000
   23.7380   16.9200   23.8690 C   0  0  0  0  0
   16.0940   21.3660   22.0180 C   0  0  0  0  0
   18.4620   22.2800   22.0340 C   0  0  0  0  0
   24.4820   22.6560   22.9280 C   0  0  0  0  0
   24.4060   22.7950   24.4370 C   0  0  0  0  0
   23.0650   24.5960   22.6560 C   0  0  0  0  0
   25.7900   25.6650   25.9680 C   0  0  0  0  0
   15.5060   19.2440   20.5270 C   0  0  0  0  0
   22.7430   17.2390   22.7210 C   0  0  0  0  0
   22.1900   16.1330   21.8450 C   0  0  0  0  0
   21.2370   16.4610   20.7480 C   0  0  0  0  0
   20.8370   17.8940   20.5200 C   0  0  0  0  0
   22.3190   18.7230   22.4710 C   0  0  0  0  0
   21.4260   19.0310   21.4390 C   0  0  0  0  0
   21.2240   20.3960   21.4510 N   0  0  0  0  0
   21.9980   20.9470   22.4860 C   0  0  0  0  0
   22.6700   19.9020   23.1110 N   0  0  0  0  0
   20.3670   21.1200   20.5300 C   0  0  0  0  0
   18.8930   21.1840   21.0420 C   0  0  0  0  0
   17.9210   20.2170   20.5650 N   0  0  0  0  0
   16.5260   20.2740   21.0310 C   0  0  0  0  0
   17.0700   22.3470   22.4980 C   0  0  0  0  0
   22.0880   22.3670   22.8470 N   0  0  0  0  0
   23.2430   23.1760   22.3240 C   0  0  0  0  0
   24.2650   24.1830   24.8640 N   0  3  0  0  0
   23.1820   24.8970   24.1370 C   0  0  0  0  0
   25.4670   24.8550   24.6920 C   0  0  0  0  0
   25.7140   24.8170   27.1340 N   0  3  0  0  0
   19.3910   23.2160   22.4840 O   0  0  0  0  0
   23.2655   16.2418   24.5796 H   0  0  0  0  0
   24.6302   16.4504   23.4548 H   0  0  0  0  0
   24.0145   17.8445   24.3759 H   0  0  0  0  0
   15.0608   21.4119   22.3621 H   0  0  0  0  0
   24.6008   21.6048   22.6655 H   0  0  0  0  0
   25.3345   23.2226   22.5534 H   0  0  0  0  0
   25.3335   22.4064   24.8576 H   0  0  0  0  0
   23.5293   22.2465   24.7814 H   0  0  0  0  0
   22.0593   24.8790   22.3451 H   0  0  0  0  0
   23.8545   25.1501   22.1482 H   0  0  0  0  0
   25.0657   26.4733   26.0686 H   0  0  0  0  0
   26.7995   26.0682   25.8870 H   0  0  0  0  0
   15.1036   18.6885   21.3741 H   0  0  0  0  0
   14.6959   19.7593   20.0110 H   0  0  0  0  0
   15.9966   18.5552   19.8392 H   0  0  0  0  0
   22.3826   16.2169   22.6045 H   0  0  0  0  0
   22.4891   15.0991   22.0173 H   0  0  0  0  0
   20.8329   15.6702   20.1160 H   0  0  0  0  0
   19.7649   17.9126   20.7159 H   0  0  0  0  0
   21.2121   18.1268   19.5234 H   0  0  0  0  0
   20.3756   20.6002   19.5720 H   0  0  0  0  0
   20.7436   22.1388   20.4391 H   0  0  0  0  0
   16.7641   23.1248   23.1977 H   0  0  0  0  0
   21.3799   22.7973   23.4419 H   0  0  0  0  0
   23.2961   23.0925   21.2385 H   0  0  0  0  0
   24.0094   24.1688   25.8513 H   0  0  0  0  0
   22.2447   24.5738   24.5899 H   0  0  0  0  0
   23.4096   25.9600   24.2162 H   0  0  0  0  0
   26.2635   24.1343   24.5072 H   0  0  0  0  0
   25.3867   25.5323   23.8417 H   0  0  0  0  0
   25.9294   25.3656   27.9665 H   0  0  0  0  0
   24.7724   24.4328   27.2128 H   0  0  0  0  0
   26.3867   24.0556   27.0436 H   0  0  0  0  0
   18.9629   23.8234   23.0917 H   0  0  0  0  0
  9  1  1  0  0  0
 21  2  4  0  0  0
 22  2  4  0  0  0
 19  3  4  0  0  0
  3 22  4  0  0  0
  3 29  1  0  0  0
  5  4  1  0  0  0
  4 24  1  0  0  0
 25  5  1  0  0  0
  6 24  1  0  0  0
 26  6  1  0  0  0
 27  7  1  0  0  0
  7 28  1  0  0  0
 21  8  1  0  0  0
  9 10  1  0  0  0
 13  9  1  0  0  0
 10 11  2  0  0  0
 12 11  1  0  0  0
 14 12  1  0  0  0
 13 14  4  0  0  0
 17 13  4  0  0  0
 15 14  4  0  0  0
 16 15  4  0  0  0
 15 18  1  0  0  0
 16 17  4  0  0  0
 23 16  1  0  0  0
 18 19  1  0  0  0
 19 20  4  0  0  0
 20 21  4  0  0  0
 24 23  1  0  0  0
 25 26  1  0  0  0
 25 27  1  0  0  0
  1 30  1  0  0  0
  1 31  1  0  0  0
  1 32  1  0  0  0
  2 33  1  0  0  0
  4 34  1  0  0  0
  4 35  1  0  0  0
  5 36  1  0  0  0
  5 37  1  0  0  0
  6 38  1  0  0  0
  6 39  1  0  0  0
  7 40  1  0  0  0
  7 41  1  0  0  0
  8 42  1  0  0  0
  8 43  1  0  0  0
  8 44  1  0  0  0
  9 45  1  0  0  0
 10 46  1  0  0  0
 11 47  1  0  0  0
 12 48  1  0  0  0
 12 49  1  0  0  0
 18 50  1  0  0  0
 18 51  1  0  0  0
 22 52  1  0  0  0
 23 53  1  0  0  0
 24 54  1  0  0  0
 25 55  1  0  0  0
 26 56  1  0  0  0
 26 57  1  0  0  0
 27 58  1  0  0  0
 27 59  1  0  0  0
 28 60  1  0  0  0
 28 61  1  0  0  0
 28 62  1  0  0  0
 29 63  1  0  0  0
M  END
$$$$
