4dpf_ligand
  -I-interpret- 

 91 94  0  0  0  0  0  0  0  0999 V2000
    7.5780   -0.4430  -10.6280 O   0  0  0  0  0
    7.3040   -1.1830  -11.7790 S   0  0  0  0  0
    5.9760   -1.6610  -11.7930 O   0  0  0  0  0
    8.4810   -2.4350  -11.8480 C   0  0  0  0  0
    7.5460   -0.1170  -13.0160 N   0  0  0  0  0
    8.8770    0.5160  -13.0700 C   0  0  0  0  0
    6.9980   -0.4060  -14.3180 C   0  0  0  0  0
    6.4810   -1.6510  -14.6830 C   0  0  0  0  0
    5.9540   -1.8230  -15.9310 C   0  0  0  0  0
    6.9870    0.6680  -15.2270 C   0  0  0  0  0
    6.4310    0.4680  -16.4850 C   0  0  0  0  0
    5.9280   -0.7750  -16.8360 C   0  0  0  0  0
    6.3730    1.5850  -17.4780 C   0  0  0  0  0
    7.2760    2.3960  -17.5970 O   0  0  0  0  0
    5.2450    1.5860  -18.1650 N   0  0  0  0  0
    4.8980    2.4830  -19.2910 C   0  0  0  0  0
    3.9740    3.6200  -18.7920 C   0  0  0  0  0
    4.6910    4.5020  -17.7770 C   0  0  0  0  0
    3.9380    5.6950  -17.4350 N   0  3  0  0  0
    4.6560    6.8050  -16.8220 C   0  0  0  0  0
    5.7220    7.3850  -17.7290 C   0  0  0  0  0
    5.3590    7.9170  -18.9450 C   0  0  0  0  0
    6.2920    8.4520  -19.8100 C   0  0  0  0  0
    5.7980    8.9570  -21.1210 C   0  0  0  0  0
    5.0330   10.2400  -20.9540 C   0  0  0  0  0
    6.9320    9.1060  -22.1170 C   0  0  0  0  0
    7.6410    8.4400  -19.4490 C   0  0  0  0  0
    8.0050    7.8980  -18.2150 C   0  0  0  0  0
    7.0720    7.3800  -17.3280 C   0  0  0  0  0
    3.5880    4.4510  -19.9130 O   0  0  0  0  0
    4.1810    1.6140  -20.3580 C   0  0  0  0  0
    4.8280    0.3110  -20.5180 O   0  0  0  0  0
    3.9460   -0.7780  -20.9130 C   0  0  0  0  0
    4.5040   -2.1700  -20.5860 C   0  0  0  0  0
    3.9550   -3.0700  -19.7950 C   0  0  0  0  0
    4.7130   -4.3800  -19.6330 C   0  0  0  0  0
    4.8420   -4.7240  -18.1370 C   0  0  0  0  0
    5.5020   -3.5510  -17.5570 N   0  0  0  0  0
    5.3080   -3.1100  -16.3360 C   0  0  0  0  0
    4.5210   -3.6290  -15.5340 O   0  0  0  0  0
    5.5670   -5.9990  -17.9190 C   0  0  0  0  0
    6.9250   -6.1660  -18.1940 C   0  0  0  0  0
    7.4990   -7.3960  -17.9330 C   0  0  0  0  0
    6.7320   -8.4550  -17.4050 C   0  0  0  0  0
    5.3740   -8.3040  -17.1460 C   0  0  0  0  0
    4.8030   -7.0630  -17.4030 C   0  0  0  0  0
    9.4765   -1.9938  -11.8962 H   0  0  0  0  0
    8.4006   -3.0570  -10.9565 H   0  0  0  0  0
    8.3092   -3.0450  -12.7349 H   0  0  0  0  0
    9.5739   -0.1493  -13.5796 H   0  0  0  0  0
    8.8081    1.4580  -13.6141 H   0  0  0  0  0
    9.2292    0.7055  -12.0560 H   0  0  0  0  0
    6.4980   -2.4804  -13.9760 H   0  0  0  0  0
    7.4054    1.6358  -14.9506 H   0  0  0  0  0
    5.5093   -0.9286  -17.8306 H   0  0  0  0  0
    4.5417    0.8994  -17.8924 H   0  0  0  0  0
    5.7871    2.9478  -19.7170 H   0  0  0  0  0
    3.1018    3.1646  -18.3230 H   0  0  0  0  0
    5.6353    4.8193  -18.2194 H   0  0  0  0  0
    4.8250    3.9197  -16.8653 H   0  0  0  0  0
    3.2575    5.3946  -16.7371 H   0  0  0  0  0
    3.5868    6.0567  -18.3217 H   0  0  0  0  0
    5.1483    6.4300  -15.9247 H   0  0  0  0  0
    3.9339    7.5930  -16.6082 H   0  0  0  0  0
    4.3076    7.9159  -19.2325 H   0  0  0  0  0
    5.1083    8.2162  -21.5257 H   0  0  0  0  0
    4.1772   10.0689  -20.3010 H   0  0  0  0  0
    5.6837   10.9946  -20.5121 H   0  0  0  0  0
    4.6853   10.5837  -21.9282 H   0  0  0  0  0
    7.6659    9.8114  -21.7272 H   0  0  0  0  0
    7.4055    8.1369  -22.2742 H   0  0  0  0  0
    6.5368    9.4764  -23.0629 H   0  0  0  0  0
    8.3975    8.8472  -20.1198 H   0  0  0  0  0
    9.0592    7.8811  -17.9385 H   0  0  0  0  0
    7.3726    6.9843  -16.3578 H   0  0  0  0  0
    3.0148    5.1566  -19.6044 H   0  0  0  0  0
    4.2230    2.1381  -21.3128 H   0  0  0  0  0
    3.1534    1.4499  -20.0336 H   0  0  0  0  0
    3.8212   -0.7217  -21.9944 H   0  0  0  0  0
    3.0143   -0.6611  -20.3596 H   0  0  0  0  0
    5.4496   -2.4416  -21.0553 H   0  0  0  0  0
    3.0096   -2.8862  -19.2846 H   0  0  0  0  0
    5.7076   -4.2779  -20.0672 H   0  0  0  0  0
    4.1700   -5.1768  -20.1413 H   0  0  0  0  0
    3.8813   -4.9080  -17.6560 H   0  0  0  0  0
    6.1602   -3.0399  -18.1452 H   0  0  0  0  0
    7.5174   -5.3480  -18.6038 H   0  0  0  0  0
    8.5585   -7.5494  -18.1380 H   0  0  0  0  0
    7.2129   -9.4106  -17.1958 H   0  0  0  0  0
    4.7787   -9.1293  -16.7554 H   0  0  0  0  0
    3.7428   -6.9106  -17.2010 H   0  0  0  0  0
  1  2  2  0  0  0
  2  3  2  0  0  0
  2  4  1  0  0  0
  2  5  1  0  0  0
  5  6  1  0  0  0
  5  7  1  0  0  0
  7  8  4  0  0  0
  7 10  4  0  0  0
  8  9  4  0  0  0
  9 12  4  0  0  0
  9 39  1  0  0  0
 10 11  4  0  0  0
 11 12  4  0  0  0
 11 13  1  0  0  0
 13 14  2  0  0  0
 13 15  1  0  0  0
 15 16  1  0  0  0
 16 17  1  0  0  0
 16 31  1  0  0  0
 17 18  1  0  0  0
 17 30  1  0  0  0
 18 19  1  0  0  0
 19 20  1  0  0  0
 20 21  1  0  0  0
 21 22  4  0  0  0
 21 29  4  0  0  0
 22 23  4  0  0  0
 23 24  1  0  0  0
 23 27  4  0  0  0
 24 25  1  0  0  0
 24 26  1  0  0  0
 27 28  4  0  0  0
 28 29  4  0  0  0
 31 32  1  0  0  0
 32 33  1  0  0  0
 33 34  1  0  0  0
 34 35  2  0  0  0
 35 36  1  0  0  0
 36 37  1  0  0  0
 37 38  1  0  0  0
 37 41  1  0  0  0
 38 39  1  0  0  0
 39 40  2  0  0  0
 41 42  4  0  0  0
 41 46  4  0  0  0
 42 43  4  0  0  0
 43 44  4  0  0  0
 44 45  4  0  0  0
 45 46  4  0  0  0
  4 47  1  0  0  0
  4 48  1  0  0  0
  4 49  1  0  0  0
  6 50  1  0  0  0
  6 51  1  0  0  0
  6 52  1  0  0  0
  8 53  1  0  0  0
 10 54  1  0  0  0
 12 55  1  0  0  0
 15 56  1  0  0  0
 16 57  1  0  0  0
 17 58  1  0  0  0
 18 59  1  0  0  0
 18 60  1  0  0  0
 19 61  1  0  0  0
 19 62  1  0  0  0
 20 63  1  0  0  0
 20 64  1  0  0  0
 22 65  1  0  0  0
 24 66  1  0  0  0
 25 67  1  0  0  0
 25 68  1  0  0  0
 25 69  1  0  0  0
 26 70  1  0  0  0
 26 71  1  0  0  0
 26 72  1  0  0  0
 27 73  1  0  0  0
 28 74  1  0  0  0
 29 75  1  0  0  0
 30 76  1  0  0  0
 31 77  1  0  0  0
 31 78  1  0  0  0
 33 79  1  0  0  0
 33 80  1  0  0  0
 34 81  1  0  0  0
 35 82  1  0  0  0
 36 83  1  0  0  0
 36 84  1  0  0  0
 37 85  1  0  0  0
 38 86  1  0  0  0
 42 87  1  0  0  0
 43 88  1  0  0  0
 44 89  1  0  0  0
 45 90  1  0  0  0
 46 91  1  0  0  0
M  END
$$$$
