5hn7_ligand
  -I-interpret- 

 70 72  0  0  0  0  0  0  0  0999 V2000
  -12.9000   15.2700  -24.9700 C   0  0  0  0  0
  -19.9700   13.2880  -13.5060 O   0  0  0  0  0
  -21.9250    9.0630  -11.0060 O   0  0  0  0  0
  -19.7880    9.0950   -9.7760 O   0  0  0  0  0
  -19.4260   12.7520  -15.5840 O   0  0  0  0  0
  -16.7020   14.1930  -17.4990 C   0  0  0  0  0
  -16.9510   12.9700  -16.8910 C   0  0  0  0  0
  -17.4090   14.5410  -18.6450 C   0  0  0  0  0
  -18.6290    8.4850  -12.9480 C   0  0  0  0  0
  -17.9260    8.9990  -14.0240 C   0  0  0  0  0
  -18.5950   12.4480  -18.5700 C   0  0  0  0  0
  -19.9190   10.5070  -12.8290 C   0  0  0  0  0
  -13.8760   15.0150  -23.8180 C   0  0  0  0  0
  -15.3090   15.3960  -24.2150 C   0  0  0  0  0
  -16.3460   14.4080  -23.6550 C   0  0  0  0  0
  -17.6650   14.4550  -24.4450 C   0  0  0  0  0
  -18.8500   14.7330  -23.5200 C   0  0  0  0  0
  -19.1440   13.5040  -22.6690 C   0  0  0  0  0
  -18.2330   13.4510  -21.4460 C   0  0  0  0  0
  -21.3130    5.2310  -12.2800 C   0  0  0  0  0
  -22.6730    6.0350  -10.7670 C   0  0  0  0  0
  -18.1390   10.9090  -16.7780 C   0  0  0  0  0
  -20.2770    6.3170  -12.2270 C   0  0  0  0  0
  -21.3990    6.3680  -10.0280 C   0  0  0  0  0
  -22.3010    6.1800  -12.1180 O   0  0  0  0  0
  -18.9730   13.9830  -20.3430 O   0  0  0  0  0
  -17.4510   10.7270  -15.5390 O   0  0  0  0  0
  -19.5410   12.4800  -14.3650 C   0  0  0  0  0
  -17.8850   12.0970  -17.4350 C   0  0  0  0  0
  -18.3400   13.6640  -19.1870 C   0  0  0  0  0
  -19.6700    9.2140  -12.3930 C   0  0  0  0  0
  -18.2370   10.2530  -14.5340 C   0  0  0  0  0
  -19.2010   11.0440  -13.8950 C   0  0  0  0  0
  -20.4100    6.9790  -10.9360 N   0  0  0  0  0
  -20.4980    8.5970  -11.0000 S   0  0  0  0  0
  -13.1944   14.6726  -25.8329 H   0  0  0  0  0
  -12.9203   16.3272  -25.2344 H   0  0  0  0  0
  -11.8930   14.9910  -24.6598 H   0  0  0  0  0
  -19.9714   12.8659  -12.6438 H   0  0  0  0  0
  -15.9597   14.8738  -17.0823 H   0  0  0  0  0
  -16.4124   12.6939  -15.9845 H   0  0  0  0  0
  -17.2318   15.5060  -19.1199 H   0  0  0  0  0
  -18.3651    7.5101  -12.5381 H   0  0  0  0  0
  -17.1228    8.4156  -14.4742 H   0  0  0  0  0
  -19.3491   11.7738  -18.9761 H   0  0  0  0  0
  -20.6822   11.1073  -12.3338 H   0  0  0  0  0
  -13.5763   15.6239  -22.9650 H   0  0  0  0  0
  -13.8529   13.9541  -23.5690 H   0  0  0  0  0
  -15.3764   15.3796  -25.3028 H   0  0  0  0  0
  -15.5242   16.3832  -23.8060 H   0  0  0  0  0
  -16.5561   14.6815  -22.6210 H   0  0  0  0  0
  -15.9362   13.4009  -23.7323 H   0  0  0  0  0
  -17.8176   13.4895  -24.9273 H   0  0  0  0  0
  -17.6021   15.2556  -25.1820 H   0  0  0  0  0
  -19.7271   14.9716  -24.1216 H   0  0  0  0  0
  -18.6075   15.5719  -22.8677 H   0  0  0  0  0
  -18.9701   12.6128  -23.2720 H   0  0  0  0  0
  -20.1790   13.5538  -22.3307 H   0  0  0  0  0
  -17.3274   14.0331  -21.6168 H   0  0  0  0  0
  -17.9241   12.4258  -21.2419 H   0  0  0  0  0
  -21.2521    4.3804  -11.6012 H   0  0  0  0  0
  -21.3452    4.5436  -13.1253 H   0  0  0  0  0
  -23.5058    6.6796  -10.4860 H   0  0  0  0  0
  -23.0476    5.0378  -10.5361 H   0  0  0  0  0
  -19.2034   10.9075  -16.5432 H   0  0  0  0  0
  -17.7999   10.1118  -17.4395 H   0  0  0  0  0
  -20.4255    7.0283  -13.0395 H   0  0  0  0  0
  -19.2771    5.8986  -12.3419 H   0  0  0  0  0
  -20.9796    5.4486   -9.6194 H   0  0  0  0  0
  -21.6296    7.0762   -9.2322 H   0  0  0  0  0
 13  1  1  0  0  0
 28  2  1  0  0  0
 35  3  2  0  0  0
 35  4  2  0  0  0
 28  5  2  0  0  0
  7  6  4  0  0  0
  6  8  4  0  0  0
 29  7  4  0  0  0
 30  8  4  0  0  0
  9 10  4  0  0  0
 31  9  4  0  0  0
 10 32  4  0  0  0
 29 11  4  0  0  0
 11 30  4  0  0  0
 31 12  4  0  0  0
 12 33  4  0  0  0
 14 13  1  0  0  0
 15 14  1  0  0  0
 16 15  1  0  0  0
 17 16  1  0  0  0
 18 17  1  0  0  0
 19 18  1  0  0  0
 26 19  1  0  0  0
 23 20  1  0  0  0
 20 25  1  0  0  0
 24 21  1  0  0  0
 21 25  1  0  0  0
 27 22  1  0  0  0
 22 29  1  0  0  0
 34 23  1  0  0  0
 34 24  1  0  0  0
 30 26  1  0  0  0
 32 27  1  0  0  0
 33 28  1  0  0  0
 35 31  1  0  0  0
 33 32  4  0  0  0
 34 35  1  0  0  0
  1 36  1  0  0  0
  1 37  1  0  0  0
  1 38  1  0  0  0
  2 39  1  0  0  0
  6 40  1  0  0  0
  7 41  1  0  0  0
  8 42  1  0  0  0
  9 43  1  0  0  0
 10 44  1  0  0  0
 11 45  1  0  0  0
 12 46  1  0  0  0
 13 47  1  0  0  0
 13 48  1  0  0  0
 14 49  1  0  0  0
 14 50  1  0  0  0
 15 51  1  0  0  0
 15 52  1  0  0  0
 16 53  1  0  0  0
 16 54  1  0  0  0
 17 55  1  0  0  0
 17 56  1  0  0  0
 18 57  1  0  0  0
 18 58  1  0  0  0
 19 59  1  0  0  0
 19 60  1  0  0  0
 20 61  1  0  0  0
 20 62  1  0  0  0
 21 63  1  0  0  0
 21 64  1  0  0  0
 22 65  1  0  0  0
 22 66  1  0  0  0
 23 67  1  0  0  0
 23 68  1  0  0  0
 24 69  1  0  0  0
 24 70  1  0  0  0
M  END
$$$$
