5n8b_ligand
  -I-interpret- 

179183  0  0  0  0  0  0  0  0999 V2000
   18.4540   27.7590   33.3840 N   0  3  0  0  0
   19.5060   28.0830   32.3770 C   0  0  0  0  0
   19.5240   27.0780   31.2410 C   0  0  0  0  0
   18.9430   25.9940   31.3460 O   0  0  0  0  0
   20.8690   28.1120   33.0410 C   0  0  0  0  0
   20.2380   27.4400   30.1710 N   0  0  0  0  0
   20.3640   26.6180   28.9700 C   0  0  0  0  0
   21.8620   26.3630   28.6960 C   0  0  0  0  0
   22.4110   26.7740   27.6630 O   0  0  0  0  0
   19.7380   27.2960   27.7560 C   0  0  0  0  0
   18.3380   27.8290   27.9630 C   0  0  0  0  0
   17.3000   27.0430   28.4540 C   0  0  0  0  0
   18.0340   29.1150   27.5470 C   0  0  0  0  0
   16.0060   27.5530   28.5670 C   0  0  0  0  0
   16.7520   29.6200   27.6560 C   0  0  0  0  0
   15.7420   28.8360   28.1690 C   0  0  0  0  0
   22.5540   25.6880   29.6250 N   0  0  0  0  0
   24.0020   25.5210   29.4370 C   0  0  0  0  0
   24.3650   24.6640   28.2340 C   0  0  0  0  0
   23.5880   23.8100   27.8040 O   0  0  0  0  0
   24.4610   24.8640   30.7500 C   0  0  0  0  0
   23.2370   24.1800   31.2640 C   0  0  0  0  0
   22.1060   25.0930   30.8950 C   0  0  0  0  0
   25.5750   24.8760   27.7320 N   0  0  0  0  0
   26.0180   24.2110   26.5160 C   0  0  0  0  0
   26.0080   22.6870   26.6090 C   0  0  0  0  0
   25.7640   22.0310   25.6000 O   0  0  0  0  0
   27.4270   24.6710   26.1170 C   0  0  0  0  0
   27.4900   26.1370   25.6870 C   0  0  0  0  0
   26.4530   26.7330   25.3160 O   0  0  0  0  0
   28.6150   26.6790   25.7070 O   0  0  0  0  0
   26.2230   22.1200   27.8000 N   0  0  0  0  0
   26.2260   20.6620   27.9280 C   0  0  0  0  0
   24.8510   20.0610   27.6250 C   0  0  0  0  0
   24.7690   18.8720   27.3330 O   0  0  0  0  0
   26.7690   20.1820   29.2830 C   0  0  0  0  0
   25.9590   20.5470   30.5060 C   0  0  0  0  0
   24.7780   19.8990   30.8100 C   0  0  0  0  0
   26.4110   21.5080   31.4030 C   0  0  0  0  0
   24.0560   20.2050   31.9420 C   0  0  0  0  0
   25.6900   21.8280   32.5470 C   0  0  0  0  0
   24.5130   21.1700   32.8170 C   0  0  0  0  0
   23.7770   21.4810   33.9440 O   0  0  0  0  0
   23.7870   20.8680   27.6690 N   0  0  0  0  0
   22.4740   20.3630   27.2870 C   0  0  0  0  0
   22.2590   20.2450   25.7850 C   0  0  0  0  0
   21.2910   19.6140   25.3650 O   0  0  0  0  0
   21.3390   21.2040   27.8790 C   0  0  0  0  0
   21.2010   21.1510   29.3910 C   0  0  0  0  0
   20.0550   22.0640   29.8070 C   0  0  0  0  0
   20.9440   19.7240   29.8760 C   0  0  0  0  0
   23.1340   20.8310   24.9710 N   0  0  0  0  0
   22.8600   20.8970   23.5380 C   0  0  0  0  0
   22.5930   19.5270   22.9240 C   0  0  0  0  0
   21.6080   19.3230   22.2080 O   0  0  0  0  0
   24.0110   21.5750   22.8150 C   0  0  0  0  0
   23.4800   18.5650   23.1910 N   0  0  0  0  0
   23.3420   17.2490   22.5460 C   0  0  0  0  0
   21.9990   16.5810   22.8480 C   0  0  0  0  0
   21.4010   15.9650   21.9660 O   0  0  0  0  0
   24.5040   16.3190   22.8960 C   0  0  0  0  0
   24.6130   15.9780   24.3660 C   0  0  0  0  0
   25.6090   14.8720   24.5950 C   0  0  0  0  0
   25.3030   13.7070   24.2390 O   0  0  0  0  0
   26.7000   15.1660   25.1150 O   0  0  0  0  0
   21.5210   16.7550   24.0770 N   0  0  0  0  0
   20.2710   16.1240   24.5070 C   0  0  0  0  0
   19.0680   16.6660   23.7450 C   0  0  0  0  0
   18.0100   16.0320   23.7440 O   0  0  0  0  0
   20.0200   16.3380   25.9870 C   0  0  0  0  0
   21.0470   15.7950   26.9640 C   0  0  0  0  0
   20.8460   14.5840   27.6090 C   0  0  0  0  0
   22.1730   16.5340   27.3040 C   0  0  0  0  0
   21.7420   14.1170   28.5650 C   0  0  0  0  0
   23.0740   16.0820   28.2470 C   0  0  0  0  0
   22.8630   14.8780   28.8850 C   0  0  0  0  0
   23.7770   14.4820   29.8390 O   0  0  0  0  0
   19.2340   17.8580   23.1650 N   0  0  0  0  0
   18.2140   18.5450   22.3830 C   0  0  0  0  0
   18.4300   18.4370   20.8780 C   0  0  0  0  0
   17.7250   19.0650   20.1050 O   0  0  0  0  0
   18.1370   20.0110   22.8520 C   0  0  0  0  0
   17.6470   20.1320   24.2570 C   0  0  0  0  0
   18.4660   20.0310   25.3560 N   0  0  0  0  0
   16.3850   20.2620   24.7380 C   0  0  0  0  0
   17.7210   20.1020   26.4490 C   0  0  0  0  0
   16.4540   20.2330   26.1060 N   0  0  0  0  0
   19.4300   17.6520   20.4690 N   0  0  0  0  0
   19.7120   17.4310   19.0500 C   0  0  0  0  0
   20.6690   18.4270   18.4180 C   0  0  0  0  0
   20.7780   18.4540   17.1940 O   0  0  0  0  0
   21.3440   19.2510   19.2180 N   0  0  0  0  0
   22.2000   20.3190   18.6900 C   0  0  0  0  0
   23.5760   20.3960   19.2920 C   0  0  0  0  0
   24.2840   21.3790   19.0790 O   0  0  0  0  0
   23.9850   19.2990   20.0700 N   0  0  0  0  0
   17.5419   27.7420   32.9277 H   0  0  0  0  0
   18.6474   26.8453   33.7941 H   0  0  0  0  0
   18.4559   28.4690   34.1164 H   0  0  0  0  0
   19.2718   29.0635   31.9624 H   0  0  0  0  0
   21.1023   27.1218   33.4323 H   0  0  0  0  0
   21.6225   28.4014   32.3085 H   0  0  0  0  0
   20.8585   28.8336   33.8578 H   0  0  0  0  0
   20.7208   28.3382   30.1941 H   0  0  0  0  0
   19.8363   25.6793   29.1388 H   0  0  0  0  0
   19.6709   26.5380   26.9756 H   0  0  0  0  0
   20.3667   28.1544   27.5195 H   0  0  0  0  0
   17.5005   26.0146   28.7545 H   0  0  0  0  0
   18.8209   29.7406   27.1257 H   0  0  0  0  0
   15.2072   26.9312   28.9713 H   0  0  0  0  0
   16.5398   30.6400   27.3356 H   0  0  0  0  0
   14.7325   29.2373   28.2580 H   0  0  0  0  0
   24.4890   26.4739   29.2299 H   0  0  0  0  0
   24.8539   25.5924   31.4593 H   0  0  0  0  0
   25.2867   24.1693   30.5959 H   0  0  0  0  0
   23.2878   24.0103   32.3395 H   0  0  0  0  0
   23.1149   23.1868   30.8318 H   0  0  0  0  0
   21.1555   24.5679   30.8009 H   0  0  0  0  0
   21.9028   25.8412   31.6611 H   0  0  0  0  0
   26.2077   25.5186   28.2086 H   0  0  0  0  0
   25.2927   24.4995   25.7552 H   0  0  0  0  0
   27.7409   24.0660   25.2664 H   0  0  0  0  0
   28.0687   24.5576   26.9908 H   0  0  0  0  0
   25.7031   26.1369   25.3782 H   0  0  0  0  0
   26.3851   22.7039   28.6205 H   0  0  0  0  0
   26.9191   20.2929   27.1721 H   0  0  0  0  0
   27.7370   20.6674   29.4078 H   0  0  0  0  0
   26.7703   19.0930   29.2375 H   0  0  0  0  0
   24.4079   19.1257   30.1368 H   0  0  0  0  0
   27.3516   22.0218   31.2046 H   0  0  0  0  0
   23.1210   19.6838   32.1477 H   0  0  0  0  0
   26.0557   22.5971   33.2273 H   0  0  0  0  0
   24.2299   22.1657   34.4417 H   0  0  0  0  0
   23.8934   21.8368   27.9697 H   0  0  0  0  0
   22.4513   19.3560   27.7036 H   0  0  0  0  0
   20.4116   20.8034   27.4697 H   0  0  0  0  0
   21.5577   22.2411   27.6247 H   0  0  0  0  0
   22.1329   21.4869   29.8458 H   0  0  0  0  0
   20.2710   23.0840   29.4891 H   0  0  0  0  0
   19.1321   21.7235   29.3375 H   0  0  0  0  0
   19.9446   22.0356   30.8910 H   0  0  0  0  0
   20.0223   19.3505   29.4299 H   0  0  0  0  0
   21.7768   19.0857   29.5807 H   0  0  0  0  0
   20.8503   19.7220   30.9620 H   0  0  0  0  0
   23.9930   21.2326   25.3468 H   0  0  0  0  0
   21.9499   21.4845   23.4168 H   0  0  0  0  0
   24.1362   22.5862   23.2020 H   0  0  0  0  0
   24.9264   21.0062   22.9782 H   0  0  0  0  0
   23.7934   21.6174   21.7478 H   0  0  0  0  0
   24.2486   18.7411   23.8381 H   0  0  0  0  0
   23.3718   17.4363   21.4726 H   0  0  0  0  0
   25.4222   16.8374   22.6196 H   0  0  0  0  0
   24.3357   15.3833   22.3629 H   0  0  0  0  0
   23.6368   15.6464   24.7199 H   0  0  0  0  0
   24.9468   16.8645   24.9054 H   0  0  0  0  0
   24.4191   13.7098   23.8645 H   0  0  0  0  0
   22.0361   17.3406   24.7344 H   0  0  0  0  0
   20.3876   15.0606   24.2979 H   0  0  0  0  0
   19.0971   15.8012   26.2064 H   0  0  0  0  0
   20.0250   17.4186   26.1299 H   0  0  0  0  0
   19.9686   13.9863   27.3620 H   0  0  0  0  0
   22.3490   17.4922   26.8152 H   0  0  0  0  0
   21.5676   13.1618   29.0602 H   0  0  0  0  0
   23.9542   16.6782   28.4878 H   0  0  0  0  0
   24.4711   15.1415   29.9088 H   0  0  0  0  0
   20.1369   18.3190   23.2772 H   0  0  0  0  0
   17.2584   18.0513   22.5598 H   0  0  0  0  0
   17.4365   20.5370   22.2033 H   0  0  0  0  0
   19.1407   20.4335   22.8066 H   0  0  0  0  0
   15.4784   20.3702   24.1426 H   0  0  0  0  0
   18.0961   20.0589   27.4715 H   0  0  0  0  0
   20.0150   17.1925   21.1668 H   0  0  0  0  0
   18.7631   17.5311   18.5231 H   0  0  0  0  0
   20.1842   16.4516   18.9736 H   0  0  0  0  0
   21.2632   19.1359   20.2283 H   0  0  0  0  0
   21.7038   21.2610   18.9235 H   0  0  0  0  0
   22.3349   20.1147   17.6278 H   0  0  0  0  0
   24.9134   19.2912   20.4925 H   0  0  0  0  0
   23.3534   18.5107   20.2120 H   0  0  0  0  0
  1  2  1  0  0  0
  2  3  1  0  0  0
  2  5  1  0  0  0
  3  4  2  0  0  0
  3  6  1  0  0  0
  6  7  1  0  0  0
  7  8  1  0  0  0
  7 10  1  0  0  0
  8  9  2  0  0  0
  8 17  1  0  0  0
 10 11  1  0  0  0
 11 12  4  0  0  0
 11 13  4  0  0  0
 12 14  4  0  0  0
 13 15  4  0  0  0
 14 16  4  0  0  0
 15 16  4  0  0  0
 17 18  1  0  0  0
 17 23  1  0  0  0
 18 19  1  0  0  0
 18 21  1  0  0  0
 19 20  2  0  0  0
 19 24  1  0  0  0
 21 22  1  0  0  0
 22 23  1  0  0  0
 24 25  1  0  0  0
 25 26  1  0  0  0
 25 28  1  0  0  0
 26 27  2  0  0  0
 26 32  1  0  0  0
 28 29  1  0  0  0
 29 30  1  0  0  0
 29 31  2  0  0  0
 32 33  1  0  0  0
 33 34  1  0  0  0
 33 36  1  0  0  0
 34 35  2  0  0  0
 34 44  1  0  0  0
 36 37  1  0  0  0
 37 38  4  0  0  0
 37 39  4  0  0  0
 38 40  4  0  0  0
 39 41  4  0  0  0
 40 42  4  0  0  0
 41 42  4  0  0  0
 42 43  1  0  0  0
 44 45  1  0  0  0
 45 46  1  0  0  0
 45 48  1  0  0  0
 46 47  2  0  0  0
 46 52  1  0  0  0
 48 49  1  0  0  0
 49 50  1  0  0  0
 49 51  1  0  0  0
 52 53  1  0  0  0
 53 54  1  0  0  0
 53 56  1  0  0  0
 54 55  2  0  0  0
 54 57  1  0  0  0
 57 58  1  0  0  0
 58 59  1  0  0  0
 58 61  1  0  0  0
 59 60  2  0  0  0
 59 66  1  0  0  0
 61 62  1  0  0  0
 62 63  1  0  0  0
 63 64  1  0  0  0
 63 65  2  0  0  0
 66 67  1  0  0  0
 67 68  1  0  0  0
 67 70  1  0  0  0
 68 69  2  0  0  0
 68 78  1  0  0  0
 70 71  1  0  0  0
 71 72  4  0  0  0
 71 73  4  0  0  0
 72 74  4  0  0  0
 73 75  4  0  0  0
 74 76  4  0  0  0
 75 76  4  0  0  0
 76 77  1  0  0  0
 78 79  1  0  0  0
 79 80  1  0  0  0
 79 82  1  0  0  0
 80 81  2  0  0  0
 80 88  1  0  0  0
 82 83  1  0  0  0
 83 84  4  0  0  0
 83 85  4  0  0  0
 84 86  4  0  0  0
 85 87  4  0  0  0
 86 87  4  0  0  0
 88 89  1  0  0  0
 89 90  1  0  0  0
 90 91  2  0  0  0
 90 92  1  0  0  0
 92 93  1  0  0  0
 93 94  1  0  0  0
 94 95  2  0  0  0
 94 96  1  0  0  0
  1 97  1  0  0  0
  1 98  1  0  0  0
  1 99  1  0  0  0
  2100  1  0  0  0
  5101  1  0  0  0
  5102  1  0  0  0
  5103  1  0  0  0
  6104  1  0  0  0
  7105  1  0  0  0
 10106  1  0  0  0
 10107  1  0  0  0
 12108  1  0  0  0
 13109  1  0  0  0
 14110  1  0  0  0
 15111  1  0  0  0
 16112  1  0  0  0
 18113  1  0  0  0
 21114  1  0  0  0
 21115  1  0  0  0
 22116  1  0  0  0
 22117  1  0  0  0
 23118  1  0  0  0
 23119  1  0  0  0
 24120  1  0  0  0
 25121  1  0  0  0
 28122  1  0  0  0
 28123  1  0  0  0
 30124  1  0  0  0
 32125  1  0  0  0
 33126  1  0  0  0
 36127  1  0  0  0
 36128  1  0  0  0
 38129  1  0  0  0
 39130  1  0  0  0
 40131  1  0  0  0
 41132  1  0  0  0
 43133  1  0  0  0
 44134  1  0  0  0
 45135  1  0  0  0
 48136  1  0  0  0
 48137  1  0  0  0
 49138  1  0  0  0
 50139  1  0  0  0
 50140  1  0  0  0
 50141  1  0  0  0
 51142  1  0  0  0
 51143  1  0  0  0
 51144  1  0  0  0
 52145  1  0  0  0
 53146  1  0  0  0
 56147  1  0  0  0
 56148  1  0  0  0
 56149  1  0  0  0
 57150  1  0  0  0
 58151  1  0  0  0
 61152  1  0  0  0
 61153  1  0  0  0
 62154  1  0  0  0
 62155  1  0  0  0
 64156  1  0  0  0
 66157  1  0  0  0
 67158  1  0  0  0
 70159  1  0  0  0
 70160  1  0  0  0
 72161  1  0  0  0
 73162  1  0  0  0
 74163  1  0  0  0
 75164  1  0  0  0
 77165  1  0  0  0
 78166  1  0  0  0
 79167  1  0  0  0
 82168  1  0  0  0
 82169  1  0  0  0
 85170  1  0  0  0
 86171  1  0  0  0
 88172  1  0  0  0
 89173  1  0  0  0
 89174  1  0  0  0
 92175  1  0  0  0
 93176  1  0  0  0
 93177  1  0  0  0
 96178  1  0  0  0
 96179  1  0  0  0
M  END
$$$$
