### 
### Created by X-TOOL on Mon Sep 10 21:13:30 2018
### 

@<TRIPOS>MOLECULE
5n8b_ligand
  178   182     1     0     0
SMALL
GAST_HUCK


@<TRIPOS>ATOM
      1 N          18.4540   27.7590   33.3840 N.4       1 ALA         0.2377
      2 CA         19.5060   28.0830   32.3770 C.3       1 ALA         0.0621
      3 C          19.5240   27.0780   31.2410 C.2       1 ALA         0.2265
      4 O          18.9430   25.9940   31.3460 O.2       1 ALA        -0.3907
      5 CB         20.8690   28.1120   33.0410 C.3       1 ALA        -0.0040
      6 N          20.2380   27.4400   30.1710 N.am      1 PHE        -0.2592
      7 CA         20.3640   26.6180   28.9700 C.3       1 PHE         0.1408
      8 C          21.8620   26.3630   28.6960 C.2       1 PHE         0.2085
      9 O          22.4110   26.7740   27.6630 O.2       1 PHE        -0.3940
     10 CB         19.7380   27.2960   27.7560 C.3       1 PHE         0.0214
     11 CG         18.3380   27.8290   27.9630 C.ar      1 PHE        -0.0386
     12 CD1        17.3000   27.0430   28.4540 C.ar      1 PHE        -0.0601
     13 CD2        18.0340   29.1150   27.5470 C.ar      1 PHE        -0.0601
     14 CE1        16.0060   27.5530   28.5670 C.ar      1 PHE        -0.0686
     15 CE2        16.7520   29.6200   27.6560 C.ar      1 PHE        -0.0686
     16 CZ         15.7420   28.8360   28.1690 C.ar      1 PHE        -0.0687
     17 N          22.5540   25.6880   29.6250 N.am      1 PRO        -0.2497
     18 CA         24.0020   25.5210   29.4370 C.3       1 PRO         0.1338
     19 C          24.3650   24.6640   28.2340 C.2       1 PRO         0.2042
     20 O          23.5880   23.8100   27.8040 O.2       1 PRO        -0.3944
     21 CB         24.4610   24.8640   30.7500 C.3       1 PRO        -0.0104
     22 CG         23.2370   24.1800   31.2640 C.3       1 PRO        -0.0281
     23 CD         22.1060   25.0930   30.8950 C.3       1 PRO         0.0369
     24 N          25.5750   24.8760   27.7320 N.am      1 ASP        -0.2622
     25 CA         26.0180   24.2110   26.5160 C.3       1 ASP         0.1423
     26 C          26.0080   22.6870   26.6090 C.2       1 ASP         0.2057
     27 O          25.7640   22.0310   25.6000 O.2       1 ASP        -0.3943
     28 CB         27.4270   24.6710   26.1170 C.3       1 ASP         0.0406
     29 CG         27.4900   26.1370   25.6870 C.2       1 ASP         0.0393
     30 OD1        26.4530   26.7330   25.3160 O.co2     1 ASP        -0.5688
     31 OD2        28.6150   26.6790   25.7070 O.co2     1 ASP        -0.5688
     32 N          26.2230   22.1200   27.8000 N.am      1 TYR        -0.2620
     33 CA         26.2260   20.6620   27.9280 C.3       1 TYR         0.1390
     34 C          24.8510   20.0610   27.6250 C.2       1 TYR         0.2057
     35 O          24.7690   18.8720   27.3330 O.2       1 TYR        -0.3942
     36 CB         26.7690   20.1820   29.2830 C.3       1 TYR         0.0163
     37 CG         25.9590   20.5470   30.5060 C.ar      1 TYR        -0.0493
     38 CD1        24.7780   19.8990   30.8100 C.ar      1 TYR        -0.0685
     39 CD2        26.4110   21.5080   31.4030 C.ar      1 TYR        -0.0685
     40 CE1        24.0560   20.2050   31.9420 C.ar      1 TYR        -0.0398
     41 CE2        25.6900   21.8280   32.5470 C.ar      1 TYR        -0.0398
     42 CZ         24.5130   21.1700   32.8170 C.ar      1 TYR         0.0805
     43 OH         23.7770   21.4810   33.9440 O.3       1 TYR        -0.3376
     44 N          23.7870   20.8680   27.6690 N.am      1 LEU        -0.2636
     45 CA         22.4740   20.3630   27.2870 C.3       1 LEU         0.1312
     46 C          22.2590   20.2450   25.7850 C.2       1 LEU         0.2039
     47 O          21.2910   19.6140   25.3650 O.2       1 LEU        -0.3944
     48 CB         21.3390   21.2040   27.8790 C.3       1 LEU        -0.0101
     49 CG         21.2010   21.1510   29.3910 C.3       1 LEU        -0.0425
     50 CD1        20.0550   22.0640   29.8070 C.3       1 LEU        -0.0625
     51 CD2        20.9440   19.7240   29.8760 C.3       1 LEU        -0.0625
     52 N          23.1340   20.8310   24.9710 N.am      1 ALA        -0.2640
     53 CA         22.8600   20.8970   23.5380 C.3       1 ALA         0.1282
     54 C          22.5930   19.5270   22.9240 C.2       1 ALA         0.2036
     55 O          21.6080   19.3230   22.2080 O.2       1 ALA        -0.3944
     56 CB         24.0110   21.5750   22.8150 C.3       1 ALA        -0.0244
     57 N          23.4800   18.5650   23.1910 N.am      1 GLU        -0.2636
     58 CA         23.3420   17.2490   22.5460 C.3       1 GLU         0.1325
     59 C          21.9990   16.5810   22.8480 C.2       1 GLU         0.2041
     60 O          21.4010   15.9650   21.9660 O.2       1 GLU        -0.3944
     61 CB         24.5040   16.3190   22.8960 C.3       1 GLU        -0.0008
     62 CG         24.6130   15.9780   24.3660 C.3       1 GLU         0.0044
     63 CD         25.6090   14.8720   24.5950 C.2       1 GLU         0.0350
     64 OE1        25.3030   13.7070   24.2390 O.co2     1 GLU        -0.5690
     65 OE2        26.7000   15.1660   25.1150 O.co2     1 GLU        -0.5690
     66 N          21.5210   16.7550   24.0770 N.am      1 TYR        -0.2621
     67 CA         20.2710   16.1240   24.5070 C.3       1 TYR         0.1390
     68 C          19.0680   16.6660   23.7450 C.2       1 TYR         0.2058
     69 O          18.0100   16.0320   23.7440 O.2       1 TYR        -0.3942
     70 CB         20.0200   16.3380   25.9870 C.3       1 TYR         0.0163
     71 CG         21.0470   15.7950   26.9640 C.ar      1 TYR        -0.0493
     72 CD1        20.8460   14.5840   27.6090 C.ar      1 TYR        -0.0685
     73 CD2        22.1730   16.5340   27.3040 C.ar      1 TYR        -0.0685
     74 CE1        21.7420   14.1170   28.5650 C.ar      1 TYR        -0.0398
     75 CE2        23.0740   16.0820   28.2470 C.ar      1 TYR        -0.0398
     76 CZ         22.8630   14.8780   28.8850 C.ar      1 TYR         0.0805
     77 OH         23.7770   14.4820   29.8390 O.3       1 TYR        -0.3376
     78 N          19.2340   17.8580   23.1650 N.am      1 HIS        -0.2623
     79 CA         18.2140   18.5450   22.3830 C.3       1 HIS         0.1369
     80 C          18.4300   18.4370   20.8780 C.2       1 HIS         0.2052
     81 O          17.7250   19.0650   20.1050 O.2       1 HIS        -0.3942
     82 CB         18.1370   20.0110   22.8520 C.3       1 HIS         0.0145
     83 CG         17.6470   20.1320   24.2570 C.2       1 HIS        -0.0027
     84 ND1        18.4660   20.0310   25.3560 N.2       1 HIS        -0.3252
     85 CD2        16.3850   20.2620   24.7380 C.2       1 HIS         0.0291
     86 CE1        17.7210   20.1020   26.4490 C.2       1 HIS         0.0907
     87 NE2        16.4540   20.2330   26.1060 N.pl3     1 HIS        -0.2752
     88 N          19.4300   17.6520   20.4690 N.am      1 GLY        -0.2663
     89 CA         19.7120   17.4310   19.0500 C.3       1 GLY         0.1201
     90 C          20.6690   18.4270   18.4180 C.2       1 GLY         0.2005
     91 O          20.7780   18.4540   17.1940 O.2       1 GLY        -0.3947
     92 N          21.3440   19.2510   19.2180 N.am      1 GLY        -0.2667
     93 CA         22.2000   20.3190   18.6900 C.3       1 GLY         0.1198
     94 C          23.5760   20.3960   19.2920 C.2       1 GLY         0.1960
     95 O          24.2840   21.3790   19.0790 O.2       1 GLY        -0.3951
     96 N          23.9850   19.2990   20.0700 N.am      1 NH2        -0.2992
     97 H1         18.4718   28.4460   34.1214 H         1 ALA         0.2015
     98 H2         18.6300   26.8453   33.7717 H         1 ALA         0.2015
     99 H3         17.5494   27.7668   32.9393 H         1 ALA         0.2015
    100 H4         19.2923   29.0782   31.9600 H         1 ALA         0.1095
    101 H5         21.6372   28.3515   32.2910 H         1 ALA         0.0310
    102 H6         21.0825   27.1277   33.4831 H         1 ALA         0.0310
    103 H7         20.8761   28.8779   33.8305 H         1 ALA         0.0310
    104 H8         20.7113   28.3206   30.1936 H         1 PHE         0.1886
    105 H9         19.8558   25.6575   29.1408 H         1 PHE         0.0823
    106 H10        19.7045   26.5626   26.9369 H         1 PHE         0.0474
    107 H11        20.3831   28.1389   27.4674 H         1 PHE         0.0474
    108 H12        17.4994   26.0203   28.7529 H         1 PHE         0.0557
    109 H13        18.8166   29.7371   27.1280 H         1 PHE         0.0557
    110 H14        15.2116   26.9346   28.9690 H         1 PHE         0.0599
    111 H15        16.5410   30.6344   27.3374 H         1 PHE         0.0599
    112 H16        14.7380   29.2351   28.2575 H         1 PHE         0.0559
    113 H17        24.4782   26.5052   29.3162 H         1 PRO         0.0802
    114 H18        24.8127   25.6231   31.4641 H         1 PRO         0.0313
    115 H19        25.2647   24.1368   30.5624 H         1 PRO         0.0313
    116 H20        23.2929   24.0535   32.3553 H         1 PRO         0.0287
    117 H21        23.1130   23.1967   30.7867 H         1 PRO         0.0287
    118 H22        21.1720   24.5283   30.7582 H         1 PRO         0.0524
    119 H23        21.9575   25.8669   31.6624 H         1 PRO         0.0524
    120 H24        26.1953   25.5060   28.1992 H         1 ASP         0.1884
    121 H25        25.3223   24.5009   25.7148 H         1 ASP         0.0819
    122 H26        27.7730   24.0472   25.2797 H         1 ASP         0.0478
    123 H27        28.0961   24.5318   26.9789 H         1 ASP         0.0478
    124 H28        26.3820   22.6924   28.6044 H         1 TYR         0.1885
    125 H29        26.9157   20.2812   27.1604 H         1 TYR         0.0821
    126 H30        27.7747   20.6092   29.4095 H         1 TYR         0.0453
    127 H31        26.8388   19.0849   29.2446 H         1 TYR         0.0453
    128 H32        24.4100   19.1299   30.1405 H         1 TYR         0.0530
    129 H33        27.3464   22.0190   31.2057 H         1 TYR         0.0530
    130 H34        23.1262   19.6867   32.1466 H         1 TYR         0.0525
    131 H35        26.0537   22.5929   33.2236 H         1 TYR         0.0525
    132 H36        23.0001   20.9350   33.9741 H         1 TYR         0.2458
    133 H37        23.8913   21.8178   27.9638 H         1 LEU         0.1883
    134 H38        22.3934   19.3499   27.7079 H         1 LEU         0.0800
    135 H39        20.3934   20.8524   27.4406 H         1 LEU         0.0315
    136 H40        21.5092   22.2520   27.5915 H         1 LEU         0.0315
    137 H41        22.1341   21.5134   29.8470 H         1 LEU         0.0298
    138 H42        19.9426   22.0362   30.9009 H         1 LEU         0.0232
    139 H43        19.1229   21.7214   29.3338 H         1 LEU         0.0232
    140 H44        20.2718   23.0938   29.4868 H         1 LEU         0.0232
    141 H45        21.7785   19.0765   29.5689 H         1 LEU         0.0232
    142 H46        20.0082   19.3498   29.4352 H         1 LEU         0.0232
    143 H47        20.8604   19.7189   30.9728 H         1 LEU         0.0232
    144 H48        23.9762   21.2247   25.3394 H         1 ALA         0.1883
    145 H49        21.9567   21.5089   23.3979 H         1 ALA         0.0797
    146 H50        23.7926   21.6184   21.7378 H         1 ALA         0.0277
    147 H51        24.9355   21.0019   22.9789 H         1 ALA         0.0277
    148 H52        24.1384   22.5957   23.2047 H         1 ALA         0.0277
    149 H53        24.2335   18.7376   23.8254 H         1 GLU         0.1883
    150 H54        23.3791   17.4210   21.4602 H         1 GLU         0.0801
    151 H55        25.4400   16.8067   22.5861 H         1 GLU         0.0330
    152 H56        24.3754   15.3819   22.3345 H         1 GLU         0.0330
    153 H57        23.6277   15.6556   24.7338 H         1 GLU         0.0433
    154 H58        24.9362   16.8723   24.9190 H         1 GLU         0.0433
    155 H59        22.0260   17.3291   24.7215 H         1 TYR         0.1885
    156 H60        20.3525   15.0440   24.3146 H         1 TYR         0.0821
    157 H61        19.0561   15.8661   26.2281 H         1 TYR         0.0453
    158 H62        19.9492   17.4229   26.1545 H         1 TYR         0.0453
    159 H63        19.9734   13.9896   27.3633 H         1 TYR         0.0530
    160 H64        22.3480   17.4870   26.8179 H         1 TYR         0.0530
    161 H65        21.5686   13.1670   29.0575 H         1 TYR         0.0525
    162 H66        23.9493   16.6749   28.4865 H         1 TYR         0.0525
    163 H67        23.5152   13.6421   30.1974 H         1 TYR         0.2458
    164 H68        20.1192   18.3100   23.2750 H         1 HIS         0.1885
    165 H69        17.2476   18.0682   22.6038 H         1 HIS         0.0817
    166 H70        17.4504   20.5586   22.1897 H         1 HIS         0.0420
    167 H71        19.1410   20.4559   22.7881 H         1 HIS         0.0420
    168 H72        15.4793   20.3701   24.1431 H         1 HIS         0.0729
    169 H73        18.0958   20.0590   27.4706 H         1 HIS         0.1199
    170 H74        15.6559   20.3015   26.7536 H         1 HIS         0.2361
    171 H75        20.0036   17.2015   21.1531 H         1 GLY         0.1881
    172 H76        18.7594   17.4797   18.5021 H         1 GLY         0.0763
    173 H77        20.1463   16.4262   18.9418 H         1 GLY         0.0763
    174 H78        21.2648   19.1381   20.2085 H         1 GLY         0.1881
    175 H79        21.6956   21.2796   18.8709 H         1 GLY         0.0763
    176 H80        22.3112   20.1615   17.6070 H         1 GLY         0.0763
    177 H81        24.8905   19.2969   20.4944 H         1 NH2         0.1815
    178 H82        23.3705   18.5207   20.1991 H         1 NH2         0.1815
@<TRIPOS>BOND
     1    1    2 1  
     2    2    3 1  
     3    2    5 1  
     4    3    4 2  
     5    3    6 am 
     6    6    7 1  
     7    7    8 1  
     8    7   10 1  
     9    8    9 2  
    10    8   17 am 
    11   10   11 1  
    12   11   12 ar 
    13   11   13 ar 
    14   12   14 ar 
    15   13   15 ar 
    16   14   16 ar 
    17   15   16 ar 
    18   17   18 1  
    19   17   23 1  
    20   18   19 1  
    21   18   21 1  
    22   19   20 2  
    23   19   24 am 
    24   21   22 1  
    25   22   23 1  
    26   24   25 1  
    27   25   26 1  
    28   25   28 1  
    29   26   27 2  
    30   26   32 am 
    31   28   29 1  
    32   29   30 ar 
    33   29   31 ar 
    34   32   33 1  
    35   33   34 1  
    36   33   36 1  
    37   34   35 2  
    38   34   44 am 
    39   36   37 1  
    40   37   38 ar 
    41   37   39 ar 
    42   38   40 ar 
    43   39   41 ar 
    44   40   42 ar 
    45   41   42 ar 
    46   42   43 1  
    47   44   45 1  
    48   45   46 1  
    49   45   48 1  
    50   46   47 2  
    51   46   52 am 
    52   48   49 1  
    53   49   50 1  
    54   49   51 1  
    55   52   53 1  
    56   53   54 1  
    57   53   56 1  
    58   54   55 2  
    59   54   57 am 
    60   57   58 1  
    61   58   59 1  
    62   58   61 1  
    63   59   60 2  
    64   59   66 am 
    65   61   62 1  
    66   62   63 1  
    67   63   64 ar 
    68   63   65 ar 
    69   66   67 1  
    70   67   68 1  
    71   67   70 1  
    72   68   69 2  
    73   68   78 am 
    74   70   71 1  
    75   71   72 ar 
    76   71   73 ar 
    77   72   74 ar 
    78   73   75 ar 
    79   74   76 ar 
    80   75   76 ar 
    81   76   77 1  
    82   78   79 1  
    83   79   80 1  
    84   79   82 1  
    85   80   81 2  
    86   80   88 am 
    87   82   83 1  
    88   83   84 1  
    89   83   85 2  
    90   84   86 2  
    91   85   87 1  
    92   86   87 1  
    93   88   89 1  
    94   89   90 1  
    95   90   91 2  
    96   90   92 am 
    97   92   93 1  
    98   93   94 1  
    99   94   95 2  
   100   94   96 am 
   101    1   97 1  
   102    1   98 1  
   103    1   99 1  
   104    2  100 1  
   105    5  101 1  
   106    5  102 1  
   107    5  103 1  
   108    6  104 1  
   109    7  105 1  
   110   10  106 1  
   111   10  107 1  
   112   12  108 1  
   113   13  109 1  
   114   14  110 1  
   115   15  111 1  
   116   16  112 1  
   117   18  113 1  
   118   21  114 1  
   119   21  115 1  
   120   22  116 1  
   121   22  117 1  
   122   23  118 1  
   123   23  119 1  
   124   24  120 1  
   125   25  121 1  
   126   28  122 1  
   127   28  123 1  
   128   32  124 1  
   129   33  125 1  
   130   36  126 1  
   131   36  127 1  
   132   38  128 1  
   133   39  129 1  
   134   40  130 1  
   135   41  131 1  
   136   43  132 1  
   137   44  133 1  
   138   45  134 1  
   139   48  135 1  
   140   48  136 1  
   141   49  137 1  
   142   50  138 1  
   143   50  139 1  
   144   50  140 1  
   145   51  141 1  
   146   51  142 1  
   147   51  143 1  
   148   52  144 1  
   149   53  145 1  
   150   56  146 1  
   151   56  147 1  
   152   56  148 1  
   153   57  149 1  
   154   58  150 1  
   155   61  151 1  
   156   61  152 1  
   157   62  153 1  
   158   62  154 1  
   159   66  155 1  
   160   67  156 1  
   161   70  157 1  
   162   70  158 1  
   163   72  159 1  
   164   73  160 1  
   165   74  161 1  
   166   75  162 1  
   167   77  163 1  
   168   78  164 1  
   169   79  165 1  
   170   82  166 1  
   171   82  167 1  
   172   85  168 1  
   173   86  169 1  
   174   87  170 1  
   175   88  171 1  
   176   89  172 1  
   177   89  173 1  
   178   92  174 1  
   179   93  175 1  
   180   93  176 1  
   181   96  177 1  
   182   96  178 1  
@<TRIPOS>SUBSTRUCTURE
     1 ALA         1

