5fv7_ligand
  -I-interpret- 

 35 38  0  0  0  0  0  0  0  0999 V2000
  -13.8690   -8.1340   -1.1100 C   0  0  0  0  0
  -14.9440   -8.0840   -1.9910 C   0  0  0  0  0
  -15.8440   -7.0250   -1.9420 C   0  0  0  0  0
  -15.6800   -6.0030   -1.0050 C   0  0  0  0  0
  -14.5970   -6.0620   -0.1180 C   0  0  0  0  0
  -13.6950   -7.1250   -0.1710 C   0  0  0  0  0
  -14.4170   -5.0760    0.8020 O   0  0  0  0  0
  -15.5680   -4.2820    1.1290 C   0  0  0  0  0
  -16.2800   -3.8090   -0.1560 C   0  0  0  0  0
  -16.5820   -4.9640   -0.9630 O   0  0  0  0  0
  -17.5490   -2.9800    0.1530 C   0  0  0  0  0
  -18.3620   -3.4890    1.2860 N   0  0  0  0  0
  -19.2920   -4.5210    1.0510 C   0  0  0  0  0
  -19.6010   -5.1850   -0.1320 C   0  0  0  0  0
  -20.5360   -6.1230   -0.0310 C   0  0  0  0  0
  -21.1180   -6.2620    1.5660 S   0  0  0  0  0
  -20.0480   -4.9860    2.1220 C   0  0  0  0  0
  -19.8700   -4.4150    3.4140 C   0  0  0  0  0
  -20.5270   -4.8160    4.3640 O   0  0  0  0  0
  -18.9710   -3.4240    3.5840 N   0  0  0  0  0
  -18.2380   -2.9740    2.5380 C   0  0  0  0  0
  -17.4380   -2.0780    2.7440 O   0  0  0  0  0
  -18.8030   -2.8600    4.8760 O   0  0  0  0  0
  -13.1638   -8.9639   -1.1562 H   0  0  0  0  0
  -15.0818   -8.8791   -2.7238 H   0  0  0  0  0
  -16.6817   -6.9927   -2.6386 H   0  0  0  0  0
  -12.8554   -7.1638    0.5230 H   0  0  0  0  0
  -15.2467   -3.4095    1.6979 H   0  0  0  0  0
  -16.2601   -4.8859    1.7159 H   0  0  0  0  0
  -15.6170   -3.1418   -0.7068 H   0  0  0  0  0
  -18.1800   -3.0231   -0.7347 H   0  0  0  0  0
  -17.2152   -1.9791    0.4266 H   0  0  0  0  0
  -19.1097   -4.9515   -1.0766 H   0  0  0  0  0
  -20.8879   -6.7291   -0.8658 H   0  0  0  0  0
  -18.1344   -2.1721    4.8392 H   0  0  0  0  0
  1  2  4  0  0  0
  1  6  4  0  0  0
  2  3  4  0  0  0
  3  4  4  0  0  0
  4  5  4  0  0  0
  4 10  1  0  0  0
  5  6  4  0  0  0
  5  7  1  0  0  0
  7  8  1  0  0  0
  8  9  1  0  0  0
  9 10  1  0  0  0
  9 11  1  0  0  0
 11 12  1  0  0  0
 12 13  1  0  0  0
 12 21  1  0  0  0
 13 14  4  0  0  0
 13 17  4  0  0  0
 14 15  4  0  0  0
 15 16  4  0  0  0
 16 17  4  0  0  0
 17 18  1  0  0  0
 18 19  2  0  0  0
 18 20  1  0  0  0
 20 21  1  0  0  0
 20 23  1  0  0  0
 21 22  2  0  0  0
  1 24  1  0  0  0
  2 25  1  0  0  0
  3 26  1  0  0  0
  6 27  1  0  0  0
  8 28  1  0  0  0
  8 29  1  0  0  0
  9 30  1  0  0  0
 11 31  1  0  0  0
 11 32  1  0  0  0
 14 33  1  0  0  0
 15 34  1  0  0  0
 23 35  1  0  0  0
M  END
$$$$
