### 
### Created by X-TOOL on Wed Jan  1 15:39:37 2020
### 

@<TRIPOS>MOLECULE
5yv5_ligand
  166   166     1     0     0
SMALL
GAST_HUCK


@<TRIPOS>ATOM
      1 N         -19.3030   18.8420  -18.7680 N.4       1 SER         0.2377
      2 CA        -20.3700   19.8400  -19.0730 C.3       1 SER         0.0621
      3 C         -20.6680   19.9730  -20.5720 C.2       1 SER         0.2264
      4 O         -21.8050   20.2630  -20.9470 O.2       1 SER        -0.3907
      5 CB        -20.0000   21.1970  -18.4880 C.3       1 SER        -0.0040
      6 N         -19.6580   19.7610  -21.4190 N.am      1 GLU        -0.2613
      7 CA        -19.7820   19.9560  -22.8720 C.3       1 GLU         0.1283
      8 C         -21.0180   19.2760  -23.4620 C.2       1 GLU         0.2036
      9 O         -21.3270   18.1360  -23.1180 O.2       1 GLU        -0.3944
     10 CB        -18.5280   19.4600  -23.5750 C.3       1 GLU        -0.0244
     11 N         -21.7060   19.9820  -24.3610 N.am      1 GLU        -0.2640
     12 CA        -22.9450   19.4870  -24.9780 C.3       1 GLU         0.1282
     13 C         -22.7300   18.2640  -25.8790 C.2       1 GLU         0.2036
     14 O         -23.6980   17.6310  -26.3100 O.2       1 GLU        -0.3944
     15 CB        -23.6260   20.6020  -25.7570 C.3       1 GLU        -0.0244
     16 N         -21.4690   17.9510  -26.1800 N.am      1 GLU        -0.2640
     17 CA        -21.1060   16.6770  -26.8000 C.3       1 GLU         0.1282
     18 C         -21.5160   15.4960  -25.9100 C.2       1 GLU         0.2036
     19 O         -21.9760   14.4650  -26.4040 O.2       1 GLU        -0.3944
     20 CB        -19.6080   16.6350  -27.0730 C.3       1 GLU        -0.0244
     21 N         -21.3500   15.6650  -24.5990 N.am      1 ALA        -0.2640
     22 CA        -21.6650   14.6210  -23.6230 C.3       1 ALA         0.1282
     23 C         -23.1560   14.2950  -23.5710 C.2       1 ALA         0.2036
     24 O         -23.5450   13.1380  -23.7330 O.2       1 ALA        -0.3944
     25 CB        -21.1700   15.0260  -22.2420 C.3       1 ALA        -0.0244
     26 N         -23.9840   15.3140  -23.3470 N.am      1 LEU        -0.2640
     27 CA        -25.4370   15.1330  -23.2680 C.3       1 LEU         0.1282
     28 C         -25.9890   14.4160  -24.5020 C.2       1 LEU         0.2036
     29 O         -26.9650   13.6690  -24.4080 O.2       1 LEU        -0.3944
     30 CB        -26.1320   16.4720  -23.0770 C.3       1 LEU        -0.0244
     31 N         -25.3600   14.6480  -25.6520 N.am      1 ALA        -0.2640
     32 CA        -25.6870   13.9220  -26.8780 C.3       1 ALA         0.1282
     33 C         -25.2480   12.4580  -26.7900 C.2       1 ALA         0.2034
     34 O         -26.0370   11.5490  -27.0610 O.2       1 ALA        -0.3944
     35 CB        -25.0360   14.5960  -28.0760 C.3       1 ALA        -0.0244
     36 N         -23.9900   12.2400  -26.4120 N.am      1 GLY        -0.2664
     37 CA        -23.4320   10.8890  -26.2990 C.3       1 GLY         0.1201
     38 C         -24.1590   10.0090  -25.2970 C.2       1 GLY         0.2007
     39 O         -24.4370    8.8450  -25.5700 O.2       1 GLY        -0.3947
     40 N         -24.4880   10.5810  -24.1430 N.am      1 LEU        -0.2640
     41 CA        -25.1020    9.8340  -23.0450 C.3       1 LEU         0.1312
     42 C         -26.5730    9.5190  -23.2980 C.2       1 LEU         0.2040
     43 O         -27.0130    8.3970  -23.0550 O.2       1 LEU        -0.3944
     44 CB        -24.9450   10.6030  -21.7270 C.3       1 LEU        -0.0101
     45 CG        -23.4900   10.8430  -21.3070 C.3       1 LEU        -0.0425
     46 CD1       -23.3770   11.8950  -20.2150 C.3       1 LEU        -0.0625
     47 CD2       -22.8330    9.5460  -20.8640 C.3       1 LEU        -0.0625
     48 N         -27.3300   10.5040  -23.7810 N.am      1 SER        -0.2616
     49 CA        -28.7490   10.3010  -24.0950 C.3       1 SER         0.1539
     50 C         -28.9440    9.2330  -25.1700 C.2       1 SER         0.2062
     51 O         -29.9280    8.4970  -25.1400 O.2       1 SER        -0.3943
     52 CB        -29.4120   11.6080  -24.5390 C.3       1 SER         0.0843
     53 OG        -29.5550   12.5030  -23.4510 O.3       1 SER        -0.3903
     54 N         -28.0060    9.1570  -26.1120 N.am      1 ALA        -0.2639
     55 CA        -28.0350    8.1330  -27.1570 C.3       1 ALA         0.1282
     56 C         -27.9210    6.7250  -26.5690 C.2       1 ALA         0.2036
     57 O         -28.6190    5.8060  -27.0040 O.2       1 ALA        -0.3944
     58 CB        -26.9200    8.3730  -28.1640 C.3       1 ALA        -0.0244
     59 N         -27.0400    6.5650  -25.5820 N.am      1 LEU        -0.2637
     60 CA        -26.8680    5.2820  -24.9020 C.3       1 LEU         0.1312
     61 C         -28.1270    4.8750  -24.1320 C.2       1 LEU         0.2040
     62 O         -28.4950    3.6980  -24.1250 O.2       1 LEU        -0.3944
     63 CB        -25.6650    5.3430  -23.9480 C.3       1 LEU        -0.0101
     64 CG        -25.3730    4.1150  -23.0780 C.3       1 LEU        -0.0425
     65 CD1       -25.0640    2.8980  -23.9280 C.3       1 LEU        -0.0625
     66 CD2       -24.2250    4.4100  -22.1240 C.3       1 LEU        -0.0625
     67 N         -28.7810    5.8490  -23.4960 N.am      1 PHE        -0.2619
     68 CA        -29.9120    5.5840  -22.5990 C.3       1 PHE         0.1404
     69 C         -31.2760    5.7830  -23.2550 C.2       1 PHE         0.2052
     70 O         -32.0870    4.8550  -23.3020 O.2       1 PHE        -0.3942
     71 CB        -29.8170    6.4700  -21.3520 C.3       1 PHE         0.0214
     72 CG        -28.7360    6.0530  -20.3970 C.ar      1 PHE        -0.0386
     73 CD1       -28.8580    4.8790  -19.6640 C.ar      1 PHE        -0.0601
     74 CD2       -27.5980    6.8290  -20.2290 C.ar      1 PHE        -0.0601
     75 CE1       -27.8660    4.4870  -18.7830 C.ar      1 PHE        -0.0686
     76 CE2       -26.6020    6.4420  -19.3480 C.ar      1 PHE        -0.0686
     77 CZ        -26.7350    5.2690  -18.6260 C.ar      1 PHE        -0.0687
     78 N         -31.5260    6.9980  -23.7380 N.am      1 GLY        -0.2720
     79 CA        -32.8170    7.3570  -24.3290 C.3       1 GLY         0.0833
     80 C         -33.2340    6.4440  -25.4680 C.2       1 GLY         0.0570
     81 O         -32.5800    6.3810  -26.5080 O.co2     1 GLY        -0.5669
     82 OXT       -34.2340    5.7350  -25.3730 O.co2     1 GLY        -0.5669
     83 H1        -19.1552   18.8021  -17.7717 H         1 SER         0.2015
     84 H2        -18.4467   19.1156  -19.2240 H         1 SER         0.2015
     85 H3        -19.5865   17.9343  -19.1022 H         1 SER         0.2015
     86 H4        -21.2929   19.4968  -18.5826 H         1 SER         0.1095
     87 H5        -20.7926   21.9241  -18.7186 H         1 SER         0.0310
     88 H6        -19.0505   21.5385  -18.9259 H         1 SER         0.0310
     89 H7        -19.8898   21.1083  -17.3971 H         1 SER         0.0310
     90 H8        -18.7798   19.4567  -21.0501 H         1 GLU         0.1884
     91 H9        -19.8754   21.0363  -23.0567 H         1 GLU         0.0797
     92 H10       -18.6319   19.6106  -24.6597 H         1 GLU         0.0277
     93 H11       -18.3892   18.3892  -23.3652 H         1 GLU         0.0277
     94 H12       -17.6559   20.0215  -23.2087 H         1 GLU         0.0277
     95 H13       -21.3651   20.8841  -24.6257 H         1 GLU         0.1883
     96 H14       -23.6182   19.1809  -24.1637 H         1 GLU         0.0797
     97 H15       -24.5507   20.2187  -26.2131 H         1 GLU         0.0277
     98 H16       -22.9504   20.9635  -26.5462 H         1 GLU         0.0277
     99 H17       -23.8694   21.4300  -25.0750 H         1 GLU         0.0277
    100 H18       -20.7461   18.6107  -25.9745 H         1 GLU         0.1883
    101 H19       -21.6396   16.5918  -27.7581 H         1 GLU         0.0797
    102 H20       -19.3470   15.6733  -27.5388 H         1 GLU         0.0277
    103 H21       -19.0594   16.7444  -26.1259 H         1 GLU         0.0277
    104 H22       -19.3357   17.4569  -27.7515 H         1 GLU         0.0277
    105 H23       -20.9961   16.5400  -24.2687 H         1 ALA         0.1883
    106 H24       -21.1322   13.7075  -23.9256 H         1 ALA         0.0797
    107 H25       -21.4127   14.2337  -21.5186 H         1 ALA         0.0277
    108 H26       -21.6591   15.9630  -21.9374 H         1 ALA         0.0277
    109 H27       -20.0804   15.1740  -22.2718 H         1 ALA         0.0277
    110 H28       -23.6029   16.2310  -23.2290 H         1 LEU         0.1883
    111 H29       -25.6519   14.5072  -22.3893 H         1 LEU         0.0797
    112 H30       -27.2194   16.3159  -23.0201 H         1 LEU         0.0277
    113 H31       -25.9001   17.1301  -23.9274 H         1 LEU         0.0277
    114 H32       -25.7794   16.9386  -22.1454 H         1 LEU         0.0277
    115 H33       -24.6402   15.3417  -25.6781 H         1 ALA         0.1883
    116 H34       -26.7783   13.9474  -27.0138 H         1 ALA         0.0797
    117 H35       -25.2892   14.0410  -28.9913 H         1 ALA         0.0277
    118 H36       -23.9441   14.6052  -27.9431 H         1 ALA         0.0277
    119 H37       -25.4039   15.6292  -28.1601 H         1 ALA         0.0277
    120 H38       -23.4066   13.0236  -26.1982 H         1 GLY         0.1881
    121 H39       -22.3801   10.9727  -25.9883 H         1 GLY         0.0763
    122 H40       -23.4855   10.4076  -27.2866 H         1 GLY         0.0763
    123 H41       -24.3093   11.5573  -24.0209 H         1 LEU         0.1883
    124 H42       -24.5665    8.8778  -22.9506 H         1 LEU         0.0800
    125 H43       -25.4431   10.0291  -20.9317 H         1 LEU         0.0315
    126 H44       -25.4375   11.5804  -21.8374 H         1 LEU         0.0315
    127 H45       -22.9460   11.2149  -22.1878 H         1 LEU         0.0298
    128 H46       -22.3191   12.0331  -19.9470 H         1 LEU         0.0232
    129 H47       -23.9397   11.5658  -19.3290 H         1 LEU         0.0232
    130 H48       -23.7903   12.8472  -20.5790 H         1 LEU         0.0232
    131 H49       -22.9237    8.7970  -21.6645 H         1 LEU         0.0232
    132 H50       -23.3305    9.1744  -19.9561 H         1 LEU         0.0232
    133 H51       -21.7693    9.7279  -20.6509 H         1 LEU         0.0232
    134 H52       -26.9208   11.4037  -23.9332 H         1 SER         0.1884
    135 H53       -29.2496    9.9571  -23.1779 H         1 SER         0.0823
    136 H54       -30.4063   11.3839  -24.9527 H         1 SER         0.0606
    137 H55       -28.7905   12.0809  -25.3137 H         1 SER         0.0606
    138 H56       -28.6983   12.7030  -23.0922 H         1 SER         0.2097
    139 H57       -27.2580    9.8207  -26.1051 H         1 ALA         0.1883
    140 H58       -28.9986    8.2078  -27.6821 H         1 ALA         0.0797
    141 H59       -26.9551    7.5961  -28.9420 H         1 ALA         0.0277
    142 H60       -25.9478    8.3343  -27.6508 H         1 ALA         0.0277
    143 H61       -27.0509    9.3620  -28.6273 H         1 ALA         0.0277
    144 H62       -26.4809    7.3441  -25.2985 H         1 LEU         0.1883
    145 H63       -26.6693    4.5146  -25.6646 H         1 LEU         0.0800
    146 H64       -25.8285    6.1931  -23.2694 H         1 LEU         0.0315
    147 H65       -24.7708    5.5297  -24.5608 H         1 LEU         0.0315
    148 H66       -26.2706    3.8956  -22.4812 H         1 LEU         0.0298
    149 H67       -24.8597    2.0368  -23.2748 H         1 LEU         0.0232
    150 H68       -24.1819    3.1015  -24.5529 H         1 LEU         0.0232
    151 H69       -25.9262    2.6726  -24.5729 H         1 LEU         0.0232
    152 H70       -24.4699    5.2949  -21.5183 H         1 LEU         0.0232
    153 H71       -23.3088    4.6030  -22.7013 H         1 LEU         0.0232
    154 H72       -24.0664    3.5455  -21.4626 H         1 LEU         0.0232
    155 H73       -28.4894    6.7953  -23.6359 H         1 PHE         0.1885
    156 H74       -29.8438    4.5326  -22.2831 H         1 PHE         0.0823
    157 H75       -30.7811    6.4310  -20.8238 H         1 PHE         0.0474
    158 H76       -29.6167    7.5026  -21.6739 H         1 PHE         0.0474
    159 H77       -29.7415    4.2625  -19.7839 H         1 PHE         0.0557
    160 H78       -27.4874    7.7479  -20.7933 H         1 PHE         0.0557
    161 H79       -27.9744    3.5690  -18.2167 H         1 PHE         0.0599
    162 H80       -25.7185    7.0577  -19.2240 H         1 PHE         0.0599
    163 H81       -25.9546    4.9632  -17.9386 H         1 PHE         0.0559
    164 H82       -30.8061    7.6908  -23.6958 H         1 GLY         0.1873
    165 H83       -32.7505    8.3855  -24.7132 H         1 GLY         0.0689
    166 H84       -33.5856    7.3079  -23.5437 H         1 GLY         0.0689
@<TRIPOS>BOND
     1    1    2 1  
     2    2    3 1  
     3    2    5 1  
     4    3    4 2  
     5    3    6 am 
     6    6    7 1  
     7    7    8 1  
     8    7   10 1  
     9    8    9 2  
    10    8   11 am 
    11   11   12 1  
    12   12   13 1  
    13   12   15 1  
    14   13   14 2  
    15   13   16 am 
    16   16   17 1  
    17   17   18 1  
    18   17   20 1  
    19   18   19 2  
    20   18   21 am 
    21   21   22 1  
    22   22   23 1  
    23   22   25 1  
    24   23   24 2  
    25   23   26 am 
    26   26   27 1  
    27   27   28 1  
    28   27   30 1  
    29   28   29 2  
    30   28   31 am 
    31   31   32 1  
    32   32   33 1  
    33   32   35 1  
    34   33   34 2  
    35   33   36 am 
    36   36   37 1  
    37   37   38 1  
    38   38   39 2  
    39   38   40 am 
    40   40   41 1  
    41   41   42 1  
    42   41   44 1  
    43   42   43 2  
    44   42   48 am 
    45   44   45 1  
    46   45   46 1  
    47   45   47 1  
    48   48   49 1  
    49   49   50 1  
    50   49   52 1  
    51   50   51 2  
    52   50   54 am 
    53   52   53 1  
    54   54   55 1  
    55   55   56 1  
    56   55   58 1  
    57   56   57 2  
    58   56   59 am 
    59   59   60 1  
    60   60   61 1  
    61   60   63 1  
    62   61   62 2  
    63   61   67 am 
    64   63   64 1  
    65   64   65 1  
    66   64   66 1  
    67   67   68 1  
    68   68   69 1  
    69   68   71 1  
    70   69   70 2  
    71   69   78 am 
    72   71   72 1  
    73   72   73 ar 
    74   72   74 ar 
    75   73   75 ar 
    76   74   76 ar 
    77   75   77 ar 
    78   76   77 ar 
    79   78   79 1  
    80   79   80 1  
    81   80   81 ar 
    82   80   82 ar 
    83    1   83 1  
    84    1   84 1  
    85    1   85 1  
    86    2   86 1  
    87    5   87 1  
    88    5   88 1  
    89    5   89 1  
    90    6   90 1  
    91    7   91 1  
    92   10   92 1  
    93   10   93 1  
    94   10   94 1  
    95   11   95 1  
    96   12   96 1  
    97   15   97 1  
    98   15   98 1  
    99   15   99 1  
   100   16  100 1  
   101   17  101 1  
   102   20  102 1  
   103   20  103 1  
   104   20  104 1  
   105   21  105 1  
   106   22  106 1  
   107   25  107 1  
   108   25  108 1  
   109   25  109 1  
   110   26  110 1  
   111   27  111 1  
   112   30  112 1  
   113   30  113 1  
   114   30  114 1  
   115   31  115 1  
   116   32  116 1  
   117   35  117 1  
   118   35  118 1  
   119   35  119 1  
   120   36  120 1  
   121   37  121 1  
   122   37  122 1  
   123   40  123 1  
   124   41  124 1  
   125   44  125 1  
   126   44  126 1  
   127   45  127 1  
   128   46  128 1  
   129   46  129 1  
   130   46  130 1  
   131   47  131 1  
   132   47  132 1  
   133   47  133 1  
   134   48  134 1  
   135   49  135 1  
   136   52  136 1  
   137   52  137 1  
   138   53  138 1  
   139   54  139 1  
   140   55  140 1  
   141   58  141 1  
   142   58  142 1  
   143   58  143 1  
   144   59  144 1  
   145   60  145 1  
   146   63  146 1  
   147   63  147 1  
   148   64  148 1  
   149   65  149 1  
   150   65  150 1  
   151   65  151 1  
   152   66  152 1  
   153   66  153 1  
   154   66  154 1  
   155   67  155 1  
   156   68  156 1  
   157   71  157 1  
   158   71  158 1  
   159   73  159 1  
   160   74  160 1  
   161   75  161 1  
   162   76  162 1  
   163   77  163 1  
   164   78  164 1  
   165   79  165 1  
   166   79  166 1  
@<TRIPOS>SUBSTRUCTURE
     1 SER         1

