5yv5_ligand
  -I-interpret- 

167167  0  0  0  0  0  0  0  0999 V2000
  -19.3030   18.8420  -18.7680 N   0  3  0  0  0
  -20.3700   19.8400  -19.0730 C   0  0  0  0  0
  -20.6680   19.9730  -20.5720 C   0  0  0  0  0
  -21.8050   20.2630  -20.9470 O   0  0  0  0  0
  -20.0000   21.1970  -18.4880 C   0  0  0  0  0
  -19.6580   19.7610  -21.4190 N   0  0  0  0  0
  -19.7820   19.9560  -22.8720 C   0  0  0  0  0
  -21.0180   19.2760  -23.4620 C   0  0  0  0  0
  -21.3270   18.1360  -23.1180 O   0  0  0  0  0
  -18.5280   19.4600  -23.5750 C   0  0  0  0  0
  -21.7060   19.9820  -24.3610 N   0  0  0  0  0
  -22.9450   19.4870  -24.9780 C   0  0  0  0  0
  -22.7300   18.2640  -25.8790 C   0  0  0  0  0
  -23.6980   17.6310  -26.3100 O   0  0  0  0  0
  -23.6260   20.6020  -25.7570 C   0  0  0  0  0
  -21.4690   17.9510  -26.1800 N   0  0  0  0  0
  -21.1060   16.6770  -26.8000 C   0  0  0  0  0
  -21.5160   15.4960  -25.9100 C   0  0  0  0  0
  -21.9760   14.4650  -26.4040 O   0  0  0  0  0
  -19.6080   16.6350  -27.0730 C   0  0  0  0  0
  -21.3500   15.6650  -24.5990 N   0  0  0  0  0
  -21.6650   14.6210  -23.6230 C   0  0  0  0  0
  -23.1560   14.2950  -23.5710 C   0  0  0  0  0
  -23.5450   13.1380  -23.7330 O   0  0  0  0  0
  -21.1700   15.0260  -22.2420 C   0  0  0  0  0
  -23.9840   15.3140  -23.3470 N   0  0  0  0  0
  -25.4370   15.1330  -23.2680 C   0  0  0  0  0
  -25.9890   14.4160  -24.5020 C   0  0  0  0  0
  -26.9650   13.6690  -24.4080 O   0  0  0  0  0
  -26.1320   16.4720  -23.0770 C   0  0  0  0  0
  -25.3600   14.6480  -25.6520 N   0  0  0  0  0
  -25.6870   13.9220  -26.8780 C   0  0  0  0  0
  -25.2480   12.4580  -26.7900 C   0  0  0  0  0
  -26.0370   11.5490  -27.0610 O   0  0  0  0  0
  -25.0360   14.5960  -28.0760 C   0  0  0  0  0
  -23.9900   12.2400  -26.4120 N   0  0  0  0  0
  -23.4320   10.8890  -26.2990 C   0  0  0  0  0
  -24.1590   10.0090  -25.2970 C   0  0  0  0  0
  -24.4370    8.8450  -25.5700 O   0  0  0  0  0
  -24.4880   10.5810  -24.1430 N   0  0  0  0  0
  -25.1020    9.8340  -23.0450 C   0  0  0  0  0
  -26.5730    9.5190  -23.2980 C   0  0  0  0  0
  -27.0130    8.3970  -23.0550 O   0  0  0  0  0
  -24.9450   10.6030  -21.7270 C   0  0  0  0  0
  -23.4900   10.8430  -21.3070 C   0  0  0  0  0
  -23.3770   11.8950  -20.2150 C   0  0  0  0  0
  -22.8330    9.5460  -20.8640 C   0  0  0  0  0
  -27.3300   10.5040  -23.7810 N   0  0  0  0  0
  -28.7490   10.3010  -24.0950 C   0  0  0  0  0
  -28.9440    9.2330  -25.1700 C   0  0  0  0  0
  -29.9280    8.4970  -25.1400 O   0  0  0  0  0
  -29.4120   11.6080  -24.5390 C   0  0  0  0  0
  -29.5550   12.5030  -23.4510 O   0  0  0  0  0
  -28.0060    9.1570  -26.1120 N   0  0  0  0  0
  -28.0350    8.1330  -27.1570 C   0  0  0  0  0
  -27.9210    6.7250  -26.5690 C   0  0  0  0  0
  -28.6190    5.8060  -27.0040 O   0  0  0  0  0
  -26.9200    8.3730  -28.1640 C   0  0  0  0  0
  -27.0400    6.5650  -25.5820 N   0  0  0  0  0
  -26.8680    5.2820  -24.9020 C   0  0  0  0  0
  -28.1270    4.8750  -24.1320 C   0  0  0  0  0
  -28.4950    3.6980  -24.1250 O   0  0  0  0  0
  -25.6650    5.3430  -23.9480 C   0  0  0  0  0
  -25.3730    4.1150  -23.0780 C   0  0  0  0  0
  -25.0640    2.8980  -23.9280 C   0  0  0  0  0
  -24.2250    4.4100  -22.1240 C   0  0  0  0  0
  -28.7810    5.8490  -23.4960 N   0  0  0  0  0
  -29.9120    5.5840  -22.5990 C   0  0  0  0  0
  -31.2760    5.7830  -23.2550 C   0  0  0  0  0
  -32.0870    4.8550  -23.3020 O   0  0  0  0  0
  -29.8170    6.4700  -21.3520 C   0  0  0  0  0
  -28.7360    6.0530  -20.3970 C   0  0  0  0  0
  -28.8580    4.8790  -19.6640 C   0  0  0  0  0
  -27.5980    6.8290  -20.2290 C   0  0  0  0  0
  -27.8660    4.4870  -18.7830 C   0  0  0  0  0
  -26.6020    6.4420  -19.3480 C   0  0  0  0  0
  -26.7350    5.2690  -18.6260 C   0  0  0  0  0
  -31.5260    6.9980  -23.7380 N   0  0  0  0  0
  -32.8170    7.3570  -24.3290 C   0  0  0  0  0
  -33.2340    6.4440  -25.4680 C   0  0  0  0  0
  -32.5800    6.3810  -26.5080 O   0  0  0  0  0
  -34.2340    5.7350  -25.3730 O   0  0  0  0  0
  -19.5612   17.9382  -19.1641 H   0  0  0  0  0
  -18.4212   19.1536  -19.1752 H   0  0  0  0  0
  -19.1999   18.7545  -17.7570 H   0  0  0  0  0
  -21.2838   19.4704  -18.6078 H   0  0  0  0  0
  -19.1152   21.5810  -18.9957 H   0  0  0  0  0
  -20.8299   21.8898  -18.6274 H   0  0  0  0  0
  -19.7911   21.0877  -17.4238 H   0  0  0  0  0
  -18.7622   19.4506  -21.0427 H   0  0  0  0  0
  -19.9012   21.0268  -23.0373 H   0  0  0  0  0
  -18.4414   18.3815  -23.4428 H   0  0  0  0  0
  -18.5926   19.6931  -24.6378 H   0  0  0  0  0
  -17.6544   19.9512  -23.1464 H   0  0  0  0  0
  -21.3583   20.9021  -24.6310 H   0  0  0  0  0
  -23.5883   19.1594  -24.1613 H   0  0  0  0  0
  -23.8666   21.4218  -25.0802 H   0  0  0  0  0
  -22.9556   20.9593  -26.5386 H   0  0  0  0  0
  -24.5421   20.2210  -26.2084 H   0  0  0  0  0
  -20.7316   18.6239  -25.9704 H   0  0  0  0  0
  -21.6424   16.5923  -27.7451 H   0  0  0  0  0
  -19.3395   17.4498  -27.7454 H   0  0  0  0  0
  -19.0656   16.7436  -26.1338 H   0  0  0  0  0
  -19.3507   15.6816  -27.5345 H   0  0  0  0  0
  -20.9890   16.5575  -24.2621 H   0  0  0  0  0
  -21.1503   13.7165  -23.9472 H   0  0  0  0  0
  -20.0903   15.1723  -22.2729 H   0  0  0  0  0
  -21.6553   15.9545  -21.9413 H   0  0  0  0  0
  -21.4111   14.2402  -21.5261 H   0  0  0  0  0
  -23.5953   16.2493  -23.2267 H   0  0  0  0  0
  -25.6409   14.5024  -22.4026 H   0  0  0  0  0
  -25.7817   16.9333  -22.1536 H   0  0  0  0  0
  -25.9014   17.1231  -23.9202 H   0  0  0  0  0
  -27.2093   16.3160  -23.0208 H   0  0  0  0  0
  -24.6258   15.3555  -25.6786 H   0  0  0  0  0
  -26.7696   13.9410  -27.0031 H   0  0  0  0  0
  -25.4013   15.6197  -28.1582 H   0  0  0  0  0
  -23.9542   14.6045  -27.9430 H   0  0  0  0  0
  -25.2876   14.0452  -28.9823 H   0  0  0  0  0
  -23.3950   13.0392  -26.1939 H   0  0  0  0  0
  -22.4020   10.9897  -25.9568 H   0  0  0  0  0
  -23.5254   10.4154  -27.2763 H   0  0  0  0  0
  -24.3058   11.5768  -24.0185 H   0  0  0  0  0
  -24.5783    8.8804  -22.9774 H   0  0  0  0  0
  -25.4092   10.0003  -20.9464 H   0  0  0  0  0
  -25.4035   11.5815  -21.8696 H   0  0  0  0  0
  -22.9633   11.2216  -22.1830 H   0  0  0  0  0
  -23.7869   12.8380  -20.5769 H   0  0  0  0  0
  -23.9350   11.5676  -19.3378 H   0  0  0  0  0
  -22.3284   12.0309  -19.9503 H   0  0  0  0  0
  -23.3800    9.1343  -20.0159 H   0  0  0  0  0
  -22.8476    8.8328  -21.6882 H   0  0  0  0  0
  -21.8019    9.7440  -20.5714 H   0  0  0  0  0
  -26.9126   11.4217  -23.9362 H   0  0  0  0  0
  -29.2271    9.9566  -23.1780 H   0  0  0  0  0
  -30.4015   11.3799  -24.9351 H   0  0  0  0  0
  -28.7843   12.0775  -25.2964 H   0  0  0  0  0
  -29.9722   13.3119  -23.7563 H   0  0  0  0  0
  -27.2431    9.8340  -26.1050 H   0  0  0  0  0
  -28.9968    8.2059  -27.6646 H   0  0  0  0  0
  -27.0509    9.3533  -28.6223 H   0  0  0  0  0
  -25.9573    8.3344  -27.6543 H   0  0  0  0  0
  -26.9558    7.6026  -28.9343 H   0  0  0  0  0
  -26.4697    7.3597  -25.2928 H   0  0  0  0  0
  -26.6857    4.5265  -25.6662 H   0  0  0  0  0
  -25.8923    6.1463  -23.2472 H   0  0  0  0  0
  -24.7919    5.4561  -24.5907 H   0  0  0  0  0
  -26.2664    3.8913  -22.4950 H   0  0  0  0  0
  -25.9190    2.6758  -24.5665 H   0  0  0  0  0
  -24.1899    3.1010  -24.5467 H   0  0  0  0  0
  -24.8618    2.0454  -23.2797 H   0  0  0  0  0
  -23.3333    4.6625  -22.6977 H   0  0  0  0  0
  -24.4946    5.2481  -21.4814 H   0  0  0  0  0
  -24.0277    3.5300  -21.5119 H   0  0  0  0  0
  -28.4836    6.8142  -23.6387 H   0  0  0  0  0
  -29.8398    4.5303  -22.3296 H   0  0  0  0  0
  -30.7671    6.3921  -20.8234 H   0  0  0  0  0
  -29.5841    7.4808  -21.6870 H   0  0  0  0  0
  -29.7464    4.2591  -19.7846 H   0  0  0  0  0
  -27.4868    7.7530  -20.7965 H   0  0  0  0  0
  -27.9750    3.5640  -18.2136 H   0  0  0  0  0
  -25.7136    7.0612  -19.2234 H   0  0  0  0  0
  -25.9503    4.9615  -17.9348 H   0  0  0  0  0
  -30.7917    7.7047  -23.6949 H   0  0  0  0  0
  -32.7241    8.3650  -24.7333 H   0  0  0  0  0
  -33.5713    7.2717  -23.5468 H   0  0  0  0  0
  -31.8321    6.9802  -26.4512 H   0  0  0  0  0
  1  2  1  0  0  0
  2  3  1  0  0  0
  2  5  1  0  0  0
  3  4  2  0  0  0
  3  6  1  0  0  0
  6  7  1  0  0  0
  7  8  1  0  0  0
  7 10  1  0  0  0
  8  9  2  0  0  0
  8 11  1  0  0  0
 11 12  1  0  0  0
 12 13  1  0  0  0
 12 15  1  0  0  0
 13 14  2  0  0  0
 13 16  1  0  0  0
 16 17  1  0  0  0
 17 18  1  0  0  0
 17 20  1  0  0  0
 18 19  2  0  0  0
 18 21  1  0  0  0
 21 22  1  0  0  0
 22 23  1  0  0  0
 22 25  1  0  0  0
 23 24  2  0  0  0
 23 26  1  0  0  0
 26 27  1  0  0  0
 27 28  1  0  0  0
 27 30  1  0  0  0
 28 29  2  0  0  0
 28 31  1  0  0  0
 31 32  1  0  0  0
 32 33  1  0  0  0
 32 35  1  0  0  0
 33 34  2  0  0  0
 33 36  1  0  0  0
 36 37  1  0  0  0
 37 38  1  0  0  0
 38 39  2  0  0  0
 38 40  1  0  0  0
 40 41  1  0  0  0
 41 42  1  0  0  0
 41 44  1  0  0  0
 42 43  2  0  0  0
 42 48  1  0  0  0
 44 45  1  0  0  0
 45 46  1  0  0  0
 45 47  1  0  0  0
 48 49  1  0  0  0
 49 50  1  0  0  0
 49 52  1  0  0  0
 50 51  2  0  0  0
 50 54  1  0  0  0
 52 53  1  0  0  0
 54 55  1  0  0  0
 55 56  1  0  0  0
 55 58  1  0  0  0
 56 57  2  0  0  0
 56 59  1  0  0  0
 59 60  1  0  0  0
 60 61  1  0  0  0
 60 63  1  0  0  0
 61 62  2  0  0  0
 61 67  1  0  0  0
 63 64  1  0  0  0
 64 65  1  0  0  0
 64 66  1  0  0  0
 67 68  1  0  0  0
 68 69  1  0  0  0
 68 71  1  0  0  0
 69 70  2  0  0  0
 69 78  1  0  0  0
 71 72  1  0  0  0
 72 73  4  0  0  0
 72 74  4  0  0  0
 73 75  4  0  0  0
 74 76  4  0  0  0
 75 77  4  0  0  0
 76 77  4  0  0  0
 78 79  1  0  0  0
 79 80  1  0  0  0
 80 81  1  0  0  0
 80 82  2  0  0  0
  1 83  1  0  0  0
  1 84  1  0  0  0
  1 85  1  0  0  0
  2 86  1  0  0  0
  5 87  1  0  0  0
  5 88  1  0  0  0
  5 89  1  0  0  0
  6 90  1  0  0  0
  7 91  1  0  0  0
 10 92  1  0  0  0
 10 93  1  0  0  0
 10 94  1  0  0  0
 11 95  1  0  0  0
 12 96  1  0  0  0
 15 97  1  0  0  0
 15 98  1  0  0  0
 15 99  1  0  0  0
 16100  1  0  0  0
 17101  1  0  0  0
 20102  1  0  0  0
 20103  1  0  0  0
 20104  1  0  0  0
 21105  1  0  0  0
 22106  1  0  0  0
 25107  1  0  0  0
 25108  1  0  0  0
 25109  1  0  0  0
 26110  1  0  0  0
 27111  1  0  0  0
 30112  1  0  0  0
 30113  1  0  0  0
 30114  1  0  0  0
 31115  1  0  0  0
 32116  1  0  0  0
 35117  1  0  0  0
 35118  1  0  0  0
 35119  1  0  0  0
 36120  1  0  0  0
 37121  1  0  0  0
 37122  1  0  0  0
 40123  1  0  0  0
 41124  1  0  0  0
 44125  1  0  0  0
 44126  1  0  0  0
 45127  1  0  0  0
 46128  1  0  0  0
 46129  1  0  0  0
 46130  1  0  0  0
 47131  1  0  0  0
 47132  1  0  0  0
 47133  1  0  0  0
 48134  1  0  0  0
 49135  1  0  0  0
 52136  1  0  0  0
 52137  1  0  0  0
 53138  1  0  0  0
 54139  1  0  0  0
 55140  1  0  0  0
 58141  1  0  0  0
 58142  1  0  0  0
 58143  1  0  0  0
 59144  1  0  0  0
 60145  1  0  0  0
 63146  1  0  0  0
 63147  1  0  0  0
 64148  1  0  0  0
 65149  1  0  0  0
 65150  1  0  0  0
 65151  1  0  0  0
 66152  1  0  0  0
 66153  1  0  0  0
 66154  1  0  0  0
 67155  1  0  0  0
 68156  1  0  0  0
 71157  1  0  0  0
 71158  1  0  0  0
 73159  1  0  0  0
 74160  1  0  0  0
 75161  1  0  0  0
 76162  1  0  0  0
 77163  1  0  0  0
 78164  1  0  0  0
 79165  1  0  0  0
 79166  1  0  0  0
 81167  1  0  0  0
M  END
$$$$
