1m7y_ligand
  -I-interpret- 

 50 50  0  0  0  0  0  0  0  0999 V2000
   23.2370    2.2760   18.8790 N   0  0  0  0  0
   22.0730    2.0290   18.1400 C   0  0  0  0  0
   22.0480    2.6300   16.7730 C   0  0  0  0  0
   21.0520    1.2450   18.7510 C   0  0  0  0  0
   19.9540    0.9980   18.0770 O   0  0  0  0  0
   21.2870    0.7490   20.1240 C   0  0  0  0  0
   20.2070   -0.1270   20.8680 C   0  0  0  0  0
   22.5640    1.0870   20.7910 C   0  0  0  0  0
   23.5040    1.8410   20.1460 C   0  0  0  0  0
   22.7960    0.5630   22.2090 C   0  0  0  0  0
   23.1110   -0.8190   22.1390 O   0  0  0  0  0
   24.0800   -1.5320   23.2440 P   0  0  0  0  0
   25.2680   -1.9890   22.4650 O   0  0  0  0  0
   23.3690   -2.6690   23.8070 O   0  0  0  0  0
   24.4090   -0.5470   24.2940 O   0  0  0  0  0
   18.8790    0.0800   20.3520 N   0  3  0  0  0
   17.7230   -0.0800   21.0240 C   0  0  0  0  0
   16.5550    0.0900   20.2560 C   0  0  0  0  0
   16.6430    0.7530   19.1500 O   0  0  0  0  0
   15.4000   -0.4010   20.6440 O   0  0  0  0  0
   17.7250   -0.3570   22.4510 C   0  0  0  0  0
   16.8160   -1.1250   23.0540 C   0  0  0  0  0
   17.0180   -1.3310   24.4750 O   0  0  0  0  0
   15.7600   -1.4200   25.1710 C   0  0  0  0  0
   15.5090   -2.8490   25.6690 C   0  0  0  0  0
   15.3360   -3.7370   24.5200 N   0  3  0  0  0
   22.1423    3.7130   16.8519 H   0  0  0  0  0
   22.8778    2.2334   16.1879 H   0  0  0  0  0
   21.1058    2.3806   16.2850 H   0  0  0  0  0
   19.3642    0.4630   18.6132 H   0  0  0  0  0
   20.2078    0.1596   21.9197 H   0  0  0  0  0
   20.4653   -1.1757   20.7212 H   0  0  0  0  0
   24.4471    2.0900   20.6325 H   0  0  0  0  0
   21.8970    0.7074   22.8082 H   0  0  0  0  0
   23.6184    1.1066   22.6741 H   0  0  0  0  0
   25.7238   -1.2262   22.1017 H   0  0  0  0  0
   24.8769    0.1935   23.9012 H   0  0  0  0  0
   18.8133   -0.6574   19.6503 H   0  0  0  0  0
   18.8794    1.0852   20.1791 H   0  0  0  0  0
   17.3346   -0.7068   21.8267 H   0  0  0  0  0
   15.5132   -0.8604   21.4793 H   0  0  0  0  0
   18.5116    0.0867   23.0613 H   0  0  0  0  0
   15.9783   -1.5676   22.5151 H   0  0  0  0  0
   14.9597   -1.1425   24.4849 H   0  0  0  0  0
   15.7867   -0.7494   26.0299 H   0  0  0  0  0
   14.6095   -2.8686   26.2843 H   0  0  0  0  0
   16.3591   -3.1830   26.2639 H   0  0  0  0  0
   15.1689   -4.6880   24.8489 H   0  0  0  0  0
   14.5394   -3.4227   23.9658 H   0  0  0  0  0
   16.1794   -3.7175   23.9467 H   0  0  0  0  0
  1  2  4  0  0  0
  1  9  4  0  0  0
  2  3  1  0  0  0
  2  4  4  0  0  0
  4  5  1  0  0  0
  4  6  4  0  0  0
  6  7  1  0  0  0
  6  8  4  0  0  0
  7 16  1  0  0  0
  8  9  4  0  0  0
  8 10  1  0  0  0
 10 11  1  0  0  0
 11 12  1  0  0  0
 12 13  1  0  0  0
 12 14  2  0  0  0
 12 15  1  0  0  0
 16 17  1  0  0  0
 17 18  1  0  0  0
 17 21  1  0  0  0
 18 19  2  0  0  0
 18 20  1  0  0  0
 21 22  2  0  0  0
 22 23  1  0  0  0
 23 24  1  0  0  0
 24 25  1  0  0  0
 25 26  1  0  0  0
  3 27  1  0  0  0
  3 28  1  0  0  0
  3 29  1  0  0  0
  5 30  1  0  0  0
  7 31  1  0  0  0
  7 32  1  0  0  0
  9 33  1  0  0  0
 10 34  1  0  0  0
 10 35  1  0  0  0
 13 36  1  0  0  0
 15 37  1  0  0  0
 16 38  1  0  0  0
 16 39  1  0  0  0
 17 40  1  0  0  0
 20 41  1  0  0  0
 21 42  1  0  0  0
 22 43  1  0  0  0
 24 44  1  0  0  0
 24 45  1  0  0  0
 25 46  1  0  0  0
 25 47  1  0  0  0
 26 48  1  0  0  0
 26 49  1  0  0  0
 26 50  1  0  0  0
M  END
$$$$
