4q4r_ligand
  -I-interpret- 

 41 44  0  0  0  0  0  0  0  0999 V2000
  106.9150   17.7540   24.4610 N   0  0  0  0  0
  105.3960   17.3400   22.6940 N   0  0  0  0  0
  106.4020   17.6830   21.7930 C   0  0  0  0  0
  107.6910   18.0460   22.2190 C   0  0  0  0  0
  107.9710   18.0990   23.6560 C   0  0  0  0  0
  108.6590   18.3950   21.2830 C   0  0  0  0  0
  108.3410   18.4280   19.9420 C   0  0  0  0  0
  106.0870   17.7100   20.4270 C   0  0  0  0  0
  109.0400   18.8010   18.8110 N   0  0  0  0  0
  108.1750   18.7150   17.7770 C   0  0  0  0  0
  105.6840   17.3860   23.9930 C   0  0  0  0  0
  107.0580   18.1040   19.5020 C   0  0  0  0  0
  106.9690   18.2990   18.1240 N   0  0  0  0  0
  108.5620   19.0390   16.5380 N   0  0  0  0  0
  109.0420   18.4630   24.1310 O   0  0  0  0  0
  107.6540   18.9930   15.4030 C   0  0  0  0  0
  108.3730   19.2130   14.1000 C   0  0  0  0  0
  107.4350   19.2530   12.9740 N   0  3  0  0  0
  108.0830   18.8720   11.7190 C   0  0  0  0  0
  107.0850   18.9080   10.5920 C   0  0  0  0  0
  106.5050   20.2000   10.4490 O   0  0  0  0  0
  105.8700   20.5850   11.6660 C   0  0  0  0  0
  106.8390   20.5830   12.8210 C   0  0  0  0  0
  107.0569   17.7732   25.4709 H   0  0  0  0  0
  109.6690   18.6424   21.6098 H   0  0  0  0  0
  105.0908   17.4254   20.0884 H   0  0  0  0  0
  104.9085   17.1200   24.7113 H   0  0  0  0  0
  109.5279   19.3285   16.3840 H   0  0  0  0  0
  106.9155   19.7855   15.5238 H   0  0  0  0  0
  107.1910   18.0066   15.3755 H   0  0  0  0  0
  109.0678   18.3879   13.9436 H   0  0  0  0  0
  108.8965   20.1678   14.1495 H   0  0  0  0  0
  106.6995   18.5786   13.1853 H   0  0  0  0  0
  108.4809   17.8616   11.8133 H   0  0  0  0  0
  108.8904   19.5725   11.5054 H   0  0  0  0  0
  106.2901   18.1954   10.8122 H   0  0  0  0  0
  107.6016   18.6573    9.6655 H   0  0  0  0  0
  105.0754   19.8706   11.8813 H   0  0  0  0  0
  105.4785   21.5952   11.5461 H   0  0  0  0  0
  107.6284   21.3093   12.6276 H   0  0  0  0  0
  106.3068   20.8445   13.7356 H   0  0  0  0  0
  1  5  1  0  0  0
 11  1  1  0  0  0
  2  3  1  0  0  0
  2 11  2  0  0  0
  3  4  4  0  0  0
  3  8  4  0  0  0
  4  5  1  0  0  0
  4  6  4  0  0  0
  5 15  2  0  0  0
  6  7  4  0  0  0
  7  9  4  0  0  0
  7 12  4  0  0  0
  8 12  4  0  0  0
  9 10  4  0  0  0
 10 13  4  0  0  0
 10 14  1  0  0  0
 12 13  4  0  0  0
 14 16  1  0  0  0
 16 17  1  0  0  0
 17 18  1  0  0  0
 18 19  1  0  0  0
 18 23  1  0  0  0
 19 20  1  0  0  0
 20 21  1  0  0  0
 21 22  1  0  0  0
 22 23  1  0  0  0
  1 24  1  0  0  0
  6 25  1  0  0  0
  8 26  1  0  0  0
 11 27  1  0  0  0
 14 28  1  0  0  0
 16 29  1  0  0  0
 16 30  1  0  0  0
 17 31  1  0  0  0
 17 32  1  0  0  0
 18 33  1  0  0  0
 19 34  1  0  0  0
 19 35  1  0  0  0
 20 36  1  0  0  0
 20 37  1  0  0  0
 22 38  1  0  0  0
 22 39  1  0  0  0
 23 40  1  0  0  0
 23 41  1  0  0  0
M  END
$$$$
