5gvk_ligand
  -I-interpret- 

 58 61  0  0  0  0  0  0  0  0999 V2000
   30.8020  -23.9940   99.5150 N   0  0  0  0  0
   30.4650  -23.8140   98.4150 C   0  0  0  0  0
   30.2520  -21.2880   97.5760 N   0  0  0  0  0
   29.6690  -24.3760   94.8870 C   0  0  0  0  0
   29.5500  -22.9820   94.4910 C   0  0  0  0  0
   29.9910  -22.3320   96.7800 C   0  0  0  0  0
   29.7850  -24.8280   96.3160 C   0  0  0  0  0
   37.4430  -27.6080   91.4090 O   0  0  0  0  0
   37.3680  -26.3560   92.1240 S   0  0  0  0  0
   37.0290  -25.4080   91.1190 O   0  0  0  0  0
   38.7540  -26.1170   92.7860 N   0  0  0  0  0
   39.0710  -27.2310   93.6840 C   0  0  0  0  0
   38.7310  -24.8820   93.5390 C   0  0  0  0  0
   36.0120  -26.3580   93.0590 C   0  0  0  0  0
   34.8110  -26.2950   92.3930 C   0  0  0  0  0
   33.7500  -26.3240   93.2780 C   0  0  0  0  0
   35.8180  -26.4730   94.7680 S   0  0  0  0  0
   34.1040  -26.4030   94.6070 C   0  0  0  0  0
   33.1770  -26.4700   95.7540 C   0  0  0  0  0
   33.3360  -27.2680   96.8940 C   0  0  0  0  0
   32.3060  -27.2440   97.8570 C   0  0  0  0  0
   32.4090  -27.9380   98.9200 C   0  0  0  0  0
   32.5040  -28.5630   99.8770 N   0  0  0  0  0
   31.1740  -26.4740   97.6450 C   0  0  0  0  0
   32.0280  -25.7020   95.5700 C   0  0  0  0  0
   31.0000  -25.6970   96.4940 C   0  0  0  0  0
   28.4680  -25.5330   96.7530 C   0  0  0  0  0
   28.1620  -26.8950   96.0940 C   0  0  0  0  0
   27.2130  -24.6430   96.6780 C   0  0  0  0  0
   30.0940  -23.6120   97.2110 C   0  0  0  0  0
   29.6240  -25.0460   93.5530 C   0  0  0  0  0
   29.6950  -26.5200   93.2170 C   0  0  0  0  0
   29.4990  -24.0720   92.6310 N   0  0  0  0  0
   29.4780  -22.7830   93.1840 N   0  0  0  0  0
   29.5610  -22.0110   95.4330 O   0  0  0  0  0
   30.5393  -21.4428   98.5424 H   0  0  0  0  0
   38.3071  -27.3004   94.4584 H   0  0  0  0  0
   39.0975  -28.1595   93.1137 H   0  0  0  0  0
   40.0434  -27.0587   94.1454 H   0  0  0  0  0
   38.5035  -24.0533   92.8685 H   0  0  0  0  0
   37.9668  -24.9445   94.3138 H   0  0  0  0  0
   39.7054  -24.7209   94.0001 H   0  0  0  0  0
   34.7090  -26.2307   91.3097 H   0  0  0  0  0
   32.7114  -26.2871   92.9493 H   0  0  0  0  0
   34.2237  -27.8853   97.0319 H   0  0  0  0  0
   30.3901  -26.4733   98.4024 H   0  0  0  0  0
   31.9379  -25.0889   94.6733 H   0  0  0  0  0
   28.6985  -25.7382   97.7984 H   0  0  0  0  0
   28.0865  -26.7660   95.0143 H   0  0  0  0  0
   28.9648  -27.5961   96.3221 H   0  0  0  0  0
   27.2194  -27.2813   96.4819 H   0  0  0  0  0
   27.3425  -23.7789   97.3296 H   0  0  0  0  0
   27.0683  -24.3070   95.6512 H   0  0  0  0  0
   26.3433  -25.2156   97.0003 H   0  0  0  0  0
   29.7638  -23.5572   96.1737 H   0  0  0  0  0
   30.6385  -26.9288   93.5787 H   0  0  0  0  0
   28.8651  -27.0406   93.6947 H   0  0  0  0  0
   29.6324  -26.6484   92.1364 H   0  0  0  0  0
  2  1  3  0  0  0
 30  2  1  0  0  0
  6  3  2  0  0  0
  4  5  4  0  0  0
  7  4  1  0  0  0
  4 31  4  0  0  0
  5 34  4  0  0  0
  5 35  1  0  0  0
 30  6  1  0  0  0
  6 35  1  0  0  0
 26  7  1  0  0  0
  7 27  1  0  0  0
  7 30  1  0  0  0
  9  8  2  0  0  0
  9 10  2  0  0  0
  9 11  1  0  0  0
 14  9  1  0  0  0
 11 12  1  0  0  0
 11 13  1  0  0  0
 14 15  4  0  0  0
 17 14  4  0  0  0
 16 15  4  0  0  0
 18 16  4  0  0  0
 18 17  4  0  0  0
 19 18  1  0  0  0
 20 19  4  0  0  0
 19 25  4  0  0  0
 21 20  4  0  0  0
 21 22  1  0  0  0
 24 21  4  0  0  0
 22 23  3  0  0  0
 24 26  4  0  0  0
 25 26  4  0  0  0
 27 28  1  0  0  0
 27 29  1  0  0  0
 31 32  1  0  0  0
 31 33  4  0  0  0
 33 34  4  0  0  0
  3 36  1  0  0  0
 12 37  1  0  0  0
 12 38  1  0  0  0
 12 39  1  0  0  0
 13 40  1  0  0  0
 13 41  1  0  0  0
 13 42  1  0  0  0
 15 43  1  0  0  0
 16 44  1  0  0  0
 20 45  1  0  0  0
 24 46  1  0  0  0
 25 47  1  0  0  0
 27 48  1  0  0  0
 28 49  1  0  0  0
 28 50  1  0  0  0
 28 51  1  0  0  0
 29 52  1  0  0  0
 29 53  1  0  0  0
 29 54  1  0  0  0
 30 55  1  0  0  0
 32 56  1  0  0  0
 32 57  1  0  0  0
 32 58  1  0  0  0
M  END
$$$$
