### 
### Created by X-TOOL on Mon Sep 10 21:13:34 2018
### 

@<TRIPOS>MOLECULE
5gvk_ligand
   59    62     1     0     0
SMALL
GAST_HUCK


@<TRIPOS>ATOM
      1 N9         30.8020  -23.9940   99.5150 N.1       1 G45        -0.3009
      2 C8         30.4650  -23.8140   98.4150 C.1       1 G45         0.1038
      3 N7         30.2520  -21.2880   97.5760 N.2       1 G45        -0.3612
      4 C5         29.6690  -24.3760   94.8870 C.2       1 G45         0.0058
      5 C6         29.5500  -22.9820   94.4910 C.2       1 G45         0.2880
      6 C2         29.9910  -22.3320   96.7800 C.2       1 G45         0.2091
      7 C4         29.7850  -24.8280   96.3160 C.3       1 G45        -0.0055
      8 O35        37.4430  -27.6080   91.4090 O.2       1 G45        -0.1491
      9 S30        37.3680  -26.3560   92.1240 S.o2      1 G45         0.0805
     10 O34        37.0290  -25.4080   91.1190 O.2       1 G45        -0.1491
     11 N31        38.7540  -26.1170   92.7860 N.am      1 G45        -0.2393
     12 C33        39.0710  -27.2310   93.6840 C.3       1 G45         0.0179
     13 C32        38.7310  -24.8820   93.5390 C.3       1 G45         0.0179
     14 C28        36.0120  -26.3580   93.0590 C.2       1 G45         0.1639
     15 C27        34.8110  -26.2950   92.3930 C.2       1 G45        -0.0465
     16 C26        33.7500  -26.3240   93.2780 C.2       1 G45        -0.0655
     17 S29        35.8180  -26.4730   94.7680 S.3       1 G45        -0.0091
     18 C25        34.1040  -26.4030   94.6070 C.2       1 G45         0.0426
     19 C21        33.1770  -26.4700   95.7540 C.ar      1 G45         0.0147
     20 C20        33.3360  -27.2680   96.8940 C.ar      1 G45        -0.0052
     21 C19        32.3060  -27.2440   97.8570 C.ar      1 G45         0.1101
     22 C23        32.4090  -27.9380   98.9200 C.1       1 G45         0.1049
     23 N24        32.5040  -28.5630   99.8770 N.1       1 G45        -0.3275
     24 C18        31.1740  -26.4740   97.6450 C.ar      1 G45        -0.0257
     25 C22        32.0280  -25.7020   95.5700 C.ar      1 G45        -0.0453
     26 C17        31.0000  -25.6970   96.4940 C.ar      1 G45        -0.0773
     27 C14        28.4680  -25.5330   96.7530 C.3       1 G45        -0.0854
     28 C16        28.1620  -26.8950   96.0940 C.3       1 G45        -0.0761
     29 C15        27.2130  -24.6430   96.6780 C.3       1 G45        -0.0761
     30 C3         30.0940  -23.6120   97.2110 C.3       1 G45         0.1417
     31 C10        29.6240  -25.0460   93.5530 C.2       1 G45         0.0148
     32 C13        29.6950  -26.5200   93.2170 C.3       1 G45        -0.0237
     33 N11        29.4990  -24.0720   92.6310 N.2       1 G45        -0.2155
     34 N12        29.4780  -22.7830   93.1840 N.pl3     1 G45        -0.1617
     35 O1         29.5610  -22.0110   95.4330 O.3       1 G45        -0.1436
     36 H1         30.1646  -20.3489   97.2204 H         1 G45         0.0744
     37 H2         40.0522  -27.0582   94.1503 H         1 G45         0.0442
     38 H3         39.0981  -28.1687   93.1096 H         1 G45         0.0442
     39 H4         38.3008  -27.3022   94.4661 H         1 G45         0.0442
     40 H5         39.7139  -24.7183   94.0049 H         1 G45         0.0442
     41 H6         37.9602  -24.9438   94.3213 H         1 G45         0.0442
     42 H7         38.5015  -24.0448   92.8634 H         1 G45         0.0442
     43 H8         34.7091  -26.2307   91.3107 H         1 G45         0.0445
     44 H9         32.7123  -26.2872   92.9496 H         1 G45         0.0445
     45 H10        34.2188  -27.8819   97.0311 H         1 G45         0.0842
     46 H11        30.3944  -26.4733   98.3982 H         1 G45         0.0834
     47 H12        31.9384  -25.0923   94.6782 H         1 G45         0.0796
     48 H13        28.6168  -25.7521   97.8206 H         1 G45         0.0121
     49 H14        27.2109  -27.2859   96.4847 H         1 G45         0.0219
     50 H15        28.9715  -27.6035   96.3235 H         1 G45         0.0219
     51 H16        28.0855  -26.7662   95.0043 H         1 G45         0.0219
     52 H17        27.4247  -23.6704   97.1462 H         1 G45         0.0219
     53 H18        26.3837  -25.1329   97.2093 H         1 G45         0.0219
     54 H19        26.9343  -24.4900   95.6249 H         1 G45         0.0219
     55 H20        29.0407  -23.5856   97.5268 H         1 G45         0.0725
     56 H21        29.6319  -26.6509   92.1266 H         1 G45         0.0396
     57 H22        28.8579  -27.0466   93.6985 H         1 G45         0.0396
     58 H23        30.6468  -26.9338   93.5815 H         1 G45         0.0396
     59 H24        29.4197  -21.8837   92.6853 H         1 G45         0.2634
@<TRIPOS>BOND
     1    2    1 3  
     2   30    2 1  
     3    6    3 2  
     4    4    5 2  
     5    7    4 1  
     6    4   31 1  
     7    5   34 1  
     8    5   35 1  
     9   30    6 1  
    10    6   35 1  
    11   26    7 1  
    12    7   27 1  
    13    7   30 1  
    14    9    8 2  
    15    9   10 2  
    16    9   11 am 
    17   14    9 1  
    18   11   12 1  
    19   11   13 1  
    20   14   15 2  
    21   17   14 1  
    22   16   15 1  
    23   18   16 2  
    24   18   17 1  
    25   19   18 1  
    26   20   19 ar 
    27   19   25 ar 
    28   21   20 ar 
    29   21   22 1  
    30   24   21 ar 
    31   22   23 3  
    32   24   26 ar 
    33   25   26 ar 
    34   27   28 1  
    35   27   29 1  
    36   31   32 1  
    37   31   33 2  
    38   33   34 1  
    39    3   36 1  
    40   12   37 1  
    41   12   38 1  
    42   12   39 1  
    43   13   40 1  
    44   13   41 1  
    45   13   42 1  
    46   15   43 1  
    47   16   44 1  
    48   20   45 1  
    49   24   46 1  
    50   25   47 1  
    51   27   48 1  
    52   28   49 1  
    53   28   50 1  
    54   28   51 1  
    55   29   52 1  
    56   29   53 1  
    57   29   54 1  
    58   30   55 1  
    59   32   56 1  
    60   32   57 1  
    61   32   58 1  
    62   34   59 1  
@<TRIPOS>SUBSTRUCTURE
     1 G45         1

