5WAG_LIGAND
  -I-interpret- 

 23 23  0  0  0  0  0  0  0  0999 V2000
   25.7360  -11.3730  -38.1410 C   0  0  0  0  0
   27.8360  -12.8060  -41.1740 O   0  0  0  0  0
   27.1630  -11.5200  -41.5650 P   0  0  0  0  0
   25.7450  -11.7820  -42.0480 O   0  0  0  0  0
   27.9230  -10.6330  -42.5270 O   0  0  0  0  0
   27.1310  -10.6860  -40.2190 O   0  0  0  0  0
   27.1380  -10.9790  -38.8080 B   0  0  0  0  0
   27.4480   -9.5350  -38.5010 O   0  0  0  0  0
   24.5880  -10.5640  -38.5040 N   0  0  0  0  0
   23.6000  -10.4640  -37.5290 N   0  0  0  0  0
   22.5350   -9.6940  -37.9930 N   0  0  0  0  0
   22.8830   -9.3770  -39.2700 C   0  0  0  0  0
   24.1390   -9.9160  -39.5780 C   0  0  0  0  0
   22.0190   -8.5700  -40.1900 C   0  0  0  0  0
   22.0540   -8.7380  -41.4470 O   0  0  0  0  0
   21.2550   -7.7570  -39.6290 O   0  0  0  0  0
   25.8679  -11.2402  -37.0672 H   0  0  0  0  0
   25.5127  -12.3818  -38.4882 H   0  0  0  0  0
   25.3327  -10.9503  -42.2926 H   0  0  0  0  0
   27.4071   -9.8440  -42.7087 H   0  0  0  0  0
   27.5169   -9.4187  -37.5506 H   0  0  0  0  0
   24.6589   -9.8215  -40.5314 H   0  0  0  0  0
   22.7088   -9.4065  -41.6613 H   0  0  0  0  0
  7  1  1  0  0  0
  1  9  1  0  0  0
  3  2  2  0  0  0
  3  4  1  0  0  0
  3  5  1  0  0  0
  6  3  1  0  0  0
  6  7  1  0  0  0
  7  8  1  0  0  0
  9 10  4  0  0  0
  9 13  4  0  0  0
 10 11  4  0  0  0
 11 12  4  0  0  0
 12 13  4  0  0  0
 12 14  1  0  0  0
 14 15  1  0  0  0
 14 16  2  0  0  0
  1 17  1  0  0  0
  1 18  1  0  0  0
  4 19  1  0  0  0
  5 20  1  0  0  0
  8 21  1  0  0  0
 13 22  1  0  0  0
 15 23  1  0  0  0
M  END
$$$$
