### 
### Created by X-TOOL on Mon Sep 10 21:13:32 2018
### 

@<TRIPOS>MOLECULE
5WAG_LIGAND
   20    20     1     0     0
SMALL
GAST_HUCK


@<TRIPOS>ATOM
      1 C1         25.7360  -11.3730  -38.1410 C.3       1 A0V        -0.1780
      2 O13        27.8360  -12.8060  -41.1740 O.co2     1 A0V        -0.7596
      3 P8         27.1630  -11.5200  -41.5650 P.3       1 A0V        -0.0116
      4 O9         25.7450  -11.7820  -42.0480 O.co2     1 A0V        -0.7596
      5 O10        27.9230  -10.6330  -42.5270 O.co2     1 A0V        -0.7596
      6 O4         27.1310  -10.6860  -40.2190 O.3       1 A0V        -0.2097
      7 B1         27.1380  -10.9790  -38.8080 B         1 A0V         3.0000
      8 O2         27.4480   -9.5350  -38.5010 O.3       1 A0V        -0.8710
      9 N5         24.5880  -10.5640  -38.5040 N.pl3     1 A0V        -0.3205
     10 N9         23.6000  -10.4640  -37.5290 N.2       1 A0V        -0.1231
     11 N8         22.5350   -9.6940  -37.9930 N.2       1 A0V        -0.2155
     12 C7         22.8830   -9.3770  -39.2700 C.2       1 A0V         0.0914
     13 C6         24.1390   -9.9160  -39.5780 C.2       1 A0V         0.0583
     14 C10        22.0190   -8.5700  -40.1900 C.2       1 A0V         0.0601
     15 O11        22.0540   -8.7380  -41.4470 O.co2     1 A0V        -0.5671
     16 O12        21.2550   -7.7570  -39.6290 O.co2     1 A0V        -0.5671
     17 H          25.8679  -11.2402  -37.0672 H         1 A0V        -0.1723
     18 H          25.5127  -12.3818  -38.4882 H         1 A0V        -0.1723
     19 H          26.7444   -8.9783  -38.8425 H         1 A0V        -0.1290
     20 H          24.6589   -9.8215  -40.5314 H         1 A0V         0.1061
@<TRIPOS>BOND
     1    7    1 1  
     2    1    9 1  
     3    3    2 ar 
     4    3    4 ar 
     5    3    5 ar 
     6    6    3 1  
     7    6    7 1  
     8    7    8 1  
     9    9   10 1  
    10    9   13 1  
    11   10   11 2  
    12   11   12 1  
    13   12   13 2  
    14   12   14 1  
    15   14   15 ar 
    16   14   16 ar 
    17    1   17 1  
    18    1   18 1  
    19    8   19 1  
    20   13   20 1  
@<TRIPOS>SUBSTRUCTURE
     1 A0V         1

