3gf2_ligand
  -I-interpret- 

 16 16  0  0  0  0  0  0  0  0999 V2000
    2.9440   -3.3030  -25.4070 C   0  0  0  0  0
    2.6870   -4.1750  -26.2120 O   0  0  0  0  0
    3.9230   -2.4180  -25.6840 O   0  0  0  0  0
    2.1890   -3.2040  -24.1180 C   0  0  0  0  0
    1.1350   -4.1300  -23.7850 C   0  0  0  0  0
    0.4520   -3.9930  -22.5490 C   0  0  0  0  0
    0.7980   -2.9660  -21.6500 C   0  0  0  0  0
    1.8270   -2.0560  -21.9670 C   0  0  0  0  0
    2.5210   -2.1670  -23.1850 C   0  0  0  0  0
    0.7880   -5.1280  -24.6450 O   0  0  0  0  0
    4.0059   -1.7963  -24.9572 H   0  0  0  0  0
   -0.3473   -4.6886  -22.2932 H   0  0  0  0  0
    0.2667   -2.8740  -20.7027 H   0  0  0  0  0
    2.0857   -1.2632  -21.2652 H   0  0  0  0  0
    3.3164   -1.4602  -23.4214 H   0  0  0  0  0
    0.0739   -5.6438  -24.2634 H   0  0  0  0  0
  1  2  2  0  0  0
  1  3  1  0  0  0
  1  4  1  0  0  0
  4  5  4  0  0  0
  4  9  4  0  0  0
  5  6  4  0  0  0
  5 10  1  0  0  0
  6  7  4  0  0  0
  7  8  4  0  0  0
  8  9  4  0  0  0
  3 11  1  0  0  0
  6 12  1  0  0  0
  7 13  1  0  0  0
  8 14  1  0  0  0
  9 15  1  0  0  0
 10 16  1  0  0  0
M  END
$$$$
