6r7j_ligand
  -I-interpret- 

 55 56  0  0  0  0  0  0  0  0999 V2000
  -24.3850   -0.7210  -16.9500 C   0  0  0  0  0
  -24.2650   -2.1860  -16.5690 C   0  0  0  0  0
  -26.7460   -2.9970  -17.1810 O   0  0  0  0  0
  -25.4230   -4.1780  -15.3910 O   0  0  0  0  0
  -27.5840   -1.1190  -15.2250 C   0  0  0  0  0
  -28.1630   -0.2870  -14.2920 C   0  0  0  0  0
  -27.6280   -0.2300  -13.0240 C   0  0  0  0  0
  -26.5370   -1.0180  -12.6840 C   0  0  0  0  0
  -25.9770   -1.8840  -13.5980 C   0  0  0  0  0
  -28.2110    0.7550  -12.0640 C   0  0  0  0  0
  -28.4100    1.2340   -9.6540 C   0  0  0  0  0
  -28.2910    0.5740   -8.3070 C   0  0  0  0  0
  -28.2050    4.1560  -13.6400 C   0  0  0  0  0
  -29.0540    4.6820  -14.5900 C   0  0  0  0  0
  -28.7630    5.9170  -15.1460 C   0  0  0  0  0
  -26.8090    6.1090  -13.8160 C   0  0  0  0  0
  -28.4700    9.0030  -15.0540 C   0  0  0  0  0
  -25.8030   -2.9700  -16.0830 S   0  0  0  0  0
  -26.5060   -1.8950  -14.8670 C   0  0  0  0  0
  -27.8680    0.4860  -10.6730 N   0  0  0  0  0
  -28.9060    2.3410   -9.7950 O   0  0  0  0  0
  -27.6360    2.1240  -12.3880 C   0  0  0  0  0
  -26.5160    2.4870  -12.0750 O   0  0  0  0  0
  -28.5290    2.9080  -13.0620 N   0  0  0  0  0
  -27.6490    6.6570  -14.7650 C   0  0  0  0  0
  -27.0790    4.8690  -13.2650 C   0  0  0  0  0
  -27.3340    8.0290  -15.3340 C   0  0  0  0  0
  -26.2300    8.6150  -14.6500 O   0  0  0  0  0
  -27.0020    8.0030  -16.8230 C   0  0  0  0  0
  -28.1190    7.7100  -17.5430 F   0  0  0  0  0
  -26.0020    7.1270  -17.1570 F   0  0  0  0  0
  -26.5840    9.2320  -17.2310 F   0  0  0  0  0
  -28.7650    9.0420  -13.7330 F   0  0  0  0  0
  -28.0890   10.2620  -15.3600 F   0  0  0  0  0
  -29.6100    8.6930  -15.7460 F   0  0  0  0  0
  -25.0678   -0.6211  -17.7937 H   0  0  0  0  0
  -24.7697   -0.1564  -16.1007 H   0  0  0  0  0
  -23.4033   -0.3376  -17.2281 H   0  0  0  0  0
  -23.6007   -2.2337  -15.7061 H   0  0  0  0  0
  -23.9084   -2.7134  -17.4537 H   0  0  0  0  0
  -27.9776   -1.1621  -16.2405 H   0  0  0  0  0
  -29.0317    0.3173  -14.5534 H   0  0  0  0  0
  -26.1175   -0.9509  -11.6802 H   0  0  0  0  0
  -25.1466   -2.5353  -13.3254 H   0  0  0  0  0
  -29.2941    0.6936  -12.1702 H   0  0  0  0  0
  -27.6829    1.1969   -7.6511 H   0  0  0  0  0
  -29.2842    0.4509   -7.8751 H   0  0  0  0  0
  -27.8200   -0.4022   -8.4225 H   0  0  0  0  0
  -29.9432    4.1331  -14.8999 H   0  0  0  0  0
  -29.4294    6.3222  -15.9075 H   0  0  0  0  0
  -25.9236    6.6593  -13.4975 H   0  0  0  0  0
  -27.2169   -0.2675  -10.4523 H   0  0  0  0  0
  -29.4877    2.5721  -13.1535 H   0  0  0  0  0
  -26.3967    4.4481  -12.5264 H   0  0  0  0  0
  -25.4525    8.0646  -14.7691 H   0  0  0  0  0
  2  1  1  0  0  0
 18  2  1  0  0  0
 18  3  2  0  0  0
 18  4  2  0  0  0
  6  5  4  0  0  0
  5 19  4  0  0  0
  7  6  4  0  0  0
  7  8  4  0  0  0
 10  7  1  0  0  0
  8  9  4  0  0  0
  9 19  4  0  0  0
 10 20  1  0  0  0
 22 10  1  0  0  0
 11 12  1  0  0  0
 20 11  1  0  0  0
 11 21  2  0  0  0
 14 13  4  0  0  0
 13 24  1  0  0  0
 26 13  4  0  0  0
 15 14  4  0  0  0
 25 15  4  0  0  0
 25 16  4  0  0  0
 16 26  4  0  0  0
 27 17  1  0  0  0
 17 33  1  0  0  0
 17 34  1  0  0  0
 17 35  1  0  0  0
 19 18  1  0  0  0
 22 23  2  0  0  0
 24 22  1  0  0  0
 25 27  1  0  0  0
 27 28  1  0  0  0
 27 29  1  0  0  0
 29 30  1  0  0  0
 29 31  1  0  0  0
 29 32  1  0  0  0
  1 36  1  0  0  0
  1 37  1  0  0  0
  1 38  1  0  0  0
  2 39  1  0  0  0
  2 40  1  0  0  0
  5 41  1  0  0  0
  6 42  1  0  0  0
  8 43  1  0  0  0
  9 44  1  0  0  0
 10 45  1  0  0  0
 12 46  1  0  0  0
 12 47  1  0  0  0
 12 48  1  0  0  0
 14 49  1  0  0  0
 15 50  1  0  0  0
 16 51  1  0  0  0
 20 52  1  0  0  0
 24 53  1  0  0  0
 26 54  1  0  0  0
 28 55  1  0  0  0
M  END
$$$$
