4kxb_ligand
  -I-interpret- 

 47 47  0  0  0  0  0  0  0  0999 V2000
   -9.9300   38.6770   44.7080 N   0  3  0  0  0
  -10.9390   38.8690   43.6850 C   0  0  0  0  0
  -12.3350   38.9540   44.2950 C   0  0  0  0  0
  -12.7730   40.3920   44.4410 C   0  0  0  0  0
  -13.2990   41.0770   43.3530 C   0  0  0  0  0
  -12.6550   41.0360   45.6700 C   0  0  0  0  0
  -13.7010   42.4040   43.4970 C   0  0  0  0  0
  -13.0540   42.3650   45.8120 C   0  0  0  0  0
  -13.5820   43.0540   44.7230 C   0  0  0  0  0
  -10.8520   37.7070   42.7110 C   0  0  0  0  0
   -9.5030   37.2150   42.7190 O   0  0  0  0  0
  -11.2530   38.1880   41.3460 C   0  0  0  0  0
  -10.6060   39.0440   40.7930 O   0  0  0  0  0
  -12.3320   37.6560   40.7860 N   0  0  0  0  0
  -12.9010   38.1710   39.5570 C   0  0  0  0  0
  -12.7630   37.1410   38.4390 C   0  0  0  0  0
  -11.4090   37.2180   37.7350 C   0  0  0  0  0
  -11.2700   36.0930   36.7200 C   0  0  0  0  0
  -11.1810   38.5580   37.0450 C   0  0  0  0  0
  -14.3300   38.5840   39.7460 C   0  0  0  0  0
  -14.8390   38.4160   40.8730 O   0  0  0  0  0
  -14.9570   39.0870   38.7850 O   0  0  0  0  0
   -9.9716   39.4485   45.3739 H   0  0  0  0  0
  -10.1034   37.7971   45.1939 H   0  0  0  0  0
   -9.0076   38.6508   44.2734 H   0  0  0  0  0
  -10.7583   39.8103   43.1660 H   0  0  0  0  0
  -12.3149   38.4919   45.2820 H   0  0  0  0  0
  -13.0363   38.4390   43.6384 H   0  0  0  0  0
  -13.3972   40.5780   42.3889 H   0  0  0  0  0
  -12.2483   40.4982   46.5264 H   0  0  0  0  0
  -14.1128   42.9386   42.6410 H   0  0  0  0  0
  -12.9525   42.8644   46.7755 H   0  0  0  0  0
  -13.8989   44.0915   44.8291 H   0  0  0  0  0
  -11.5229   36.8969   42.9968 H   0  0  0  0  0
   -9.2779   36.9160   43.6030 H   0  0  0  0  0
  -12.7766   36.8562   41.2367 H   0  0  0  0  0
  -12.3451   39.0639   39.2710 H   0  0  0  0  0
  -13.5381   37.3420   37.6995 H   0  0  0  0  0
  -12.8552   36.1495   38.8824 H   0  0  0  0  0
  -10.6500   37.1130   38.5102 H   0  0  0  0  0
  -11.3499   35.1331   37.2302 H   0  0  0  0  0
  -12.0617   36.1772   35.9755 H   0  0  0  0  0
  -10.2992   36.1656   36.2297 H   0  0  0  0  0
  -11.9572   38.7164   36.2963 H   0  0  0  0  0
  -11.2196   39.3574   37.7849 H   0  0  0  0  0
  -10.2038   38.5550   36.5621 H   0  0  0  0  0
  -14.3842   39.1253   38.0156 H   0  0  0  0  0
  1  2  1  0  0  0
  2  3  1  0  0  0
  2 10  1  0  0  0
  3  4  1  0  0  0
  4  5  4  0  0  0
  4  6  4  0  0  0
  5  7  4  0  0  0
  6  8  4  0  0  0
  7  9  4  0  0  0
  8  9  4  0  0  0
 10 11  1  0  0  0
 10 12  1  0  0  0
 12 13  2  0  0  0
 12 14  1  0  0  0
 14 15  1  0  0  0
 15 16  1  0  0  0
 15 20  1  0  0  0
 16 17  1  0  0  0
 17 18  1  0  0  0
 17 19  1  0  0  0
 20 21  2  0  0  0
 20 22  1  0  0  0
  1 23  1  0  0  0
  1 24  1  0  0  0
  1 25  1  0  0  0
  2 26  1  0  0  0
  3 27  1  0  0  0
  3 28  1  0  0  0
  5 29  1  0  0  0
  6 30  1  0  0  0
  7 31  1  0  0  0
  8 32  1  0  0  0
  9 33  1  0  0  0
 10 34  1  0  0  0
 11 35  1  0  0  0
 14 36  1  0  0  0
 15 37  1  0  0  0
 16 38  1  0  0  0
 16 39  1  0  0  0
 17 40  1  0  0  0
 18 41  1  0  0  0
 18 42  1  0  0  0
 18 43  1  0  0  0
 19 44  1  0  0  0
 19 45  1  0  0  0
 19 46  1  0  0  0
 22 47  1  0  0  0
M  END
$$$$
