4d63_ligand
  -I-interpret- 

 40 40  0  0  0  0  0  0  0  0999 V2000
   47.6050   12.2140   31.6170 C   0  0  0  0  0
   46.9600   12.2940   32.9960 C   0  0  0  0  0
   46.4460   13.7170   33.2950 C   0  0  0  0  0
   45.1310   14.0370   32.5710 C   0  0  0  0  0
   44.1130   12.9680   32.9380 C   0  0  0  0  0
   44.6570   11.6070   32.4740 C   0  0  0  0  0
   43.7520   10.4200   32.8060 C   0  0  0  0  0
   44.4580    9.0580   32.6560 C   0  0  0  0  0
   44.5140    8.2660   33.9670 C   0  0  0  0  0
   41.7090   13.4310   33.1230 C   0  0  0  0  0
   40.4520   13.9670   32.4740 C   0  0  0  0  0
   42.8190   13.3500   32.3860 N   0  0  0  0  0
   47.9130   13.2850   31.0420 O   0  0  0  0  0
   47.8340   11.0890   31.1030 O   0  0  0  0  0
   47.9310   11.8730   33.9820 O   0  0  0  0  0
   44.5990   15.3370   32.9160 O   0  0  0  0  0
   45.8870   11.3620   33.1570 O   0  0  0  0  0
   43.2870   10.5960   34.1570 O   0  0  0  0  0
   43.8120    8.2240   31.6880 O   0  0  0  0  0
   45.4880    7.2190   33.8560 O   0  0  0  0  0
   41.6990   13.0970   34.2850 O   0  0  0  0  0
   47.1993   14.4244   32.9483 H   0  0  0  0  0
   46.2633   13.7881   34.3672 H   0  0  0  0  0
   45.3339   14.0510   31.5001 H   0  0  0  0  0
   43.9551   12.8753   34.0125 H   0  0  0  0  0
   44.7487   11.6750   31.3900 H   0  0  0  0  0
   42.9251   10.4030   32.0961 H   0  0  0  0  0
   45.4694    9.3079   32.3355 H   0  0  0  0  0
   43.5355    7.8302   34.1687 H   0  0  0  0  0
   44.7921    8.9342   34.7820 H   0  0  0  0  0
   39.6687   13.2106   32.5224 H   0  0  0  0  0
   40.1262   14.8635   33.0015 H   0  0  0  0  0
   40.6586   14.2118   31.4321 H   0  0  0  0  0
   42.7590   13.5653   31.3908 H   0  0  0  0  0
   47.5259   10.3991   31.6953 H   0  0  0  0  0
   48.6959   12.4519   33.9437 H   0  0  0  0  0
   45.2388   16.0147   32.6858 H   0  0  0  0  0
   42.8501   11.4472   34.2355 H   0  0  0  0  0
   44.2800    7.3882   31.6242 H   0  0  0  0  0
   45.5204    6.7251   34.6786 H   0  0  0  0  0
  2  1  1  0  0  0
  1 13  2  0  0  0
  1 14  1  0  0  0
  3  2  1  0  0  0
  2 15  1  0  0  0
 17  2  1  0  0  0
  4  3  1  0  0  0
  5  4  1  0  0  0
  4 16  1  0  0  0
  5  6  1  0  0  0
 12  5  1  0  0  0
  6  7  1  0  0  0
  6 17  1  0  0  0
  7  8  1  0  0  0
  7 18  1  0  0  0
  8  9  1  0  0  0
  8 19  1  0  0  0
  9 20  1  0  0  0
 10 11  1  0  0  0
 10 12  1  0  0  0
 10 21  2  0  0  0
  3 22  1  0  0  0
  3 23  1  0  0  0
  4 24  1  0  0  0
  5 25  1  0  0  0
  6 26  1  0  0  0
  7 27  1  0  0  0
  8 28  1  0  0  0
  9 29  1  0  0  0
  9 30  1  0  0  0
 11 31  1  0  0  0
 11 32  1  0  0  0
 11 33  1  0  0  0
 12 34  1  0  0  0
 14 35  1  0  0  0
 15 36  1  0  0  0
 16 37  1  0  0  0
 18 38  1  0  0  0
 19 39  1  0  0  0
 20 40  1  0  0  0
M  END
$$$$
