1zfp_ligand
  -I-interpret- 

110111  0  0  0  0  0  0  0  0999 V2000
   30.1940   31.7110   79.6200 C   0  0  0  0  0
   30.9670   30.7750   79.4120 O   0  0  0  0  0
   30.0510   32.2540   80.9230 C   0  0  0  0  0
   31.0980   32.1580   81.8640 C   0  0  0  0  0
   30.9410   32.7350   83.1260 C   0  0  0  0  0
   32.2450   31.5360   81.5990 N   0  0  0  0  0
   29.7650   33.4060   83.4580 C   0  0  0  0  0
   28.7350   33.5010   82.5300 C   0  0  0  0  0
   28.8830   32.9350   81.2630 C   0  0  0  0  0
   29.4580   32.2570   78.6510 N   0  0  0  0  0
   29.5500   31.8020   77.2710 C   0  0  0  0  0
   30.8390   32.3280   76.6490 C   0  0  0  0  0
   31.2130   33.4780   76.8640 O   0  0  0  0  0
   28.3500   32.3140   76.4510 C   0  0  0  0  0
   28.3530   31.8950   74.9670 C   0  0  0  0  0
   27.2480   32.5680   74.1940 C   0  0  0  0  0
   26.1920   32.9120   74.7040 O   0  0  0  0  0
   27.5930   32.8640   72.9680 O   0  0  0  0  0
   31.4960   31.4730   75.8700 N   0  0  0  0  0
   32.7070   31.8180   75.1650 C   0  0  0  0  0
   32.4350   31.5810   73.6820 C   0  0  0  0  0
   31.7890   30.5950   73.3340 O   0  0  0  0  0
   33.9060   31.0270   75.6290 C   0  0  0  0  0
   34.3430   31.2720   76.9600 C   0  0  0  0  0
   35.2210   32.3370   77.2710 C   0  0  0  0  0
   33.9790   30.4300   78.0270 C   0  0  0  0  0
   35.7010   32.5620   78.5910 C   0  0  0  0  0
   34.4380   30.6500   79.3360 C   0  0  0  0  0
   35.2760   31.7270   79.6360 C   0  0  0  0  0
   35.7390   31.8210   80.9480 O   0  0  0  0  0
   35.6010   33.0090   81.7780 P   0  0  0  0  0
   35.0370   32.6120   82.9790 O   0  0  0  0  0
   34.8250   34.0190   81.2130 O   0  0  0  0  0
   36.8710   33.4710   82.0100 O   0  0  0  0  0
   32.9060   32.4900   72.8150 N   0  0  0  0  0
   32.6920   32.3580   71.3790 C   0  0  0  0  0
   33.3400   31.0920   70.8410 C   0  0  0  0  0
   32.7570   30.3730   70.0250 O   0  0  0  0  0
   33.2240   33.5890   70.6080 C   0  0  0  0  0
   32.5780   34.8700   71.1130 C   0  0  0  0  0
   33.0150   33.4370   69.0900 C   0  0  0  0  0
   31.0500   34.8520   71.0110 C   0  0  0  0  0
   34.5650   30.8300   71.2950 N   0  0  0  0  0
   35.3200   29.6760   70.8370 C   0  0  0  0  0
   35.1140   28.3750   71.5890 C   0  0  0  0  0
   35.9480   27.4880   71.4860 O   0  0  0  0  0
   36.8070   30.0040   70.6850 C   0  0  0  0  0
   37.4480   30.3660   72.0060 C   0  0  0  0  0
   36.7650   30.7850   72.9480 O   0  0  0  0  0
   38.7480   30.0830   72.1120 N   0  0  0  0  0
   34.0110   28.2770   72.3230 N   0  0  0  0  0
   33.6780   27.0780   73.0810 C   0  0  0  0  0
   32.2430   26.6820   72.7620 C   0  0  0  0  0
   31.9860   25.6040   72.2380 O   0  0  0  0  0
   33.7650   27.3350   74.5950 C   0  0  0  0  0
   34.5670   26.2790   75.3710 C   0  0  0  0  0
   36.0620   26.3690   75.1250 C   0  0  0  0  0
   36.8620   26.1290   76.0480 O   0  0  0  0  0
   36.4360   26.3730   73.8500 N   0  0  0  0  0
   31.3100   27.5630   73.0510 N   0  0  0  0  0
   31.7452   32.6600   83.8580 H   0  0  0  0  0
   32.3926   31.1055   80.6862 H   0  0  0  0  0
   32.9761   31.4900   82.3088 H   0  0  0  0  0
   29.6535   33.8557   84.4446 H   0  0  0  0  0
   27.8115   34.0176   82.7917 H   0  0  0  0  0
   28.0786   33.0261   80.5331 H   0  0  0  0  0
   28.8138   33.0131   78.8828 H   0  0  0  0  0
   29.5462   30.7120   77.2625 H   0  0  0  0  0
   28.3946   33.4029   76.4719 H   0  0  0  0  0
   27.4545   31.8835   76.8990 H   0  0  0  0  0
   28.2006   30.8170   74.9148 H   0  0  0  0  0
   29.3066   32.1901   74.5293 H   0  0  0  0  0
   28.4585   32.4927   72.7818 H   0  0  0  0  0
   31.1261   30.5282   75.7660 H   0  0  0  0  0
   32.9599   32.8593   75.3643 H   0  0  0  0  0
   34.7318   31.3168   74.9793 H   0  0  0  0  0
   33.6110   29.9783   75.5936 H   0  0  0  0  0
   35.5401   33.0072   76.4728 H   0  0  0  0  0
   33.3218   29.5825   77.8320 H   0  0  0  0  0
   36.3952   33.3785   78.7898 H   0  0  0  0  0
   34.1353   29.9689   80.1314 H   0  0  0  0  0
   34.1473   32.2876   82.8217 H   0  0  0  0  0
   33.9380   33.6882   81.0536 H   0  0  0  0  0
   33.4263   33.2927   73.1690 H   0  0  0  0  0
   31.6151   32.2949   71.2230 H   0  0  0  0  0
   34.2965   33.6510   70.7922 H   0  0  0  0  0
   32.9419   35.6908   70.4949 H   0  0  0  0  0
   32.8387   34.9801   72.1656 H   0  0  0  0  0
   33.5461   32.5526   68.7382 H   0  0  0  0  0
   31.9507   33.3308   68.8799 H   0  0  0  0  0
   33.4007   34.3204   68.5812 H   0  0  0  0  0
   30.7582   34.7226   69.9688 H   0  0  0  0  0
   30.6572   34.0267   71.6048 H   0  0  0  0  0
   30.6509   35.7940   71.3871 H   0  0  0  0  0
   34.9840   31.4563   71.9825 H   0  0  0  0  0
   34.8854   29.4689   69.8591 H   0  0  0  0  0
   36.8996   30.8599   70.0164 H   0  0  0  0  0
   37.3115   29.1208   70.2932 H   0  0  0  0  0
   39.2265   30.2099   73.0038 H   0  0  0  0  0
   39.2630   29.7398   71.3012 H   0  0  0  0  0
   33.3726   29.0718   72.3572 H   0  0  0  0  0
   34.3842   26.2940   72.8076 H   0  0  0  0  0
   32.7466   27.3130   74.9829 H   0  0  0  0  0
   34.2761   28.2883   74.7295 H   0  0  0  0  0
   34.2342   25.2969   75.0351 H   0  0  0  0  0
   34.3951   26.4473   76.4341 H   0  0  0  0  0
   37.4055   26.1752   73.6023 H   0  0  0  0  0
   35.7536   26.5739   73.1190 H   0  0  0  0  0
   30.3332   27.3596   72.8390 H   0  0  0  0  0
   31.5633   28.4496   73.4871 H   0  0  0  0  0
  1  3  1  0  0  0
  1  2  2  0  0  0
  3  9  4  0  0  0
  3  4  4  0  0  0
  4  6  1  0  0  0
  4  5  4  0  0  0
  5  7  4  0  0  0
  8  7  4  0  0  0
  9  8  4  0  0  0
 12 11  1  0  0  0
 11 14  1  0  0  0
 11 10  1  0  0  0
 14 15  1  0  0  0
 15 16  1  0  0  0
 16 17  2  0  0  0
 16 18  1  0  0  0
 12 13  2  0  0  0
 20 19  1  0  0  0
 20 23  1  0  0  0
 21 20  1  0  0  0
 21 22  2  0  0  0
 23 24  1  0  0  0
 24 26  4  0  0  0
 24 25  4  0  0  0
 25 27  4  0  0  0
 27 29  4  0  0  0
 29 30  1  0  0  0
 28 29  4  0  0  0
 26 28  4  0  0  0
 30 31  1  0  0  0
 31 34  2  0  0  0
 31 33  1  0  0  0
 31 32  1  0  0  0
 36 37  1  0  0  0
 36 39  1  0  0  0
 35 36  1  0  0  0
 39 40  1  0  0  0
 39 41  1  0  0  0
 40 42  1  0  0  0
 37 38  2  0  0  0
 44 45  1  0  0  0
 44 47  1  0  0  0
 43 44  1  0  0  0
 47 48  1  0  0  0
 48 49  2  0  0  0
 48 50  1  0  0  0
 45 46  2  0  0  0
 52 53  1  0  0  0
 52 55  1  0  0  0
 51 52  1  0  0  0
 55 56  1  0  0  0
 56 57  1  0  0  0
 57 58  2  0  0  0
 57 59  1  0  0  0
 53 54  2  0  0  0
 37 43  1  0  0  0
 45 51  1  0  0  0
 10  1  1  0  0  0
 19 12  1  0  0  0
 21 35  1  0  0  0
 53 60  1  0  0  0
  5 61  1  0  0  0
  6 62  1  0  0  0
  6 63  1  0  0  0
  7 64  1  0  0  0
  8 65  1  0  0  0
  9 66  1  0  0  0
 10 67  1  0  0  0
 11 68  1  0  0  0
 14 69  1  0  0  0
 14 70  1  0  0  0
 15 71  1  0  0  0
 15 72  1  0  0  0
 18 73  1  0  0  0
 19 74  1  0  0  0
 20 75  1  0  0  0
 23 76  1  0  0  0
 23 77  1  0  0  0
 25 78  1  0  0  0
 26 79  1  0  0  0
 27 80  1  0  0  0
 28 81  1  0  0  0
 32 82  1  0  0  0
 33 83  1  0  0  0
 35 84  1  0  0  0
 36 85  1  0  0  0
 39 86  1  0  0  0
 40 87  1  0  0  0
 40 88  1  0  0  0
 41 89  1  0  0  0
 41 90  1  0  0  0
 41 91  1  0  0  0
 42 92  1  0  0  0
 42 93  1  0  0  0
 42 94  1  0  0  0
 43 95  1  0  0  0
 44 96  1  0  0  0
 47 97  1  0  0  0
 47 98  1  0  0  0
 50 99  1  0  0  0
 50100  1  0  0  0
 51101  1  0  0  0
 52102  1  0  0  0
 55103  1  0  0  0
 55104  1  0  0  0
 56105  1  0  0  0
 56106  1  0  0  0
 59107  1  0  0  0
 59108  1  0  0  0
 60109  1  0  0  0
 60110  1  0  0  0
M  END
$$$$
