### 
### Created by X-TOOL on Mon Sep 10 21:12:46 2018
### 

@<TRIPOS>MOLECULE
1zfp_ligand
  107   108     1     0     0
SMALL
GAST_HUCK


@<TRIPOS>ATOM
      1 C          30.1940   31.7110   79.6200 C.2       1 BE2         0.1989
      2 O1         30.9670   30.7750   79.4120 O.2       1 BE2        -0.3920
      3 C1         30.0510   32.2540   80.9230 C.ar      1 BE2         0.0668
      4 C2         31.0980   32.1580   81.8640 C.ar      1 BE2         0.0569
      5 C3         30.9410   32.7350   83.1260 C.ar      1 BE2        -0.0383
      6 N2         32.2450   31.5360   81.5990 N.pl3     1 BE2        -0.3324
      7 C4         29.7650   33.4060   83.4580 C.ar      1 BE2        -0.0691
      8 C5         28.7350   33.5010   82.5300 C.ar      1 BE2        -0.0693
      9 C6         28.8830   32.9350   81.2630 C.ar      1 BE2        -0.0534
     10 N          29.4580   32.2570   78.6510 N.am      1 GLU        -0.2671
     11 CA         29.5500   31.8020   77.2710 C.3       1 GLU         0.1317
     12 C          30.8390   32.3280   76.6490 C.2       1 GLU         0.2041
     13 O          31.2130   33.4780   76.8640 O.2       1 GLU        -0.3944
     14 CB         28.3500   32.3140   76.4510 C.3       1 GLU        -0.0009
     15 CG         28.3530   31.8950   74.9670 C.3       1 GLU         0.0044
     16 CD         27.2480   32.5680   74.1940 C.2       1 GLU         0.0350
     17 OE1        26.1920   32.9120   74.7040 O.co2     1 GLU        -0.5690
     18 OE2        27.5930   32.8640   72.9680 O.co2     1 GLU        -0.5690
     19 N          31.4960   31.4730   75.8700 N.am      1 PTR        -0.2607
     20 CA         32.7070   31.8180   75.1650 C.3       1 PTR         0.1468
     21 C          32.4350   31.5810   73.6820 C.2       1 PTR         0.2074
     22 O          31.7890   30.5950   73.3340 O.2       1 PTR        -0.3941
     23 CB         33.9060   31.0270   75.6290 C.3       1 PTR         0.0400
     24 CG         34.3430   31.2720   76.9600 C.ar      1 PTR        -0.0004
     25 CD1        35.2210   32.3370   77.2710 C.ar      1 PTR        -0.0239
     26 CD2        33.9790   30.4300   78.0270 C.ar      1 PTR        -0.0239
     27 CE1        35.7010   32.5620   78.5910 C.ar      1 PTR         0.0115
     28 CE2        34.4380   30.6500   79.3360 C.ar      1 PTR         0.0115
     29 CZ         35.2760   31.7270   79.6360 C.ar      1 PTR         0.1728
     30 OH         35.7390   31.8210   80.9480 O.3       1 PTR        -0.2040
     31 P          35.6010   33.0090   81.7780 P.3       1 PTR         0.1348
     32 O1P        35.0370   32.6120   82.9790 O.co2     1 PTR        -0.6653
     33 O2P        34.8250   34.0190   81.2130 O.co2     1 PTR        -0.6653
     34 O3P        36.8710   33.4710   82.0100 O.co2     1 PTR        -0.6653
     35 N          32.9060   32.4900   72.8150 N.am      1 ILE        -0.2632
     36 CA         32.6920   32.3580   71.3790 C.3       1 ILE         0.1335
     37 C          33.3400   31.0920   70.8410 C.2       1 ILE         0.2043
     38 O          32.7570   30.3730   70.0250 O.2       1 ILE        -0.3944
     39 CB         33.2240   33.5890   70.6080 C.3       1 ILE        -0.0037
     40 CG1        32.5780   34.8700   71.1130 C.3       1 ILE        -0.0491
     41 CG2        33.0150   33.4370   69.0900 C.3       1 ILE        -0.0582
     42 CD1        31.0500   34.8520   71.0110 C.3       1 ILE        -0.0648
     43 N          34.5650   30.8300   71.2950 N.am      1 ASN        -0.2616
     44 CA         35.3200   29.6760   70.8370 C.3       1 ASN         0.1476
     45 C          35.1140   28.3750   71.5890 C.2       1 ASN         0.2063
     46 O          35.9480   27.4880   71.4860 O.2       1 ASN        -0.3942
     47 CB         36.8070   30.0040   70.6850 C.3       1 ASN         0.0773
     48 CG         37.4480   30.3660   72.0060 C.2       1 ASN         0.1780
     49 OD1        36.7650   30.7850   72.9480 O.2       1 ASN        -0.3970
     50 ND2        38.7480   30.0830   72.1120 N.am      1 ASN        -0.3007
     51 N          34.0110   28.2770   72.3230 N.am      1 GLN        -0.2635
     52 CA         33.6780   27.0780   73.0810 C.3       1 GLN         0.1327
     53 C          32.2430   26.6820   72.7620 C.2       1 GLN         0.1993
     54 O          31.9860   25.6040   72.2380 O.2       1 GLN        -0.3947
     55 CB         33.7650   27.3350   74.5950 C.3       1 GLN         0.0045
     56 CG         34.5670   26.2790   75.3710 C.3       1 GLN         0.0412
     57 CD         36.0620   26.3690   75.1250 C.2       1 GLN         0.1737
     58 OE1        36.8620   26.1290   76.0480 O.2       1 GLN        -0.3973
     59 NE2        36.4360   26.3730   73.8500 N.am      1 GLN        -0.3009
     60 N          31.3100   27.5630   73.0510 N.am      1 NH2        -0.2990
     61 H1         31.7407   32.6605   83.8540 H         1 BE2         0.0528
     62 H2         32.3934   31.0997   80.6779 H         1 BE2         0.1745
     63 H3         32.9840   31.4912   82.3151 H         1 BE2         0.1745
     64 H4         29.6541   33.8533   84.4392 H         1 BE2         0.0619
     65 H5         27.8166   34.0147   82.7902 H         1 BE2         0.0519
     66 H6         28.0830   33.0256   80.5371 H         1 BE2         0.0634
     67 H7         28.8264   32.9983   78.8782 H         1 GLU         0.1871
     68 H8         29.5573   30.7022   77.2537 H         1 GLU         0.0800
     69 H9         28.3492   33.4131   76.4959 H         1 GLU         0.0330
     70 H10        27.4299   31.9274   76.9135 H         1 GLU         0.0330
     71 H11        28.2188   30.8050   74.9043 H         1 GLU         0.0433
     72 H12        29.3195   32.1717   74.5207 H         1 GLU         0.0433
     73 H13        31.1333   30.5467   75.7680 H         1 PTR         0.1886
     74 H14        32.9205   32.8847   75.3278 H         1 PTR         0.0840
     75 H15        34.7426   31.2582   74.9532 H         1 PTR         0.0584
     76 H16        33.6548   29.9590   75.5495 H         1 PTR         0.0584
     77 H17        35.5384   33.0035   76.4772 H         1 PTR         0.0703
     78 H18        33.3254   29.5872   77.8331 H         1 PTR         0.0703
     79 H19        36.3913   33.3740   78.7888 H         1 PTR         0.0736
     80 H20        34.1370   29.9727   80.1270 H         1 PTR         0.0736
     81 H21        33.4161   33.2770   73.1621 H         1 ILE         0.1883
     82 H22        31.6080   32.2888   71.2053 H         1 ILE         0.0803
     83 H23        34.3059   33.6594   70.7937 H         1 ILE         0.0345
     84 H24        32.9588   35.7127   70.5174 H         1 ILE         0.0267
     85 H25        32.8569   35.0107   72.1677 H         1 ILE         0.0267
     86 H26        33.4891   32.5059   68.7461 H         1 ILE         0.0235
     87 H27        33.4688   34.2934   68.5698 H         1 ILE         0.0235
     88 H28        31.9378   33.4030   68.8697 H         1 ILE         0.0235
     89 H29        30.6460   35.8022   71.3903 H         1 ILE         0.0230
     90 H30        30.6523   34.0195   71.6099 H         1 ILE         0.0230
     91 H31        30.7542   34.7215   69.9596 H         1 ILE         0.0230
     92 H32        34.9758   31.4440   71.9690 H         1 ASN         0.1885
     93 H33        34.9471   29.4785   69.8212 H         1 ASN         0.0826
     94 H34        36.9140   30.8535   69.9944 H         1 ASN         0.0551
     95 H35        37.3231   29.1261   70.2692 H         1 ASN         0.0551
     96 H36        39.2385   30.2946   72.9574 H         1 ASN         0.1814
     97 H37        39.2316   29.6594   71.3460 H         1 ASN         0.1814
     98 H38        33.3851   29.0562   72.3566 H         1 GLN         0.1883
     99 H39        34.3662   26.2661   72.8032 H         1 GLN         0.0801
    100 H40        32.7425   27.3570   74.9999 H         1 GLN         0.0337
    101 H41        34.2425   28.3135   74.7514 H         1 GLN         0.0337
    102 H42        34.2210   25.2810   75.0641 H         1 GLN         0.0504
    103 H43        34.3800   26.4173   76.4461 H         1 GLN         0.0504
    104 H44        37.4060   26.4302   73.6136 H         1 GLN         0.1814
    105 H45        35.7475   26.3188   73.1268 H         1 GLN         0.1814
    106 H46        30.3502   27.3550   72.8624 H         1 NH2         0.1815
    107 H47        31.5605   28.4408   73.4593 H         1 NH2         0.1815
@<TRIPOS>BOND
     1    1    3 1  
     2    1    2 2  
     3    3    9 ar 
     4    3    4 ar 
     5    4    6 1  
     6    4    5 ar 
     7    5    7 ar 
     8    8    7 ar 
     9    9    8 ar 
    10   12   11 1  
    11   11   14 1  
    12   11   10 1  
    13   14   15 1  
    14   15   16 1  
    15   16   17 ar 
    16   16   18 ar 
    17   12   13 2  
    18   20   19 1  
    19   20   23 1  
    20   21   20 1  
    21   21   22 2  
    22   23   24 1  
    23   24   26 ar 
    24   24   25 ar 
    25   25   27 ar 
    26   27   29 ar 
    27   29   30 1  
    28   28   29 ar 
    29   26   28 ar 
    30   30   31 1  
    31   31   34 ar 
    32   31   33 ar 
    33   31   32 ar 
    34   36   37 1  
    35   36   39 1  
    36   35   36 1  
    37   39   40 1  
    38   39   41 1  
    39   40   42 1  
    40   37   38 2  
    41   44   45 1  
    42   44   47 1  
    43   43   44 1  
    44   47   48 1  
    45   48   49 2  
    46   48   50 am 
    47   45   46 2  
    48   52   53 1  
    49   52   55 1  
    50   51   52 1  
    51   55   56 1  
    52   56   57 1  
    53   57   58 2  
    54   57   59 am 
    55   53   54 2  
    56   37   43 am 
    57   45   51 am 
    58   10    1 am 
    59   19   12 am 
    60   21   35 am 
    61   53   60 am 
    62    5   61 1  
    63    6   62 1  
    64    6   63 1  
    65    7   64 1  
    66    8   65 1  
    67    9   66 1  
    68   10   67 1  
    69   11   68 1  
    70   14   69 1  
    71   14   70 1  
    72   15   71 1  
    73   15   72 1  
    74   19   73 1  
    75   20   74 1  
    76   23   75 1  
    77   23   76 1  
    78   25   77 1  
    79   26   78 1  
    80   27   79 1  
    81   28   80 1  
    82   35   81 1  
    83   36   82 1  
    84   39   83 1  
    85   40   84 1  
    86   40   85 1  
    87   41   86 1  
    88   41   87 1  
    89   41   88 1  
    90   42   89 1  
    91   42   90 1  
    92   42   91 1  
    93   43   92 1  
    94   44   93 1  
    95   47   94 1  
    96   47   95 1  
    97   50   96 1  
    98   50   97 1  
    99   51   98 1  
   100   52   99 1  
   101   55  100 1  
   102   55  101 1  
   103   56  102 1  
   104   56  103 1  
   105   59  104 1  
   106   59  105 1  
   107   60  106 1  
   108   60  107 1  
@<TRIPOS>SUBSTRUCTURE
     1 BE2         1

