3o6t_ligand
  -I-interpret- 

 28 30  0  0  0  0  0  0  0  0999 V2000
   30.0440  -20.2990   20.5180 C   0  0  0  0  0
   30.8020  -21.0290   19.6680 C   0  0  0  0  0
   30.3330  -21.3120   18.4280 C   0  0  0  0  0
   29.0970  -20.8860   18.0320 C   0  0  0  0  0
   28.3380  -20.1420   18.9180 C   0  0  0  0  0
   28.8100  -19.8460   20.1550 C   0  0  0  0  0
   28.6660  -21.2860   16.5120 S   0  0  0  0  0
   30.1510  -22.0540   16.3840 C   0  0  0  0  0
   30.8950  -21.9940   17.4620 N   0  0  0  0  0
   30.7240  -22.8440   15.2840 C   0  0  0  0  0
   32.1960  -22.6720   15.3820 C   0  0  0  0  0
   33.0650  -23.6350   15.5830 C   0  0  0  0  0
   32.6070  -24.9110   16.0840 C   0  0  0  0  0
   31.1410  -25.1140   16.3310 C   0  0  0  0  0
   30.2380  -24.2680   15.4520 C   0  0  0  0  0
   30.3210  -22.4100   14.0370 O   0  0  0  0  0
   33.3890  -25.7760   16.2880 O   0  0  0  0  0
   30.4269  -20.0684   21.5121 H   0  0  0  0  0
   31.7836  -21.3874   19.9782 H   0  0  0  0  0
   27.3507  -19.7901   18.6190 H   0  0  0  0  0
   28.2118  -19.2549   20.8484 H   0  0  0  0  0
   32.5879  -21.6602   15.2782 H   0  0  0  0  0
   34.1226  -23.4738   15.3740 H   0  0  0  0  0
   30.9462  -24.8252   17.3638 H   0  0  0  0  0
   30.9193  -26.1578   16.1088 H   0  0  0  0  0
   30.2183  -24.7270   14.4635 H   0  0  0  0  0
   29.2594  -24.2267   15.9302 H   0  0  0  0  0
   30.7246  -22.9605   13.3620 H   0  0  0  0  0
  1  2  4  0  0  0
  1  6  4  0  0  0
  2  3  4  0  0  0
  3  4  4  0  0  0
  3  9  4  0  0  0
  4  5  4  0  0  0
  4  7  4  0  0  0
  5  6  4  0  0  0
  7  8  4  0  0  0
  8  9  4  0  0  0
  8 10  1  0  0  0
 10 11  1  0  0  0
 10 15  1  0  0  0
 10 16  1  0  0  0
 11 12  2  0  0  0
 12 13  1  0  0  0
 13 14  1  0  0  0
 13 17  2  0  0  0
 14 15  1  0  0  0
  1 18  1  0  0  0
  2 19  1  0  0  0
  5 20  1  0  0  0
  6 21  1  0  0  0
 11 22  1  0  0  0
 12 23  1  0  0  0
 14 24  1  0  0  0
 14 25  1  0  0  0
 15 26  1  0  0  0
 15 27  1  0  0  0
 16 28  1  0  0  0
M  END
$$$$
