3s7m_ligand
  -I-interpret- 

 41 44  0  0  0  0  0  0  0  0999 V2000
   15.5560   -4.1120   17.5410 C   0  0  0  0  0
   15.0710   -5.3190   16.9310 N   0  0  0  0  0
   13.9150   -6.1080   18.7490 O   0  0  0  0  0
   15.2890  -10.6870   18.3600 S   0  0  0  0  0
   14.3030   -6.2060   17.5860 C   0  0  0  0  0
   14.6860   -6.8160   15.3110 N   0  0  0  0  0
   13.9990   -7.2910   16.5540 C   0  0  0  0  0
   16.1010   -5.0640   14.8780 N   0  0  0  0  0
   15.2620   -5.7300   15.6720 C   0  0  0  0  0
    9.9950   -2.9650   13.7620 N   0  0  0  0  0
   12.4820   -7.3790   16.4460 C   0  0  0  0  0
   11.7020   -8.4890   16.7850 C   0  0  0  0  0
   10.3130   -8.4160   16.6350 C   0  0  0  0  0
    9.6840   -7.2650   16.1690 C   0  0  0  0  0
   10.4520   -6.1410   15.8180 C   0  0  0  0  0
   11.8330   -6.2500   15.9830 C   0  0  0  0  0
    9.8930   -4.8580   15.3290 C   0  0  0  0  0
    8.7570   -4.2710   15.9140 C   0  0  0  0  0
    8.2640   -3.0640   15.4250 C   0  0  0  0  0
    8.9110   -2.4470   14.3530 C   0  0  0  0  0
   10.4520   -4.1450   14.2640 C   0  0  0  0  0
   14.5210   -8.6400   16.9570 C   0  0  0  0  0
   14.9500   -9.6310   16.0280 C   0  0  0  0  0
   15.3830  -10.7720   16.6590 C   0  0  0  0  0
   14.6620   -9.0950   18.2500 C   0  0  0  0  0
   16.6453   -4.0998   17.5035 H   0  0  0  0  0
   15.1629   -3.2504   17.0014 H   0  0  0  0  0
   15.2264   -4.0733   18.5793 H   0  0  0  0  0
   14.6936   -7.2552   14.3904 H   0  0  0  0  0
   16.5947   -4.2442   15.2309 H   0  0  0  0  0
   12.1699   -9.3988   17.1610 H   0  0  0  0  0
    9.7063   -9.2848   16.8902 H   0  0  0  0  0
    8.5983   -7.2352   16.0764 H   0  0  0  0  0
   12.4434   -5.3834   15.7288 H   0  0  0  0  0
    8.2614   -4.7617   16.7517 H   0  0  0  0  0
    7.3828   -2.6061   15.8743 H   0  0  0  0  0
    8.5163   -1.5017   13.9806 H   0  0  0  0  0
   11.3359   -4.5739   13.7918 H   0  0  0  0  0
   14.9364   -9.4998   14.9460 H   0  0  0  0  0
   15.7512  -11.6474   16.1241 H   0  0  0  0  0
   14.3990   -8.4975   19.1229 H   0  0  0  0  0
  2  1  1  0  0  0
  5  2  1  0  0  0
  9  2  4  0  0  0
  5  3  2  0  0  0
  4 24  4  0  0  0
 25  4  4  0  0  0
  7  5  1  0  0  0
  7  6  1  0  0  0
  6  9  1  0  0  0
  7 11  1  0  0  0
 22  7  1  0  0  0
  9  8  2  0  0  0
 10 20  4  0  0  0
 21 10  4  0  0  0
 11 12  4  0  0  0
 11 16  4  0  0  0
 12 13  4  0  0  0
 13 14  4  0  0  0
 15 14  4  0  0  0
 16 15  4  0  0  0
 15 17  1  0  0  0
 17 18  4  0  0  0
 17 21  4  0  0  0
 18 19  4  0  0  0
 19 20  4  0  0  0
 22 23  4  0  0  0
 22 25  4  0  0  0
 23 24  4  0  0  0
  1 26  1  0  0  0
  1 27  1  0  0  0
  1 28  1  0  0  0
  6 29  1  0  0  0
  8 30  1  0  0  0
 12 31  1  0  0  0
 13 32  1  0  0  0
 14 33  1  0  0  0
 16 34  1  0  0  0
 18 35  1  0  0  0
 19 36  1  0  0  0
 20 37  1  0  0  0
 21 38  1  0  0  0
 23 39  1  0  0  0
 24 40  1  0  0  0
 25 41  1  0  0  0
M  END
$$$$
