2qpu_ligand
  -I-interpret- 

 68 70  0  0  0  0  0  0  0  0999 V2000
  165.2180   50.6870   14.9210 C   0  0  0  0  0
  163.7320   50.2960   14.7110 C   0  0  0  0  0
  162.8630   51.5520   14.8410 C   0  0  0  0  0
  162.6800   51.8270   16.3400 C   0  0  0  0  0
  164.0770   51.9780   16.9810 C   0  0  0  0  0
  164.2210   52.6830   18.3220 C   0  0  0  0  0
  165.3380   51.4040   16.2850 C   0  0  0  0  0
  163.5750   49.6760   13.4460 O   0  0  0  0  0
  161.5850   51.3740   14.2350 O   0  0  0  0  0
  161.8850   53.0020   16.4990 O   0  0  0  0  0
  166.0420   50.5590   17.1940 O   0  0  0  0  0
  168.6980   50.7780   10.8650 C   0  0  0  0  0
  167.2730   50.2200   10.6620 C   0  0  0  0  0
  166.2690   50.9990   11.5220 C   0  0  0  0  0
  166.6840   50.8540   12.9970 C   0  0  0  0  0
  168.1290   51.4330   13.1540 C   0  0  0  0  0
  168.6350   51.3040   14.5860 C   0  0  0  0  0
  165.7070   51.5780   13.8460 N   0  3  0  0  0
  166.9340   50.2990    9.2860 O   0  0  0  0  0
  164.9610   50.4730   11.3260 O   0  0  0  0  0
  169.0390   50.7100   12.2690 O   0  0  0  0  0
  170.3570   54.2040    7.0280 C   0  0  0  0  0
  169.0450   53.4090    6.8610 C   0  0  0  0  0
  168.4010   53.1750    8.2380 C   0  0  0  0  0
  169.3780   52.3820    9.1000 C   0  0  0  0  0
  170.6920   53.2160    9.2490 C   0  0  0  0  0
  171.7760   52.5180   10.0680 C   0  0  0  0  0
  168.1610   54.1360    6.0080 O   0  0  0  0  0
  167.2040   52.4420    8.0850 O   0  0  0  0  0
  168.7760   52.1310   10.4050 O   0  0  0  0  0
  171.2600   53.5030    7.9240 O   0  0  0  0  0
  172.2350   53.3370   11.1280 O   0  0  0  0  0
  165.8281   49.7840   14.8983 H   0  0  0  0  0
  163.4154   49.5803   15.4697 H   0  0  0  0  0
  163.3511   52.3841   14.3335 H   0  0  0  0  0
  162.1635   51.0064   16.8380 H   0  0  0  0  0
  163.8745   52.2612   15.9481 H   0  0  0  0  0
  164.6414   51.9909   19.0516 H   0  0  0  0  0
  164.8830   53.5417   18.2104 H   0  0  0  0  0
  163.2413   53.0196   18.6611 H   0  0  0  0  0
  165.8674   52.3174   16.0140 H   0  0  0  0  0
  164.1327   48.8958   13.4019 H   0  0  0  0  0
  161.6979   51.2019   13.2973 H   0  0  0  0  0
  161.0284   52.8655   16.0877 H   0  0  0  0  0
  166.8222   50.2048   16.7610 H   0  0  0  0  0
  169.4032   50.1797   10.2880 H   0  0  0  0  0
  167.2392   49.1765   10.9751 H   0  0  0  0  0
  166.2636   52.0519   11.2400 H   0  0  0  0  0
  166.6893   49.8099   13.3100 H   0  0  0  0  0
  168.0941   52.4910   12.8941 H   0  0  0  0  0
  167.9708   51.8508   15.2553 H   0  0  0  0  0
  168.6534   50.2518   14.8701 H   0  0  0  0  0
  169.6413   51.7174   14.6530 H   0  0  0  0  0
  166.1605   52.3911   14.2628 H   0  0  0  0  0
  164.9187   51.8772   13.2720 H   0  0  0  0  0
  166.0482   49.9528    9.1554 H   0  0  0  0  0
  164.3361   50.9629   11.8656 H   0  0  0  0  0
  170.1287   55.1838    7.4475 H   0  0  0  0  0
  170.8344   54.3118    6.0541 H   0  0  0  0  0
  169.2538   52.4391    6.4097 H   0  0  0  0  0
  168.1732   54.1305    8.7104 H   0  0  0  0  0
  169.6096   51.4225    8.6377 H   0  0  0  0  0
  170.3998   54.1247    9.7753 H   0  0  0  0  0
  172.6180   52.3000    9.4110 H   0  0  0  0  0
  171.3542   51.6074   10.4935 H   0  0  0  0  0
  167.3436   53.6439    5.9021 H   0  0  0  0  0
  166.8057   52.2984    8.9466 H   0  0  0  0  0
  172.9134   52.8699   11.6211 H   0  0  0  0  0
  1  2  1  0  0  0
  1  7  1  0  0  0
 18  1  1  0  0  0
  2  3  1  0  0  0
  2  8  1  0  0  0
  3  4  1  0  0  0
  3  9  1  0  0  0
  5  4  1  0  0  0
  4 10  1  0  0  0
  5  6  1  0  0  0
  7  5  1  0  0  0
  7 11  1  0  0  0
 12 13  1  0  0  0
 12 21  1  0  0  0
 30 12  1  0  0  0
 13 14  1  0  0  0
 13 19  1  0  0  0
 14 15  1  0  0  0
 14 20  1  0  0  0
 16 15  1  0  0  0
 15 18  1  0  0  0
 16 17  1  0  0  0
 21 16  1  0  0  0
 23 22  1  0  0  0
 22 31  1  0  0  0
 24 23  1  0  0  0
 23 28  1  0  0  0
 25 24  1  0  0  0
 24 29  1  0  0  0
 25 26  1  0  0  0
 25 30  1  0  0  0
 26 27  1  0  0  0
 26 31  1  0  0  0
 27 32  1  0  0  0
  1 33  1  0  0  0
  2 34  1  0  0  0
  3 35  1  0  0  0
  4 36  1  0  0  0
  5 37  1  0  0  0
  6 38  1  0  0  0
  6 39  1  0  0  0
  6 40  1  0  0  0
  7 41  1  0  0  0
  8 42  1  0  0  0
  9 43  1  0  0  0
 10 44  1  0  0  0
 11 45  1  0  0  0
 12 46  1  0  0  0
 13 47  1  0  0  0
 14 48  1  0  0  0
 15 49  1  0  0  0
 16 50  1  0  0  0
 17 51  1  0  0  0
 17 52  1  0  0  0
 17 53  1  0  0  0
 18 54  1  0  0  0
 18 55  1  0  0  0
 19 56  1  0  0  0
 20 57  1  0  0  0
 22 58  1  0  0  0
 22 59  1  0  0  0
 23 60  1  0  0  0
 24 61  1  0  0  0
 25 62  1  0  0  0
 26 63  1  0  0  0
 27 64  1  0  0  0
 27 65  1  0  0  0
 28 66  1  0  0  0
 29 67  1  0  0  0
 32 68  1  0  0  0
M  END
$$$$
