4qok_ligand
  -I-interpret- 

141140  0  0  0  0  0  0  0  0999 V2000
   45.5260   12.1280  -10.5630 N   0  3  0  0  0
   46.8050   12.7460  -10.1020 C   0  0  0  0  0
   47.9130   11.8220  -10.5310 C   0  0  0  0  0
   48.0690   10.7570   -9.9600 O   0  0  0  0  0
   46.7990   12.9080   -8.5770 C   0  0  0  0  0
   48.0610   13.5230   -7.9580 C   0  0  0  0  0
   48.1870   15.0210   -8.1350 C   0  0  0  0  0
   47.1500   15.7140   -8.2740 O   0  0  0  0  0
   49.3390   15.5050   -8.0820 O   0  0  0  0  0
   48.6570   12.2360  -11.5500 N   0  0  0  0  0
   49.8080   11.4910  -12.0690 C   0  0  0  0  0
   51.0750   11.5520  -11.1330 C   0  0  0  0  0
   51.1800   12.3910  -10.2630 O   0  0  0  0  0
   50.1460   12.0280  -13.4480 C   0  0  0  0  0
   52.0400   10.6670  -11.3210 N   0  0  0  0  0
   53.2220   10.6890  -10.4860 C   0  0  0  0  0
   53.9820   11.9720  -10.7020 C   0  0  0  0  0
   54.3270   12.3080  -11.8190 O   0  0  0  0  0
   54.1250    9.5160  -10.7770 C   0  0  0  0  0
   54.2360   12.6950   -9.6160 N   0  0  0  0  0
   55.0360   13.9110   -9.6420 C   0  0  0  0  0
   56.4770   13.6410   -9.2960 C   0  0  0  0  0
   57.3150   14.5220   -9.4120 O   0  0  0  0  0
   56.7620   12.4290   -8.8460 N   0  0  0  0  0
   58.1210   12.0210   -8.4770 C   0  0  0  0  0
   58.4050   10.5780   -8.8520 C   0  0  0  0  0
   57.5520    9.8580   -9.3260 O   0  0  0  0  0
   58.4120   12.2110   -6.9570 C   0  0  0  0  0
   57.4210   11.4250   -6.1100 C   0  0  0  0  0
   58.3800   13.6840   -6.5680 C   0  0  0  0  0
   57.6860   11.5750   -4.6260 C   0  0  0  0  0
   59.6220   10.1520   -8.6460 N   0  0  0  0  0
   59.9780    8.7900   -8.9900 C   0  0  0  0  0
   59.9130    8.4280  -10.4790 C   0  0  0  0  0
   59.6950    7.2690  -10.8060 O   0  0  0  0  0
   60.1210    9.3870  -11.3720 N   0  0  0  0  0
   60.1110    9.1280  -12.7880 C   0  0  0  0  0
   61.4260    9.5780  -13.3890 C   0  0  0  0  0
   61.6470   10.7460  -13.6920 O   0  0  0  0  0
   58.9800    9.8650  -13.5050 C   0  0  0  0  0
   57.6220    9.5000  -12.8920 C   0  0  0  0  0
   59.0220    9.5520  -15.0000 C   0  0  0  0  0
   57.2360    8.0710  -13.0190 C   0  0  0  0  0
   62.3050    8.6210  -13.5930 N   0  0  0  0  0
   63.6060    8.9150  -14.1190 C   0  0  0  0  0
   63.8120    8.1970  -15.4030 C   0  0  0  0  0
   63.0380    7.3350  -15.7720 O   0  0  0  0  0
   64.6500    8.4340  -13.1400 C   0  0  0  0  0
   64.5050    9.0050  -11.7390 C   0  0  0  0  0
   65.8470    8.8310  -11.0690 C   0  0  0  0  0
   64.1570   10.4860  -11.7910 C   0  0  0  0  0
   64.8830    8.5490  -16.0850 N   0  0  0  0  0
   65.2140    7.8890  -17.3160 C   0  0  0  0  0
   65.8740    6.5760  -16.9800 C   0  0  0  0  0
   66.4870    6.4390  -15.9300 O   0  0  0  0  0
   66.2150    8.7030  -18.0990 C   0  0  0  0  0
   67.2020    9.1450  -17.1890 O   0  0  0  0  0
   65.5700    9.8850  -18.6970 C   0  0  0  0  0
   65.7520    5.6240  -17.9020 N   0  0  0  0  0
   66.2970    4.2490  -17.7340 C   0  0  0  0  0
   67.8470    4.2240  -17.8940 C   0  0  0  0  0
   68.5720    3.3140  -17.4410 O   0  0  0  0  0
   65.6310    3.2610  -18.7330 C   0  0  0  0  0
   64.1090    3.2790  -18.6120 C   0  0  0  0  0
   66.0040    3.6210  -20.1540 C   0  0  0  0  0
   68.4470    5.1260  -18.4850 O   0  0  0  0  0
   45.5450   12.0269  -11.5778 H   0  0  0  0  0
   45.4179   11.2105  -10.1307 H   0  0  0  0  0
   44.7446   12.7260  -10.2943 H   0  0  0  0  0
   46.9386   13.7381  -10.5331 H   0  0  0  0  0
   46.7153   11.9028   -8.1638 H   0  0  0  0  0
   45.9818   13.5914   -8.3461 H   0  0  0  0  0
   48.9146   13.0710   -8.4631 H   0  0  0  0  0
   48.0132   13.3332   -6.8857 H   0  0  0  0  0
   46.3816   15.1387   -8.2889 H   0  0  0  0  0
   48.4144   13.1207  -11.9960 H   0  0  0  0  0
   49.5262   10.4391  -12.1149 H   0  0  0  0  0
   49.2884   11.8967  -14.1079 H   0  0  0  0  0
   50.3902   13.0877  -13.3740 H   0  0  0  0  0
   51.0012   11.4839  -13.8488 H   0  0  0  0  0
   51.9508    9.9665  -12.0571 H   0  0  0  0  0
   52.8965   10.6222   -9.4479 H   0  0  0  0  0
   53.5852    8.5880  -10.5883 H   0  0  0  0  0
   54.4379    9.5501  -11.8206 H   0  0  0  0  0
   55.0020    9.5654  -10.1316 H   0  0  0  0  0
   53.8528   12.3836   -8.7235 H   0  0  0  0  0
   54.6307   14.6033   -8.9041 H   0  0  0  0  0
   54.9976   14.3245  -10.6498 H   0  0  0  0  0
   56.0053   11.7515   -8.7522 H   0  0  0  0  0
   58.7805   12.6775   -9.0446 H   0  0  0  0  0
   59.4144   11.8276   -6.7665 H   0  0  0  0  0
   57.5199   10.3701   -6.3659 H   0  0  0  0  0
   56.4218   11.8092   -6.3153 H   0  0  0  0  0
   59.1359   14.2253   -7.1371 H   0  0  0  0  0
   57.3946   14.0951   -6.7874 H   0  0  0  0  0
   58.5867   13.7816   -5.5022 H   0  0  0  0  0
   58.6880   11.2112   -4.3986 H   0  0  0  0  0
   57.6082   12.6263   -4.3488 H   0  0  0  0  0
   56.9518   10.9951   -4.0667 H   0  0  0  0  0
   60.3208   10.7767   -8.2437 H   0  0  0  0  0
   59.2515    8.1500   -8.4894 H   0  0  0  0  0
   61.0185    8.6628   -8.6912 H   0  0  0  0  0
   60.2934   10.3376  -11.0449 H   0  0  0  0  0
   59.9597    8.0566  -12.9194 H   0  0  0  0  0
   59.1168   10.9388  -13.3776 H   0  0  0  0  0
   56.8699   10.0769  -13.4301 H   0  0  0  0  0
   57.6924    9.7121  -11.8252 H   0  0  0  0  0
   59.9791    9.8738  -15.4105 H   0  0  0  0  0
   58.9039    8.4787  -15.1486 H   0  0  0  0  0
   58.2129   10.0810  -15.5035 H   0  0  0  0  0
   57.1839    7.8024  -14.0741 H   0  0  0  0  0
   57.9800    7.4494  -12.5208 H   0  0  0  0  0
   56.2619    7.9165  -12.5549 H   0  0  0  0  0
   62.0576    7.6560  -13.3739 H   0  0  0  0  0
   63.6885    9.9899  -14.2801 H   0  0  0  0  0
   65.6189    8.7585  -13.5196 H   0  0  0  0  0
   64.5388    7.3528  -13.0584 H   0  0  0  0  0
   63.7072    8.4961  -11.1981 H   0  0  0  0  0
   66.1004    7.7714  -11.0358 H   0  0  0  0  0
   66.6068    9.3700  -11.6349 H   0  0  0  0  0
   65.7991    9.2264  -10.0544 H   0  0  0  0  0
   64.9486   11.0259  -12.3105 H   0  0  0  0  0
   63.2153   10.6181  -12.3237 H   0  0  0  0  0
   64.0588   10.8707  -10.7759 H   0  0  0  0  0
   65.4820    9.2968  -15.7353 H   0  0  0  0  0
   64.3050    7.7552  -17.9025 H   0  0  0  0  0
   66.6401    8.0954  -18.8979 H   0  0  0  0  0
   67.8565    9.6680  -17.6577 H   0  0  0  0  0
   64.7745    9.5624  -19.3687 H   0  0  0  0  0
   65.1500   10.5070  -17.9066 H   0  0  0  0  0
   66.3101   10.4570  -19.2566 H   0  0  0  0  0
   65.2604    5.8478  -18.7672 H   0  0  0  0  0
   66.0604    3.9272  -16.7198 H   0  0  0  0  0
   68.0247    2.6599  -17.0003 H   0  0  0  0  0
   65.9939    2.2629  -18.4875 H   0  0  0  0  0
   63.8228    2.9911  -17.6004 H   0  0  0  0  0
   63.7408    4.2829  -18.8233 H   0  0  0  0  0
   63.6807    2.5757  -19.3262 H   0  0  0  0  0
   65.6631    4.6330  -20.3725 H   0  0  0  0  0
   67.0867    3.5683  -20.2686 H   0  0  0  0  0
   65.5301    2.9202  -20.8413 H   0  0  0  0  0
  1  2  1  0  0  0
  2  3  1  0  0  0
  2  5  1  0  0  0
  3  4  2  0  0  0
  3 10  1  0  0  0
  5  6  1  0  0  0
  6  7  1  0  0  0
  7  8  1  0  0  0
  7  9  2  0  0  0
 10 11  1  0  0  0
 11 12  1  0  0  0
 11 14  1  0  0  0
 12 13  2  0  0  0
 12 15  1  0  0  0
 15 16  1  0  0  0
 16 17  1  0  0  0
 16 19  1  0  0  0
 17 18  2  0  0  0
 17 20  1  0  0  0
 20 21  1  0  0  0
 21 22  1  0  0  0
 22 23  2  0  0  0
 22 24  1  0  0  0
 24 25  1  0  0  0
 25 26  1  0  0  0
 25 28  1  0  0  0
 26 27  2  0  0  0
 26 32  1  0  0  0
 28 29  1  0  0  0
 28 30  1  0  0  0
 29 31  1  0  0  0
 32 33  1  0  0  0
 33 34  1  0  0  0
 34 35  2  0  0  0
 34 36  1  0  0  0
 36 37  1  0  0  0
 37 38  1  0  0  0
 37 40  1  0  0  0
 38 39  2  0  0  0
 38 44  1  0  0  0
 40 41  1  0  0  0
 40 42  1  0  0  0
 41 43  1  0  0  0
 44 45  1  0  0  0
 45 46  1  0  0  0
 45 48  1  0  0  0
 46 47  2  0  0  0
 46 52  1  0  0  0
 48 49  1  0  0  0
 49 50  1  0  0  0
 49 51  1  0  0  0
 52 53  1  0  0  0
 53 54  1  0  0  0
 53 56  1  0  0  0
 54 55  2  0  0  0
 54 59  1  0  0  0
 56 57  1  0  0  0
 56 58  1  0  0  0
 59 60  1  0  0  0
 60 61  1  0  0  0
 60 63  1  0  0  0
 61 62  1  0  0  0
 61 66  2  0  0  0
 63 64  1  0  0  0
 63 65  1  0  0  0
  1 67  1  0  0  0
  1 68  1  0  0  0
  1 69  1  0  0  0
  2 70  1  0  0  0
  5 71  1  0  0  0
  5 72  1  0  0  0
  6 73  1  0  0  0
  6 74  1  0  0  0
  8 75  1  0  0  0
 10 76  1  0  0  0
 11 77  1  0  0  0
 14 78  1  0  0  0
 14 79  1  0  0  0
 14 80  1  0  0  0
 15 81  1  0  0  0
 16 82  1  0  0  0
 19 83  1  0  0  0
 19 84  1  0  0  0
 19 85  1  0  0  0
 20 86  1  0  0  0
 21 87  1  0  0  0
 21 88  1  0  0  0
 24 89  1  0  0  0
 25 90  1  0  0  0
 28 91  1  0  0  0
 29 92  1  0  0  0
 29 93  1  0  0  0
 30 94  1  0  0  0
 30 95  1  0  0  0
 30 96  1  0  0  0
 31 97  1  0  0  0
 31 98  1  0  0  0
 31 99  1  0  0  0
 32100  1  0  0  0
 33101  1  0  0  0
 33102  1  0  0  0
 36103  1  0  0  0
 37104  1  0  0  0
 40105  1  0  0  0
 41106  1  0  0  0
 41107  1  0  0  0
 42108  1  0  0  0
 42109  1  0  0  0
 42110  1  0  0  0
 43111  1  0  0  0
 43112  1  0  0  0
 43113  1  0  0  0
 44114  1  0  0  0
 45115  1  0  0  0
 48116  1  0  0  0
 48117  1  0  0  0
 49118  1  0  0  0
 50119  1  0  0  0
 50120  1  0  0  0
 50121  1  0  0  0
 51122  1  0  0  0
 51123  1  0  0  0
 51124  1  0  0  0
 52125  1  0  0  0
 53126  1  0  0  0
 56127  1  0  0  0
 57128  1  0  0  0
 58129  1  0  0  0
 58130  1  0  0  0
 58131  1  0  0  0
 59132  1  0  0  0
 60133  1  0  0  0
 62134  1  0  0  0
 63135  1  0  0  0
 64136  1  0  0  0
 64137  1  0  0  0
 64138  1  0  0  0
 65139  1  0  0  0
 65140  1  0  0  0
 65141  1  0  0  0
M  END
$$$$
