### 
### Created by X-TOOL on Mon Sep 10 21:13:19 2018
### 

@<TRIPOS>MOLECULE
4qok_ligand
  139   138     1     0     0
SMALL
GAST_HUCK


@<TRIPOS>ATOM
      1 N          45.5260   12.1280  -10.5630 N.4       1 GLU         0.2380
      2 CA         46.8050   12.7460  -10.1020 C.3       1 GLU         0.0665
      3 C          47.9130   11.8220  -10.5310 C.2       1 GLU         0.2268
      4 O          48.0690   10.7570   -9.9600 O.2       1 GLU        -0.3907
      5 CB         46.7990   12.9080   -8.5770 C.3       1 GLU         0.0194
      6 CG         48.0610   13.5230   -7.9580 C.3       1 GLU         0.0075
      7 CD         48.1870   15.0210   -8.1350 C.2       1 GLU         0.0351
      8 OE1        47.1500   15.7140   -8.2740 O.co2     1 GLU        -0.5690
      9 OE2        49.3390   15.5050   -8.0820 O.co2     1 GLU        -0.5690
     10 N          48.6570   12.2360  -11.5500 N.am      1 ALA        -0.2613
     11 CA         49.8080   11.4910  -12.0690 C.3       1 ALA         0.1283
     12 C          51.0750   11.5520  -11.1330 C.2       1 ALA         0.2036
     13 O          51.1800   12.3910  -10.2630 O.2       1 ALA        -0.3944
     14 CB         50.1460   12.0280  -13.4480 C.3       1 ALA        -0.0244
     15 N          52.0400   10.6670  -11.3210 N.am      1 ALA        -0.2640
     16 CA         53.2220   10.6890  -10.4860 C.3       1 ALA         0.1282
     17 C          53.9820   11.9720  -10.7020 C.2       1 ALA         0.2034
     18 O          54.3270   12.3080  -11.8190 O.2       1 ALA        -0.3944
     19 CB         54.1250    9.5160  -10.7770 C.3       1 ALA        -0.0244
     20 N          54.2360   12.6950   -9.6160 N.am      1 GLY        -0.2664
     21 CA         55.0360   13.9110   -9.6420 C.3       1 GLY         0.1201
     22 C          56.4770   13.6410   -9.2960 C.2       1 GLY         0.2008
     23 O          57.3150   14.5220   -9.4120 O.2       1 GLY        -0.3947
     24 N          56.7620   12.4290   -8.8460 N.am      1 ILE        -0.2637
     25 CA         58.1210   12.0210   -8.4770 C.3       1 ILE         0.1335
     26 C          58.4050   10.5780   -8.8520 C.2       1 ILE         0.2040
     27 O          57.5520    9.8580   -9.3260 O.2       1 ILE        -0.3944
     28 CB         58.4120   12.2110   -6.9570 C.3       1 ILE        -0.0037
     29 CG1        57.4210   11.4250   -6.1100 C.3       1 ILE        -0.0491
     30 CG2        58.3800   13.6840   -6.5680 C.3       1 ILE        -0.0582
     31 CD1        57.6860   11.5750   -4.6260 C.3       1 ILE        -0.0648
     32 N          59.6220   10.1520   -8.6460 N.am      1 GLY        -0.2664
     33 CA         59.9780    8.7900   -8.9900 C.3       1 GLY         0.1201
     34 C          59.9130    8.4280  -10.4790 C.2       1 GLY         0.2008
     35 O          59.6950    7.2690  -10.8060 O.2       1 GLY        -0.3947
     36 N          60.1210    9.3870  -11.3720 N.am      1 ILE        -0.2637
     37 CA         60.1110    9.1280  -12.7880 C.3       1 ILE         0.1335
     38 C          61.4260    9.5780  -13.3890 C.2       1 ILE         0.2042
     39 O          61.6470   10.7460  -13.6920 O.2       1 ILE        -0.3944
     40 CB         58.9800    9.8650  -13.5050 C.3       1 ILE        -0.0037
     41 CG1        57.6220    9.5000  -12.8920 C.3       1 ILE        -0.0491
     42 CG2        59.0220    9.5520  -15.0000 C.3       1 ILE        -0.0582
     43 CD1        57.2360    8.0710  -13.0190 C.3       1 ILE        -0.0648
     44 N          62.3050    8.6210  -13.5930 N.am      1 LEU        -0.2637
     45 CA         63.6060    8.9150  -14.1190 C.3       1 LEU         0.1312
     46 C          63.8120    8.1970  -15.4030 C.2       1 LEU         0.2040
     47 O          63.0380    7.3350  -15.7720 O.2       1 LEU        -0.3944
     48 CB         64.6500    8.4340  -13.1400 C.3       1 LEU        -0.0101
     49 CG         64.5050    9.0050  -11.7390 C.3       1 LEU        -0.0425
     50 CD1        65.8470    8.8310  -11.0690 C.3       1 LEU        -0.0625
     51 CD2        64.1570   10.4860  -11.7910 C.3       1 LEU        -0.0625
     52 N          64.8830    8.5490  -16.0850 N.am      1 THR        -0.2613
     53 CA         65.2140    7.8890  -17.3160 C.3       1 THR         0.1564
     54 C          65.8740    6.5760  -16.9800 C.2       1 THR         0.2059
     55 O          66.4870    6.4390  -15.9300 O.2       1 THR        -0.3943
     56 CB         66.2150    8.7030  -18.0990 C.3       1 THR         0.0924
     57 OG1        67.2020    9.1450  -17.1890 O.3       1 THR        -0.3874
     58 CG2        65.5700    9.8850  -18.6970 C.3       1 THR        -0.0346
     59 N          65.7520    5.6240  -17.9020 N.am      1 VAL        -0.2692
     60 CA         66.2970    4.2490  -17.7340 C.3       1 VAL         0.0967
     61 C          67.8470    4.2240  -17.8940 C.2       1 VAL         0.0603
     62 O          68.5720    3.3140  -17.4410 O.co2     1 VAL        -0.5666
     63 CB         65.6310    3.2610  -18.7330 C.3       1 VAL        -0.0118
     64 CG1        64.1090    3.2790  -18.6120 C.3       1 VAL        -0.0590
     65 CG2        66.0040    3.6210  -20.1540 C.3       1 VAL        -0.0590
     66 OXT        68.4470    5.1260  -18.4850 O.co2     1 VAL        -0.5666
     67 H          44.7528   12.7168  -10.2954 H         1 GLU         0.2015
     68 H          45.4194   11.2200  -10.1386 H         1 GLU         0.2015
     69 H          45.5424   12.0302  -11.5661 H         1 GLU         0.2015
     70 H          46.9364   13.7324  -10.5707 H         1 GLU         0.1099
     71 H          46.6591   11.9110   -8.1338 H         1 GLU         0.0363
     72 H          45.9469   13.5506   -8.3107 H         1 GLU         0.0363
     73 H          48.9373   13.0482   -8.4235 H         1 GLU         0.0434
     74 H          48.0551   13.3048   -6.8799 H         1 GLU         0.0434
     75 H          48.4192   13.1033  -11.9872 H         1 ALA         0.1884
     76 H          49.5145   10.4352  -12.1644 H         1 ALA         0.0797
     77 H          51.0090   11.4796  -13.8536 H         1 ALA         0.0277
     78 H          50.3927   13.0974  -13.3747 H         1 ALA         0.0277
     79 H          49.2813   11.8960  -14.1150 H         1 ALA         0.0277
     80 H          51.9525    9.9803  -12.0426 H         1 ALA         0.1883
     81 H          52.9062   10.6355   -9.4337 H         1 ALA         0.0797
     82 H          55.0105    9.5647  -10.1263 H         1 ALA         0.0277
     83 H          54.4415    9.5492  -11.8299 H         1 ALA         0.0277
     84 H          53.5814    8.5788  -10.5869 H         1 ALA         0.0277
     85 H          53.8604   12.3897   -8.7410 H         1 GLY         0.1881
     86 H          54.6229   14.6245   -8.9139 H         1 GLY         0.0763
     87 H          54.9879   14.3472  -10.6507 H         1 GLY         0.0763
     88 H          56.0201   11.7648   -8.7540 H         1 ILE         0.1883
     89 H          58.8177   12.6617   -9.0374 H         1 ILE         0.0803
     90 H          59.4214   11.8243   -6.7533 H         1 ILE         0.0345
     91 H          57.4946   10.3603   -6.3764 H         1 ILE         0.0267
     92 H          56.4053   11.7878   -6.3262 H         1 ILE         0.0267
     93 H          59.0991   14.2420   -7.1856 H         1 ILE         0.0235
     94 H          58.6493   13.7889   -5.5067 H         1 ILE         0.0235
     95 H          57.3685   14.0844   -6.7310 H         1 ILE         0.0235
     96 H          56.9457   10.9902   -4.0604 H         1 ILE         0.0230
     97 H          57.6077   12.6356   -4.3449 H         1 ILE         0.0230
     98 H          58.6970   11.2081   -4.3951 H         1 ILE         0.0230
     99 H          60.3071   10.7645   -8.2516 H         1 GLY         0.1881
    100 H          59.2937    8.1181   -8.4512 H         1 GLY         0.0763
    101 H          61.0086    8.6158   -8.6471 H         1 GLY         0.0763
    102 H          60.2900   10.3190  -11.0513 H         1 ILE         0.1883
    103 H          59.9869    8.0466  -12.9466 H         1 ILE         0.0803
    104 H          59.1333   10.9465  -13.3754 H         1 ILE         0.0345
    105 H          56.8502   10.1066  -13.3882 H         1 ILE         0.0267
    106 H          57.6532    9.7505  -11.8214 H         1 ILE         0.0267
    107 H          60.0076    9.8258  -15.4044 H         1 ILE         0.0235
    108 H          58.2406   10.1280  -15.5173 H         1 ILE         0.0235
    109 H          58.8481    8.4769  -15.1546 H         1 ILE         0.0235
    110 H          56.2530    7.9138  -12.5510 H         1 ILE         0.0230
    111 H          57.9860    7.4425  -12.5166 H         1 ILE         0.0230
    112 H          57.1830    7.7987  -14.0834 H         1 ILE         0.0230
    113 H          62.0624    7.6749  -13.3782 H         1 LEU         0.1883
    114 H          63.7062    9.9990  -14.2765 H         1 LEU         0.0800
    115 H          65.6404    8.7167  -13.5262 H         1 LEU         0.0315
    116 H          64.5812    7.3382  -13.0740 H         1 LEU         0.0315
    117 H          63.7246    8.4616  -11.1861 H         1 LEU         0.0298
    118 H          65.7999    9.2297  -10.0449 H         1 LEU         0.0232
    119 H          66.6147    9.3746  -11.6392 H         1 LEU         0.0232
    120 H          66.1039    7.7620  -11.0348 H         1 LEU         0.0232
    121 H          63.1796   10.6161  -12.2787 H         1 LEU         0.0232
    122 H          64.9269   11.0237  -12.3637 H         1 LEU         0.0232
    123 H          64.1128   10.8884  -10.7682 H         1 LEU         0.0232
    124 H          65.4703    9.2822  -15.7421 H         1 THR         0.1884
    125 H          64.3049    7.7264  -17.9135 H         1 THR         0.0826
    126 H          66.6679    8.0856  -18.8887 H         1 THR         0.0639
    127 H          67.6229    8.3926  -16.7899 H         1 THR         0.2101
    128 H          66.3159   10.4631  -19.2621 H         1 THR         0.0257
    129 H          65.1457   10.5136  -17.9003 H         1 THR         0.0257
    130 H          64.7669    9.5608  -19.3751 H         1 THR         0.0257
    131 H          65.2700    5.8434  -18.7503 H         1 VAL         0.1875
    132 H          66.0571    3.9145  -16.7139 H         1 VAL         0.0729
    133 H          65.9925    2.2458  -18.5124 H         1 VAL         0.0336
    134 H          63.6755    2.5696  -19.3323 H         1 VAL         0.0234
    135 H          63.7362    4.2917  -18.8251 H         1 VAL         0.0234
    136 H          63.8188    2.9886  -17.5915 H         1 VAL         0.0234
    137 H          67.0990    3.6127  -20.2589 H         1 VAL         0.0234
    138 H          65.6206    4.6244  -20.3908 H         1 VAL         0.0234
    139 H          65.5639    2.8876  -20.8457 H         1 VAL         0.0234
@<TRIPOS>BOND
     1    1    2 1  
     2    2    3 1  
     3    2    5 1  
     4    3    4 2  
     5    3   10 am 
     6    5    6 1  
     7    6    7 1  
     8    7    8 ar 
     9    7    9 ar 
    10   10   11 1  
    11   11   12 1  
    12   11   14 1  
    13   12   13 2  
    14   12   15 am 
    15   15   16 1  
    16   16   17 1  
    17   16   19 1  
    18   17   18 2  
    19   17   20 am 
    20   20   21 1  
    21   21   22 1  
    22   22   23 2  
    23   22   24 am 
    24   24   25 1  
    25   25   26 1  
    26   25   28 1  
    27   26   27 2  
    28   26   32 am 
    29   28   29 1  
    30   28   30 1  
    31   29   31 1  
    32   32   33 1  
    33   33   34 1  
    34   34   35 2  
    35   34   36 am 
    36   36   37 1  
    37   37   38 1  
    38   37   40 1  
    39   38   39 2  
    40   38   44 am 
    41   40   41 1  
    42   40   42 1  
    43   41   43 1  
    44   44   45 1  
    45   45   46 1  
    46   45   48 1  
    47   46   47 2  
    48   46   52 am 
    49   48   49 1  
    50   49   50 1  
    51   49   51 1  
    52   52   53 1  
    53   53   54 1  
    54   53   56 1  
    55   54   55 2  
    56   54   59 am 
    57   56   57 1  
    58   56   58 1  
    59   59   60 1  
    60   60   61 1  
    61   60   63 1  
    62   61   62 ar 
    63   61   66 ar 
    64   63   64 1  
    65   63   65 1  
    66    1   67 1  
    67    1   68 1  
    68    1   69 1  
    69    2   70 1  
    70    5   71 1  
    71    5   72 1  
    72    6   73 1  
    73    6   74 1  
    74   10   75 1  
    75   11   76 1  
    76   14   77 1  
    77   14   78 1  
    78   14   79 1  
    79   15   80 1  
    80   16   81 1  
    81   19   82 1  
    82   19   83 1  
    83   19   84 1  
    84   20   85 1  
    85   21   86 1  
    86   21   87 1  
    87   24   88 1  
    88   25   89 1  
    89   28   90 1  
    90   29   91 1  
    91   29   92 1  
    92   30   93 1  
    93   30   94 1  
    94   30   95 1  
    95   31   96 1  
    96   31   97 1  
    97   31   98 1  
    98   32   99 1  
    99   33  100 1  
   100   33  101 1  
   101   36  102 1  
   102   37  103 1  
   103   40  104 1  
   104   41  105 1  
   105   41  106 1  
   106   42  107 1  
   107   42  108 1  
   108   42  109 1  
   109   43  110 1  
   110   43  111 1  
   111   43  112 1  
   112   44  113 1  
   113   45  114 1  
   114   48  115 1  
   115   48  116 1  
   116   49  117 1  
   117   50  118 1  
   118   50  119 1  
   119   50  120 1  
   120   51  121 1  
   121   51  122 1  
   122   51  123 1  
   123   52  124 1  
   124   53  125 1  
   125   56  126 1  
   126   57  127 1  
   127   58  128 1  
   128   58  129 1  
   129   58  130 1  
   130   59  131 1  
   131   60  132 1  
   132   63  133 1  
   133   64  134 1  
   134   64  135 1  
   135   64  136 1  
   136   65  137 1  
   137   65  138 1  
   138   65  139 1  
@<TRIPOS>SUBSTRUCTURE
     1 GLU         1

