4lwv_ligand
  -I-interpret- 

 71 75  0  0  0  0  0  0  0  0999 V2000
    0.8010  -32.1070  -10.0760 C   0  0  0  0  0
    1.1270  -31.4430  -11.4290 C   0  0  0  0  0
    3.6240  -34.1530  -12.8300 C   0  0  0  0  0
    3.2240  -34.4480  -11.5340 C   0  0  0  0  0
    2.0850  -32.4730  -11.9510 C   0  0  0  0  0
    2.3430  -33.4430  -11.1300 C   0  0  0  0  0
    1.7130  -30.1000  -11.1510 C   0  0  0  0  0
   -0.6410  -29.8600  -11.6160 C   0  0  0  0  0
   -0.1070  -31.1200  -12.2790 C   0  0  0  0  0
    2.6840  -30.1500   -9.9700 C   0  0  0  0  0
    3.7100  -28.9860  -10.0640 C   0  0  0  0  0
    4.7430  -29.0980   -8.9260 C   0  0  0  0  0
    4.4330  -29.0570  -11.4120 C   0  0  0  0  0
    2.9920  -27.6390   -9.9550 C   0  0  0  0  0
    1.6080  -33.2700   -9.9130 N   0  0  0  0  0
    4.6980  -35.1340  -13.8390 Cl  0  0  0  0  0
   -0.0120  -31.7320   -9.2390 O   0  0  0  0  0
    0.5180  -29.2780  -10.8340 N   0  3  0  0  0
   -1.1500  -32.1950  -12.2900 C   0  0  0  0  0
   -2.1150  -32.2570  -11.2920 C   0  0  0  0  0
   -3.1150  -33.2470  -11.3540 C   0  0  0  0  0
   -3.1490  -34.1680  -12.4080 C   0  0  0  0  0
   -1.2070  -33.1200  -13.3180 C   0  0  0  0  0
   -0.2860  -33.0700  -14.2950 F   0  0  0  0  0
   -2.1800  -34.0900  -13.4020 C   0  0  0  0  0
   -2.1930  -35.1960  -14.7520 Cl  0  0  0  0  0
   -1.0810  -28.8460  -12.6090 C   0  0  0  0  0
   -0.4460  -27.6050  -12.4430 N   0  0  0  0  0
   -0.6970  -26.4310  -13.2000 C   0  0  0  0  0
   -1.3560  -26.4710  -14.4230 C   0  0  0  0  0
   -0.2480  -25.2500  -12.6570 C   0  0  0  0  0
    0.3960  -25.3140  -11.4230 O   0  0  0  0  0
    0.7490  -24.0460  -10.8870 C   0  0  0  0  0
   -0.4530  -24.0440  -13.2980 C   0  0  0  0  0
   -1.1690  -24.0410  -14.5120 C   0  0  0  0  0
   -1.5330  -22.7600  -15.1320 C   0  0  0  0  0
   -1.6070  -21.6920  -14.4810 O   0  0  0  0  0
   -1.8180  -22.7400  -16.4990 N   0  0  0  0  0
   -1.5910  -25.2640  -15.0890 C   0  0  0  0  0
   -1.9220  -29.0380  -13.4930 O   0  0  0  0  0
    2.9280  -32.6410  -13.4560 S   0  0  0  0  0
    3.5396  -35.3063  -10.9408 H   0  0  0  0  0
    2.2983  -29.7055  -11.9816 H   0  0  0  0  0
   -1.5033  -30.1103  -10.9980 H   0  0  0  0  0
    0.1527  -31.0131  -13.3322 H   0  0  0  0  0
    3.2201  -31.0989   -9.9905 H   0  0  0  0  0
    2.1204  -30.0530   -9.0421 H   0  0  0  0  0
    4.2304  -29.0473   -7.9654 H   0  0  0  0  0
    5.2705  -30.0483   -9.0081 H   0  0  0  0  0
    5.4562  -28.2773   -9.0024 H   0  0  0  0  0
    4.9538  -30.0110  -11.4937 H   0  0  0  0  0
    3.7050  -28.9688  -12.2184 H   0  0  0  0  0
    5.1531  -28.2415  -11.4800 H   0  0  0  0  0
    2.2708  -27.5464  -10.7671 H   0  0  0  0  0
    2.4730  -27.5817   -8.9982 H   0  0  0  0  0
    3.7225  -26.8328  -10.0224 H   0  0  0  0  0
    1.6536  -33.8661   -9.0866 H   0  0  0  0  0
    0.6726  -28.3030  -11.0905 H   0  0  0  0  0
    0.3230  -29.2963   -9.8330 H   0  0  0  0  0
   -2.0982  -31.5446  -10.4672 H   0  0  0  0  0
   -3.8721  -33.2968  -10.5714 H   0  0  0  0  0
   -3.9231  -34.9343  -12.4486 H   0  0  0  0  0
    0.2611  -27.5412  -11.7107 H   0  0  0  0  0
   -1.6813  -27.4188  -14.8520 H   0  0  0  0  0
    1.4232  -23.5368  -11.5757 H   0  0  0  0  0
   -0.1517  -23.4477  -10.7492 H   0  0  0  0  0
    1.2453  -24.1844   -9.9265 H   0  0  0  0  0
   -0.0698  -23.1156  -12.8746 H   0  0  0  0  0
   -2.0815  -21.8651  -16.9523 H   0  0  0  0  0
   -1.7627  -23.6003  -17.0441 H   0  0  0  0  0
   -2.0994  -25.2643  -16.0532 H   0  0  0  0  0
  2  1  1  0  0  0
  1 15  1  0  0  0
  1 17  2  0  0  0
  5  2  1  0  0  0
  2  7  1  0  0  0
  2  9  1  0  0  0
  4  3  4  0  0  0
  3 16  1  0  0  0
  3 41  4  0  0  0
  6  4  4  0  0  0
  5  6  4  0  0  0
  5 41  4  0  0  0
  6 15  1  0  0  0
  7 10  1  0  0  0
  7 18  1  0  0  0
  9  8  1  0  0  0
  8 18  1  0  0  0
  8 27  1  0  0  0
  9 19  1  0  0  0
 10 11  1  0  0  0
 11 12  1  0  0  0
 11 13  1  0  0  0
 11 14  1  0  0  0
 19 20  4  0  0  0
 19 23  4  0  0  0
 20 21  4  0  0  0
 21 22  4  0  0  0
 22 25  4  0  0  0
 23 24  1  0  0  0
 23 25  4  0  0  0
 25 26  1  0  0  0
 27 28  1  0  0  0
 27 40  2  0  0  0
 28 29  1  0  0  0
 29 30  4  0  0  0
 29 31  4  0  0  0
 30 39  4  0  0  0
 31 32  1  0  0  0
 31 34  4  0  0  0
 32 33  1  0  0  0
 34 35  4  0  0  0
 35 36  1  0  0  0
 35 39  4  0  0  0
 36 37  2  0  0  0
 36 38  1  0  0  0
  4 42  1  0  0  0
  7 43  1  0  0  0
  8 44  1  0  0  0
  9 45  1  0  0  0
 10 46  1  0  0  0
 10 47  1  0  0  0
 12 48  1  0  0  0
 12 49  1  0  0  0
 12 50  1  0  0  0
 13 51  1  0  0  0
 13 52  1  0  0  0
 13 53  1  0  0  0
 14 54  1  0  0  0
 14 55  1  0  0  0
 14 56  1  0  0  0
 15 57  1  0  0  0
 18 58  1  0  0  0
 18 59  1  0  0  0
 20 60  1  0  0  0
 21 61  1  0  0  0
 22 62  1  0  0  0
 28 63  1  0  0  0
 30 64  1  0  0  0
 33 65  1  0  0  0
 33 66  1  0  0  0
 33 67  1  0  0  0
 34 68  1  0  0  0
 38 69  1  0  0  0
 38 70  1  0  0  0
 39 71  1  0  0  0
M  END
$$$$
