3ukr_ligand
  -I-interpret- 

 38 40  0  0  0  0  0  0  0  0999 V2000
    2.3450   14.7090   38.6440 C   0  0  0  0  0
    1.1600   14.9290   37.7010 C   0  0  0  0  0
    0.5770   13.9750   36.9820 N   0  0  0  0  0
   -0.4480   14.5090   36.3170 C   0  0  0  0  0
   -1.3870   13.9460   35.4600 C   0  0  0  0  0
   -2.3950   14.7320   34.9120 C   0  0  0  0  0
   -2.4670   16.0850   35.2170 C   0  0  0  0  0
   -1.5270   16.6530   36.0720 C   0  0  0  0  0
   -0.5220   15.8650   36.6190 C   0  0  0  0  0
    0.5140   16.1420   37.5030 C   0  0  0  0  0
    0.8950   17.5120   38.0720 C   0  0  0  0  0
    0.1010   17.8350   39.3400 C   0  0  0  0  0
    0.4990   16.9240   40.4230 N   0  0  0  0  0
    1.4030   17.2820   41.3290 C   0  0  0  0  0
    1.9490   18.3870   41.3270 O   0  0  0  0  0
    1.7400   16.2520   42.4110 C   0  0  0  0  0
    2.8370   16.4880   43.2280 C   0  0  0  0  0
    3.1860   15.5860   44.2290 C   0  0  0  0  0
    2.4320   14.4330   44.4160 C   0  0  0  0  0
    1.3330   14.1930   43.6000 C   0  0  0  0  0
    0.9860   15.0950   42.6030 C   0  0  0  0  0
   -0.0980   14.8300   41.8450 F   0  0  0  0  0
    2.0636   13.9958   39.4188 H   0  0  0  0  0
    3.1904   14.3178   38.0780 H   0  0  0  0  0
    2.6221   15.6573   39.1046 H   0  0  0  0  0
   -1.3329   12.8849   35.2168 H   0  0  0  0  0
   -3.1297   14.2854   34.2420 H   0  0  0  0  0
   -3.2576   16.7005   34.7879 H   0  0  0  0  0
   -1.5793   17.7149   36.3122 H   0  0  0  0  0
    0.6711   18.2710   37.3224 H   0  0  0  0  0
    1.9555   17.4980   38.3235 H   0  0  0  0  0
   -0.9634   17.7128   39.1394 H   0  0  0  0  0
    0.3048   18.8627   39.6406 H   0  0  0  0  0
    0.0730   15.9990   40.4802 H   0  0  0  0  0
    3.4319   17.3899   43.0841 H   0  0  0  0  0
    4.0489   15.7833   44.8651 H   0  0  0  0  0
    2.7010   13.7221   45.1973 H   0  0  0  0  0
    0.7392   13.2903   43.7436 H   0  0  0  0  0
  1  2  1  0  0  0
  2  3  4  0  0  0
  2 10  4  0  0  0
  3  4  4  0  0  0
  4  5  4  0  0  0
  4  9  4  0  0  0
  5  6  4  0  0  0
  6  7  4  0  0  0
  7  8  4  0  0  0
  8  9  4  0  0  0
  9 10  4  0  0  0
 10 11  1  0  0  0
 11 12  1  0  0  0
 12 13  1  0  0  0
 13 14  1  0  0  0
 14 15  2  0  0  0
 14 16  1  0  0  0
 16 17  4  0  0  0
 16 21  4  0  0  0
 17 18  4  0  0  0
 18 19  4  0  0  0
 19 20  4  0  0  0
 20 21  4  0  0  0
 21 22  1  0  0  0
  1 23  1  0  0  0
  1 24  1  0  0  0
  1 25  1  0  0  0
  5 26  1  0  0  0
  6 27  1  0  0  0
  7 28  1  0  0  0
  8 29  1  0  0  0
 11 30  1  0  0  0
 11 31  1  0  0  0
 12 32  1  0  0  0
 12 33  1  0  0  0
 13 34  1  0  0  0
 17 35  1  0  0  0
 18 36  1  0  0  0
 19 37  1  0  0  0
 20 38  1  0  0  0
M  END
$$$$
