5jy3_ligand
  -I-interpret- 

 68 71  0  0  0  0  0  0  0  0999 V2000
   33.6910   21.3290   21.4940 C   0  0  0  0  0
   34.0140   21.7020   20.1990 C   0  0  0  0  0
   35.1790   23.0350   22.3740 C   0  0  0  0  0
   35.5190   23.4220   21.0640 C   0  0  0  0  0
   36.5350   24.6060   20.8610 C   0  0  0  0  0
   34.9160   22.7400   19.9970 C   0  0  0  0  0
   37.5390   16.9260   21.0310 C   0  0  0  0  0
   37.2860   19.2940   20.8530 C   0  0  0  0  0
   37.8380   24.3220   21.6450 C   0  0  0  0  0
   38.0510   21.8770   21.6620 C   0  0  0  0  0
   38.1230   21.4660   20.3270 C   0  0  0  0  0
   39.6150   24.8350   22.6330 C   0  0  0  0  0
   39.6020   23.4970   22.5940 C   0  0  0  0  0
   35.9310   14.0840   18.8010 C   0  0  0  0  0
   38.3820   14.8690   22.9700 C   0  0  0  0  0
   37.9300   14.3390   21.3950 S   0  0  0  0  0
   37.0010   13.1990   21.4520 O   0  0  0  0  0
   39.2320   13.8700   20.7210 O   0  0  0  0  0
   37.2320   15.6350   20.5840 C   0  0  0  0  0
   36.3670   15.4220   19.4620 C   0  0  0  0  0
   36.9240   13.6080   17.8230 O   0  0  0  0  0
   35.8630   16.5580   18.9130 C   0  0  0  0  0
   35.0950   16.3270   17.9000 F   0  0  0  0  0
   36.1130   17.8450   19.3560 C   0  0  0  0  0
   36.9690   18.0260   20.4190 C   0  0  0  0  0
   37.2360   19.6580   22.2050 C   0  0  0  0  0
   37.6170   20.9510   22.6010 C   0  0  0  0  0
   37.4980   21.3130   23.8950 F   0  0  0  0  0
   37.7410   20.1980   19.9130 C   0  0  0  0  0
   38.4570   23.1500   21.9760 N   0  0  0  0  0
   40.6260   25.7990   23.1900 C   0  0  0  0  0
   41.0690   25.2770   24.5520 C   0  0  0  0  0
   41.7900   25.9750   22.2050 C   0  0  0  0  0
   39.9120   27.0210   23.2140 O   0  0  0  0  0
   38.5570   25.3410   22.0650 N   0  0  0  0  0
   36.9860   24.9150   19.4040 C   0  0  0  0  0
   35.8260   25.8450   21.4240 C   0  0  0  0  0
   35.8990   23.8080   23.7650 Cl  0  0  0  0  0
   34.2690   21.9920   22.5690 C   0  0  0  0  0
   35.3130   23.1430   18.3660 Cl  0  0  0  0  0
   32.9849   20.5171   21.6686 H   0  0  0  0  0
   33.5660   21.1875   19.3489 H   0  0  0  0  0
   38.2291   17.0635   21.8635 H   0  0  0  0  0
   38.4940   22.1700   19.5821 H   0  0  0  0  0
   40.3651   22.8235   22.9842 H   0  0  0  0  0
   34.9888   14.2508   18.2790 H   0  0  0  0  0
   35.8327   13.3314   19.5834 H   0  0  0  0  0
   37.4915   15.1775   23.5176 H   0  0  0  0  0
   38.8714   14.0521   23.5003 H   0  0  0  0  0
   39.0682   15.7117   22.8854 H   0  0  0  0  0
   36.6213   12.7827   17.4371 H   0  0  0  0  0
   35.6407   18.6999   18.8721 H   0  0  0  0  0
   36.9010   18.9370   22.9507 H   0  0  0  0  0
   37.7991   19.9192   18.8609 H   0  0  0  0  0
   40.2049   25.2113   25.2131 H   0  0  0  0  0
   41.5137   24.2889   24.4339 H   0  0  0  0  0
   41.8041   25.9589   24.9795 H   0  0  0  0  0
   42.2705   25.0112   22.0364 H   0  0  0  0  0
   41.4093   26.3629   21.2602 H   0  0  0  0  0
   42.5139   26.6754   22.6215 H   0  0  0  0  0
   40.4785   27.7146   23.5598 H   0  0  0  0  0
   37.6473   25.7815   19.4058 H   0  0  0  0  0
   37.5156   24.0530   18.9984 H   0  0  0  0  0
   36.1099   25.1262   18.7909 H   0  0  0  0  0
   35.5788   25.6757   22.4720 H   0  0  0  0  0
   36.4853   26.7089   21.3398 H   0  0  0  0  0
   34.9121   26.0273   20.8587 H   0  0  0  0  0
   34.0080   21.6932   23.5842 H   0  0  0  0  0
  2  1  4  0  0  0
 39  1  4  0  0  0
  6  2  4  0  0  0
  4  3  4  0  0  0
  3 38  1  0  0  0
  3 39  4  0  0  0
  5  4  1  0  0  0
  4  6  4  0  0  0
  9  5  1  0  0  0
  5 36  1  0  0  0
  5 37  1  0  0  0
  6 40  1  0  0  0
 19  7  4  0  0  0
  7 25  4  0  0  0
 25  8  1  0  0  0
  8 26  4  0  0  0
  8 29  4  0  0  0
 30  9  4  0  0  0
  9 35  4  0  0  0
 11 10  4  0  0  0
 10 27  4  0  0  0
 10 30  1  0  0  0
 29 11  4  0  0  0
 13 12  4  0  0  0
 12 31  1  0  0  0
 12 35  4  0  0  0
 30 13  4  0  0  0
 20 14  1  0  0  0
 14 21  1  0  0  0
 16 15  1  0  0  0
 16 17  2  0  0  0
 16 18  2  0  0  0
 19 16  1  0  0  0
 19 20  4  0  0  0
 20 22  4  0  0  0
 22 23  1  0  0  0
 22 24  4  0  0  0
 24 25  4  0  0  0
 26 27  4  0  0  0
 27 28  1  0  0  0
 31 32  1  0  0  0
 31 33  1  0  0  0
 31 34  1  0  0  0
  1 41  1  0  0  0
  2 42  1  0  0  0
  7 43  1  0  0  0
 11 44  1  0  0  0
 13 45  1  0  0  0
 14 46  1  0  0  0
 14 47  1  0  0  0
 15 48  1  0  0  0
 15 49  1  0  0  0
 15 50  1  0  0  0
 21 51  1  0  0  0
 24 52  1  0  0  0
 26 53  1  0  0  0
 29 54  1  0  0  0
 32 55  1  0  0  0
 32 56  1  0  0  0
 32 57  1  0  0  0
 33 58  1  0  0  0
 33 59  1  0  0  0
 33 60  1  0  0  0
 34 61  1  0  0  0
 36 62  1  0  0  0
 36 63  1  0  0  0
 36 64  1  0  0  0
 37 65  1  0  0  0
 37 66  1  0  0  0
 37 67  1  0  0  0
 39 68  1  0  0  0
M  END
$$$$
