4uhg_ligand
  -I-interpret- 

 30 32  0  0  0  0  0  0  0  0999 V2000
  -39.4250  -12.4440    9.8910 C   0  0  0  0  0
  -39.4530  -12.1280    8.5260 C   0  0  0  0  0
  -38.8860  -10.9690    8.0360 C   0  0  0  0  0
  -38.9270  -10.6830    6.6360 C   0  0  0  0  0
  -38.3150  -10.0820    8.9370 C   0  0  0  0  0
  -38.2800  -10.3800   10.2990 C   0  0  0  0  0
  -38.8110  -11.5870   10.8080 C   0  0  0  0  0
  -38.8230  -11.8740   12.2010 C   0  0  0  0  0
  -39.6380  -12.8260   12.6850 N   0  0  0  0  0
  -39.6760  -13.1170   13.9970 C   0  0  0  0  0
  -40.5460  -14.1300   14.4270 C   0  0  0  0  0
  -40.6310  -14.4240   15.7790 C   0  0  0  0  0
  -39.8760  -13.7030   16.7080 C   0  0  0  0  0
  -39.0300  -12.6680   16.2740 C   0  0  0  0  0
  -38.9330  -12.3790   14.9240 C   0  0  0  0  0
  -38.0450  -11.3970   14.4490 C   0  0  0  0  0
  -37.2890  -10.7420   15.1760 O   0  0  0  0  0
  -38.0240  -11.1460   13.0950 N   0  0  0  0  0
  -39.8867  -13.3674   10.2408 H   0  0  0  0  0
  -39.9358  -12.8164    7.8323 H   0  0  0  0  0
  -38.4159  -11.4756    6.0894 H   0  0  0  0  0
  -39.9650  -10.6251    6.3085 H   0  0  0  0  0
  -38.4312   -9.7310    6.4463 H   0  0  0  0  0
  -37.8903   -9.1447    8.5776 H   0  0  0  0  0
  -37.8320   -9.6642   10.9882 H   0  0  0  0  0
  -41.1492  -14.6805   13.7051 H   0  0  0  0  0
  -41.2906  -15.2222   16.1195 H   0  0  0  0  0
  -39.9432  -13.9433   17.7691 H   0  0  0  0  0
  -38.4519  -12.0945   16.9986 H   0  0  0  0  0
  -37.4130  -10.4135   12.7338 H   0  0  0  0  0
  1  2  4  0  0  0
  1  7  4  0  0  0
  2  3  4  0  0  0
  3  4  1  0  0  0
  3  5  4  0  0  0
  5  6  4  0  0  0
  6  7  4  0  0  0
  7  8  1  0  0  0
  8  9  2  0  0  0
  8 18  1  0  0  0
  9 10  1  0  0  0
 10 11  4  0  0  0
 10 15  4  0  0  0
 11 12  4  0  0  0
 12 13  4  0  0  0
 13 14  4  0  0  0
 14 15  4  0  0  0
 15 16  1  0  0  0
 16 17  2  0  0  0
 16 18  1  0  0  0
  1 19  1  0  0  0
  2 20  1  0  0  0
  4 21  1  0  0  0
  4 22  1  0  0  0
  4 23  1  0  0  0
  5 24  1  0  0  0
  6 25  1  0  0  0
 11 26  1  0  0  0
 12 27  1  0  0  0
 13 28  1  0  0  0
 14 29  1  0  0  0
 18 30  1  0  0  0
M  END
$$$$
