2y8c_ligand
  -I-interpret- 

 69 72  0  0  0  0  0  0  0  0999 V2000
   -2.0330   25.4040   -0.9160 O   0  0  0  0  0
   -3.1920   25.4130   -0.4620 C   0  0  0  0  0
   -4.0470   24.3630   -0.6210 N   0  0  0  0  0
   -5.2950   24.4280   -0.1040 C   0  0  0  0  0
   -6.1410   23.5020   -0.1760 O   0  0  0  0  0
   -3.5810   26.5450    0.2040 C   0  0  0  0  0
   -4.8910   26.6240    0.7080 C   0  0  0  0  0
   -5.7180   25.5780    0.5790 N   0  0  0  0  0
   -7.1290   25.6180    1.0460 C   0  0  0  0  0
   -7.8340   26.8220    0.3880 C   0  0  0  0  0
   -9.2830   27.0750    0.7800 C   0  0  0  0  0
  -10.3300   26.6260    0.0970 N   0  0  0  0  0
  -11.7300   26.8630    0.4800 C   0  0  0  0  0
  -12.5360   25.9670   -0.4560 C   0  0  0  0  0
  -12.5900   26.6450   -1.7310 O   0  0  0  0  0
   -9.4240   27.7810    1.7290 O   0  0  0  0  0
   -7.6240   26.8950   -1.0970 C   0  0  0  0  0
   -8.3430   28.0280   -1.8470 C   0  0  0  0  0
   -9.0220   27.2660   -2.8810 O   0  0  0  0  0
   -8.4630   27.2000   -4.2170 C   0  0  0  0  0
   -9.2720   26.0900   -4.8620 C   0  0  0  0  0
  -10.4610   25.6460   -4.2450 C   0  0  0  0  0
  -11.1880   24.5950   -4.8470 C   0  0  0  0  0
  -10.8010   24.0140   -6.0580 C   0  0  0  0  0
   -9.6320   24.4860   -6.6780 C   0  0  0  0  0
   -8.9160   25.5180   -6.0860 C   0  0  0  0  0
   -8.8610   28.4920   -4.9180 C   0  0  0  0  0
   -9.8900   29.2920   -4.3520 C   0  0  0  0  0
  -10.3020   30.4900   -4.9780 C   0  0  0  0  0
   -9.7100   30.8580   -6.2000 C   0  0  0  0  0
   -8.7000   30.0650   -6.7890 C   0  0  0  0  0
   -8.2770   28.8830   -6.1440 C   0  0  0  0  0
   -6.9310   26.9170   -4.1300 C   0  0  0  0  0
   -6.4500   25.6250   -3.8040 C   0  0  0  0  0
   -5.0400   25.3500   -3.6600 C   0  0  0  0  0
   -4.1280   26.3820   -3.8750 C   0  0  0  0  0
   -4.5850   27.6880   -4.1960 C   0  0  0  0  0
   -5.9690   27.9430   -4.3140 C   0  0  0  0  0
   -3.7463   23.5308   -1.1284 H   0  0  0  0  0
   -2.8850   27.3725    0.3412 H   0  0  0  0  0
   -5.2327   27.5335    1.2022 H   0  0  0  0  0
   -7.1571   25.7201    2.1308 H   0  0  0  0  0
   -7.6371   24.6945    0.7685 H   0  0  0  0  0
   -7.3069   27.6619    0.8407 H   0  0  0  0  0
  -10.1516   26.0820   -0.7472 H   0  0  0  0  0
  -12.0090   27.9123    0.3836 H   0  0  0  0  0
  -11.9129   26.6294    1.5289 H   0  0  0  0  0
  -13.5383   25.7953   -0.0635 H   0  0  0  0  0
  -12.0687   24.9873   -0.5554 H   0  0  0  0  0
  -13.0909   26.1133   -2.3539 H   0  0  0  0  0
   -8.0277   25.9667   -1.5012 H   0  0  0  0  0
   -6.5580   27.0729   -1.2390 H   0  0  0  0  0
   -7.6792   28.8047   -2.2268 H   0  0  0  0  0
   -9.0072   28.6263   -1.2233 H   0  0  0  0  0
  -10.8119   26.1055   -3.3210 H   0  0  0  0  0
  -12.0835   24.2235   -4.3489 H   0  0  0  0  0
  -11.3905   23.2159   -6.5093 H   0  0  0  0  0
   -9.2903   24.0462   -7.6150 H   0  0  0  0  0
   -8.0343   25.9000   -6.6006 H   0  0  0  0  0
  -10.3673   28.9778   -3.4238 H   0  0  0  0  0
  -11.0663   31.1189   -4.5214 H   0  0  0  0  0
  -10.0359   31.7698   -6.7005 H   0  0  0  0  0
   -8.2502   30.3642   -7.7357 H   0  0  0  0  0
   -7.4965   28.2691   -6.5935 H   0  0  0  0  0
   -7.1649   24.8153   -3.6577 H   0  0  0  0  0
   -4.6946   24.3526   -3.3879 H   0  0  0  0  0
   -3.0587   26.1858   -3.7964 H   0  0  0  0  0
   -3.8673   28.4936   -4.3513 H   0  0  0  0  0
   -6.3059   28.9519   -4.5521 H   0  0  0  0  0
  1  2  2  0  0  0
  2  3  1  0  0  0
  2  6  1  0  0  0
  3  4  1  0  0  0
  4  5  2  0  0  0
  4  8  1  0  0  0
  6  7  2  0  0  0
  7  8  1  0  0  0
  8  9  1  0  0  0
  9 10  1  0  0  0
 10 11  1  0  0  0
 10 17  1  0  0  0
 11 12  1  0  0  0
 11 16  2  0  0  0
 12 13  1  0  0  0
 13 14  1  0  0  0
 14 15  1  0  0  0
 17 18  1  0  0  0
 18 19  1  0  0  0
 19 20  1  0  0  0
 20 21  1  0  0  0
 20 27  1  0  0  0
 20 33  1  0  0  0
 21 22  4  0  0  0
 21 26  4  0  0  0
 22 23  4  0  0  0
 23 24  4  0  0  0
 24 25  4  0  0  0
 25 26  4  0  0  0
 27 28  4  0  0  0
 27 32  4  0  0  0
 28 29  4  0  0  0
 29 30  4  0  0  0
 30 31  4  0  0  0
 31 32  4  0  0  0
 33 34  4  0  0  0
 33 38  4  0  0  0
 34 35  4  0  0  0
 35 36  4  0  0  0
 36 37  4  0  0  0
 37 38  4  0  0  0
  3 39  1  0  0  0
  6 40  1  0  0  0
  7 41  1  0  0  0
  9 42  1  0  0  0
  9 43  1  0  0  0
 10 44  1  0  0  0
 12 45  1  0  0  0
 13 46  1  0  0  0
 13 47  1  0  0  0
 14 48  1  0  0  0
 14 49  1  0  0  0
 15 50  1  0  0  0
 17 51  1  0  0  0
 17 52  1  0  0  0
 18 53  1  0  0  0
 18 54  1  0  0  0
 22 55  1  0  0  0
 23 56  1  0  0  0
 24 57  1  0  0  0
 25 58  1  0  0  0
 26 59  1  0  0  0
 28 60  1  0  0  0
 29 61  1  0  0  0
 30 62  1  0  0  0
 31 63  1  0  0  0
 32 64  1  0  0  0
 34 65  1  0  0  0
 35 66  1  0  0  0
 36 67  1  0  0  0
 37 68  1  0  0  0
 38 69  1  0  0  0
M  END
$$$$
