4bw3_ligand
  -I-interpret- 

 59 62  0  0  0  0  0  0  0  0999 V2000
    9.9490    5.0650   12.2350 C   0  0  0  0  0
   10.9040    6.0860   11.7150 C   0  0  0  0  0
   10.5820    7.3480   11.7790 N   0  0  0  0  0
   11.6720    8.0620   11.2160 O   0  0  0  0  0
   12.6050    7.1750   10.8450 C   0  0  0  0  0
   13.8330    7.7350   10.2290 C   0  0  0  0  0
   12.1760    5.9190   11.1230 C   0  0  0  0  0
   12.8920    4.6530   10.8520 C   0  0  0  0  0
   13.2560    4.3230    9.5370 C   0  0  0  0  0
   14.2120    2.3740   10.1070 C   0  0  0  0  0
   14.9140    1.1830    9.7550 C   0  0  0  0  0
   15.2200    0.8880    8.4320 N   0  0  0  0  0
   15.4610    1.7800    7.3520 C   0  0  0  0  0
   16.6500    2.5100    7.3350 C   0  0  0  0  0
   16.9260    3.3740    6.2900 C   0  0  0  0  0
   16.0390    3.5150    5.2470 C   0  0  0  0  0
   14.8560    2.7950    5.2290 C   0  0  0  0  0
   14.5290    1.9230    6.2650 C   0  0  0  0  0
   13.1950    1.1370    6.1760 C   0  0  0  0  0
   12.2090    1.8040    5.2010 C   0  0  0  0  0
   13.4520   -0.2810    5.6690 C   0  0  0  0  0
   12.4560    1.0290    7.5140 C   0  0  0  0  0
   15.2290    0.2900   10.8000 C   0  0  0  0  0
   14.8570    0.6380   12.1060 C   0  0  0  0  0
   14.2210    1.7250   12.4690 N   0  0  0  0  0
   13.8860    2.6190   11.4830 C   0  0  0  0  0
   13.2040    3.7930   11.8670 C   0  0  0  0  0
   15.9620   -0.9910   10.5830 C   0  0  0  0  0
   13.6420    5.3540    7.4310 C   0  0  0  0  0
   16.3740   -1.3060    9.4730 O   0  0  0  0  0
   16.1450   -1.7230   11.6440 O   0  0  0  0  0
   12.8790    5.2530    8.6370 O   0  0  0  0  0
   13.8830    3.2620    9.1150 N   0  0  0  0  0
    9.7664    5.2463   13.2942 H   0  0  0  0  0
    9.0099    5.1348   11.6860 H   0  0  0  0  0
   10.3752    4.0704   12.1035 H   0  0  0  0  0
   13.5666    8.2870    9.3276 H   0  0  0  0  0
   14.3196    8.4059   10.9369 H   0  0  0  0  0
   14.5119    6.9221    9.9714 H   0  0  0  0  0
   15.2799   -0.1046    8.2048 H   0  0  0  0  0
   17.3656    2.3990    8.1497 H   0  0  0  0  0
   17.8530    3.9474    6.2928 H   0  0  0  0  0
   16.2692    4.1981    4.4294 H   0  0  0  0  0
   14.1696    2.9126    4.3905 H   0  0  0  0  0
   11.9909    2.8159    5.5424 H   0  0  0  0  0
   12.6535    1.8426    4.2065 H   0  0  0  0  0
   11.2866    1.2243    5.1658 H   0  0  0  0  0
   13.9067   -0.2348    4.6794 H   0  0  0  0  0
   14.1247   -0.7947    6.3558 H   0  0  0  0  0
   12.5073   -0.8217    5.6113 H   0  0  0  0  0
   13.0895    0.5153    8.2371 H   0  0  0  0  0
   12.2217    2.0287    7.8799 H   0  0  0  0  0
   11.5330    0.4665    7.3734 H   0  0  0  0  0
   15.1225   -0.0638   12.8966 H   0  0  0  0  0
   12.9432    4.0002   12.9049 H   0  0  0  0  0
   14.6769    5.5928    7.6762 H   0  0  0  0  0
   13.6035    4.4042    6.8976 H   0  0  0  0  0
   13.2249    6.1417    6.8036 H   0  0  0  0  0
   15.7432   -1.2921   12.4019 H   0  0  0  0  0
  2  1  1  0  0  0
  2  3  4  0  0  0
  7  2  4  0  0  0
  4  3  4  0  0  0
  5  4  4  0  0  0
  5  6  1  0  0  0
  7  5  4  0  0  0
  8  7  1  0  0  0
  9  8  4  0  0  0
  8 27  4  0  0  0
  9 32  1  0  0  0
 33  9  4  0  0  0
 10 11  4  0  0  0
 10 26  4  0  0  0
 10 33  4  0  0  0
 11 12  1  0  0  0
 11 23  4  0  0  0
 12 13  1  0  0  0
 13 14  4  0  0  0
 13 18  4  0  0  0
 14 15  4  0  0  0
 15 16  4  0  0  0
 16 17  4  0  0  0
 17 18  4  0  0  0
 18 19  1  0  0  0
 19 20  1  0  0  0
 19 21  1  0  0  0
 19 22  1  0  0  0
 23 24  4  0  0  0
 23 28  1  0  0  0
 24 25  4  0  0  0
 25 26  4  0  0  0
 26 27  4  0  0  0
 28 30  2  0  0  0
 28 31  1  0  0  0
 32 29  1  0  0  0
  1 34  1  0  0  0
  1 35  1  0  0  0
  1 36  1  0  0  0
  6 37  1  0  0  0
  6 38  1  0  0  0
  6 39  1  0  0  0
 12 40  1  0  0  0
 14 41  1  0  0  0
 15 42  1  0  0  0
 16 43  1  0  0  0
 17 44  1  0  0  0
 20 45  1  0  0  0
 20 46  1  0  0  0
 20 47  1  0  0  0
 21 48  1  0  0  0
 21 49  1  0  0  0
 21 50  1  0  0  0
 22 51  1  0  0  0
 22 52  1  0  0  0
 22 53  1  0  0  0
 24 54  1  0  0  0
 27 55  1  0  0  0
 29 56  1  0  0  0
 29 57  1  0  0  0
 29 58  1  0  0  0
 31 59  1  0  0  0
M  END
$$$$
