1rev_ligand
  -I-interpret- 

 42 44  0  0  0  0  0  0  0  0999 V2000
    0.8980  -37.3110   18.5140 N   0  0  0  0  0
    0.2840  -37.1300   19.7030 C   0  0  0  0  0
    2.1420  -37.7570   18.7700 C   0  0  0  0  0
    3.3020  -38.0590   17.5780 S   0  0  0  0  0
    2.3500  -37.8790   20.1140 N   0  0  0  0  0
    1.2110  -37.4930   20.7250 C   0  0  0  0  0
    3.6220  -38.3840   20.6320 C   0  0  0  0  0
    3.5360  -38.9920   22.0390 C   0  0  0  0  0
    3.0190  -38.0210   23.0050 N   0  3  0  0  0
    1.5670  -38.1600   23.1250 C   0  0  0  0  0
    0.8230  -37.3720   22.0740 C   0  0  0  0  0
   -0.4320  -36.8990   22.3890 C   0  0  0  0  0
   -1.3250  -36.5530   21.3970 C   0  0  0  0  0
   -2.8610  -36.0010   21.8380 Cl  0  0  0  0  0
   -0.9800  -36.6610   20.0660 C   0  0  0  0  0
    2.7330  -40.2820   22.0090 C   0  0  0  0  0
    3.7770  -36.8760   23.5370 C   0  0  0  0  0
    3.0080  -36.1580   24.6020 C   0  0  0  0  0
    3.4910  -35.2020   25.3750 C   0  0  0  0  0
    2.6420  -34.5480   26.4230 C   0  0  0  0  0
    4.8940  -34.7090   25.2550 C   0  0  0  0  0
    0.4941  -37.1413   17.5929 H   0  0  0  0  0
    4.3033  -37.5352   20.6910 H   0  0  0  0  0
    3.9492  -39.1772   19.9598 H   0  0  0  0  0
    4.5406  -39.2482   22.3754 H   0  0  0  0  0
    3.5250  -38.0996   23.8872 H   0  0  0  0  0
    1.2720  -37.7793   24.1028 H   0  0  0  0  0
    1.3178  -39.2132   22.9954 H   0  0  0  0  0
   -0.7224  -36.7971   23.4346 H   0  0  0  0  0
   -1.6968  -36.3792   19.2947 H   0  0  0  0  0
    2.7585  -40.7474   22.9943 H   0  0  0  0  0
    1.7010  -40.0599   21.7373 H   0  0  0  0  0
    3.1655  -40.9607   21.2739 H   0  0  0  0  0
    3.9699  -36.1798   22.7208 H   0  0  0  0  0
    4.7050  -37.2475   23.9715 H   0  0  0  0  0
    1.9676  -36.4468   24.7513 H   0  0  0  0  0
    1.7801  -34.0781   25.9493 H   0  0  0  0  0
    2.3019  -35.3002   27.1347 H   0  0  0  0  0
    3.2289  -33.7918   26.9443 H   0  0  0  0  0
    5.5841  -35.5336   25.4337 H   0  0  0  0  0
    5.0534  -34.3108   24.2529 H   0  0  0  0  0
    5.0660  -33.9237   25.9910 H   0  0  0  0  0
  1  2  1  0  0  0
  1  3  1  0  0  0
  2  6  4  0  0  0
  2 15  4  0  0  0
  3  4  2  0  0  0
  3  5  1  0  0  0
  5  6  1  0  0  0
  5  7  1  0  0  0
  6 11  4  0  0  0
  7  8  1  0  0  0
  8  9  1  0  0  0
  8 16  1  0  0  0
  9 10  1  0  0  0
  9 17  1  0  0  0
 10 11  1  0  0  0
 11 12  4  0  0  0
 12 13  4  0  0  0
 13 14  1  0  0  0
 13 15  4  0  0  0
 17 18  1  0  0  0
 18 19  2  0  0  0
 19 20  1  0  0  0
 19 21  1  0  0  0
  1 22  1  0  0  0
  7 23  1  0  0  0
  7 24  1  0  0  0
  8 25  1  0  0  0
  9 26  1  0  0  0
 10 27  1  0  0  0
 10 28  1  0  0  0
 12 29  1  0  0  0
 15 30  1  0  0  0
 16 31  1  0  0  0
 16 32  1  0  0  0
 16 33  1  0  0  0
 17 34  1  0  0  0
 17 35  1  0  0  0
 18 36  1  0  0  0
 20 37  1  0  0  0
 20 38  1  0  0  0
 20 39  1  0  0  0
 21 40  1  0  0  0
 21 41  1  0  0  0
 21 42  1  0  0  0
M  END
$$$$
