2wqp_ligand
  -I-interpret- 

 47 46  0  0  0  0  0  0  0  0999 V2000
   95.7180  -19.7390   55.4620 O   0  0  0  0  0
   96.2220  -18.8830   54.3400 P   0  0  0  0  0
   96.6930  -17.4820   54.7370 O   0  0  0  0  0
   95.3710  -19.0110   53.0950 O   0  0  0  0  0
   97.6280  -19.5900   53.9530 O   0  0  0  0  0
   97.9380  -20.3200   52.7920 C   0  0  0  0  0
   99.4330  -20.4590   52.7460 C   0  0  0  0  0
  100.1020  -19.6700   53.4430 O   0  0  0  0  0
   99.9400  -21.3300   52.0000 O   0  0  0  0  0
   97.2590  -21.6850   52.7730 C   0  0  0  0  0
   96.5660  -21.8730   51.4250 C   0  0  0  0  0
   95.4130  -21.0130   51.4280 O   0  0  0  0  0
   96.1790  -23.3480   51.1770 C   0  0  0  0  0
   95.2390  -23.7710   52.2060 N   0  0  0  0  0
   95.5590  -24.6390   53.1650 C   0  0  0  0  0
   94.4740  -24.9830   54.1330 C   0  0  0  0  0
   96.6610  -25.1380   53.2590 O   0  0  0  0  0
   95.5570  -23.5740   49.7890 C   0  0  0  0  0
   96.3020  -22.9300   48.7410 O   0  0  0  0  0
   95.4180  -25.0540   49.4470 C   0  0  0  0  0
   96.7320  -25.6300   49.2750 O   0  0  0  0  0
   94.5900  -25.2840   48.1710 C   0  0  0  0  0
   93.3600  -24.5370   48.1780 O   0  0  0  0  0
   94.2630  -26.7630   48.0570 C   0  0  0  0  0
   93.2800  -26.9750   47.0410 O   0  0  0  0  0
   96.9953  -17.0138   53.9553 H   0  0  0  0  0
   95.7289  -18.4478   52.4048 H   0  0  0  0  0
   97.5678  -19.7933   51.9124 H   0  0  0  0  0
   99.2409  -21.8204   51.5615 H   0  0  0  0  0
   96.5247  -21.7429   53.5765 H   0  0  0  0  0
   98.0025  -22.4688   52.9180 H   0  0  0  0  0
   97.2397  -21.6098   50.6096 H   0  0  0  0  0
   94.9468  -21.1017   50.5935 H   0  0  0  0  0
   97.0935  -23.9398   51.2178 H   0  0  0  0  0
   94.2946  -23.3860   52.1919 H   0  0  0  0  0
   94.2734  -26.0534   54.0866 H   0  0  0  0  0
   94.7897  -24.7145   55.1411 H   0  0  0  0  0
   93.5702  -24.4312   53.8749 H   0  0  0  0  0
   94.5651  -23.1261   49.8490 H   0  0  0  0  0
   95.8766  -23.0991   47.8972 H   0  0  0  0  0
   94.8917  -25.5347   50.2716 H   0  0  0  0  0
   96.6461  -26.5616   49.0597 H   0  0  0  0  0
   95.1840  -24.9432   47.3229 H   0  0  0  0  0
   92.8773  -24.7099   47.3664 H   0  0  0  0  0
   93.8716  -27.1162   49.0110 H   0  0  0  0  0
   95.1693  -27.3094   47.7959 H   0  0  0  0  0
   93.0824  -27.9124   46.9791 H   0  0  0  0  0
  1  2  2  0  0  0
  2  3  1  0  0  0
  2  4  1  0  0  0
  2  5  1  0  0  0
  5  6  1  0  0  0
  6  7  1  0  0  0
  6 10  1  0  0  0
  7  8  2  0  0  0
  7  9  1  0  0  0
 10 11  1  0  0  0
 11 12  1  0  0  0
 11 13  1  0  0  0
 13 14  1  0  0  0
 13 18  1  0  0  0
 14 15  1  0  0  0
 15 16  1  0  0  0
 15 17  2  0  0  0
 18 19  1  0  0  0
 18 20  1  0  0  0
 20 21  1  0  0  0
 20 22  1  0  0  0
 22 23  1  0  0  0
 22 24  1  0  0  0
 24 25  1  0  0  0
  3 26  1  0  0  0
  4 27  1  0  0  0
  6 28  1  0  0  0
  9 29  1  0  0  0
 10 30  1  0  0  0
 10 31  1  0  0  0
 11 32  1  0  0  0
 12 33  1  0  0  0
 13 34  1  0  0  0
 14 35  1  0  0  0
 16 36  1  0  0  0
 16 37  1  0  0  0
 16 38  1  0  0  0
 18 39  1  0  0  0
 19 40  1  0  0  0
 20 41  1  0  0  0
 21 42  1  0  0  0
 22 43  1  0  0  0
 23 44  1  0  0  0
 24 45  1  0  0  0
 24 46  1  0  0  0
 25 47  1  0  0  0
M  END
$$$$
