3cgy_ligand
  -I-interpret- 

 42 44  0  0  0  0  0  0  0  0999 V2000
   61.5240    6.3360   21.5630 C   0  0  0  0  0
   62.8820    6.9090   21.1560 C   0  0  0  0  0
   63.4600    6.5500   19.8740 C   0  0  0  0  0
   64.6940    7.0720   19.5010 C   0  0  0  0  0
   65.4060    7.9550   20.3150 C   0  0  0  0  0
   64.8940    8.3490   21.5910 C   0  0  0  0  0
   63.6360    7.8490   22.0260 C   0  0  0  0  0
   63.0800    8.2780   23.4190 C   0  0  0  0  0
   63.7520    7.6610   24.6050 C   0  0  0  0  0
   63.5800    6.2480   25.0280 C   0  0  0  0  0
   62.8090    5.2460   24.4130 C   0  0  0  0  0
   62.8020    3.9160   25.0880 C   0  0  0  0  0
   62.1820    2.7230   24.7390 C   0  0  0  0  0
   61.2860    2.1830   23.5620 C   0  0  0  0  0
   59.9760    2.9070   23.0280 C   0  0  0  0  0
   60.1880    3.3350   21.5530 C   0  0  0  0  0
   59.5630    4.7220   21.0980 C   0  0  0  0  0
   58.7080    5.4320   22.1880 C   0  0  0  0  0
   60.8340    5.4340   20.7530 O   0  0  0  0  0
   61.0580    6.6580   22.6850 O   0  0  0  0  0
   62.8520    5.6980   19.0480 O   0  0  0  0  0
   66.5830    8.4170   19.8710 O   0  0  0  0  0
   65.8360    9.4680   22.5760 Cl  0  0  0  0  0
   64.5000    8.4110   25.2950 O   0  0  0  0  0
   60.0430    1.5590   23.5940 O   0  0  0  0  0
   65.1197    6.7818   18.5404 H   0  0  0  0  0
   62.0403    7.9522   23.4496 H   0  0  0  0  0
   63.2417    9.3531   23.4977 H   0  0  0  0  0
   64.1188    5.9505   25.9276 H   0  0  0  0  0
   62.2490    5.4304   23.4962 H   0  0  0  0  0
   63.3809    3.8729   26.0106 H   0  0  0  0  0
   62.3661    1.9486   25.4837 H   0  0  0  0  0
   62.2665    1.8843   23.1912 H   0  0  0  0  0
   59.2488    3.7019   23.1931 H   0  0  0  0  0
   59.6885    2.5756   20.9515 H   0  0  0  0  0
   61.2656    3.4432   21.4299 H   0  0  0  0  0
   58.8276    4.6603   20.2958 H   0  0  0  0  0
   57.8770    4.7870   22.4733 H   0  0  0  0  0
   59.3291    5.6340   23.0607 H   0  0  0  0  0
   58.3214    6.3704   21.7905 H   0  0  0  0  0
   63.3837    5.5870   18.2564 H   0  0  0  0  0
   66.9604    9.0094   20.5254 H   0  0  0  0  0
  1  2  1  0  0  0
  1 19  1  0  0  0
  1 20  2  0  0  0
  2  3  4  0  0  0
  2  7  4  0  0  0
  3  4  4  0  0  0
  3 21  1  0  0  0
  4  5  4  0  0  0
  5  6  4  0  0  0
  5 22  1  0  0  0
  6  7  4  0  0  0
  6 23  1  0  0  0
  7  8  1  0  0  0
  8  9  1  0  0  0
  9 10  1  0  0  0
  9 24  2  0  0  0
 10 11  2  0  0  0
 11 12  1  0  0  0
 12 13  2  0  0  0
 13 14  1  0  0  0
 14 15  1  0  0  0
 14 25  1  0  0  0
 15 16  1  0  0  0
 15 25  1  0  0  0
 16 17  1  0  0  0
 17 18  1  0  0  0
 17 19  1  0  0  0
  4 26  1  0  0  0
  8 27  1  0  0  0
  8 28  1  0  0  0
 10 29  1  0  0  0
 11 30  1  0  0  0
 12 31  1  0  0  0
 13 32  1  0  0  0
 14 33  1  0  0  0
 15 34  1  0  0  0
 16 35  1  0  0  0
 16 36  1  0  0  0
 17 37  1  0  0  0
 18 38  1  0  0  0
 18 39  1  0  0  0
 18 40  1  0  0  0
 21 41  1  0  0  0
 22 42  1  0  0  0
M  END
$$$$
