5f2r_ligand
  -I-interpret- 

 49 51  0  0  0  0  0  0  0  0999 V2000
   19.7520    3.1920    2.3630 P   0  0  0  0  0
   18.6550    2.9540    1.3620 O   0  0  0  0  0
   21.1470    3.2550    1.7380 O   0  0  0  0  0
   19.5690    4.3080    3.3820 O   0  0  0  0  0
   20.2380    0.1500    2.6160 P   0  0  0  0  0
   19.9080    0.1540    1.1350 O   0  0  0  0  0
   21.6900   -0.0960    2.9180 O   0  0  0  0  0
   19.6380    1.6850    3.4030 C   0  0  0  0  0
   18.7610   -2.2880    2.5140 P   0  0  0  0  0
   17.6950   -1.7830    1.6070 O   0  0  0  0  0
   20.0030   -2.9090    1.9030 O   0  0  0  0  0
   19.3110   -0.9910    3.2830 O   0  0  0  0  0
   18.1780   -3.0930    3.7540 O   0  0  0  0  0
   18.9510   -3.8230    4.6920 C   0  0  0  0  0
   17.9260   -4.4320    5.6350 C   0  0  0  0  0
   17.1810   -5.4130    4.9020 O   0  0  0  0  0
   18.5450   -5.1570    6.8460 C   0  0  0  0  0
   17.8690   -4.8120    8.0190 O   0  0  0  0  0
   18.2840   -6.6150    6.5870 C   0  0  0  0  0
   18.2310   -7.3800    7.7950 O   0  0  0  0  0
   16.9570   -6.4700    5.8260 C   0  0  0  0  0
   16.6470   -7.6430    5.0570 N   0  0  0  0  0
   17.3820   -8.2060    4.0600 C   0  0  0  0  0
   16.7580   -9.3090    3.6210 N   0  0  0  0  0
   15.5990   -9.4430    4.3230 C   0  0  0  0  0
   14.5380  -10.3830    4.3350 C   0  0  0  0  0
   14.4570  -11.4580    3.4970 N   0  0  0  0  0
   13.5260  -10.1820    5.2310 N   0  0  0  0  0
   13.5440   -9.1250    6.0820 C   0  0  0  0  0
   14.5170   -8.2220    6.1310 N   0  0  0  0  0
   15.5470   -8.3870    5.2490 C   0  0  0  0  0
   21.7983    3.4082    2.4265 H   0  0  0  0  0
   20.3392    4.3473    3.9537 H   0  0  0  0  0
   18.9690    0.3160    1.0180 H   0  0  0  0  0
   18.5805    1.5332    3.6192 H   0  0  0  0  0
   20.2697    1.8575    4.2744 H   0  0  0  0  0
   20.5979   -3.1871    2.6032 H   0  0  0  0  0
   19.6640   -3.1877    5.2175 H   0  0  0  0  0
   19.5673   -4.5828    4.2114 H   0  0  0  0  0
   17.3191   -3.6091    6.0125 H   0  0  0  0  0
   19.5991   -4.9059    6.9639 H   0  0  0  0  0
   18.2661   -5.2712    8.7627 H   0  0  0  0  0
   19.0464   -7.1701    6.0404 H   0  0  0  0  0
   18.0631   -8.3009    7.5821 H   0  0  0  0  0
   16.1394   -6.3000    6.5265 H   0  0  0  0  0
   18.3279   -7.8216    3.6786 H   0  0  0  0  0
   15.1901  -11.6234    2.8073 H   0  0  0  0  0
   13.6634  -12.0956    3.5607 H   0  0  0  0  0
   12.7061   -9.0096    6.7696 H   0  0  0  0  0
  1  2  2  0  0  0
  1  3  1  0  0  0
  1  4  1  0  0  0
  8  1  1  0  0  0
  5  6  1  0  0  0
  5  7  2  0  0  0
  5  8  1  0  0  0
 12  5  1  0  0  0
  9 10  2  0  0  0
  9 11  1  0  0  0
  9 12  1  0  0  0
  9 13  1  0  0  0
 13 14  1  0  0  0
 14 15  1  0  0  0
 15 16  1  0  0  0
 15 17  1  0  0  0
 16 21  1  0  0  0
 17 18  1  0  0  0
 17 19  1  0  0  0
 19 20  1  0  0  0
 19 21  1  0  0  0
 21 22  1  0  0  0
 22 23  4  0  0  0
 22 31  4  0  0  0
 23 24  4  0  0  0
 24 25  4  0  0  0
 25 26  4  0  0  0
 25 31  4  0  0  0
 26 27  1  0  0  0
 26 28  4  0  0  0
 28 29  4  0  0  0
 29 30  4  0  0  0
 30 31  4  0  0  0
  3 32  1  0  0  0
  4 33  1  0  0  0
  6 34  1  0  0  0
  8 35  1  0  0  0
  8 36  1  0  0  0
 11 37  1  0  0  0
 14 38  1  0  0  0
 14 39  1  0  0  0
 15 40  1  0  0  0
 17 41  1  0  0  0
 18 42  1  0  0  0
 19 43  1  0  0  0
 20 44  1  0  0  0
 21 45  1  0  0  0
 23 46  1  0  0  0
 27 47  1  0  0  0
 27 48  1  0  0  0
 29 49  1  0  0  0
M  END
$$$$
