5i94_ligand
  -I-interpret- 

 62 66  0  0  0  0  0  0  0  0999 V2000
  121.0150  159.5160   43.5800 N   0  0  0  0  0
  121.7970  160.4340   44.3350 C   0  0  0  0  0
  121.2990  162.8370   45.2840 C   0  0  0  0  0
  122.3780  164.8060   44.4060 C   0  0  0  0  0
  120.4710  163.6400   46.0610 C   0  0  0  0  0
  110.3670  160.1490   40.4060 C   0  0  0  0  0
  108.9510  162.1380   40.2200 C   0  0  0  0  0
  115.8350  157.5520   40.6730 C   0  0  0  0  0
  114.4270  157.8600   40.2040 C   0  0  0  0  0
  113.4370  157.7700   41.2130 N   0  0  0  0  0
  113.4590  156.8850   42.3170 C   0  0  0  0  0
  114.8420  156.2920   42.4870 C   0  0  0  0  0
  115.9520  157.2670   42.1560 C   0  0  0  0  0
  115.8420  158.4510   42.9170 O   0  0  0  0  0
  117.1300  158.8240   43.3570 C   0  0  0  0  0
  117.4710  159.2920   44.5660 N   0  0  0  0  0
  118.7740  159.5650   44.7400 N   0  0  0  0  0
  119.5960  159.3450   43.6920 C   0  0  0  0  0
  121.1380  161.3310   45.3780 C   0  0  0  0  0
  122.2550  163.4220   44.4630 C   0  0  0  0  0
  121.5440  165.6050   45.1800 C   0  0  0  0  0
  120.5890  165.0230   46.0060 C   0  0  0  0  0
  123.0020  160.4570   44.1310 O   0  0  0  0  0
  118.5790  158.7470   42.4410 S   0  0  0  0  0
  112.3470  158.6840   41.0810 C   0  0  0  0  0
  111.9290  159.5930   41.9770 N   0  0  0  0  0
  110.8820  160.3620   41.6290 N   0  0  0  0  0
  109.2740  160.8200   39.8190 N   0  0  0  0  0
  107.7810  162.8630   39.6060 C   0  0  0  0  0
  108.1370  164.3330   39.5840 C   0  0  0  0  0
  109.1390  164.7880   38.7240 C   0  0  0  0  0
  109.4820  166.1320   38.7080 C   0  0  0  0  0
  108.8200  167.0100   39.5590 C   0  0  0  0  0
  107.8250  166.5560   40.4230 C   0  0  0  0  0
  107.4820  165.2120   40.4410 C   0  0  0  0  0
  109.6110  162.7120   41.0600 O   0  0  0  0  0
  111.3080  158.8820   39.7160 S   0  0  0  0  0
  121.5046  158.9310   42.9029 H   0  0  0  0  0
  123.1253  165.2626   43.7571 H   0  0  0  0  0
  119.7278  163.1832   46.7146 H   0  0  0  0  0
  116.4408  158.4347   40.4681 H   0  0  0  0  0
  116.1576  156.6529   40.1480 H   0  0  0  0  0
  114.1755  157.1199   39.4444 H   0  0  0  0  0
  114.4278  158.8909   39.8499 H   0  0  0  0  0
  112.7454  156.0798   42.1422 H   0  0  0  0  0
  113.1941  157.4353   43.2198 H   0  0  0  0  0
  114.9270  155.4487   41.8016 H   0  0  0  0  0
  114.9533  156.0065   43.5330 H   0  0  0  0  0
  116.9277  156.8465   42.3992 H   0  0  0  0  0
  121.6205  161.0609   46.3173 H   0  0  0  0  0
  120.0689  161.1603   45.2515 H   0  0  0  0  0
  122.9114  162.7935   43.8611 H   0  0  0  0  0
  121.6391  166.6901   45.1391 H   0  0  0  0  0
  119.9338  165.6511   46.6096 H   0  0  0  0  0
  108.7153  160.3542   39.1040 H   0  0  0  0  0
  106.8737  162.6936   40.1859 H   0  0  0  0  0
  107.5856  162.4975   38.5979 H   0  0  0  0  0
  109.6516  164.0869   38.0653 H   0  0  0  0  0
  110.2604  166.4951   38.0370 H   0  0  0  0  0
  109.0828  168.0678   39.5503 H   0  0  0  0  0
  107.3163  167.2571   41.0846 H   0  0  0  0  0
  106.7089  164.8490   41.1182 H   0  0  0  0  0
  1  2  1  0  0  0
 18  1  1  0  0  0
  2 19  1  0  0  0
  2 23  2  0  0  0
  3  5  4  0  0  0
 19  3  1  0  0  0
  3 20  4  0  0  0
 20  4  4  0  0  0
  4 21  4  0  0  0
  5 22  4  0  0  0
  6 27  4  0  0  0
  6 28  1  0  0  0
 37  6  4  0  0  0
 28  7  1  0  0  0
  7 29  1  0  0  0
  7 36  2  0  0  0
  9  8  1  0  0  0
  8 13  1  0  0  0
 10  9  1  0  0  0
 10 11  1  0  0  0
 25 10  1  0  0  0
 11 12  1  0  0  0
 12 13  1  0  0  0
 13 14  1  0  0  0
 14 15  1  0  0  0
 15 16  4  0  0  0
 15 24  4  0  0  0
 16 17  4  0  0  0
 18 17  4  0  0  0
 24 18  4  0  0  0
 22 21  4  0  0  0
 25 26  4  0  0  0
 25 37  4  0  0  0
 26 27  4  0  0  0
 29 30  1  0  0  0
 30 31  4  0  0  0
 30 35  4  0  0  0
 31 32  4  0  0  0
 32 33  4  0  0  0
 33 34  4  0  0  0
 34 35  4  0  0  0
  1 38  1  0  0  0
  4 39  1  0  0  0
  5 40  1  0  0  0
  8 41  1  0  0  0
  8 42  1  0  0  0
  9 43  1  0  0  0
  9 44  1  0  0  0
 11 45  1  0  0  0
 11 46  1  0  0  0
 12 47  1  0  0  0
 12 48  1  0  0  0
 13 49  1  0  0  0
 19 50  1  0  0  0
 19 51  1  0  0  0
 20 52  1  0  0  0
 21 53  1  0  0  0
 22 54  1  0  0  0
 28 55  1  0  0  0
 29 56  1  0  0  0
 29 57  1  0  0  0
 31 58  1  0  0  0
 32 59  1  0  0  0
 33 60  1  0  0  0
 34 61  1  0  0  0
 35 62  1  0  0  0
M  END
$$$$
