6i0x_ligand
  -I-interpret- 

 40 40  0  0  0  0  0  0  0  0999 V2000
  -38.6980  -31.5320   51.8240 O   0  0  0  0  0
  -37.9650  -32.4910   52.1020 C   0  0  0  0  0
  -37.8010  -33.5530   51.3260 N   0  0  0  0  0
  -37.1360  -32.4850   53.3740 C   0  0  0  0  0
  -35.6490  -32.2540   53.1000 C   0  0  0  0  0
  -35.4220  -31.0160   52.2290 C   0  0  0  0  0
  -33.9300  -30.9260   51.9380 C   0  0  0  0  0
  -33.7040  -29.8020   51.0110 N   0  0  0  0  0
  -32.5570  -29.5310   50.3710 C   0  0  0  0  0
  -31.3620  -30.4790   50.5170 C   0  0  0  0  0
  -32.3720  -28.4180   49.6240 N   0  0  0  0  0
  -37.3080  -33.7080   54.1900 N   0  0  0  0  0
  -38.5160  -34.1910   54.5350 C   0  0  0  0  0
  -39.5620  -33.7290   54.0870 O   0  0  0  0  0
  -38.5230  -35.3030   55.4130 C   0  0  0  0  0
  -39.5300  -35.3870   56.3860 C   0  0  0  0  0
  -37.5080  -36.2930   55.3920 C   0  0  0  0  0
  -37.5090  -37.3460   56.3220 C   0  0  0  0  0
  -38.5210  -37.4110   57.2870 C   0  0  0  0  0
  -39.5400  -36.4310   57.3270 C   0  0  0  0  0
  -38.2957  -33.6157   50.4362 H   0  0  0  0  0
  -37.1801  -34.3075   51.6187 H   0  0  0  0  0
  -37.5200  -31.6437   53.9509 H   0  0  0  0  0
  -35.2572  -33.1232   52.5717 H   0  0  0  0  0
  -35.1428  -32.1018   54.0533 H   0  0  0  0  0
  -35.7636  -30.1192   52.7459 H   0  0  0  0  0
  -35.9867  -31.0956   51.3001 H   0  0  0  0  0
  -33.5806  -31.8558   51.4892 H   0  0  0  0  0
  -33.3785  -30.7627   52.8639 H   0  0  0  0  0
  -34.4901  -29.1746   50.8413 H   0  0  0  0  0
  -31.0591  -30.8341   49.5320 H   0  0  0  0  0
  -30.5329  -29.9472   50.9837 H   0  0  0  0  0
  -31.6470  -31.3277   51.1388 H   0  0  0  0  0
  -33.1256  -27.7374   49.5276 H   0  0  0  0  0
  -36.4753  -34.2061   54.5043 H   0  0  0  0  0
  -40.3158  -34.6320   56.4127 H   0  0  0  0  0
  -36.7167  -36.2363   54.6445 H   0  0  0  0  0
  -36.7283  -38.1061   56.2924 H   0  0  0  0  0
  -38.5237  -38.2235   58.0135 H   0  0  0  0  0
  -40.3257  -36.4849   58.0805 H   0  0  0  0  0
  1  2  2  0  0  0
  2  3  1  0  0  0
  2  4  1  0  0  0
  4  5  1  0  0  0
  4 12  1  0  0  0
  5  6  1  0  0  0
  6  7  1  0  0  0
  7  8  1  0  0  0
  8  9  1  0  0  0
  9 10  1  0  0  0
  9 11  2  0  0  0
 12 13  1  0  0  0
 13 14  2  0  0  0
 13 15  1  0  0  0
 15 16  4  0  0  0
 15 17  4  0  0  0
 16 20  4  0  0  0
 17 18  4  0  0  0
 18 19  4  0  0  0
 19 20  4  0  0  0
  3 21  1  0  0  0
  3 22  1  0  0  0
  4 23  1  0  0  0
  5 24  1  0  0  0
  5 25  1  0  0  0
  6 26  1  0  0  0
  6 27  1  0  0  0
  7 28  1  0  0  0
  7 29  1  0  0  0
  8 30  1  0  0  0
 10 31  1  0  0  0
 10 32  1  0  0  0
 10 33  1  0  0  0
 11 34  1  0  0  0
 12 35  1  0  0  0
 16 36  1  0  0  0
 17 37  1  0  0  0
 18 38  1  0  0  0
 19 39  1  0  0  0
 20 40  1  0  0  0
M  END
$$$$
