4c6u_ligand
  -I-interpret- 

 30 30  0  0  0  0  0  0  0  0999 V2000
  -20.0210   35.1090  -31.9860 S   0  0  0  0  0
  -16.1630   37.6180  -32.6960 C   0  0  0  0  0
  -19.2070   35.9450  -29.4810 C   0  0  0  0  0
  -18.6320   35.2540  -30.7290 C   0  0  0  0  0
  -17.4850   33.6000  -29.3000 O   0  0  0  0  0
  -18.4990   39.4250  -32.2290 C   0  0  0  0  0
  -18.5020   38.1560  -31.8940 C   0  0  0  0  0
  -17.4170   37.1560  -32.0050 C   0  0  0  0  0
  -17.4490   35.9210  -31.4200 C   0  0  0  0  0
  -20.0830   33.2970  -31.9150 C   0  0  0  0  0
  -20.9030   32.6560  -32.5350 O   0  0  0  0  0
  -19.0530   32.8370  -30.9790 C   0  0  0  0  0
  -18.7700   31.4310  -30.6930 C   0  0  0  0  0
  -17.7160   31.0530  -29.6980 C   0  0  0  0  0
  -18.3440   33.8140  -30.3190 C   0  0  0  0  0
  -19.3070   30.5460  -31.3640 O   0  0  0  0  0
  -15.3416   37.6389  -31.9797 H   0  0  0  0  0
  -15.9222   36.9306  -33.5069 H   0  0  0  0  0
  -16.3198   38.6180  -33.1002 H   0  0  0  0  0
  -18.4315   36.0194  -28.7187 H   0  0  0  0  0
  -19.5534   36.9436  -29.7473 H   0  0  0  0  0
  -20.0421   35.3600  -29.0957 H   0  0  0  0  0
  -17.1181   34.4386  -29.0108 H   0  0  0  0  0
  -17.6023   39.8737  -32.6563 H   0  0  0  0  0
  -19.3932   40.0302  -32.0799 H   0  0  0  0  0
  -19.4373   37.7859  -31.4741 H   0  0  0  0  0
  -16.5224   35.3478  -31.4514 H   0  0  0  0  0
  -18.1415   30.3719  -28.9610 H   0  0  0  0  0
  -16.8904   30.5626  -30.2138 H   0  0  0  0  0
  -17.3519   31.9504  -29.1978 H   0  0  0  0  0
  4  1  1  0  0  0
  1 10  1  0  0  0
  8  2  1  0  0  0
  4  3  1  0  0  0
  9  4  1  0  0  0
  4 15  1  0  0  0
 15  5  1  0  0  0
  7  6  2  0  0  0
  8  7  1  0  0  0
  8  9  2  0  0  0
 10 11  2  0  0  0
 10 12  1  0  0  0
 12 13  1  0  0  0
 12 15  2  0  0  0
 13 14  1  0  0  0
 13 16  2  0  0  0
  2 17  1  0  0  0
  2 18  1  0  0  0
  2 19  1  0  0  0
  3 20  1  0  0  0
  3 21  1  0  0  0
  3 22  1  0  0  0
  5 23  1  0  0  0
  6 24  1  0  0  0
  6 25  1  0  0  0
  7 26  1  0  0  0
  9 27  1  0  0  0
 14 28  1  0  0  0
 14 29  1  0  0  0
 14 30  1  0  0  0
M  END
$$$$
