### 
### Created by X-TOOL on Mon Sep 10 21:12:49 2018
### 

@<TRIPOS>MOLECULE
1kak_ligand
   30    31     1     0     0
SMALL
GAST_HUCK


@<TRIPOS>ATOM
      1 C1         24.3900   19.7530    2.6170 C.3       1 FNP         0.2981
      2 C2         25.6650   24.4690   -0.9010 C.ar      1 FNP         0.0418
      3 C3         24.9950   25.3620   -0.0790 C.ar      1 FNP        -0.0324
      4 C4         24.2770   24.9530    1.0290 C.ar      1 FNP        -0.0265
      5 C5         24.2100   23.5910    1.3590 C.ar      1 FNP         0.0212
      6 C6         23.4860   23.1550    2.4800 C.ar      1 FNP        -0.0265
      7 C7         23.4310   21.8190    2.7900 C.ar      1 FNP        -0.0324
      8 C8         24.0700   20.8850    2.0330 C.ar      1 FNP         0.0418
      9 C9         24.8090   21.2850    0.8900 C.ar      1 FNP         0.0017
     10 C10        24.8810   22.6450    0.5480 C.ar      1 FNP         0.0548
     11 C11        25.6000   23.0980   -0.5750 C.ar      1 FNP         0.0017
     12 C12        26.0350   24.8820   -2.1030 C.3       1 FNP         0.2981
     13 F1         24.4480   18.6470    1.6530 F         1 FNP        -0.2407
     14 F2         25.5390   19.8510    3.2220 F         1 FNP        -0.2407
     15 P1         23.1690   18.7770    3.6410 P.3       1 FNP         0.0977
     16 OP1        21.9600   19.5730    3.9280 O.co2     1 FNP        -0.5667
     17 OP2        23.7820   18.3720    4.9380 O.co2     1 FNP        -0.5667
     18 OP3        22.7350   17.5330    2.9410 O.co2     1 FNP        -0.5667
     19 F3         25.0570   25.8290   -2.6910 F         1 FNP        -0.2407
     20 F4         26.2180   23.8890   -2.9310 F         1 FNP        -0.2407
     21 P2         27.3090   26.2060   -2.3260 P.3       1 FNP         0.0977
     22 OP4        27.0810   27.3110   -1.3590 O.co2     1 FNP        -0.5667
     23 OP5        27.2460   26.7780   -3.6940 O.co2     1 FNP        -0.5667
     24 OP6        28.6760   25.6620   -2.1210 O.co2     1 FNP        -0.5667
     25 H1         25.0357   26.4195   -0.3138 H         1 FNP         0.0827
     26 H2         23.7654   25.6850    1.6434 H         1 FNP         0.0695
     27 H3         22.9687   23.8758    3.1028 H         1 FNP         0.0695
     28 H4         22.8655   21.5000    3.6580 H         1 FNP         0.0827
     29 H5         25.3161   20.5437    0.2830 H         1 FNP         0.1111
     30 H6         26.1141   22.3784   -1.2018 H         1 FNP         0.1111
@<TRIPOS>BOND
     1    1   15 1  
     2    1   14 1  
     3    1   13 1  
     4    1    8 1  
     5    8    9 ar 
     6    8    7 ar 
     7    7    6 ar 
     8    6    5 ar 
     9    5   10 ar 
    10    5    4 ar 
    11    4    3 ar 
    12    3    2 ar 
    13    2   12 1  
    14    2   11 ar 
    15   11   10 ar 
    16   10    9 ar 
    17   12   21 1  
    18   12   20 1  
    19   12   19 1  
    20   21   24 ar 
    21   21   23 ar 
    22   21   22 ar 
    23   15   18 ar 
    24   15   17 ar 
    25   15   16 ar 
    26    3   25 1  
    27    4   26 1  
    28    6   27 1  
    29    7   28 1  
    30    9   29 1  
    31   11   30 1  
@<TRIPOS>SUBSTRUCTURE
     1 FNP         1

