3pke_ligand
  -I-interpret- 

 58 59  0  0  0  0  0  0  0  0999 V2000
  -35.1810  -24.7210   -2.9600 N   0  0  0  0  0
  -32.5650  -31.2720   -2.2300 O   0  0  0  0  0
  -34.8600  -27.8360   -1.7110 O   0  0  0  0  0
  -32.3800  -28.8000   -1.2600 O   0  0  0  0  0
  -34.6470  -25.7590   -4.9530 O   0  0  0  0  0
  -32.1960  -26.4540   -3.8290 O   0  0  0  0  0
  -35.2370  -30.8870   -6.3490 C   0  0  0  0  0
  -34.9010  -30.6450   -4.8830 C   0  0  0  0  0
  -33.6830  -30.5560   -4.3170 C   0  0  0  0  0
  -33.4350  -30.2740   -2.8300 C   0  0  0  0  0
  -32.8730  -28.8420   -2.6450 C   0  0  0  0  0
  -33.9470  -27.7790   -2.9110 C   0  0  0  0  0
  -33.3790  -26.3670   -2.9990 C   0  0  0  0  0
  -36.1730  -32.0940   -6.5590 C   0  0  0  0  0
  -33.9840  -31.0560   -7.1960 C   0  0  0  0  0
  -35.9650  -29.6370   -6.8130 C   0  0  0  0  0
  -34.4480  -25.5710   -3.7330 C   0  0  0  0  0
  -36.3020  -23.9940   -3.5460 C   0  0  0  0  0
  -37.1740  -23.4980   -2.3930 C   0  0  0  0  0
  -37.6740  -22.2150   -3.0080 C   0  0  0  0  0
  -36.9340  -21.8500   -4.1160 C   0  0  0  0  0
  -35.8060  -22.8260   -4.4180 C   0  0  0  0  0
  -38.7640  -21.4700   -2.5490 C   0  0  0  0  0
  -39.0270  -20.2850   -3.2590 C   0  0  0  0  0
  -38.2810  -19.8690   -4.3860 C   0  0  0  0  0
  -37.1970  -20.6620   -4.8290 C   0  0  0  0  0
  -31.5070  -25.1740   -3.8350 C   0  0  0  0  0
  -34.9468  -24.5936   -1.9755 H   0  0  0  0  0
  -32.4328  -31.0635   -1.3023 H   0  0  0  0  0
  -35.5620  -27.1893   -1.8134 H   0  0  0  0  0
  -32.0148  -27.9311   -1.0777 H   0  0  0  0  0
  -35.7508  -30.5298   -4.2101 H   0  0  0  0  0
  -32.8133  -30.6938   -4.9595 H   0  0  0  0  0
  -34.3896  -30.3382   -2.3078 H   0  0  0  0  0
  -32.0767  -28.6199   -3.3554 H   0  0  0  0  0
  -34.4358  -27.9836   -3.8635 H   0  0  0  0  0
  -33.1301  -25.9203   -2.0364 H   0  0  0  0  0
  -35.6943  -32.9946   -6.1745 H   0  0  0  0  0
  -37.1090  -31.9232   -6.0271 H   0  0  0  0  0
  -36.3752  -32.2145   -7.6233 H   0  0  0  0  0
  -33.3766  -30.1534   -7.1281 H   0  0  0  0  0
  -33.4120  -31.9087   -6.8302 H   0  0  0  0  0
  -34.2690  -31.2264   -8.2342 H   0  0  0  0  0
  -36.8664  -29.5002   -6.2157 H   0  0  0  0  0
  -35.3127  -28.7722   -6.6919 H   0  0  0  0  0
  -36.2364  -29.7449   -7.8632 H   0  0  0  0  0
  -36.8804  -24.6446   -4.2020 H   0  0  0  0  0
  -36.6541  -23.3794   -1.4423 H   0  0  0  0  0
  -37.9544  -24.1902   -2.0769 H   0  0  0  0  0
  -35.6523  -23.0570   -5.4721 H   0  0  0  0  0
  -34.8007  -22.4671   -4.1975 H   0  0  0  0  0
  -39.3687  -21.7859   -1.6989 H   0  0  0  0  0
  -39.8495  -19.6537   -2.9228 H   0  0  0  0  0
  -38.5386  -18.9472   -4.9076 H   0  0  0  0  0
  -36.5904  -20.3674   -5.6854 H   0  0  0  0  0
  -32.1720  -24.4067   -4.2316 H   0  0  0  0  0
  -31.2168  -24.9143   -2.8170 H   0  0  0  0  0
  -30.6175  -25.2446   -4.4610 H   0  0  0  0  0
 17  1  1  0  0  0
  1 18  1  0  0  0
 10  2  1  0  0  0
 12  3  1  0  0  0
 11  4  1  0  0  0
 17  5  2  0  0  0
 13  6  1  0  0  0
  6 27  1  0  0  0
  8  7  1  0  0  0
  7 14  1  0  0  0
  7 15  1  0  0  0
  7 16  1  0  0  0
  9  8  2  0  0  0
 10  9  1  0  0  0
 11 10  1  0  0  0
 12 11  1  0  0  0
 13 12  1  0  0  0
 13 17  1  0  0  0
 18 19  1  0  0  0
 18 22  1  0  0  0
 19 20  1  0  0  0
 20 21  4  0  0  0
 20 23  4  0  0  0
 21 22  1  0  0  0
 21 26  4  0  0  0
 23 24  4  0  0  0
 24 25  4  0  0  0
 25 26  4  0  0  0
  1 28  1  0  0  0
  2 29  1  0  0  0
  3 30  1  0  0  0
  4 31  1  0  0  0
  8 32  1  0  0  0
  9 33  1  0  0  0
 10 34  1  0  0  0
 11 35  1  0  0  0
 12 36  1  0  0  0
 13 37  1  0  0  0
 14 38  1  0  0  0
 14 39  1  0  0  0
 14 40  1  0  0  0
 15 41  1  0  0  0
 15 42  1  0  0  0
 15 43  1  0  0  0
 16 44  1  0  0  0
 16 45  1  0  0  0
 16 46  1  0  0  0
 18 47  1  0  0  0
 19 48  1  0  0  0
 19 49  1  0  0  0
 22 50  1  0  0  0
 22 51  1  0  0  0
 23 52  1  0  0  0
 24 53  1  0  0  0
 25 54  1  0  0  0
 26 55  1  0  0  0
 27 56  1  0  0  0
 27 57  1  0  0  0
 27 58  1  0  0  0
M  END
$$$$
