3oaw_ligand
  -I-interpret- 

 35 37  0  0  0  0  0  0  0  0999 V2000
   47.3440   13.0850   28.4050 N   0  0  0  0  0
   47.9520   14.1050   29.0090 C   0  0  0  0  0
   47.3110   14.8650   29.8820 N   0  0  0  0  0
   46.0130   14.6980   30.1420 C   0  0  0  0  0
   45.3330   13.6210   29.5180 C   0  0  0  0  0
   46.0590   12.8240   28.6110 C   0  0  0  0  0
   49.2790   14.3730   28.7290 N   0  0  0  0  0
   46.0940   16.6900   31.5790 C   0  0  0  0  0
   45.4010   11.6850   27.8850 C   0  0  0  0  0
   45.3410   15.5350   31.0230 N   0  0  0  0  0
   44.0210   15.2550   31.3170 C   0  0  0  0  0
   43.3630   14.0800   30.6660 C   0  0  0  0  0
   44.0410   13.3580   29.8000 N   0  0  0  0  0
   43.3780   15.9550   32.0900 O   0  0  0  0  0
   41.9450   13.6940   30.9330 C   0  0  0  0  0
   45.4680   18.0580   31.2970 C   0  0  0  0  0
   46.5030   16.5210   33.0440 C   0  0  0  0  0
   41.2280   12.7680   30.2100 C   0  0  0  0  0
   40.0030   12.7080   30.7540 N   0  0  0  0  0
   39.9320   13.6000   31.8370 N   0  0  0  0  0
   41.0860   14.1770   31.9590 C   0  0  0  0  0
   49.7873   13.7911   28.0631 H   0  0  0  0  0
   49.7498   15.1526   29.1883 H   0  0  0  0  0
   47.0222   16.6808   31.0076 H   0  0  0  0  0
   45.4687   11.8534   26.8102 H   0  0  0  0  0
   45.9054   10.7531   28.1405 H   0  0  0  0  0
   44.3532   11.6251   28.1794 H   0  0  0  0  0
   45.4044   18.2119   30.2198 H   0  0  0  0  0
   44.4685   18.0950   31.7302 H   0  0  0  0  0
   46.0869   18.8378   31.7409 H   0  0  0  0  0
   45.6105   16.3936   33.6567 H   0  0  0  0  0
   47.1414   15.6430   33.1427 H   0  0  0  0  0
   47.0474   17.4064   33.3724 H   0  0  0  0  0
   41.5873   12.1924   29.3570 H   0  0  0  0  0
   41.3536   14.9097   32.7203 H   0  0  0  0  0
  1  2  4  0  0  0
  1  6  4  0  0  0
  2  3  4  0  0  0
  2  7  1  0  0  0
  3  4  4  0  0  0
  4  5  4  0  0  0
  4 10  1  0  0  0
  5  6  4  0  0  0
  5 13  1  0  0  0
  6  9  1  0  0  0
 10  8  1  0  0  0
  8 16  1  0  0  0
  8 17  1  0  0  0
 10 11  1  0  0  0
 11 12  1  0  0  0
 11 14  2  0  0  0
 12 13  2  0  0  0
 12 15  1  0  0  0
 15 18  4  0  0  0
 15 21  4  0  0  0
 18 19  4  0  0  0
 19 20  4  0  0  0
 20 21  4  0  0  0
  7 22  1  0  0  0
  7 23  1  0  0  0
  8 24  1  0  0  0
  9 25  1  0  0  0
  9 26  1  0  0  0
  9 27  1  0  0  0
 16 28  1  0  0  0
 16 29  1  0  0  0
 16 30  1  0  0  0
 17 31  1  0  0  0
 17 32  1  0  0  0
 17 33  1  0  0  0
 18 34  1  0  0  0
 21 35  1  0  0  0
M  END
$$$$
