5m4u_ligand
  -I-interpret- 

 33 35  0  0  0  0  0  0  0  0999 V2000
    8.4850  -18.3850  -10.1070 C   0  0  0  0  0
   14.5580  -21.7880   -7.3130 C   0  0  0  0  0
   14.0390  -19.5810   -8.1230 C   0  0  0  0  0
   10.5360  -19.3260   -8.9760 C   0  0  0  0  0
   10.8940  -21.6030   -8.1960 C   0  0  0  0  0
   12.2860  -21.2320   -7.9960 C   0  0  0  0  0
    6.6480  -15.0560  -11.8770 O   0  0  0  0  0
   10.4440  -22.8600   -7.8970 O   0  0  0  0  0
    8.0080  -13.6930  -10.8200 O   0  0  0  0  0
    8.6960  -20.9100   -8.9000 O   0  0  0  0  0
   15.7110  -22.9200   -6.7000 Cl  0  0  0  0  0
   14.4970  -17.9650   -8.5200 Cl  0  0  0  0  0
    9.6070  -15.8460   -9.9790 C   0  0  0  0  0
    7.7940  -17.2940  -10.6140 C   0  0  0  0  0
   10.2920  -16.9340   -9.4670 C   0  0  0  0  0
   14.9620  -20.4880   -7.6280 C   0  0  0  0  0
   13.2280  -22.1730   -7.4910 C   0  0  0  0  0
   11.8090  -19.0660   -8.7810 O   0  0  0  0  0
    7.6280  -14.8610  -11.1060 C   0  0  0  0  0
    8.3600  -16.0300  -10.5500 C   0  0  0  0  0
    9.7310  -18.2010   -9.5220 C   0  0  0  0  0
   10.0140  -20.5960   -8.7030 C   0  0  0  0  0
   12.6840  -19.9710   -8.3000 C   0  0  0  0  0
    8.0514  -19.3832  -10.1676 H   0  0  0  0  0
   10.5632  -22.6408   -8.2359 H   0  0  0  0  0
    6.5051  -15.9998  -11.9786 H   0  0  0  0  0
   11.1746  -23.3913   -7.5721 H   0  0  0  0  0
    8.5459  -21.8254   -8.6529 H   0  0  0  0  0
   10.0472  -14.8499   -9.9328 H   0  0  0  0  0
    6.8093  -17.4302  -11.0612 H   0  0  0  0  0
   11.2758  -16.7946   -9.0190 H   0  0  0  0  0
   16.0002  -20.1884   -7.4847 H   0  0  0  0  0
   12.9127  -23.1870   -7.2451 H   0  0  0  0  0
 14  1  4  0  0  0
  1 21  4  0  0  0
  2 11  1  0  0  0
 16  2  4  0  0  0
 17  2  4  0  0  0
  3 12  1  0  0  0
  3 16  4  0  0  0
 23  3  4  0  0  0
  4 18  1  0  0  0
 21  4  1  0  0  0
  4 22  2  0  0  0
  5  6  1  0  0  0
  5  8  1  0  0  0
 22  5  1  0  0  0
  6 17  4  0  0  0
 23  6  4  0  0  0
 19  7  1  0  0  0
 19  9  2  0  0  0
 22 10  1  0  0  0
 13 15  4  0  0  0
 20 13  4  0  0  0
 20 14  4  0  0  0
 15 21  4  0  0  0
 18 23  1  0  0  0
 19 20  1  0  0  0
  1 24  1  0  0  0
  5 25  1  0  0  0
  7 26  1  0  0  0
  8 27  1  0  0  0
 10 28  1  0  0  0
 13 29  1  0  0  0
 14 30  1  0  0  0
 15 31  1  0  0  0
 16 32  1  0  0  0
 17 33  1  0  0  0
M  END
$$$$
