2d06_ligand
  -I-interpret- 

 44 47  0  0  0  0  0  0  0  0999 V2000
  128.6100  -58.3750    1.7680 C   0  0  0  0  0
  129.1900  -59.6810    1.8690 C   0  0  0  0  0
  130.1020  -60.1400    0.8620 C   0  0  0  0  0
  130.6500  -61.3880    0.9750 O   0  0  0  0  0
  130.4440  -59.3160   -0.2520 C   0  0  0  0  0
  129.8700  -57.9880   -0.3820 C   0  0  0  0  0
  130.2510  -57.1210   -1.6040 C   0  0  0  0  0
  129.5660  -55.7180   -1.6750 C   0  0  0  0  0
  129.2790  -55.0970   -0.3010 C   0  0  0  0  0
  128.3090  -56.0720    0.5280 C   0  0  0  0  0
  128.9250  -57.4950    0.6590 C   0  0  0  0  0
  128.0440  -55.4080    1.9220 C   0  0  0  0  0
  127.4320  -53.9810    1.8460 C   0  0  0  0  0
  128.3200  -53.0150    1.0080 C   0  0  0  0  0
  128.5750  -53.6700   -0.4250 C   0  0  0  0  0
  129.2370  -52.4930   -1.1590 C   0  0  0  0  0
  128.2450  -51.3200   -0.8390 C   0  0  0  0  0
  127.6460  -51.6760    0.5680 C   0  0  0  0  0
  127.8430  -50.5550    1.4710 O   0  0  0  0  0
  129.6430  -52.6660    1.8270 C   0  0  0  0  0
  127.9186  -58.0361    2.5395 H   0  0  0  0  0
  128.9382  -60.3257    2.7111 H   0  0  0  0  0
  131.2346  -61.5482    0.2305 H   0  0  0  0  0
  131.1380  -59.6843   -1.0075 H   0  0  0  0  0
  129.9250  -57.6701   -2.4873 H   0  0  0  0  0
  131.3233  -56.9391   -1.5327 H   0  0  0  0  0
  128.6081  -55.8496   -2.1782 H   0  0  0  0  0
  130.2500  -55.0489   -2.1971 H   0  0  0  0  0
  130.2343  -54.9660    0.2073 H   0  0  0  0  0
  127.3615  -56.2049    0.0059 H   0  0  0  0  0
  129.0083  -55.3168    2.4219 H   0  0  0  0  0
  127.3245  -56.0377    2.4452 H   0  0  0  0  0
  127.3574  -53.5858    2.8591 H   0  0  0  0  0
  126.4558  -54.0520    1.3663 H   0  0  0  0  0
  127.7254  -54.0066   -1.0191 H   0  0  0  0  0
  129.3733  -52.6678   -2.2262 H   0  0  0  0  0
  130.2592  -52.2983   -0.8346 H   0  0  0  0  0
  127.4692  -51.2253   -1.5988 H   0  0  0  0  0
  128.7476  -50.3528   -0.8337 H   0  0  0  0  0
  126.5679  -51.8365    0.5600 H   0  0  0  0  0
  127.3960  -49.7810    1.1207 H   0  0  0  0  0
  129.3708  -52.1871    2.7676 H   0  0  0  0  0
  130.1949  -53.5835    2.0313 H   0  0  0  0  0
  130.2644  -51.9897    1.2400 H   0  0  0  0  0
  1  2  4  0  0  0
  1 11  4  0  0  0
  2  3  4  0  0  0
  3  4  1  0  0  0
  3  5  4  0  0  0
  5  6  4  0  0  0
  6  7  1  0  0  0
  6 11  4  0  0  0
  7  8  1  0  0  0
  8  9  1  0  0  0
  9 10  1  0  0  0
  9 15  1  0  0  0
 10 11  1  0  0  0
 10 12  1  0  0  0
 12 13  1  0  0  0
 13 14  1  0  0  0
 14 15  1  0  0  0
 14 18  1  0  0  0
 14 20  1  0  0  0
 15 16  1  0  0  0
 16 17  1  0  0  0
 17 18  1  0  0  0
 18 19  1  0  0  0
  1 21  1  0  0  0
  2 22  1  0  0  0
  4 23  1  0  0  0
  5 24  1  0  0  0
  7 25  1  0  0  0
  7 26  1  0  0  0
  8 27  1  0  0  0
  8 28  1  0  0  0
  9 29  1  0  0  0
 10 30  1  0  0  0
 12 31  1  0  0  0
 12 32  1  0  0  0
 13 33  1  0  0  0
 13 34  1  0  0  0
 15 35  1  0  0  0
 16 36  1  0  0  0
 16 37  1  0  0  0
 17 38  1  0  0  0
 17 39  1  0  0  0
 18 40  1  0  0  0
 19 41  1  0  0  0
 20 42  1  0  0  0
 20 43  1  0  0  0
 20 44  1  0  0  0
M  END
$$$$
