3m5e_ligand
  -I-interpret- 

 36 37  0  0  0  0  0  0  0  0999 V2000
   -3.9920   10.3070   12.0910 N   0  0  0  0  0
   -3.1700    9.6420   12.8920 C   0  0  0  0  0
   -3.3250    8.3480   13.1610 N   0  0  0  0  0
   -4.3410    7.6760   12.6170 C   0  0  0  0  0
   -5.2300    8.3340   11.7690 C   0  0  0  0  0
   -5.0160    9.6860   11.5230 C   0  0  0  0  0
   -4.5230    6.2790   12.9080 N   0  0  0  0  0
   -4.3930    4.4640   14.5850 C   0  0  0  0  0
   -5.7580    4.4460   14.8790 C   0  0  0  0  0
   -6.2990    3.3530   15.5670 C   0  0  0  0  0
   -5.4550    2.3000   15.9460 C   0  0  0  0  0
   -4.1020    2.3320   15.6440 C   0  0  0  0  0
   -3.5710    3.4190   14.9650 C   0  0  0  0  0
   -6.0500    0.9100   16.8020 S   0  0  0  0  0
   -5.5290    0.9820   18.2150 O   0  0  0  0  0
   -7.5630    0.8980   16.6340 O   0  0  0  0  0
   -5.3950   -0.4920   16.0580 N   0  0  0  0  0
   -6.3720    7.6330   11.1400 C   0  0  0  0  0
   -6.8100    6.5920   11.6350 O   0  0  0  0  0
   -6.0670   10.5930   10.4990 Cl  0  0  0  0  0
   -1.8240   10.4710   13.6590 S   0  0  0  0  0
   -1.1030    9.4600   14.9940 C   0  0  0  0  0
   -3.6940    5.5650   13.8580 C   0  0  0  0  0
   -5.2650    5.7710   12.4265 H   0  0  0  0  0
   -6.3967    5.2755   14.5756 H   0  0  0  0  0
   -7.3623    3.3214   15.8047 H   0  0  0  0  0
   -3.4569    1.5046   15.9396 H   0  0  0  0  0
   -2.5068    3.4493   14.7313 H   0  0  0  0  0
   -4.7679   -1.1019   16.5825 H   0  0  0  0  0
   -5.6330   -0.7149   15.0915 H   0  0  0  0  0
   -6.8272    8.0383   10.2363 H   0  0  0  0  0
   -1.8643    9.2596   15.7478 H   0  0  0  0  0
   -0.7425    8.5181   14.5805 H   0  0  0  0  0
   -0.2727   10.0000   15.4490 H   0  0  0  0  0
   -3.3724    6.2882   14.6074 H   0  0  0  0  0
   -2.8817    5.1084   13.2925 H   0  0  0  0  0
  2  1  4  0  0  0
  6  1  4  0  0  0
  3  2  4  0  0  0
  2 21  1  0  0  0
  4  3  4  0  0  0
  4  5  4  0  0  0
  7  4  1  0  0  0
  5  6  4  0  0  0
  5 18  1  0  0  0
  6 20  1  0  0  0
 23  7  1  0  0  0
  8  9  4  0  0  0
  8 13  4  0  0  0
  8 23  1  0  0  0
  9 10  4  0  0  0
 10 11  4  0  0  0
 11 12  4  0  0  0
 11 14  1  0  0  0
 12 13  4  0  0  0
 14 15  2  0  0  0
 14 16  2  0  0  0
 14 17  1  0  0  0
 18 19  2  0  0  0
 21 22  1  0  0  0
  7 24  1  0  0  0
  9 25  1  0  0  0
 10 26  1  0  0  0
 12 27  1  0  0  0
 13 28  1  0  0  0
 17 29  1  0  0  0
 17 30  1  0  0  0
 18 31  1  0  0  0
 22 32  1  0  0  0
 22 33  1  0  0  0
 22 34  1  0  0  0
 23 35  1  0  0  0
 23 36  1  0  0  0
M  END
$$$$
