5o4f_ligand
  -I-interpret- 

 27 28  0  0  0  0  0  0  0  0999 V2000
   15.6270   69.6050   23.5460 N   0  0  0  0  0
   17.6690   68.4090   21.3060 N   0  3  0  0  0
   16.4720   67.4820   23.1920 C   0  0  0  0  0
   17.5760   67.1280   22.1560 C   0  0  0  0  0
   15.2150   70.9820   23.3080 C   0  0  0  0  0
   17.7010   67.3430   25.5590 C   0  0  0  0  0
   17.3630   65.9130   21.2040 C   0  0  0  0  0
   16.8460   68.0990   24.5540 C   0  0  0  0  0
   16.3600   69.2820   24.6850 N   0  0  0  0  0
   16.2410   68.9480   21.2000 C   0  0  0  0  0
   15.6010   68.5570   22.5540 C   0  0  0  0  0
   18.0920   67.9560   26.5830 O   0  0  0  0  0
   17.5180   66.0460   19.9630 O   0  0  0  0  0
   17.9690   66.1400   25.3270 O   0  0  0  0  0
   17.0390   64.8190   21.7170 O   0  0  0  0  0
   18.0599   68.2137   20.3844 H   0  0  0  0  0
   18.2917   69.0933   21.7354 H   0  0  0  0  0
   16.0474   66.5035   23.4164 H   0  0  0  0  0
   18.4586   66.8141   22.7133 H   0  0  0  0  0
   14.5843   71.3186   24.1308 H   0  0  0  0  0
   16.0979   71.6178   23.2416 H   0  0  0  0  0
   14.6556   71.0363   22.3741 H   0  0  0  0  0
   15.7013   68.5323   20.3491 H   0  0  0  0  0
   16.2140   70.0230   21.0219 H   0  0  0  0  0
   14.5744   68.2775   22.3173 H   0  0  0  0  0
   17.7723   68.8607   26.5546 H   0  0  0  0  0
   17.7641   66.9532   19.7678 H   0  0  0  0  0
  1  5  1  0  0  0
  1  9  1  0  0  0
 11  1  1  0  0  0
  4  2  1  0  0  0
  2 10  1  0  0  0
  3  4  1  0  0  0
  3  8  1  0  0  0
  3 11  1  0  0  0
  4  7  1  0  0  0
  8  6  1  0  0  0
  6 12  1  0  0  0
  6 14  2  0  0  0
  7 13  1  0  0  0
  7 15  2  0  0  0
  8  9  2  0  0  0
 10 11  1  0  0  0
  2 16  1  0  0  0
  2 17  1  0  0  0
  3 18  1  0  0  0
  4 19  1  0  0  0
  5 20  1  0  0  0
  5 21  1  0  0  0
  5 22  1  0  0  0
 10 23  1  0  0  0
 10 24  1  0  0  0
 11 25  1  0  0  0
 12 26  1  0  0  0
 13 27  1  0  0  0
M  END
$$$$
