3ika_ligand
  -I-interpret- 

 65 68  0  0  0  0  0  0  0  0999 V2000
  -12.7040   12.7700   33.5380 C   0  0  0  0  0
  -13.8650   11.9900   33.0040 C   0  0  0  0  0
  -15.0720   12.6730   33.3920 N   0  3  0  0  0
  -16.1940   11.8260   33.0430 C   0  0  0  0  0
  -15.1510   13.8390   32.5500 C   0  0  0  0  0
  -14.1110   14.8060   33.0390 C   0  0  0  0  0
  -12.8320   14.1350   33.1020 N   0  0  0  0  0
  -11.7190   14.8480   32.8180 C   0  0  0  0  0
  -10.4920   14.2520   32.8590 C   0  0  0  0  0
   -9.4010   15.0040   32.5670 C   0  0  0  0  0
   -8.1850   14.5160   32.5810 O   0  0  0  0  0
   -8.3950   13.2470   32.1080 C   0  0  0  0  0
  -11.8470   16.1620   32.4950 C   0  0  0  0  0
  -10.7340   16.8940   32.2060 C   0  0  0  0  0
   -9.5290   16.2870   32.2510 C   0  0  0  0  0
   -8.4470   16.9100   31.9940 N   0  0  0  0  0
   -8.5260   17.9300   31.2030 C   0  0  0  0  0
   -9.6970   18.2640   30.6770 N   0  0  0  0  0
   -7.4150   18.5880   30.9610 N   0  0  0  0  0
   -7.4230   19.6130   30.1830 C   0  0  0  0  0
   -8.6020   19.9830   29.6280 C   0  0  0  0  0
   -8.6200   21.3210   28.6100 Cl  0  0  0  0  0
   -9.7490   19.3030   29.8780 C   0  0  0  0  0
  -10.8740   19.7120   29.3070 O   0  0  0  0  0
  -12.0030   19.1590   29.7520 C   0  0  0  0  0
  -12.4640   19.4790   31.0010 C   0  0  0  0  0
  -12.7120   18.2780   28.9890 C   0  0  0  0  0
  -13.8730   17.7240   29.4740 C   0  0  0  0  0
  -14.3370   18.0470   30.7330 C   0  0  0  0  0
  -13.6220   18.9340   31.5000 C   0  0  0  0  0
  -13.9850   19.2980   32.7020 N   0  0  0  0  0
  -15.1660   19.0370   33.2070 C   0  0  0  0  0
  -16.0410   18.4310   32.6170 O   0  0  0  0  0
  -15.3880   19.6030   34.6070 C   0  0  0  0  0
  -15.5450   18.5290   35.6780 C   0  0  0  0  0
  -11.7699   12.3472   33.1680 H   0  0  0  0  0
  -12.6958   12.7265   34.6271 H   0  0  0  0  0
  -13.8575   10.9774   33.4074 H   0  0  0  0  0
  -13.8042   11.9177   31.9181 H   0  0  0  0  0
  -15.0799   12.8996   34.3865 H   0  0  0  0  0
  -17.1241   12.3670   33.2174 H   0  0  0  0  0
  -16.1251   11.5490   31.9910 H   0  0  0  0  0
  -16.1742   10.9268   33.6588 H   0  0  0  0  0
  -16.1448   14.2839   32.6001 H   0  0  0  0  0
  -14.9717   13.5746   31.5078 H   0  0  0  0  0
  -14.3842   15.1674   34.0304 H   0  0  0  0  0
  -14.0473   15.6523   32.3550 H   0  0  0  0  0
  -10.3910   13.1985   33.1197 H   0  0  0  0  0
   -9.0790   12.7210   32.7740 H   0  0  0  0  0
   -8.8275   13.3000   31.1089 H   0  0  0  0  0
   -7.4449   12.7143   32.0663 H   0  0  0  0  0
  -12.8324   16.6270   32.4673 H   0  0  0  0  0
  -10.8153   17.9488   31.9437 H   0  0  0  0  0
   -7.5564   16.6164   32.3953 H   0  0  0  0  0
   -6.5075   20.1675   29.9766 H   0  0  0  0  0
  -11.8993   20.1821   31.6132 H   0  0  0  0  0
  -12.3574   18.0128   27.9930 H   0  0  0  0  0
  -14.4335   17.0216   28.8571 H   0  0  0  0  0
  -15.2577   17.6045   31.1132 H   0  0  0  0  0
  -13.3155   19.8109   33.2757 H   0  0  0  0  0
  -16.3117   20.1813   34.5844 H   0  0  0  0  0
  -14.5106   20.1966   34.8638 H   0  0  0  0  0
  -16.4036   17.9016   35.4385 H   0  0  0  0  0
  -14.6439   17.9166   35.7115 H   0  0  0  0  0
  -15.6994   19.0038   36.6470 H   0  0  0  0  0
  1  2  1  0  0  0
  1  7  1  0  0  0
  2  3  1  0  0  0
  3  4  1  0  0  0
  3  5  1  0  0  0
  5  6  1  0  0  0
  6  7  1  0  0  0
  7  8  1  0  0  0
  8  9  4  0  0  0
  8 13  4  0  0  0
  9 10  4  0  0  0
 10 11  1  0  0  0
 10 15  4  0  0  0
 11 12  1  0  0  0
 13 14  4  0  0  0
 14 15  4  0  0  0
 15 16  1  0  0  0
 16 17  1  0  0  0
 17 18  4  0  0  0
 17 19  4  0  0  0
 18 23  4  0  0  0
 19 20  4  0  0  0
 20 21  4  0  0  0
 21 22  1  0  0  0
 21 23  4  0  0  0
 23 24  1  0  0  0
 24 25  1  0  0  0
 25 26  4  0  0  0
 25 27  4  0  0  0
 26 30  4  0  0  0
 27 28  4  0  0  0
 28 29  4  0  0  0
 29 30  4  0  0  0
 30 31  1  0  0  0
 31 32  1  0  0  0
 32 33  2  0  0  0
 32 34  1  0  0  0
 34 35  1  0  0  0
  1 36  1  0  0  0
  1 37  1  0  0  0
  2 38  1  0  0  0
  2 39  1  0  0  0
  3 40  1  0  0  0
  4 41  1  0  0  0
  4 42  1  0  0  0
  4 43  1  0  0  0
  5 44  1  0  0  0
  5 45  1  0  0  0
  6 46  1  0  0  0
  6 47  1  0  0  0
  9 48  1  0  0  0
 12 49  1  0  0  0
 12 50  1  0  0  0
 12 51  1  0  0  0
 13 52  1  0  0  0
 14 53  1  0  0  0
 16 54  1  0  0  0
 20 55  1  0  0  0
 26 56  1  0  0  0
 27 57  1  0  0  0
 28 58  1  0  0  0
 29 59  1  0  0  0
 31 60  1  0  0  0
 34 61  1  0  0  0
 34 62  1  0  0  0
 35 63  1  0  0  0
 35 64  1  0  0  0
 35 65  1  0  0  0
M  END
$$$$
