### 
### Created by X-TOOL on Mon Sep 10 21:13:04 2018
### 

@<TRIPOS>MOLECULE
3ika_ligand
   64    67     1     0     0
SMALL
GAST_HUCK


@<TRIPOS>ATOM
      1 CAT       -12.7040   12.7700   33.5380 C.3       1 0UN         0.0060
      2 CAR       -13.8650   11.9900   33.0040 C.3       1 0UN        -0.0936
      3 NBN       -15.0720   12.6730   33.3920 N.4       1 0UN         0.4033
      4 CAB       -16.1940   11.8260   33.0430 C.3       1 0UN        -0.1255
      5 CAS       -15.1510   13.8390   32.5500 C.3       1 0UN        -0.0936
      6 CAU       -14.1110   14.8060   33.0390 C.3       1 0UN         0.0060
      7 NBO       -12.8320   14.1350   33.1020 N.pl3     1 0UN        -0.3205
      8 CBH       -11.7190   14.8480   32.8180 C.ar      1 0UN         0.0201
      9 CAO       -10.4920   14.2520   32.8590 C.ar      1 0UN        -0.0241
     10 CBK        -9.4010   15.0040   32.5670 C.ar      1 0UN         0.1048
     11 OBA        -8.1850   14.5160   32.5810 O.3       1 0UN        -0.3280
     12 CAA        -8.3950   13.2470   32.1080 C.3       1 0UN         0.0568
     13 CAK       -11.8470   16.1620   32.4950 C.ar      1 0UN        -0.0642
     14 CAL       -10.7340   16.8940   32.2060 C.ar      1 0UN        -0.0568
     15 CBJ        -9.5290   16.2870   32.2510 C.ar      1 0UN         0.0831
     16 NAZ        -8.4470   16.9100   31.9940 N.pl3     1 0UN        -0.2536
     17 C2         -8.5260   17.9300   31.2030 C.ar      1 0UN         0.1942
     18 N3         -9.6970   18.2640   30.6770 N.ar      1 0UN        -0.2231
     19 N1         -7.4150   18.5880   30.9610 N.ar      1 0UN        -0.2666
     20 C6         -7.4230   19.6130   30.1830 C.ar      1 0UN         0.0180
     21 C5         -8.6020   19.9830   29.6280 C.ar      1 0UN         0.1100
     22 CL5        -8.6200   21.3210   28.6100 Cl        1 0UN        -0.0729
     23 C4         -9.7490   19.3030   29.8780 C.ar      1 0UN         0.2065
     24 OBB       -10.8740   19.7120   29.3070 O.3       1 0UN        -0.2369
     25 CBG       -12.0030   19.1590   29.7520 C.ar      1 0UN         0.1101
     26 CAN       -12.4640   19.4790   31.0010 C.ar      1 0UN        -0.0078
     27 CAJ       -12.7120   18.2780   28.9890 C.ar      1 0UN        -0.0422
     28 CAH       -13.8730   17.7240   29.4740 C.ar      1 0UN        -0.0821
     29 CAI       -14.3370   18.0470   30.7330 C.ar      1 0UN        -0.0510
     30 CBF       -13.6220   18.9340   31.5000 C.ar      1 0UN         0.0587
     31 NAY       -13.9850   19.2980   32.7020 N.am      1 0UN        -0.2361
     32 CBD       -15.1660   19.0370   33.2070 C.2       1 0UN         0.2031
     33 OAE       -16.0410   18.4310   32.6170 O.2       1 0UN        -0.3849
     34 CAQ       -15.3880   19.6030   34.6070 C.3       1 0UN         0.0403
     35 CAP       -15.5450   18.5290   35.6780 C.3       1 0UN        -0.0477
     36 H         -11.7699   12.3472   33.1680 H         1 0UN         0.0489
     37 H         -12.6958   12.7265   34.6271 H         1 0UN         0.0489
     38 H         -13.8575   10.9774   33.4074 H         1 0UN         0.0036
     39 H         -13.8042   11.9177   31.9181 H         1 0UN         0.0036
     40 H         -17.1241   12.3670   33.2174 H         1 0UN        -0.0019
     41 H         -16.1251   11.5490   31.9910 H         1 0UN        -0.0019
     42 H         -16.1742   10.9268   33.6588 H         1 0UN        -0.0019
     43 H         -16.1448   14.2839   32.6001 H         1 0UN         0.0036
     44 H         -14.9717   13.5746   31.5078 H         1 0UN         0.0036
     45 H         -14.3842   15.1674   34.0304 H         1 0UN         0.0489
     46 H         -14.0473   15.6523   32.3550 H         1 0UN         0.0489
     47 H         -10.3910   13.1985   33.1197 H         1 0UN         0.0409
     48 H          -9.0790   12.7210   32.7740 H         1 0UN         0.0573
     49 H          -8.8275   13.3000   31.1089 H         1 0UN         0.0573
     50 H          -7.4449   12.7143   32.0663 H         1 0UN         0.0573
     51 H         -12.8324   16.6270   32.4673 H         1 0UN         0.0397
     52 H         -10.8153   17.9488   31.9437 H         1 0UN         0.0475
     53 H          -7.5564   16.6164   32.3953 H         1 0UN         0.2118
     54 H          -6.5075   20.1675   29.9766 H         1 0UN         0.0862
     55 H         -11.8993   20.1821   31.6132 H         1 0UN         0.0435
     56 H         -12.3574   18.0128   27.9930 H         1 0UN         0.0434
     57 H         -14.4335   17.0216   28.8571 H         1 0UN         0.0554
     58 H         -15.2577   17.6045   31.1132 H         1 0UN         0.0423
     59 H         -13.3155   19.8109   33.2757 H         1 0UN         0.2254
     60 H         -16.3117   20.1813   34.5844 H         1 0UN         0.0505
     61 H         -14.5106   20.1966   34.8638 H         1 0UN         0.0505
     62 H         -16.4036   17.9016   35.4385 H         1 0UN         0.0254
     63 H         -14.6439   17.9166   35.7115 H         1 0UN         0.0254
     64 H         -15.6994   19.0038   36.6470 H         1 0UN         0.0254
@<TRIPOS>BOND
     1    1    2 1  
     2    1    7 1  
     3    2    3 1  
     4    3    4 1  
     5    3    5 1  
     6    5    6 1  
     7    6    7 1  
     8    7    8 1  
     9    8    9 ar 
    10    8   13 ar 
    11    9   10 ar 
    12   10   11 1  
    13   10   15 ar 
    14   11   12 1  
    15   13   14 ar 
    16   14   15 ar 
    17   15   16 1  
    18   16   17 1  
    19   17   18 ar 
    20   17   19 ar 
    21   18   23 ar 
    22   19   20 ar 
    23   20   21 ar 
    24   21   22 1  
    25   21   23 ar 
    26   23   24 1  
    27   24   25 1  
    28   25   26 ar 
    29   25   27 ar 
    30   26   30 ar 
    31   27   28 ar 
    32   28   29 ar 
    33   29   30 ar 
    34   30   31 1  
    35   31   32 am 
    36   32   33 2  
    37   32   34 1  
    38   34   35 1  
    39    1   36 1  
    40    1   37 1  
    41    2   38 1  
    42    2   39 1  
    43    4   40 1  
    44    4   41 1  
    45    4   42 1  
    46    5   43 1  
    47    5   44 1  
    48    6   45 1  
    49    6   46 1  
    50    9   47 1  
    51   12   48 1  
    52   12   49 1  
    53   12   50 1  
    54   13   51 1  
    55   14   52 1  
    56   16   53 1  
    57   20   54 1  
    58   26   55 1  
    59   27   56 1  
    60   28   57 1  
    61   29   58 1  
    62   31   59 1  
    63   34   60 1  
    64   34   61 1  
    65   35   62 1  
    66   35   63 1  
    67   35   64 1  
@<TRIPOS>SUBSTRUCTURE
     1 0UN         1

