5dx4_ligand
  -I-interpret- 

 45 48  0  0  0  0  0  0  0  0999 V2000
   -8.6490    5.5150    3.7430 C   0  0  0  0  0
   -9.2730    6.7530    4.3090 C   0  0  0  0  0
   -9.0270    7.8630    3.3220 N   0  0  0  0  0
   -9.8070    8.1750    2.2750 C   0  0  0  0  0
  -10.8650    7.6110    1.9570 O   0  0  0  0  0
   -9.2720    9.2050    1.6100 C   0  0  0  0  0
   -9.6250    9.8900    0.5210 C   0  0  0  0  0
   -8.8140   10.9430    0.0780 C   0  0  0  0  0
   -7.6450   11.2680    0.7770 C   0  0  0  0  0
   -7.3130   10.5180    1.9100 C   0  0  0  0  0
   -8.1550    9.5260    2.2660 C   0  0  0  0  0
   -7.9880    8.7130    3.3170 C   0  0  0  0  0
   -6.9150    8.8790    4.1050 C   0  0  0  0  0
   -5.9860    9.8960    3.8130 C   0  0  0  0  0
   -6.1700   10.7310    2.6990 C   0  0  0  0  0
   -5.3110   11.7360    2.3780 N   0  0  0  0  0
   -3.8010   11.3390    1.7120 S   0  0  0  0  0
   -3.1660   10.2460    2.5750 O   0  0  0  0  0
   -2.9160   12.5770    1.6170 O   0  0  0  0  0
   -4.0050   10.6530    0.0830 C   0  0  0  0  0
   -3.7130    9.2990   -0.1130 C   0  0  0  0  0
   -3.8440    8.7160   -1.3660 C   0  0  0  0  0
   -3.4610    6.8680   -1.5810 Br  0  0  0  0  0
   -4.2680    9.4890   -2.4360 C   0  0  0  0  0
   -4.5520   10.8490   -2.2580 C   0  0  0  0  0
   -4.4200   11.4490   -0.9970 C   0  0  0  0  0
   -4.6840   12.7810   -0.7090 O   0  0  0  0  0
   -5.3070   13.5980   -1.7250 C   0  0  0  0  0
   -9.1088    5.2847    2.7820 H   0  0  0  0  0
   -7.5801    5.6785    3.6059 H   0  0  0  0  0
   -8.8055    4.6838    4.4306 H   0  0  0  0  0
   -8.8366    6.9957    5.2779 H   0  0  0  0  0
  -10.3417    6.6079    4.4667 H   0  0  0  0  0
  -10.5361    9.6328   -0.0192 H   0  0  0  0  0
   -9.0930   11.5092   -0.8107 H   0  0  0  0  0
   -7.0076   12.0877    0.4454 H   0  0  0  0  0
   -6.7631    8.2297    4.9672 H   0  0  0  0  0
   -5.1175   10.0362    4.4565 H   0  0  0  0  0
   -5.5696   12.7102    2.5347 H   0  0  0  0  0
   -3.3782    8.6937    0.7294 H   0  0  0  0  0
   -4.3809    9.0360   -3.4210 H   0  0  0  0  0
   -4.8790   11.4474   -3.1083 H   0  0  0  0  0
   -4.6694   13.6257   -2.6086 H   0  0  0  0  0
   -6.2758   13.1730   -1.9876 H   0  0  0  0  0
   -5.4441   14.6094   -1.3425 H   0  0  0  0  0
  1  2  1  0  0  0
  2  3  1  0  0  0
  3  4  1  0  0  0
  3 12  1  0  0  0
  4  5  2  0  0  0
  4  6  1  0  0  0
  6  7  4  0  0  0
  6 11  4  0  0  0
  7  8  4  0  0  0
  8  9  4  0  0  0
  9 10  4  0  0  0
 10 11  4  0  0  0
 10 15  4  0  0  0
 11 12  4  0  0  0
 12 13  4  0  0  0
 13 14  4  0  0  0
 14 15  4  0  0  0
 15 16  1  0  0  0
 16 17  1  0  0  0
 17 18  2  0  0  0
 17 19  2  0  0  0
 17 20  1  0  0  0
 20 21  4  0  0  0
 20 26  4  0  0  0
 21 22  4  0  0  0
 22 23  1  0  0  0
 22 24  4  0  0  0
 24 25  4  0  0  0
 25 26  4  0  0  0
 26 27  1  0  0  0
 27 28  1  0  0  0
  1 29  1  0  0  0
  1 30  1  0  0  0
  1 31  1  0  0  0
  2 32  1  0  0  0
  2 33  1  0  0  0
  7 34  1  0  0  0
  8 35  1  0  0  0
  9 36  1  0  0  0
 13 37  1  0  0  0
 14 38  1  0  0  0
 16 39  1  0  0  0
 21 40  1  0  0  0
 24 41  1  0  0  0
 25 42  1  0  0  0
 28 43  1  0  0  0
 28 44  1  0  0  0
 28 45  1  0  0  0
M  END
$$$$
