6n8y_ligand
  -I-interpret- 

 52 54  0  0  0  0  0  0  0  0999 V2000
   -0.9770  -10.2220  -22.5150 C   0  0  0  0  0
   -0.1700  -10.9410  -23.3170 C   0  0  0  0  0
    1.1430  -11.1030  -22.9720 C   0  0  0  0  0
   -2.1520  -10.8740  -24.1680 C   0  0  0  0  0
    1.6070  -10.5930  -21.8210 N   0  0  0  0  0
   -0.5520   -9.6780  -21.3560 N   0  0  0  0  0
   -5.0280   -6.5240  -24.4670 C   0  0  0  0  0
   -4.8440   -7.8680  -23.7680 C   0  0  0  0  0
   -3.4860   -8.1170  -23.1440 C   0  0  0  0  0
   -3.3440   -9.4810  -22.4380 C   0  0  0  0  0
   -2.2020  -10.1810  -23.0430 N   0  0  0  0  0
    0.7680   -9.8660  -20.9910 C   0  0  0  0  0
    1.9860  -11.7770  -23.7670 N   0  0  0  0  0
   -0.9180  -11.3310  -24.3700 N   0  0  0  0  0
   -3.3430  -11.0740  -25.1300 C   0  0  0  0  0
   -4.4920  -11.7060  -24.5380 C   0  0  0  0  0
   -5.7610  -11.1710  -24.8120 C   0  0  0  0  0
   -4.3850  -12.8300  -23.7000 C   0  0  0  0  0
   -5.5420  -13.4060  -23.1520 C   0  0  0  0  0
   -5.5250  -14.4880  -22.3240 O   0  0  0  0  0
   -4.3130  -15.2370  -22.3130 C   0  0  0  0  0
   -6.7930  -12.8680  -23.4510 C   0  0  0  0  0
   -7.9600  -13.3900  -22.9170 O   0  0  0  0  0
   -8.2590  -14.7390  -23.3030 C   0  0  0  0  0
   -6.9050  -11.7500  -24.2600 C   0  0  0  0  0
   -8.1940  -11.3120  -24.4880 O   0  0  0  0  0
   -8.2530  -10.1960  -25.3900 C   0  0  0  0  0
   -4.8739   -5.7184  -23.7491 H   0  0  0  0  0
   -4.3034   -6.4347  -25.2764 H   0  0  0  0  0
   -6.0377   -6.4623  -24.8730 H   0  0  0  0  0
   -4.9703   -8.6306  -24.5365 H   0  0  0  0  0
   -5.5632   -7.8862  -22.9492 H   0  0  0  0  0
   -3.3392   -7.3490  -22.3846 H   0  0  0  0  0
   -2.7561   -8.1003  -23.9534 H   0  0  0  0  0
   -4.2551  -10.0670  -22.5586 H   0  0  0  0  0
   -3.1795   -9.3397  -21.3698 H   0  0  0  0  0
    1.1457   -9.4462  -20.0587 H   0  0  0  0  0
    1.6506  -12.1775  -24.6431 H   0  0  0  0  0
    2.9628  -11.8894  -23.4958 H   0  0  0  0  0
   -2.9982  -11.7275  -25.9313 H   0  0  0  0  0
   -3.6581  -10.0829  -25.4563 H   0  0  0  0  0
   -5.8533  -10.2988  -25.4592 H   0  0  0  0  0
   -3.4057  -13.2532  -23.4763 H   0  0  0  0  0
   -4.1117  -15.6147  -23.3155 H   0  0  0  0  0
   -3.4928  -14.5938  -21.9941 H   0  0  0  0  0
   -4.4106  -16.0735  -21.6210 H   0  0  0  0  0
   -8.3628  -14.7909  -24.3868 H   0  0  0  0  0
   -7.4498  -15.3951  -22.9823 H   0  0  0  0  0
   -9.1908  -15.0523  -22.8321 H   0  0  0  0  0
   -7.6872   -9.3630  -24.9728 H   0  0  0  0  0
   -7.8243  -10.4834  -26.3501 H   0  0  0  0  0
   -9.2921   -9.8976  -25.5293 H   0  0  0  0  0
  1  2  4  0  0  0
  1  6  4  0  0  0
 11  1  4  0  0  0
  2  3  4  0  0  0
 14  2  4  0  0  0
  3  5  4  0  0  0
  3 13  1  0  0  0
 11  4  4  0  0  0
  4 14  4  0  0  0
  4 15  1  0  0  0
 12  5  4  0  0  0
  6 12  4  0  0  0
  8  7  1  0  0  0
  9  8  1  0  0  0
 10  9  1  0  0  0
 10 11  1  0  0  0
 15 16  1  0  0  0
 16 17  4  0  0  0
 16 18  4  0  0  0
 17 25  4  0  0  0
 18 19  4  0  0  0
 19 20  1  0  0  0
 19 22  4  0  0  0
 20 21  1  0  0  0
 22 23  1  0  0  0
 22 25  4  0  0  0
 23 24  1  0  0  0
 25 26  1  0  0  0
 26 27  1  0  0  0
  7 28  1  0  0  0
  7 29  1  0  0  0
  7 30  1  0  0  0
  8 31  1  0  0  0
  8 32  1  0  0  0
  9 33  1  0  0  0
  9 34  1  0  0  0
 10 35  1  0  0  0
 10 36  1  0  0  0
 12 37  1  0  0  0
 13 38  1  0  0  0
 13 39  1  0  0  0
 15 40  1  0  0  0
 15 41  1  0  0  0
 17 42  1  0  0  0
 18 43  1  0  0  0
 21 44  1  0  0  0
 21 45  1  0  0  0
 21 46  1  0  0  0
 24 47  1  0  0  0
 24 48  1  0  0  0
 24 49  1  0  0  0
 27 50  1  0  0  0
 27 51  1  0  0  0
 27 52  1  0  0  0
M  END
$$$$
