### 
### Created by X-TOOL on Mon Sep 10 21:12:54 2018
### 

@<TRIPOS>MOLECULE
2g5p_ligand
   60    62     1     0     0
SMALL
GAST_HUCK


@<TRIPOS>ATOM
      1 C1          3.3930    1.1320    0.9710 C.2       1 ADF         0.2301
      2 C2          3.5000    2.1360    2.1350 C.3       1 ADF         0.0676
      3 C4          4.6740    1.8470    3.0800 C.3       1 ADF         0.0131
      4 C5          4.1720    2.2280    4.4420 C.3       1 ADF         0.0003
      5 C6          2.6770    2.0070    4.3470 C.3       1 ADF         0.0099
      6 C9          2.2180    0.6350    4.8740 C.3       1 ADF         0.1233
      7 O3          2.6900    0.1340    1.0930 O.2       1 ADF        -0.3904
      8 N7          2.2910    2.1870    2.9570 N.4       1 ADF         0.2503
      9 N8          4.1280    1.4320   -0.1760 N.am      1 ADF        -0.2459
     10 C10         2.1360   -0.3160    7.1770 C.ar      1 ADF         0.1267
     11 O11         2.4650    0.7040    6.2650 O.3       1 ADF        -0.2850
     12 C12         4.1510    0.5740   -1.3670 C.3       1 ADF         0.1037
     13 C13         5.0640    1.3310   -2.3510 C.3       1 ADF        -0.0096
     14 C14         5.8970    2.2800   -1.5030 C.3       1 ADF        -0.0272
     15 C15         4.9740    2.6280   -0.3540 C.3       1 ADF         0.0382
     16 C16         2.4390   -0.0690    8.5820 C.ar      1 ADF        -0.0145
     17 C17         2.0800   -1.0920    9.5150 C.ar      1 ADF        -0.0325
     18 C18         1.4400   -2.2970    9.1290 C.ar      1 ADF         0.0284
     19 C19         1.1670   -2.5110    7.7520 C.ar      1 ADF        -0.0282
     20 C20         1.4960   -1.5380    6.7980 C.ar      1 ADF         0.0030
     21 C21         4.7900   -0.8240   -1.2310 C.2       1 ADF         0.0209
     22 N22         5.3260   -1.2730   -0.0790 N.2       1 ADF        -0.3619
     23 C23         1.0780   -3.3250   10.1410 C.2       1 ADF         0.0639
     24 C24         3.1420    1.2530    9.0790 C.3       1 ADF        -0.0507
     25 C25         2.3590    2.4980    8.5960 C.3       1 ADF        -0.0893
     26 C26         4.6050    1.3260    8.5580 C.3       1 ADF        -0.0893
     27 C27         3.2550    1.3780   10.6270 C.3       1 ADF        -0.0893
     28 O28         1.3280   -3.1140   11.3320 O.co2     1 ADF        -0.5623
     29 O29         0.5210   -4.3770    9.7720 O.co2     1 ADF        -0.5623
     30 H1          3.6552    3.1297    1.6895 H         1 ADF         0.1099
     31 H2          5.5501    2.4532    2.8063 H         1 ADF         0.0347
     32 H3          4.9421    0.7806    3.0501 H         1 ADF         0.0347
     33 H4          4.3997    3.2811    4.6638 H         1 ADF         0.0324
     34 H5          4.6151    1.5858    5.2174 H         1 ADF         0.0324
     35 H6          2.1782    2.7774    4.9534 H         1 ADF         0.0879
     36 H7          2.8007   -0.1761    4.4130 H         1 ADF         0.0693
     37 H8          1.1479    0.4771    4.6741 H         1 ADF         0.0693
     38 H9          1.6595    1.4516    2.6806 H         1 ADF         0.2039
     39 H10         1.8379    3.0800    2.8419 H         1 ADF         0.2039
     40 H11         3.1278    0.4655   -1.7560 H         1 ADF         0.0842
     41 H12         4.4597    1.8963   -3.0757 H         1 ADF         0.0324
     42 H13         5.7156    0.6258   -2.8878 H         1 ADF         0.0324
     43 H14         6.1713    3.1796   -2.0735 H         1 ADF         0.0288
     44 H15         6.8090    1.7845   -1.1387 H         1 ADF         0.0288
     45 H16         5.5521    2.8334    0.5590 H         1 ADF         0.0525
     46 H17         4.3583    3.5048   -0.6032 H         1 ADF         0.0525
     47 H18         2.3073   -0.9393   10.5638 H         1 ADF         0.0840
     48 H19         0.6994   -3.4363    7.4353 H         1 ADF         0.0850
     49 H20         1.2613   -1.7147    5.7546 H         1 ADF         0.0632
     50 H21         4.8086   -1.4756   -2.1033 H         1 ADF         0.1225
     51 H22         5.7327   -2.1944   -0.0378 H         1 ADF         0.1054
     52 H23         2.8631    3.4088    8.9514 H         1 ADF         0.0121
     53 H24         1.3351    2.4655    8.9968 H         1 ADF         0.0121
     54 H25         2.3224    2.5045    7.4966 H         1 ADF         0.0121
     55 H26         5.1611    0.4412    8.9014 H         1 ADF         0.0121
     56 H27         5.0874    2.2354    8.9457 H         1 ADF         0.0121
     57 H28         4.6017    1.3530    7.4583 H         1 ADF         0.0121
     58 H29         2.2503    1.3345   11.0727 H         1 ADF         0.0121
     59 H30         3.7288    2.3369   10.8838 H         1 ADF         0.0121
     60 H31         3.8657    0.5509   11.0181 H         1 ADF         0.0121
@<TRIPOS>BOND
     1    1    2 1  
     2    1    7 2  
     3    1    9 am 
     4    2    3 1  
     5    2    8 1  
     6    3    4 1  
     7    4    5 1  
     8    5    6 1  
     9    5    8 1  
    10    6   11 1  
    11    9   12 1  
    12    9   15 1  
    13   11   10 1  
    14   10   16 ar 
    15   10   20 ar 
    16   12   13 1  
    17   12   21 1  
    18   13   14 1  
    19   14   15 1  
    20   16   17 ar 
    21   16   24 1  
    22   17   18 ar 
    23   18   19 ar 
    24   18   23 1  
    25   19   20 ar 
    26   21   22 2  
    27   23   28 ar 
    28   23   29 ar 
    29   24   25 1  
    30   24   26 1  
    31   24   27 1  
    32    2   30 1  
    33    3   31 1  
    34    3   32 1  
    35    4   33 1  
    36    4   34 1  
    37    5   35 1  
    38    6   36 1  
    39    6   37 1  
    40    8   38 1  
    41    8   39 1  
    42   12   40 1  
    43   13   41 1  
    44   13   42 1  
    45   14   43 1  
    46   14   44 1  
    47   15   45 1  
    48   15   46 1  
    49   17   47 1  
    50   19   48 1  
    51   20   49 1  
    52   21   50 1  
    53   22   51 1  
    54   25   52 1  
    55   25   53 1  
    56   25   54 1  
    57   26   55 1  
    58   26   56 1  
    59   26   57 1  
    60   27   58 1  
    61   27   59 1  
    62   27   60 1  
@<TRIPOS>SUBSTRUCTURE
     1 ADF         1

