2g5p_ligand
  -I-interpret- 

 61 63  0  0  0  0  0  0  0  0999 V2000
    3.3930    1.1320    0.9710 C   0  0  0  0  0
    3.5000    2.1360    2.1350 C   0  0  0  0  0
    4.6740    1.8470    3.0800 C   0  0  0  0  0
    4.1720    2.2280    4.4420 C   0  0  0  0  0
    2.6770    2.0070    4.3470 C   0  0  0  0  0
    2.2180    0.6350    4.8740 C   0  0  0  0  0
    2.6900    0.1340    1.0930 O   0  0  0  0  0
    2.2910    2.1870    2.9570 N   0  3  0  0  0
    4.1280    1.4320   -0.1760 N   0  0  0  0  0
    2.1360   -0.3160    7.1770 C   0  0  0  0  0
    2.4650    0.7040    6.2650 O   0  0  0  0  0
    4.1510    0.5740   -1.3670 C   0  0  0  0  0
    5.0640    1.3310   -2.3510 C   0  0  0  0  0
    5.8970    2.2800   -1.5030 C   0  0  0  0  0
    4.9740    2.6280   -0.3540 C   0  0  0  0  0
    2.4390   -0.0690    8.5820 C   0  0  0  0  0
    2.0800   -1.0920    9.5150 C   0  0  0  0  0
    1.4400   -2.2970    9.1290 C   0  0  0  0  0
    1.1670   -2.5110    7.7520 C   0  0  0  0  0
    1.4960   -1.5380    6.7980 C   0  0  0  0  0
    4.7900   -0.8240   -1.2310 C   0  0  0  0  0
    5.3260   -1.2730   -0.0790 N   0  0  0  0  0
    1.0780   -3.3250   10.1410 C   0  0  0  0  0
    3.1420    1.2530    9.0790 C   0  0  0  0  0
    2.3590    2.4980    8.5960 C   0  0  0  0  0
    4.6050    1.3260    8.5580 C   0  0  0  0  0
    3.2550    1.3780   10.6270 C   0  0  0  0  0
    1.3280   -3.1140   11.3320 O   0  0  0  0  0
    0.5210   -4.3770    9.7720 O   0  0  0  0  0
    3.6553    3.0914    1.6338 H   0  0  0  0  0
    5.5655    2.4100    2.8038 H   0  0  0  0  0
    4.9810    0.8020    3.0382 H   0  0  0  0  0
    4.4250    3.2547    4.7067 H   0  0  0  0  0
    4.6305    1.6372    5.2349 H   0  0  0  0  0
    2.1817    2.7334    4.9913 H   0  0  0  0  0
    2.7504   -0.1895    4.3998 H   0  0  0  0  0
    1.1703    0.4350    4.6494 H   0  0  0  0  0
    1.6445    1.4502    2.6749 H   0  0  0  0  0
    1.8237    3.0857    2.8370 H   0  0  0  0  0
    3.1111    0.3959   -1.6408 H   0  0  0  0  0
    4.4799    1.8742   -3.0939 H   0  0  0  0  0
    5.6969    0.6432   -2.9118 H   0  0  0  0  0
    6.2239    3.1593   -2.0580 H   0  0  0  0  0
    6.8314    1.8302   -1.1674 H   0  0  0  0  0
    5.5280    2.8722    0.5524 H   0  0  0  0  0
    4.3805    3.5176   -0.5648 H   0  0  0  0  0
    2.3086   -0.9385   10.5696 H   0  0  0  0  0
    0.6968   -3.4414    7.4335 H   0  0  0  0  0
    1.2600   -1.7157    5.7488 H   0  0  0  0  0
    4.8086   -1.4762   -2.1041 H   0  0  0  0  0
    5.3202   -0.6805    0.7512 H   0  0  0  0  0
    2.3235    2.5032    7.5066 H   0  0  0  0  0
    1.3447    2.4646    8.9937 H   0  0  0  0  0
    2.8594    3.3998    8.9488 H   0  0  0  0  0
    5.1647    0.4675    8.9291 H   0  0  0  0  0
    4.6021    1.3159    7.4681 H   0  0  0  0  0
    5.0702    2.2456    8.9129 H   0  0  0  0  0
    2.2571    1.3635   11.0652 H   0  0  0  0  0
    3.8363    0.5421   11.0163 H   0  0  0  0  0
    3.7504    2.3155   10.8793 H   0  0  0  0  0
    0.4104   -4.3617    8.8185 H   0  0  0  0  0
  1  2  1  0  0  0
  1  7  2  0  0  0
  1  9  1  0  0  0
  2  3  1  0  0  0
  2  8  1  0  0  0
  3  4  1  0  0  0
  4  5  1  0  0  0
  5  6  1  0  0  0
  5  8  1  0  0  0
  6 11  1  0  0  0
  9 12  1  0  0  0
  9 15  1  0  0  0
 11 10  1  0  0  0
 10 16  4  0  0  0
 10 20  4  0  0  0
 12 13  1  0  0  0
 12 21  1  0  0  0
 13 14  1  0  0  0
 14 15  1  0  0  0
 16 17  4  0  0  0
 16 24  1  0  0  0
 17 18  4  0  0  0
 18 19  4  0  0  0
 18 23  1  0  0  0
 19 20  4  0  0  0
 21 22  2  0  0  0
 23 28  2  0  0  0
 23 29  1  0  0  0
 24 25  1  0  0  0
 24 26  1  0  0  0
 24 27  1  0  0  0
  2 30  1  0  0  0
  3 31  1  0  0  0
  3 32  1  0  0  0
  4 33  1  0  0  0
  4 34  1  0  0  0
  5 35  1  0  0  0
  6 36  1  0  0  0
  6 37  1  0  0  0
  8 38  1  0  0  0
  8 39  1  0  0  0
 12 40  1  0  0  0
 13 41  1  0  0  0
 13 42  1  0  0  0
 14 43  1  0  0  0
 14 44  1  0  0  0
 15 45  1  0  0  0
 15 46  1  0  0  0
 17 47  1  0  0  0
 19 48  1  0  0  0
 20 49  1  0  0  0
 21 50  1  0  0  0
 22 51  1  0  0  0
 25 52  1  0  0  0
 25 53  1  0  0  0
 25 54  1  0  0  0
 26 55  1  0  0  0
 26 56  1  0  0  0
 26 57  1  0  0  0
 27 58  1  0  0  0
 27 59  1  0  0  0
 27 60  1  0  0  0
 29 61  1  0  0  0
M  END
$$$$
