3zvv_ligand
  -I-interpret- 

 22 23  0  0  0  0  0  0  0  0999 V2000
   42.4250   13.0130   30.7000 C   0  0  0  0  0
   43.9350   13.0850   30.2970 C   0  0  0  0  0
   44.3810   12.2820   29.2160 C   0  0  0  0  0
   45.6930   12.3120   28.8160 C   0  0  0  0  0
   46.0450   11.4640   27.7510 C   0  0  0  0  0
   46.6530   13.0730   29.3720 N   0  0  0  0  0
   48.0400   13.2850   29.1460 N   0  0  0  0  0
   48.5210   14.1270   29.9870 C   0  0  0  0  0
   49.8950   14.4710   29.9450 N   0  0  0  0  0
   47.4700   14.5590   30.8690 C   0  0  0  0  0
   46.3010   13.9180   30.4850 C   0  0  0  0  0
   44.9250   13.8830   30.9040 N   0  0  0  0  0
   41.8093   13.3149   29.8527 H   0  0  0  0  0
   42.1751   11.9915   30.9867 H   0  0  0  0  0
   42.2422   13.6826   31.5404 H   0  0  0  0  0
   43.6739   11.6343   28.6977 H   0  0  0  0  0
   45.8419   10.4299   28.0293 H   0  0  0  0  0
   45.4589   11.7265   26.8703 H   0  0  0  0  0
   47.1061   11.5806   27.5308 H   0  0  0  0  0
   50.5052   14.0492   29.2449 H   0  0  0  0  0
   50.2738   15.1405   30.6148 H   0  0  0  0  0
   47.5736   15.2649   31.6931 H   0  0  0  0  0
  1  2  1  0  0  0
  2  3  4  0  0  0
  2 12  4  0  0  0
  3  4  4  0  0  0
  4  5  1  0  0  0
  4  6  4  0  0  0
  6  7  4  0  0  0
  6 11  4  0  0  0
  7  8  4  0  0  0
  8  9  1  0  0  0
  8 10  4  0  0  0
 10 11  4  0  0  0
 11 12  4  0  0  0
  1 13  1  0  0  0
  1 14  1  0  0  0
  1 15  1  0  0  0
  3 16  1  0  0  0
  5 17  1  0  0  0
  5 18  1  0  0  0
  5 19  1  0  0  0
  9 20  1  0  0  0
  9 21  1  0  0  0
 10 22  1  0  0  0
M  END
$$$$
