1aqj_ligand
  -I-interpret- 

 52 54  0  0  0  0  0  0  0  0999 V2000
   35.0350   36.8700   16.4130 N   0  3  0  0  0
   35.5490   37.6800   15.3140 C   0  0  0  0  0
   35.3180   36.9490   13.9970 C   0  0  0  0  0
   35.5060   35.7160   13.9700 O   0  0  0  0  0
   34.9580   37.6160   13.0100 O   0  0  0  0  0
   37.0500   37.9380   15.4770 C   0  0  0  0  0
   37.4660   38.7330   16.7040 C   0  0  0  0  0
   38.9810   38.7180   16.9120 C   0  0  0  0  0
   39.3780   39.5750   18.0710 N   0  3  0  0  0
   39.6110   39.2090   15.6140 C   0  0  0  0  0
   41.0290   39.7080   15.7650 C   0  0  0  0  0
   41.8610   38.7160   16.3940 O   0  0  0  0  0
   41.6210   40.0390   14.4110 C   0  0  0  0  0
   41.9830   41.4180   14.3700 O   0  0  0  0  0
   42.8460   39.1770   14.2770 C   0  0  0  0  0
   43.9530   39.9590   13.8160 O   0  0  0  0  0
   43.1030   38.6250   15.6680 C   0  0  0  0  0
   43.5990   37.2270   15.6110 N   0  0  0  0  0
   43.2180   36.2030   14.8020 C   0  0  0  0  0
   43.8450   35.0770   14.9420 N   0  0  0  0  0
   44.7580   35.3670   15.9710 C   0  0  0  0  0
   45.6230   34.5530   16.7290 C   0  0  0  0  0
   45.8100   33.2600   16.4740 N   0  0  0  0  0
   46.2510   35.1200   17.7820 N   0  0  0  0  0
   46.0250   36.4040   18.0600 C   0  0  0  0  0
   45.2360   37.2720   17.4350 N   0  0  0  0  0
   44.6170   36.6820   16.3840 C   0  0  0  0  0
   34.0359   36.7135   16.2801 H   0  0  0  0  0
   35.5215   35.9737   16.4296 H   0  0  0  0  0
   35.1895   37.3585   17.2950 H   0  0  0  0  0
   35.0242   38.6353   15.3189 H   0  0  0  0  0
   35.7779   35.4158   14.8404 H   0  0  0  0  0
   37.3520   38.5310   14.6137 H   0  0  0  0  0
   37.5178   36.9585   15.5764 H   0  0  0  0  0
   36.9981   38.2796   17.5779 H   0  0  0  0  0
   37.1524   39.7672   16.5617 H   0  0  0  0  0
   39.3275   37.7119   17.1482 H   0  0  0  0  0
   40.3913   39.5443   18.1836 H   0  0  0  0  0
   39.0828   40.5360   17.8986 H   0  0  0  0  0
   38.9298   39.2273   18.9187 H   0  0  0  0  0
   39.0104   40.0476   15.2617 H   0  0  0  0  0
   39.6391   38.3616   14.9291 H   0  0  0  0  0
   40.9951   40.6024   16.3871 H   0  0  0  0  0
   40.9144   39.8564   13.6014 H   0  0  0  0  0
   42.3577   41.6239   13.5105 H   0  0  0  0  0
   42.7102   38.3746   13.5518 H   0  0  0  0  0
   44.7278   39.3980   13.7347 H   0  0  0  0  0
   43.8805   39.1998   16.1711 H   0  0  0  0  0
   42.4209   36.3234   14.0684 H   0  0  0  0  0
   45.3157   32.8161   15.7000 H   0  0  0  0  0
   46.4476   32.7131   17.0526 H   0  0  0  0  0
   46.5635   36.7978   18.9220 H   0  0  0  0  0
  1  2  1  0  0  0
  2  3  1  0  0  0
  2  6  1  0  0  0
  3  4  1  0  0  0
  3  5  2  0  0  0
  6  7  1  0  0  0
  7  8  1  0  0  0
  8  9  1  0  0  0
  8 10  1  0  0  0
 10 11  1  0  0  0
 11 12  1  0  0  0
 11 13  1  0  0  0
 12 17  1  0  0  0
 13 14  1  0  0  0
 13 15  1  0  0  0
 15 16  1  0  0  0
 15 17  1  0  0  0
 17 18  1  0  0  0
 18 19  4  0  0  0
 18 27  4  0  0  0
 19 20  4  0  0  0
 20 21  4  0  0  0
 21 22  4  0  0  0
 21 27  4  0  0  0
 22 23  1  0  0  0
 22 24  4  0  0  0
 24 25  4  0  0  0
 25 26  4  0  0  0
 26 27  4  0  0  0
  1 28  1  0  0  0
  1 29  1  0  0  0
  1 30  1  0  0  0
  2 31  1  0  0  0
  4 32  1  0  0  0
  6 33  1  0  0  0
  6 34  1  0  0  0
  7 35  1  0  0  0
  7 36  1  0  0  0
  8 37  1  0  0  0
  9 38  1  0  0  0
  9 39  1  0  0  0
  9 40  1  0  0  0
 10 41  1  0  0  0
 10 42  1  0  0  0
 11 43  1  0  0  0
 13 44  1  0  0  0
 14 45  1  0  0  0
 15 46  1  0  0  0
 16 47  1  0  0  0
 17 48  1  0  0  0
 19 49  1  0  0  0
 23 50  1  0  0  0
 23 51  1  0  0  0
 25 52  1  0  0  0
M  END
$$$$
