4ufz_ligand
  -I-interpret- 

 38 40  0  0  0  0  0  0  0  0999 V2000
  114.5310   88.3180   29.2710 N   0  0  0  0  0
  113.9740   89.0710   28.6260 C   0  0  0  0  0
  113.2980   89.9910   27.7570 C   0  0  0  0  0
  113.2530   91.3610   28.0980 C   0  0  0  0  0
  113.8110   91.8110   29.2690 N   0  0  0  0  0
  112.7620   89.5190   26.5290 C   0  0  0  0  0
  112.8190   88.2120   26.2030 N   0  0  0  0  0
  112.1590   90.3260   25.6660 N   0  0  0  0  0
  112.0800   91.6550   25.9570 C   0  0  0  0  0
  111.4410   92.3850   24.9990 N   0  0  0  0  0
  111.3370   93.6910   25.2180 C   0  0  0  0  0
  110.6130   94.5030   24.1360 C   0  0  0  0  0
  109.6200   93.7010   23.2880 C   0  0  0  0  0
  111.6950   95.0660   23.2100 C   0  0  0  0  0
  109.8400   95.6790   24.7530 C   0  0  0  0  0
  112.6170   92.2970   27.1860 C   0  0  0  0  0
  112.4130   93.7250   27.2280 C   0  0  0  0  0
  111.7930   94.3920   26.2450 N   0  0  0  0  0
  112.9000   94.5930   28.3210 C   0  0  0  0  0
  111.7100   95.5680   29.1150 S   0  0  0  0  0
  112.9480   96.2500   30.0850 C   0  0  0  0  0
  114.1390   95.7350   29.7470 C   0  0  0  0  0
  114.1320   94.8030   28.7320 N   0  0  0  0  0
  114.2643   91.1536   29.9036 H   0  0  0  0  0
  113.7722   92.8027   29.5044 H   0  0  0  0  0
  113.2519   87.5453   26.8422 H   0  0  0  0  0
  112.4293   87.8899   25.3172 H   0  0  0  0  0
  110.1479   92.8957   22.7772 H   0  0  0  0  0
  108.8497   93.2798   23.9341 H   0  0  0  0  0
  109.1585   94.3591   22.5517 H   0  0  0  0  0
  112.3696   95.7002   23.7851 H   0  0  0  0  0
  112.2566   94.2434   22.7674 H   0  0  0  0  0
  111.2262   95.6537   22.4208 H   0  0  0  0  0
  109.1006   95.2968   25.4568 H   0  0  0  0  0
  110.5359   96.3352   25.2757 H   0  0  0  0  0
  109.3371   96.2362   23.9626 H   0  0  0  0  0
  112.7897   96.9952   30.8645 H   0  0  0  0  0
  115.0598   96.0363   30.2464 H   0  0  0  0  0
  1  2  3  0  0  0
  2  3  1  0  0  0
  3  4  4  0  0  0
  3  6  4  0  0  0
  4  5  1  0  0  0
  4 16  4  0  0  0
  6  7  1  0  0  0
  6  8  4  0  0  0
  8  9  4  0  0  0
  9 10  4  0  0  0
  9 16  4  0  0  0
 10 11  4  0  0  0
 11 12  1  0  0  0
 11 18  4  0  0  0
 12 13  1  0  0  0
 12 14  1  0  0  0
 12 15  1  0  0  0
 16 17  4  0  0  0
 17 18  4  0  0  0
 17 19  1  0  0  0
 19 20  4  0  0  0
 19 23  4  0  0  0
 20 21  4  0  0  0
 21 22  4  0  0  0
 22 23  4  0  0  0
  5 24  1  0  0  0
  5 25  1  0  0  0
  7 26  1  0  0  0
  7 27  1  0  0  0
 13 28  1  0  0  0
 13 29  1  0  0  0
 13 30  1  0  0  0
 14 31  1  0  0  0
 14 32  1  0  0  0
 14 33  1  0  0  0
 15 34  1  0  0  0
 15 35  1  0  0  0
 15 36  1  0  0  0
 21 37  1  0  0  0
 22 38  1  0  0  0
M  END
$$$$
