5wev_ligand
  -I-interpret- 

 34 37  0  0  0  0  0  0  0  0999 V2000
   14.5160  -23.0080  -20.2760 C   0  0  0  0  0
   14.1420  -22.1830  -21.3570 C   0  0  0  0  0
   14.6620  -20.8960  -21.4930 C   0  0  0  0  0
   13.7750  -26.5910  -19.9600 C   0  0  0  0  0
   13.9370  -24.3810  -20.1340 C   0  0  0  0  0
   13.9460  -27.9760  -19.8730 C   0  0  0  0  0
   12.8360  -28.7510  -19.6590 C   0  0  0  0  0
   15.4390  -22.4880  -19.3180 C   0  0  0  0  0
   15.5620  -20.4080  -20.5560 C   0  0  0  0  0
   15.9450  -21.2000  -19.4800 C   0  0  0  0  0
   13.0320  -22.7550  -22.5560 Cl  0  0  0  0  0
   14.6580  -25.5460  -20.1420 N   0  0  0  0  0
   11.6280  -28.2020  -19.5540 N   0  0  0  0  0
   11.3710  -26.9040  -19.6350 C   0  0  0  0  0
   12.4720  -26.0180  -19.8400 C   0  0  0  0  0
   12.6530  -24.6720  -19.9590 N   0  0  0  0  0
   10.0040  -26.5900  -19.4870 N   0  0  0  0  0
    9.2570  -25.6260  -20.0970 C   0  0  0  0  0
    9.7620  -24.8210  -20.8510 O   0  0  0  0  0
    7.7670  -25.5660  -19.7930 C   0  0  0  0  0
    6.7860  -25.1380  -20.8940 C   0  0  0  0  0
    7.0600  -24.2080  -19.7100 C   0  0  0  0  0
   16.0050  -23.3790  -17.9230 Cl  0  0  0  0  0
   14.3614  -20.2732  -22.3355 H   0  0  0  0  0
   14.9336  -28.4264  -19.9725 H   0  0  0  0  0
   12.9440  -29.8323  -19.5736 H   0  0  0  0  0
   15.9689  -19.4026  -20.6640 H   0  0  0  0  0
   16.6532  -20.8069  -18.7506 H   0  0  0  0  0
    9.4964  -27.1733  -18.8218 H   0  0  0  0  0
    7.8596  -26.4278  -19.1321 H   0  0  0  0  0
    5.9303  -25.5476  -21.4307 H   0  0  0  0  0
    6.7502  -25.0870  -21.9822 H   0  0  0  0  0
    7.3172  -23.1633  -19.5352 H   0  0  0  0  0
    6.4954  -23.6249  -18.9825 H   0  0  0  0  0
  1  2  4  0  0  0
  5  1  1  0  0  0
  1  8  4  0  0  0
  2  3  4  0  0  0
  2 11  1  0  0  0
  3  9  4  0  0  0
  4  6  4  0  0  0
 12  4  4  0  0  0
  4 15  4  0  0  0
  5 12  4  0  0  0
  5 16  4  0  0  0
  6  7  4  0  0  0
  7 13  4  0  0  0
  8 10  4  0  0  0
  8 23  1  0  0  0
  9 10  4  0  0  0
 13 14  4  0  0  0
 14 15  4  0  0  0
 14 17  1  0  0  0
 15 16  4  0  0  0
 17 18  1  0  0  0
 18 19  2  0  0  0
 18 20  1  0  0  0
 20 21  1  0  0  0
 20 22  1  0  0  0
 21 22  1  0  0  0
  3 24  1  0  0  0
  6 25  1  0  0  0
  7 26  1  0  0  0
  9 27  1  0  0  0
 10 28  1  0  0  0
 17 29  1  0  0  0
 20 30  1  0  0  0
 21 31  1  0  0  0
 21 32  1  0  0  0
 22 33  1  0  0  0
 22 34  1  0  0  0
M  END
$$$$
