5du6_ligand
  -I-interpret- 

 54 57  0  0  0  0  0  0  0  0999 V2000
  -19.8880   27.3610  -38.5920 O   0  0  0  0  0
  -19.3780   26.3510  -39.0790 C   0  0  0  0  0
  -19.5560   26.0450  -40.5040 N   0  0  0  0  0
  -20.3450   26.9840  -41.3010 C   0  0  0  0  0
  -19.3940   27.9830  -41.9530 C   0  0  0  0  0
  -18.1710   28.3360  -41.3770 C   0  0  0  0  0
  -17.2910   29.2450  -41.9640 C   0  0  0  0  0
  -19.7060   28.5990  -43.1650 C   0  0  0  0  0
  -18.8480   29.5130  -43.7770 C   0  0  0  0  0
  -17.6420   29.8280  -43.1620 C   0  0  0  0  0
  -16.8270   30.6990  -43.7350 F   0  0  0  0  0
  -18.5490   25.4430  -38.1760 C   0  0  0  0  0
  -18.4810   25.5030  -36.7510 C   0  0  0  0  0
  -17.6250   24.5250  -36.3920 N   0  0  0  0  0
  -17.1350   23.8480  -37.4770 N   0  0  0  0  0
  -17.6980   24.4210  -38.5270 C   0  0  0  0  0
  -19.1070   26.3250  -35.7750 N   0  0  0  0  0
  -18.7300   26.1620  -34.3610 C   0  0  0  0  0
  -18.2470   24.7460  -34.0600 C   0  0  0  0  0
  -17.2490   24.2070  -35.0530 C   0  0  0  0  0
  -17.1610   22.7220  -34.9100 C   0  0  0  0  0
  -19.8640   26.5080  -33.3940 C   0  0  0  0  0
  -21.1760   26.0810  -33.5800 C   0  0  0  0  0
  -22.1870   26.4020  -32.6540 C   0  0  0  0  0
  -21.9410   27.1690  -31.4930 C   0  0  0  0  0
  -23.0380   27.5040  -30.4900 C   0  0  0  0  0
  -24.1880   28.1950  -31.1570 C   0  0  0  0  0
  -20.6260   27.5860  -31.3220 C   0  0  0  0  0
  -19.6240   27.2570  -32.2520 C   0  0  0  0  0
  -19.1454   25.2100  -40.9219 H   0  0  0  0  0
  -21.0556   27.5088  -40.6624 H   0  0  0  0  0
  -20.9018   26.4452  -42.0677 H   0  0  0  0  0
  -17.8922   27.8808  -40.4267 H   0  0  0  0  0
  -16.3434   29.4896  -41.4840 H   0  0  0  0  0
  -20.6519   28.3581  -43.6502 H   0  0  0  0  0
  -19.1201   29.9746  -44.7262 H   0  0  0  0  0
  -17.5088   24.1172  -39.5566 H   0  0  0  0  0
  -19.8054   27.0159  -36.0494 H   0  0  0  0  0
  -17.9155   26.8692  -34.2042 H   0  0  0  0  0
  -19.1201   24.0946  -34.0969 H   0  0  0  0  0
  -17.7505   24.7758  -33.0901 H   0  0  0  0  0
  -16.2827   24.6677  -34.8477 H   0  0  0  0  0
  -18.1311   22.2785  -35.1345 H   0  0  0  0  0
  -16.4141   22.3351  -35.6032 H   0  0  0  0  0
  -16.8739   22.4730  -33.8884 H   0  0  0  0  0
  -21.4253   25.4869  -34.4592 H   0  0  0  0  0
  -23.1998   26.0446  -32.8402 H   0  0  0  0  0
  -22.6250   28.1686  -29.7312 H   0  0  0  0  0
  -23.3991   26.5763  -30.0461 H   0  0  0  0  0
  -23.8385   29.1209  -31.6137 H   0  0  0  0  0
  -24.6050   27.5442  -31.9255 H   0  0  0  0  0
  -24.9542   28.4208  -30.4153 H   0  0  0  0  0
  -20.3657   28.1816  -30.4470 H   0  0  0  0  0
  -18.6089   27.6079  -32.0661 H   0  0  0  0  0
  1  2  2  0  0  0
  2  3  1  0  0  0
  2 12  1  0  0  0
  3  4  1  0  0  0
  4  5  1  0  0  0
  5  6  4  0  0  0
  5  8  4  0  0  0
  6  7  4  0  0  0
  7 10  4  0  0  0
  8  9  4  0  0  0
  9 10  4  0  0  0
 10 11  1  0  0  0
 12 13  4  0  0  0
 12 16  4  0  0  0
 13 14  4  0  0  0
 13 17  1  0  0  0
 14 15  4  0  0  0
 14 20  1  0  0  0
 15 16  4  0  0  0
 17 18  1  0  0  0
 18 19  1  0  0  0
 18 22  1  0  0  0
 19 20  1  0  0  0
 20 21  1  0  0  0
 22 23  4  0  0  0
 22 29  4  0  0  0
 23 24  4  0  0  0
 24 25  4  0  0  0
 25 26  1  0  0  0
 25 28  4  0  0  0
 26 27  1  0  0  0
 28 29  4  0  0  0
  3 30  1  0  0  0
  4 31  1  0  0  0
  4 32  1  0  0  0
  6 33  1  0  0  0
  7 34  1  0  0  0
  8 35  1  0  0  0
  9 36  1  0  0  0
 16 37  1  0  0  0
 17 38  1  0  0  0
 18 39  1  0  0  0
 19 40  1  0  0  0
 19 41  1  0  0  0
 20 42  1  0  0  0
 21 43  1  0  0  0
 21 44  1  0  0  0
 21 45  1  0  0  0
 23 46  1  0  0  0
 24 47  1  0  0  0
 26 48  1  0  0  0
 26 49  1  0  0  0
 27 50  1  0  0  0
 27 51  1  0  0  0
 27 52  1  0  0  0
 28 53  1  0  0  0
 29 54  1  0  0  0
M  END
$$$$
