3hp5_ligand
  -I-interpret- 

 39 42  0  0  0  0  0  0  0  0999 V2000
   38.5180   37.8990   14.5200 F   0  0  0  0  0
   37.9700   37.3140   15.6000 C   0  0  0  0  0
   36.8170   36.5950   15.4310 C   0  0  0  0  0
   36.2370   35.9790   16.5130 C   0  0  0  0  0
   36.7880   36.0740   17.7710 C   0  0  0  0  0
   35.9940   35.2390   19.1170 S   0  0  0  0  0
   35.4900   36.4970   20.2280 C   0  0  0  0  0
   35.1310   36.0310   21.5810 C   0  0  0  0  0
   34.7530   37.0150   22.4030 C   0  0  0  0  0
   34.6980   38.3960   22.0050 C   0  0  0  0  0
   34.3000   39.3610   22.8600 C   0  0  0  0  0
   33.9020   39.0900   24.2470 C   0  0  0  0  0
   32.6630   38.5690   24.5800 C   0  0  0  0  0
   31.4680   38.1760   23.3900 Cl  0  0  0  0  0
   32.3450   38.3360   25.9030 C   0  0  0  0  0
   33.2470   38.6220   26.9050 C   0  0  0  0  0
   34.4760   39.1450   26.5850 C   0  0  0  0  0
   34.7900   39.3730   25.2660 C   0  0  0  0  0
   36.3360   40.0270   24.9020 Cl  0  0  0  0  0
   34.2740   40.7490   22.3700 C   0  0  0  0  0
   33.9380   41.7140   23.0310 O   0  0  0  0  0
   34.6720   40.9250   21.0340 N   0  0  0  0  0
   35.0270   39.9180   20.2890 C   0  0  0  0  0
   35.0640   38.6650   20.6990 N   0  0  0  0  0
   35.4630   37.7050   19.7940 N   0  0  0  0  0
   37.9520   36.8010   17.9270 C   0  0  0  0  0
   38.5020   36.9010   19.1480 F   0  0  0  0  0
   38.5500   37.4260   16.8490 C   0  0  0  0  0
   36.3622   36.5120   14.4439 H   0  0  0  0  0
   35.3221   35.4034   16.3728 H   0  0  0  0  0
   35.1703   34.9840   21.8817 H   0  0  0  0  0
   34.4728   36.7583   23.4246 H   0  0  0  0  0
   34.1606   38.3965   23.3483 H   0  0  0  0  0
   31.3698   37.9213   26.1579 H   0  0  0  0  0
   32.9863   38.4340   27.9465 H   0  0  0  0  0
   35.1960   39.3772   27.3697 H   0  0  0  0  0
   35.3127   40.1243   19.2575 H   0  0  0  0  0
   35.7216   37.9405   18.8358 H   0  0  0  0  0
   39.4671   37.9997   16.9825 H   0  0  0  0  0
  1  2  1  0  0  0
  2  3  4  0  0  0
  2 28  4  0  0  0
  3  4  4  0  0  0
  4  5  4  0  0  0
  5  6  1  0  0  0
  5 26  4  0  0  0
  6  7  1  0  0  0
  7  8  2  0  0  0
  7 25  1  0  0  0
  8  9  1  0  0  0
  9 10  2  0  0  0
 10 11  1  0  0  0
 10 24  1  0  0  0
 11 12  1  0  0  0
 11 20  1  0  0  0
 12 13  4  0  0  0
 12 18  4  0  0  0
 13 14  1  0  0  0
 13 15  4  0  0  0
 15 16  4  0  0  0
 16 17  4  0  0  0
 17 18  4  0  0  0
 18 19  1  0  0  0
 20 21  2  0  0  0
 20 22  1  0  0  0
 22 23  2  0  0  0
 23 24  1  0  0  0
 24 25  1  0  0  0
 26 27  1  0  0  0
 26 28  4  0  0  0
  3 29  1  0  0  0
  4 30  1  0  0  0
  8 31  1  0  0  0
  9 32  1  0  0  0
 11 33  1  0  0  0
 15 34  1  0  0  0
 16 35  1  0  0  0
 17 36  1  0  0  0
 23 37  1  0  0  0
 25 38  1  0  0  0
 28 39  1  0  0  0
M  END
$$$$
