4qjw_ligand
  -I-interpret- 

 42 43  0  0  0  0  0  0  0  0999 V2000
   -5.8860   17.6870   -5.8290 F   0  0  0  0  0
   -4.6250   17.8400   -5.3510 C   0  0  0  0  0
   -3.7640   16.7350   -5.3570 C   0  0  0  0  0
   -4.3520   15.1570   -5.9950 S   0  0  0  0  0
   -4.7330   15.1810   -7.4840 O   0  0  0  0  0
   -3.2680   13.7760   -5.8290 N   0  0  0  0  0
   -5.6650   14.7080   -5.3370 O   0  0  0  0  0
   -2.4570   16.8670   -4.8690 C   0  0  0  0  0
   -1.6100   15.8090   -4.8680 F   0  0  0  0  0
   -2.0110   18.0960   -4.3770 C   0  0  0  0  0
   -0.7420   18.2020   -3.9090 F   0  0  0  0  0
   -4.1840   19.0890   -4.8540 C   0  0  0  0  0
   -2.8660   19.2100   -4.3650 C   0  0  0  0  0
   -2.2560   20.7790   -3.7210 S   0  0  0  0  0
   -3.2790   21.8490   -4.1320 O   0  0  0  0  0
   -1.0830   21.2390   -4.6000 O   0  0  0  0  0
   -1.8350   21.1420   -1.9880 C   0  0  0  0  0
   -2.2000   19.9620   -1.1080 C   0  0  0  0  0
   -3.5710   19.7300   -1.1870 O   0  0  0  0  0
   -5.0380   20.2310   -4.8350 N   0  0  0  0  0
   -6.3540   20.2600   -5.4300 C   0  0  0  0  0
   -7.0680   21.5260   -5.1050 C   0  0  0  0  0
   -7.8300   21.6070   -3.9340 C   0  0  0  0  0
   -8.5060   22.7890   -3.6170 C   0  0  0  0  0
   -8.4220   23.8930   -4.4690 C   0  0  0  0  0
   -7.6610   23.8150   -5.6410 C   0  0  0  0  0
   -6.9840   22.6320   -5.9590 C   0  0  0  0  0
   -3.0373   13.2079   -6.6441 H   0  0  0  0  0
   -2.8717   13.5454   -4.9179 H   0  0  0  0  0
   -2.3915   22.0199   -1.6599 H   0  0  0  0  0
   -0.7640   21.3295   -1.9107 H   0  0  0  0  0
   -1.9276   20.1809   -0.0755 H   0  0  0  0  0
   -1.6617   19.0765   -1.4462 H   0  0  0  0  0
   -3.8006   18.9829   -0.6296 H   0  0  0  0  0
   -4.7000   21.0762   -4.3747 H   0  0  0  0  0
   -6.9318   19.4247   -5.0343 H   0  0  0  0  0
   -6.2466   20.1906   -6.5125 H   0  0  0  0  0
   -7.8966   20.7469   -3.2678 H   0  0  0  0  0
   -9.0990   22.8492   -2.7044 H   0  0  0  0  0
   -8.9488   24.8145   -4.2211 H   0  0  0  0  0
   -7.5955   24.6759   -6.3064 H   0  0  0  0  0
   -6.3913   22.5719   -6.8718 H   0  0  0  0  0
  1  2  1  0  0  0
  2  3  4  0  0  0
  2 12  4  0  0  0
  3  4  1  0  0  0
  3  8  4  0  0  0
  4  5  2  0  0  0
  4  6  1  0  0  0
  4  7  2  0  0  0
  8  9  1  0  0  0
  8 10  4  0  0  0
 10 11  1  0  0  0
 10 13  4  0  0  0
 12 13  4  0  0  0
 12 20  1  0  0  0
 13 14  1  0  0  0
 14 15  2  0  0  0
 14 16  2  0  0  0
 14 17  1  0  0  0
 17 18  1  0  0  0
 18 19  1  0  0  0
 20 21  1  0  0  0
 21 22  1  0  0  0
 22 23  4  0  0  0
 22 27  4  0  0  0
 23 24  4  0  0  0
 24 25  4  0  0  0
 25 26  4  0  0  0
 26 27  4  0  0  0
  6 28  1  0  0  0
  6 29  1  0  0  0
 17 30  1  0  0  0
 17 31  1  0  0  0
 18 32  1  0  0  0
 18 33  1  0  0  0
 19 34  1  0  0  0
 20 35  1  0  0  0
 21 36  1  0  0  0
 21 37  1  0  0  0
 23 38  1  0  0  0
 24 39  1  0  0  0
 25 40  1  0  0  0
 26 41  1  0  0  0
 27 42  1  0  0  0
M  END
$$$$
