4yyn_ligand
  -I-interpret- 

159158  0  0  0  0  0  0  0  0999 V2000
   -0.2680   31.4370   18.3820 N   0  3  0  0  0
   -0.6340   32.0550   17.1130 C   0  0  0  0  0
    0.5990   32.8510   16.6150 C   0  0  0  0  0
    1.5240   33.0880   17.3760 O   0  0  0  0  0
   -1.8930   32.9500   17.3180 C   0  0  0  0  0
   -1.6660   34.0800   18.1690 O   0  0  0  0  0
    0.6580   33.1850   15.3320 N   0  0  0  0  0
    1.7090   34.1030   14.8340 C   0  0  0  0  0
    1.3000   35.5800   14.9990 C   0  0  0  0  0
    0.3880   35.9170   15.7820 O   0  0  0  0  0
    1.9990   36.4680   14.2650 N   0  0  0  0  0
    1.8520   37.9300   14.4470 C   0  0  0  0  0
    0.5110   38.3550   13.9970 C   0  0  0  0  0
   -0.0530   39.2860   14.5830 O   0  0  0  0  0
    2.8860   38.6680   13.6110 C   0  0  0  0  0
    4.2870   38.3520   14.1460 C   0  0  0  0  0
    5.3970   38.9530   13.2850 C   0  0  0  0  0
    6.6820   38.3980   13.6510 N   0  0  0  0  0
    7.7880   38.4000   12.8630 C   0  0  0  0  0
    7.8170   38.9970   11.6450 N   0  0  0  0  0
    8.8940   37.8230   13.3360 N   0  0  0  0  0
   -0.0300   37.6590   12.9900 N   0  0  0  0  0
   -1.4120   37.8970   12.5320 C   0  0  0  0  0
   -1.4620   38.4210   11.1050 C   0  0  0  0  0
   -0.5420   39.1300   10.6290 O   0  0  0  0  0
   -2.5050   38.0660   10.3690 N   0  0  0  0  0
   -2.6190   38.4860    8.9670 C   0  0  0  0  0
   -3.3670   37.4730    8.1050 C   0  0  0  0  0
   -2.8580   36.0030    8.2550 C   0  0  0  0  0
   -3.2470   35.1280    7.0560 C   0  0  0  0  0
   -4.7060   34.5920    7.2130 C   0  0  0  0  0
   -4.9220   33.8050    6.0310 N   0  0  0  0  0
   -4.8760   32.4470    6.0560 C   0  0  0  0  0
   -4.6910   31.8510    7.1340 O   0  0  0  0  0
   -4.9870   31.8390    4.6990 C   0  0  0  0  0
   -4.6990   30.4980    4.5900 C   0  0  0  0  0
   -4.7430   30.0000    3.1800 C   0  0  0  0  0
   -3.4880   39.7800    8.8890 C   0  0  0  0  0
   -3.7770   40.2580    7.7840 O   0  0  0  0  0
   -3.9490   40.2810   10.0310 N   0  0  0  0  0
   -4.8860   41.4400   10.1150 C   0  0  0  0  0
   -6.2870   41.1000    9.6240 C   0  0  0  0  0
   -6.5350   39.9790    9.1990 O   0  0  0  0  0
   -7.2170   42.0520    9.6280 N   0  0  0  0  0
   -8.5860   41.7500    9.1800 C   0  0  0  0  0
   -8.7560   41.5030    7.6870 C   0  0  0  0  0
   -9.6650   40.7880    7.2500 O   0  0  0  0  0
   -7.8650   42.0620    6.8820 N   0  0  0  0  0
   -8.0590   42.0440    5.4440 C   0  0  0  0  0
   -7.6600   43.4170    4.9160 C   0  0  0  0  0
   -8.7580   44.4610    5.2270 C   0  0  0  0  0
   -8.3050   45.9010    4.8650 C   0  0  0  0  0
   -7.9890   46.0740    3.3810 C   0  0  0  0  0
   -9.2080   45.8790    2.6070 N   0  0  0  0  0
   -9.9100   46.9220    2.1290 C   0  0  0  0  0
   -9.5120   48.0830    2.2790 O   0  0  0  0  0
  -11.1510   46.5040    1.3600 C   0  0  0  0  0
  -11.8890   47.2070    0.5350 C   0  0  0  0  0
  -13.0810   46.6370   -0.1910 C   0  0  0  0  0
   -7.1890   41.0050    4.7870 C   0  0  0  0  0
   -7.2490   40.8300    3.5570 O   0  0  0  0  0
   -6.3640   40.2960    5.5640 N   0  0  0  0  0
   -5.6810   39.1150    4.9890 C   0  0  0  0  0
   -4.2120   39.2080    4.5440 C   0  0  0  0  0
   -3.5600   38.1850    4.4280 O   0  0  0  0  0
   -3.7100   40.4190    4.2700 N   0  0  0  0  0
   -2.3410   40.6920    3.8040 C   0  0  0  0  0
   -1.5890   41.5530    4.8120 C   0  0  0  0  0
   -0.8010   42.3840    4.3940 O   0  0  0  0  0
   -2.3650   41.3310    2.3970 C   0  0  0  0  0
   -3.1310   40.4700    1.3230 C   0  0  0  0  0
   -3.2320   41.2510    0.0240 C   0  0  0  0  0
   -2.2540   39.2830    0.9720 C   0  0  0  0  0
   -1.8070   41.3300    6.1090 N   0  0  0  0  0
   -1.1370   42.0730    7.1840 C   0  0  0  0  0
   -1.8820   43.3120    7.6770 C   0  0  0  0  0
   -2.9740   43.6330    7.1390 O   0  0  0  0  0
   -1.3940   43.9960    8.6150 O   0  0  0  0  0
    0.5561   30.8510   18.2483 H   0  0  0  0  0
   -0.0618   32.1648   19.0663 H   0  0  0  0  0
   -1.0432   30.8644   18.7160 H   0  0  0  0  0
   -0.8993   31.3166   16.3564 H   0  0  0  0  0
   -2.6565   32.3336   17.7925 H   0  0  0  0  0
   -2.1828   33.3328   16.3394 H   0  0  0  0  0
   -2.4781   34.5852   18.2516 H   0  0  0  0  0
   -0.0288   32.8050   14.6806 H   0  0  0  0  0
    1.8632   33.9056   13.7732 H   0  0  0  0  0
    2.6172   33.9313   15.4118 H   0  0  0  0  0
    2.6507   36.1216   13.5610 H   0  0  0  0  0
    1.9911   38.1617   15.5030 H   0  0  0  0  0
    2.7056   39.7413   13.6707 H   0  0  0  0  0
    2.8111   38.3484   12.5716 H   0  0  0  0  0
    4.4101   37.2690   14.1422 H   0  0  0  0  0
    4.3685   38.7815   15.1445 H   0  0  0  0  0
    5.4205   40.0315   13.4412 H   0  0  0  0  0
    5.1972   38.7214   12.2388 H   0  0  0  0  0
    6.7637   37.9715   14.5739 H   0  0  0  0  0
    8.6791   39.0019   11.0998 H   0  0  0  0  0
    6.9767   39.4409   11.2745 H   0  0  0  0  0
    8.8910   37.3982   14.2633 H   0  0  0  0  0
    0.5293   36.9434   12.5258 H   0  0  0  0  0
   -1.8613   38.6459   13.1843 H   0  0  0  0  0
   -1.9480   36.9484   12.5640 H   0  0  0  0  0
   -3.2398   37.4922   10.7828 H   0  0  0  0  0
   -1.5975   38.6133    8.6085 H   0  0  0  0  0
   -3.2143   37.7613    7.0650 H   0  0  0  0  0
   -4.4090   37.4864    8.4247 H   0  0  0  0  0
   -3.3146   35.5761    9.1480 H   0  0  0  0  0
   -1.7701   36.0262    8.3184 H   0  0  0  0  0
   -2.5642   34.2801    7.0026 H   0  0  0  0  0
   -3.1882   35.7284    6.1481 H   0  0  0  0  0
   -5.4325   35.3991    7.3079 H   0  0  0  0  0
   -4.8336   34.0082    8.1246 H   0  0  0  0  0
   -5.1153   34.2785    5.1485 H   0  0  0  0  0
   -5.2830   32.4303    3.8324 H   0  0  0  0  0
   -4.4628   29.8632    5.4440 H   0  0  0  0  0
   -5.7410   30.1579    2.7712 H   0  0  0  0  0
   -4.0132   30.5445    2.5808 H   0  0  0  0  0
   -4.5067   28.9360    3.1643 H   0  0  0  0  0
   -3.6440   39.8472   10.9023 H   0  0  0  0  0
   -4.4929   42.2348    9.4810 H   0  0  0  0  0
   -4.9606   41.7349   11.1617 H   0  0  0  0  0
   -6.9804   42.9931    9.9423 H   0  0  0  0  0
   -9.1878   42.6273    9.4172 H   0  0  0  0  0
   -8.8764   40.8258    9.6797 H   0  0  0  0  0
   -7.0366   42.5083    7.2757 H   0  0  0  0  0
   -9.0990   41.8053    5.2214 H   0  0  0  0  0
   -7.5279   43.3549    3.8358 H   0  0  0  0  0
   -6.7330   43.7252    5.3994 H   0  0  0  0  0
   -8.9694   44.4273    6.2958 H   0  0  0  0  0
   -9.6385   44.2194    4.6316 H   0  0  0  0  0
   -7.3938   46.1122    5.4246 H   0  0  0  0  0
   -9.1237   46.5774    5.1105 H   0  0  0  0  0
   -7.2414   45.3410    3.0778 H   0  0  0  0  0
   -7.5991   47.0764    3.2040 H   0  0  0  0  0
   -9.5362   44.9308    2.4236 H   0  0  0  0  0
  -11.4738   45.4746    1.5158 H   0  0  0  0  0
  -11.6286   48.2519    0.3663 H   0  0  0  0  0
  -12.7596   45.8044   -0.8168 H   0  0  0  0  0
  -13.8134   46.2854    0.5357 H   0  0  0  0  0
  -13.5288   47.4105   -0.8149 H   0  0  0  0  0
   -6.2078   40.5639    6.5357 H   0  0  0  0  0
   -6.2288   38.9075    4.0698 H   0  0  0  0  0
   -5.6716   38.3871    5.8003 H   0  0  0  0  0
   -4.3290   41.2200    4.3949 H   0  0  0  0  0
   -1.8023   39.7478    3.7235 H   0  0  0  0  0
   -1.3314   41.4235    2.0635 H   0  0  0  0  0
   -2.8855   42.2850    2.4813 H   0  0  0  0  0
   -4.1090   40.1973    1.7197 H   0  0  0  0  0
   -3.7757   42.1790    0.2008 H   0  0  0  0  0
   -2.2303   41.4790   -0.3402 H   0  0  0  0  0
   -3.7623   40.6534   -0.7175 H   0  0  0  0  0
   -1.3069   39.6397    0.5672 H   0  0  0  0  0
   -2.0678   38.6926    1.8691 H   0  0  0  0  0
   -2.7594   38.6668    0.2284 H   0  0  0  0  0
   -2.4752   40.6042    6.3681 H   0  0  0  0  0
   -0.1853   42.4189    6.7805 H   0  0  0  0  0
   -1.0598   41.3945    8.0336 H   0  0  0  0  0
   -0.5649   43.6035    8.8980 H   0  0  0  0  0
  1  2  1  0  0  0
  2  3  1  0  0  0
  2  5  1  0  0  0
  3  4  2  0  0  0
  3  7  1  0  0  0
  5  6  1  0  0  0
  7  8  1  0  0  0
  8  9  1  0  0  0
  9 10  2  0  0  0
  9 11  1  0  0  0
 11 12  1  0  0  0
 12 13  1  0  0  0
 12 15  1  0  0  0
 13 14  2  0  0  0
 13 22  1  0  0  0
 15 16  1  0  0  0
 16 17  1  0  0  0
 17 18  1  0  0  0
 18 19  1  0  0  0
 19 20  1  0  0  0
 19 21  2  0  0  0
 22 23  1  0  0  0
 23 24  1  0  0  0
 24 25  2  0  0  0
 24 26  1  0  0  0
 26 27  1  0  0  0
 27 28  1  0  0  0
 27 38  1  0  0  0
 28 29  1  0  0  0
 29 30  1  0  0  0
 30 31  1  0  0  0
 31 32  1  0  0  0
 32 33  1  0  0  0
 33 34  2  0  0  0
 33 35  1  0  0  0
 35 36  2  0  0  0
 36 37  1  0  0  0
 38 39  2  0  0  0
 38 40  1  0  0  0
 40 41  1  0  0  0
 41 42  1  0  0  0
 42 43  2  0  0  0
 42 44  1  0  0  0
 44 45  1  0  0  0
 45 46  1  0  0  0
 46 47  2  0  0  0
 46 48  1  0  0  0
 48 49  1  0  0  0
 49 50  1  0  0  0
 49 60  1  0  0  0
 50 51  1  0  0  0
 51 52  1  0  0  0
 52 53  1  0  0  0
 53 54  1  0  0  0
 54 55  1  0  0  0
 55 56  2  0  0  0
 55 57  1  0  0  0
 57 58  2  0  0  0
 58 59  1  0  0  0
 60 61  2  0  0  0
 60 62  1  0  0  0
 62 63  1  0  0  0
 63 64  1  0  0  0
 64 65  2  0  0  0
 64 66  1  0  0  0
 66 67  1  0  0  0
 67 68  1  0  0  0
 67 70  1  0  0  0
 68 69  2  0  0  0
 68 74  1  0  0  0
 70 71  1  0  0  0
 71 72  1  0  0  0
 71 73  1  0  0  0
 74 75  1  0  0  0
 75 76  1  0  0  0
 76 77  2  0  0  0
 76 78  1  0  0  0
  1 79  1  0  0  0
  1 80  1  0  0  0
  1 81  1  0  0  0
  2 82  1  0  0  0
  5 83  1  0  0  0
  5 84  1  0  0  0
  6 85  1  0  0  0
  7 86  1  0  0  0
  8 87  1  0  0  0
  8 88  1  0  0  0
 11 89  1  0  0  0
 12 90  1  0  0  0
 15 91  1  0  0  0
 15 92  1  0  0  0
 16 93  1  0  0  0
 16 94  1  0  0  0
 17 95  1  0  0  0
 17 96  1  0  0  0
 18 97  1  0  0  0
 20 98  1  0  0  0
 20 99  1  0  0  0
 21100  1  0  0  0
 22101  1  0  0  0
 23102  1  0  0  0
 23103  1  0  0  0
 26104  1  0  0  0
 27105  1  0  0  0
 28106  1  0  0  0
 28107  1  0  0  0
 29108  1  0  0  0
 29109  1  0  0  0
 30110  1  0  0  0
 30111  1  0  0  0
 31112  1  0  0  0
 31113  1  0  0  0
 32114  1  0  0  0
 35115  1  0  0  0
 36116  1  0  0  0
 37117  1  0  0  0
 37118  1  0  0  0
 37119  1  0  0  0
 40120  1  0  0  0
 41121  1  0  0  0
 41122  1  0  0  0
 44123  1  0  0  0
 45124  1  0  0  0
 45125  1  0  0  0
 48126  1  0  0  0
 49127  1  0  0  0
 50128  1  0  0  0
 50129  1  0  0  0
 51130  1  0  0  0
 51131  1  0  0  0
 52132  1  0  0  0
 52133  1  0  0  0
 53134  1  0  0  0
 53135  1  0  0  0
 54136  1  0  0  0
 57137  1  0  0  0
 58138  1  0  0  0
 59139  1  0  0  0
 59140  1  0  0  0
 59141  1  0  0  0
 62142  1  0  0  0
 63143  1  0  0  0
 63144  1  0  0  0
 66145  1  0  0  0
 67146  1  0  0  0
 70147  1  0  0  0
 70148  1  0  0  0
 71149  1  0  0  0
 72150  1  0  0  0
 72151  1  0  0  0
 72152  1  0  0  0
 73153  1  0  0  0
 73154  1  0  0  0
 73155  1  0  0  0
 74156  1  0  0  0
 75157  1  0  0  0
 75158  1  0  0  0
 78159  1  0  0  0
M  END
$$$$
