### 
### Created by X-TOOL on Mon Sep 10 21:13:25 2018
### 

@<TRIPOS>MOLECULE
4yyn_ligand
  159   158     1     0     0
SMALL
GAST_HUCK


@<TRIPOS>ATOM
      1 N          -0.2680   31.4370   18.3820 N.4       1 SER         0.2396
      2 CA         -0.6340   32.0550   17.1130 C.3       1 SER         0.0884
      3 C           0.5990   32.8510   16.6150 C.2       1 SER         0.2288
      4 O           1.5240   33.0880   17.3760 O.2       1 SER        -0.3906
      5 CB         -1.8930   32.9500   17.3180 C.3       1 SER         0.1041
      6 OG         -1.6660   34.0800   18.1690 O.3       1 SER        -0.3870
      7 N           0.6580   33.1850   15.3320 N.am      1 GLY        -0.2636
      8 CA          1.7090   34.1030   14.8340 C.3       1 GLY         0.1202
      9 C           1.3000   35.5800   14.9990 C.2       1 GLY         0.2007
     10 O           0.3880   35.9170   15.7820 O.2       1 GLY        -0.3947
     11 N           1.9990   36.4680   14.2650 N.am      1 ARG        -0.2640
     12 CA          1.8520   37.9300   14.4470 C.3       1 ARG         0.1311
     13 C           0.5110   38.3550   13.9970 C.2       1 ARG         0.2037
     14 O          -0.0530   39.2860   14.5830 O.2       1 ARG        -0.3944
     15 CB          2.8860   38.6680   13.6110 C.3       1 ARG        -0.0092
     16 CG          4.2870   38.3520   14.1460 C.3       1 ARG        -0.0156
     17 CD          5.3970   38.9530   13.2850 C.3       1 ARG         0.0627
     18 NE          6.6820   38.3980   13.6510 N.pl3     1 ARG        -0.2723
     19 CZ          7.7880   38.4000   12.8630 C.cat     1 ARG         0.2882
     20 NH1         7.8170   38.9970   11.6450 N.pl3     1 ARG        -0.2849
     21 NH2         8.8940   37.8230   13.3360 N.pl3     1 ARG        -0.2849
     22 N          -0.0300   37.6590   12.9900 N.am      1 GLY        -0.2664
     23 CA         -1.4120   37.8970   12.5320 C.3       1 GLY         0.1201
     24 C          -1.4620   38.4210   11.1050 C.2       1 GLY         0.2007
     25 O          -0.5420   39.1300   10.6290 O.2       1 GLY        -0.3947
     26 N          -2.5050   38.0660   10.3690 N.am      1 KCR        -0.2640
     27 CA         -2.6190   38.4860    8.9670 C.3       1 KCR         0.1310
     28 CB         -3.3670   37.4730    8.1050 C.3       1 KCR        -0.0123
     29 CG         -2.8580   36.0030    8.2550 C.3       1 KCR        -0.0470
     30 CD         -3.2470   35.1280    7.0560 C.3       1 KCR        -0.0327
     31 CE         -4.7060   34.5920    7.2130 C.3       1 KCR         0.0295
     32 NZ         -4.9220   33.8050    6.0310 N.am      1 KCR        -0.2917
     33 CH         -4.8760   32.4470    6.0560 C.2       1 KCR         0.1759
     34 OH         -4.6910   31.8510    7.1340 O.2       1 KCR        -0.4012
     35 CX         -4.9870   31.8390    4.6990 C.2       1 KCR        -0.0032
     36 CY         -4.6990   30.4980    4.5900 C.2       1 KCR        -0.0626
     37 CH3        -4.7430   30.0000    3.1800 C.3       1 KCR        -0.0267
     38 C          -3.4880   39.7800    8.8890 C.2       1 KCR         0.2037
     39 O          -3.7770   40.2580    7.7840 O.2       1 KCR        -0.3944
     40 N          -3.9490   40.2810   10.0310 N.am      1 GLY        -0.2664
     41 CA         -4.8860   41.4400   10.1150 C.3       1 GLY         0.1201
     42 C          -6.2870   41.1000    9.6240 C.2       1 GLY         0.2005
     43 O          -6.5350   39.9790    9.1990 O.2       1 GLY        -0.3947
     44 N          -7.2170   42.0520    9.6280 N.am      1 GLY        -0.2666
     45 CA         -8.5860   41.7500    9.1800 C.3       1 GLY         0.1201
     46 C          -8.7560   41.5030    7.6870 C.2       1 GLY         0.2007
     47 O          -9.6650   40.7880    7.2500 O.2       1 GLY        -0.3947
     48 N          -7.8650   42.0620    6.8820 N.am      1 KCR        -0.2640
     49 CA         -8.0590   42.0440    5.4440 C.3       1 KCR         0.1310
     50 CB         -7.6600   43.4170    4.9160 C.3       1 KCR        -0.0123
     51 CG         -8.7580   44.4610    5.2270 C.3       1 KCR        -0.0470
     52 CD         -8.3050   45.9010    4.8650 C.3       1 KCR        -0.0327
     53 CE         -7.9890   46.0740    3.3810 C.3       1 KCR         0.0295
     54 NZ         -9.2080   45.8790    2.6070 N.am      1 KCR        -0.2917
     55 CH         -9.9100   46.9220    2.1290 C.2       1 KCR         0.1759
     56 OH         -9.5120   48.0830    2.2790 O.2       1 KCR        -0.4012
     57 CX        -11.1510   46.5040    1.3600 C.2       1 KCR        -0.0032
     58 CY        -11.8890   47.2070    0.5350 C.2       1 KCR        -0.0626
     59 CH3       -13.0810   46.6370   -0.1910 C.3       1 KCR        -0.0267
     60 C          -7.1890   41.0050    4.7870 C.2       1 KCR         0.2037
     61 O          -7.2490   40.8300    3.5570 O.2       1 KCR        -0.3944
     62 N          -6.3640   40.2960    5.5640 N.am      1 GLY        -0.2664
     63 CA         -5.6810   39.1150    4.9890 C.3       1 GLY         0.1201
     64 C          -4.2120   39.2080    4.5440 C.2       1 GLY         0.2007
     65 O          -3.5600   38.1850    4.4280 O.2       1 GLY        -0.3947
     66 N          -3.7100   40.4190    4.2700 N.am      1 LEU        -0.2640
     67 CA         -2.3410   40.6920    3.8040 C.3       1 LEU         0.1312
     68 C          -1.5890   41.5530    4.8120 C.2       1 LEU         0.2031
     69 O          -0.8010   42.3840    4.3940 O.2       1 LEU        -0.3944
     70 CB         -2.3650   41.3310    2.3970 C.3       1 LEU        -0.0101
     71 CG         -3.1310   40.4700    1.3230 C.3       1 LEU        -0.0425
     72 CD1        -3.2320   41.2510    0.0240 C.3       1 LEU        -0.0625
     73 CD2        -2.2540   39.2830    0.9720 C.3       1 LEU        -0.0625
     74 N          -1.8070   41.3300    6.1090 N.am      1 GLY        -0.2722
     75 CA         -1.1370   42.0730    7.1840 C.3       1 GLY         0.0833
     76 C          -1.8820   43.3120    7.6770 C.2       1 GLY         0.0570
     77 O          -2.9740   43.6330    7.1390 O.co2     1 GLY        -0.5669
     78 OXT        -1.3940   43.9960    8.6150 O.co2     1 GLY        -0.5669
     79 H1         -1.0500   30.9089   18.7364 H         1 SER         0.2016
     80 H2         -0.0185   32.1538   19.0453 H         1 SER         0.2016
     81 H3          0.5174   30.8210   18.2416 H         1 SER         0.2016
     82 H4         -0.8760   31.2742   16.3770 H         1 SER         0.1122
     83 H5         -2.6877   32.3340   17.7640 H         1 SER         0.0640
     84 H6         -2.2217   33.3169   16.3345 H         1 SER         0.0640
     85 H7         -2.4697   34.5799   18.2508 H         1 SER         0.2099
     86 H8         -0.0153   32.8125   14.6933 H         1 GLY         0.1882
     87 H9          1.8848   33.8987   13.7675 H         1 GLY         0.0763
     88 H10         2.6356   33.9244   15.3992 H         1 GLY         0.0763
     89 H11         2.6379   36.1284   13.5748 H         1 ARG         0.1883
     90 H12         1.9858   38.1813   15.5095 H         1 ARG         0.0800
     91 H13         2.7043   39.7511   13.6734 H         1 ARG         0.0313
     92 H14         2.8109   38.3434   12.5627 H         1 ARG         0.0313
     93 H15         4.4152   37.2598   14.1731 H         1 ARG         0.0301
     94 H16         4.3740   38.7569   15.1651 H         1 ARG         0.0301
     95 H17         5.4188   40.0429   13.4322 H         1 ARG         0.0689
     96 H18         5.1949   38.7298   12.2270 H         1 ARG         0.0689
     97 H19         6.7645   37.9673   14.5830 H         1 ARG         0.2642
     98 H20         8.6783   38.9740   11.0806 H         1 ARG         0.2615
     99 H21         6.9777   39.4732   11.2848 H         1 ARG         0.2615
    100 H22         8.8824   37.3671   14.2595 H         1 ARG         0.2615
    101 H23         9.7595   37.8334   12.7776 H         1 ARG         0.2615
    102 H24         0.5184   36.9574   12.5349 H         1 GLY         0.1881
    103 H25        -1.8835   38.6354   13.1972 H         1 GLY         0.0763
    104 H26        -1.9696   36.9501   12.5814 H         1 GLY         0.0763
    105 H27        -3.2254   37.5035   10.7747 H         1 KCR         0.1883
    106 H28        -1.6132   38.6628    8.5583 H         1 KCR         0.0800
    107 H29        -3.2581   37.7697    7.0514 H         1 KCR         0.0312
    108 H30        -4.4303   37.5000    8.3855 H         1 KCR         0.0312
    109 H31        -3.2944   35.5686    9.1665 H         1 KCR         0.0268
    110 H32        -1.7616   36.0153    8.3432 H         1 KCR         0.0268
    111 H33        -2.5545   34.2759    6.9912 H         1 KCR         0.0285
    112 H34        -3.1794   35.7263    6.1354 H         1 KCR         0.0285
    113 H35        -5.4238   35.4240    7.2641 H         1 KCR         0.0518
    114 H36        -4.7985   33.9718    8.1167 H         1 KCR         0.0518
    115 H37        -5.1115   34.2692    5.1658 H         1 KCR         0.1831
    116 H38        -5.2827   32.4297    3.8332 H         1 KCR         0.0472
    117 H39        -4.4631   29.8637    5.4432 H         1 KCR         0.0843
    118 H40        -4.5047   28.9263    3.1628 H         1 KCR         0.0453
    119 H41        -4.0069   30.5487    2.5742 H         1 KCR         0.0453
    120 H42        -5.7498   30.1588    2.7663 H         1 KCR         0.0453
    121 H43        -3.6500   39.8557   10.8852 H         1 GLY         0.1881
    122 H44        -4.4871   42.2603    9.5002 H         1 GLY         0.0763
    123 H45        -4.9501   41.7655   11.1638 H         1 GLY         0.0763
    124 H46        -6.9851   42.9746    9.9361 H         1 GLY         0.1881
    125 H47        -9.2267   42.6003    9.4564 H         1 GLY         0.0763
    126 H48        -8.9238   40.8483    9.7117 H         1 GLY         0.0763
    127 H49        -7.0528   42.4996    7.2679 H         1 KCR         0.1883
    128 H50        -9.1147   41.8381    5.2135 H         1 KCR         0.0800
    129 H51        -7.5160   43.3576    3.8271 H         1 KCR         0.0312
    130 H52        -6.7195   43.7286    5.3938 H         1 KCR         0.0312
    131 H53        -8.9929   44.4213    6.3009 H         1 KCR         0.0268
    132 H54        -9.6585   44.2145    4.6453 H         1 KCR         0.0268
    133 H55        -7.4018   46.1403    5.4455 H         1 KCR         0.0285
    134 H56        -9.1104   46.5998    5.1352 H         1 KCR         0.0285
    135 H57        -7.2366   45.3319    3.0759 H         1 KCR         0.0518
    136 H58        -7.5983   47.0868    3.2034 H         1 KCR         0.0518
    137 H59        -9.5297   44.9494    2.4272 H         1 KCR         0.1831
    138 H60       -11.4735   45.4755    1.5156 H         1 KCR         0.0472
    139 H61       -11.6288   48.2509    0.3665 H         1 KCR         0.0843
    140 H62       -13.5338   47.4167   -0.8211 H         1 KCR         0.0453
    141 H63       -13.8210   46.2818    0.5413 H         1 KCR         0.0453
    142 H64       -12.7580   45.7966   -0.8230 H         1 KCR         0.0453
    143 H65        -6.2109   40.5587    6.5167 H         1 GLY         0.1881
    144 H66        -6.2608   38.8145    4.1039 H         1 GLY         0.0763
    145 H67        -5.7316   38.3202    5.7477 H         1 GLY         0.0763
    146 H68        -4.3169   41.2043    4.3924 H         1 LEU         0.1883
    147 H69        -1.8115   39.7311    3.7256 H         1 LEU         0.0800
    148 H70        -1.3269   41.4647    2.0586 H         1 LEU         0.0315
    149 H71        -2.8563   42.3125    2.4697 H         1 LEU         0.0315
    150 H72        -4.1198   40.1619    1.6936 H         1 LEU         0.0298
    151 H73        -3.7670   40.6489   -0.7252 H         1 LEU         0.0232
    152 H74        -2.2216   41.4817   -0.3447 H         1 LEU         0.0232
    153 H75        -3.7806   42.1879    0.2011 H         1 LEU         0.0232
    154 H76        -2.1211   38.6496    1.8615 H         1 LEU         0.0232
    155 H77        -1.2729   39.6413    0.6271 H         1 LEU         0.0232
    156 H78        -2.7321   38.6973    0.1730 H         1 LEU         0.0232
    157 H79        -2.4621   40.6184    6.3630 H         1 GLY         0.1873
    158 H80        -0.1515   42.3926    6.8144 H         1 GLY         0.0689
    159 H81        -1.0053   41.3923    8.0380 H         1 GLY         0.0689
@<TRIPOS>BOND
     1    1    2 1  
     2    2    3 1  
     3    2    5 1  
     4    3    4 2  
     5    3    7 am 
     6    5    6 1  
     7    7    8 1  
     8    8    9 1  
     9    9   10 2  
    10    9   11 am 
    11   11   12 1  
    12   12   13 1  
    13   12   15 1  
    14   13   14 2  
    15   13   22 am 
    16   15   16 1  
    17   16   17 1  
    18   17   18 1  
    19   18   19 ar 
    20   19   20 ar 
    21   19   21 ar 
    22   22   23 1  
    23   23   24 1  
    24   24   25 2  
    25   24   26 am 
    26   26   27 1  
    27   27   28 1  
    28   27   38 1  
    29   28   29 1  
    30   29   30 1  
    31   30   31 1  
    32   31   32 1  
    33   32   33 am 
    34   33   34 2  
    35   33   35 1  
    36   35   36 2  
    37   36   37 1  
    38   38   39 2  
    39   38   40 am 
    40   40   41 1  
    41   41   42 1  
    42   42   43 2  
    43   42   44 am 
    44   44   45 1  
    45   45   46 1  
    46   46   47 2  
    47   46   48 am 
    48   48   49 1  
    49   49   50 1  
    50   49   60 1  
    51   50   51 1  
    52   51   52 1  
    53   52   53 1  
    54   53   54 1  
    55   54   55 am 
    56   55   56 2  
    57   55   57 1  
    58   57   58 2  
    59   58   59 1  
    60   60   61 2  
    61   60   62 am 
    62   62   63 1  
    63   63   64 1  
    64   64   65 2  
    65   64   66 am 
    66   66   67 1  
    67   67   68 1  
    68   67   70 1  
    69   68   69 2  
    70   68   74 am 
    71   70   71 1  
    72   71   72 1  
    73   71   73 1  
    74   74   75 1  
    75   75   76 1  
    76   76   77 ar 
    77   76   78 ar 
    78    1   79 1  
    79    1   80 1  
    80    1   81 1  
    81    2   82 1  
    82    5   83 1  
    83    5   84 1  
    84    6   85 1  
    85    7   86 1  
    86    8   87 1  
    87    8   88 1  
    88   11   89 1  
    89   12   90 1  
    90   15   91 1  
    91   15   92 1  
    92   16   93 1  
    93   16   94 1  
    94   17   95 1  
    95   17   96 1  
    96   18   97 1  
    97   20   98 1  
    98   20   99 1  
    99   21  100 1  
   100   21  101 1  
   101   22  102 1  
   102   23  103 1  
   103   23  104 1  
   104   26  105 1  
   105   27  106 1  
   106   28  107 1  
   107   28  108 1  
   108   29  109 1  
   109   29  110 1  
   110   30  111 1  
   111   30  112 1  
   112   31  113 1  
   113   31  114 1  
   114   32  115 1  
   115   35  116 1  
   116   36  117 1  
   117   37  118 1  
   118   37  119 1  
   119   37  120 1  
   120   40  121 1  
   121   41  122 1  
   122   41  123 1  
   123   44  124 1  
   124   45  125 1  
   125   45  126 1  
   126   48  127 1  
   127   49  128 1  
   128   50  129 1  
   129   50  130 1  
   130   51  131 1  
   131   51  132 1  
   132   52  133 1  
   133   52  134 1  
   134   53  135 1  
   135   53  136 1  
   136   54  137 1  
   137   57  138 1  
   138   58  139 1  
   139   59  140 1  
   140   59  141 1  
   141   59  142 1  
   142   62  143 1  
   143   63  144 1  
   144   63  145 1  
   145   66  146 1  
   146   67  147 1  
   147   70  148 1  
   148   70  149 1  
   149   71  150 1  
   150   72  151 1  
   151   72  152 1  
   152   72  153 1  
   153   73  154 1  
   154   73  155 1  
   155   73  156 1  
   156   74  157 1  
   157   75  158 1  
   158   75  159 1  
@<TRIPOS>SUBSTRUCTURE
     1 SER         1

