6nfh_ligand
  -I-interpret- 

 65 69  0  0  0  0  0  0  0  0999 V2000
   26.3480    6.0750   -8.0370 C   0  0  0  0  0
   27.0120    8.3840   -8.0110 C   0  0  0  0  0
   25.8510    7.4430   -6.0530 C   0  0  0  0  0
   26.3240    6.7330   -4.7700 C   0  0  0  0  0
   25.3400    6.9830   -3.6120 C   0  0  0  0  0
   24.1510    6.2550   -3.9120 O   0  0  0  0  0
   22.9090    6.5360   -1.8080 C   0  0  0  0  0
   21.7340    6.2820   -1.0850 C   0  0  0  0  0
   21.9910    5.4110   -3.7110 C   0  0  0  0  0
   19.1190    5.2860    0.2620 C   0  0  0  0  0
   17.5480    4.7770    1.8920 C   0  0  0  0  0
   20.2970    6.0810    4.7530 C   0  0  0  0  0
   21.1020    6.4230    5.5920 O   0  0  0  0  0
   19.6430    5.7360    2.4930 C   0  0  0  0  0
   22.8920    6.1250    2.5450 C   0  0  0  0  0
   23.9890    6.8400    2.1000 C   0  0  0  0  0
   25.3070    6.3300    1.6020 C   0  0  0  0  0
   26.2590    7.5400    1.6350 C   0  0  0  0  0
   25.3130    8.7500    1.5610 C   0  0  0  0  0
   23.9850    8.2370    2.0860 C   0  0  0  0  0
   22.8570    8.9140    2.5090 C   0  0  0  0  0
   21.7540    8.1990    2.9390 C   0  0  0  0  0
   26.7810    7.1910   -7.1800 N   0  3  0  0  0
   26.4110    5.3200   -5.0040 O   0  0  0  0  0
   23.0490    6.0750   -3.1130 C   0  0  0  0  0
   20.6590    5.5940   -1.6830 C   0  0  0  0  0
   20.8060    5.1670   -3.0090 C   0  0  0  0  0
   19.4220    5.3110   -1.0830 N   0  0  0  0  0
   17.9220    4.8260    0.6010 N   0  0  0  0  0
   18.3950    5.2360    2.8910 C   0  0  0  0  0
   18.0780    5.1510    4.2450 N   0  0  0  0  0
   18.9930    5.4960    5.1880 C   0  0  0  0  0
   18.7160    5.4110    6.3770 O   0  0  0  0  0
   20.5740    6.1910    3.4230 N   0  0  0  0  0
   19.9360    5.7470    1.1930 N   0  0  0  0  0
   21.7660    6.7950    2.9750 C   0  0  0  0  0
   26.2892    5.1635   -7.4422 H   0  0  0  0  0
   25.3677    6.3002   -8.4569 H   0  0  0  0  0
   27.0676    5.9380   -8.8441 H   0  0  0  0  0
   26.0646    8.7216   -8.4311 H   0  0  0  0  0
   27.4411    9.1756   -7.3967 H   0  0  0  0  0
   27.7008    8.1351   -8.8183 H   0  0  0  0  0
   25.8164    8.5159   -5.8640 H   0  0  0  0  0
   24.8673    7.0576   -6.3211 H   0  0  0  0  0
   27.3018    7.1324   -4.5007 H   0  0  0  0  0
   25.1259    8.0469   -3.5102 H   0  0  0  0  0
   25.7664    6.6525   -2.6649 H   0  0  0  0  0
   23.7186    7.0990   -1.3436 H   0  0  0  0  0
   21.6516    6.6196   -0.0519 H   0  0  0  0  0
   22.0830    5.0737   -4.7434 H   0  0  0  0  0
   16.5707    4.3731    2.1561 H   0  0  0  0  0
   22.9173    5.0353    2.5558 H   0  0  0  0  0
   25.2206    5.9185    0.5964 H   0  0  0  0  0
   25.6783    5.5140    2.2220 H   0  0  0  0  0
   26.9794    7.5247    0.8172 H   0  0  0  0  0
   26.8830    7.5540    2.5286 H   0  0  0  0  0
   25.2260    9.1353    0.5451 H   0  0  0  0  0
   25.6834    9.5909    2.1473 H   0  0  0  0  0
   22.8367   10.0038    2.5038 H   0  0  0  0  0
   20.8592    8.7348    3.2557 H   0  0  0  0  0
   27.6621    6.9348   -6.7345 H   0  0  0  0  0
   27.0226    5.1532   -5.7249 H   0  0  0  0  0
   19.9881    4.6389   -3.4991 H   0  0  0  0  0
   18.6538    5.0979   -1.7193 H   0  0  0  0  0
   17.1535    4.8278    4.5299 H   0  0  0  0  0
 23  1  1  0  0  0
 23  2  1  0  0  0
  4  3  1  0  0  0
  3 23  1  0  0  0
  5  4  1  0  0  0
  4 24  1  0  0  0
  6  5  1  0  0  0
 25  6  1  0  0  0
  8  7  4  0  0  0
  7 25  4  0  0  0
 26  8  4  0  0  0
  9 25  4  0  0  0
 27  9  4  0  0  0
 10 28  1  0  0  0
 10 29  4  0  0  0
 35 10  4  0  0  0
 11 29  4  0  0  0
 30 11  4  0  0  0
 12 13  2  0  0  0
 12 32  1  0  0  0
 34 12  1  0  0  0
 14 30  4  0  0  0
 34 14  1  0  0  0
 14 35  4  0  0  0
 15 16  4  0  0  0
 36 15  4  0  0  0
 16 17  1  0  0  0
 16 20  4  0  0  0
 17 18  1  0  0  0
 19 18  1  0  0  0
 20 19  1  0  0  0
 21 20  4  0  0  0
 22 21  4  0  0  0
 36 22  4  0  0  0
 26 27  4  0  0  0
 28 26  1  0  0  0
 30 31  1  0  0  0
 32 31  1  0  0  0
 32 33  2  0  0  0
 34 36  1  0  0  0
  1 37  1  0  0  0
  1 38  1  0  0  0
  1 39  1  0  0  0
  2 40  1  0  0  0
  2 41  1  0  0  0
  2 42  1  0  0  0
  3 43  1  0  0  0
  3 44  1  0  0  0
  4 45  1  0  0  0
  5 46  1  0  0  0
  5 47  1  0  0  0
  7 48  1  0  0  0
  8 49  1  0  0  0
  9 50  1  0  0  0
 11 51  1  0  0  0
 15 52  1  0  0  0
 17 53  1  0  0  0
 17 54  1  0  0  0
 18 55  1  0  0  0
 18 56  1  0  0  0
 19 57  1  0  0  0
 19 58  1  0  0  0
 21 59  1  0  0  0
 22 60  1  0  0  0
 23 61  1  0  0  0
 24 62  1  0  0  0
 27 63  1  0  0  0
 28 64  1  0  0  0
 31 65  1  0  0  0
M  END
$$$$
