3nu6_ligand
  -I-interpret- 

 70 72  0  0  0  0  0  0  0  0999 V2000
  -11.9900  -24.6880  -19.3970 C   0  0  0  0  0
  -13.9150  -23.8220  -20.4540 C   0  0  0  0  0
  -14.1500  -22.1040  -18.0070 C   0  0  0  0  0
  -13.3290  -24.0650  -19.0430 C   0  0  0  0  0
  -14.8120  -19.9740  -16.9220 C   0  0  0  0  0
  -15.2430  -18.8940  -17.8970 C   0  0  0  0  0
  -14.1110  -19.4660  -15.6390 C   0  0  0  0  0
  -13.7570  -20.5460  -14.6760 C   0  0  0  0  0
  -12.4640  -21.0160  -14.6270 C   0  0  0  0  0
  -14.7220  -21.1090  -13.8230 C   0  0  0  0  0
  -12.1550  -22.0800  -13.7810 C   0  0  0  0  0
  -14.4480  -22.1370  -12.9470 C   0  0  0  0  0
  -13.1640  -22.6300  -13.0040 C   0  0  0  0  0
  -16.3410  -17.9990  -17.3190 C   0  0  0  0  0
  -18.5200  -18.2820  -18.3750 C   0  0  0  0  0
  -18.2440  -18.9080  -19.7560 C   0  0  0  0  0
  -19.1650  -17.5650  -15.1850 C   0  0  0  0  0
  -18.5000  -16.6370  -14.3990 C   0  0  0  0  0
  -19.1630  -15.4690  -14.0710 C   0  0  0  0  0
  -20.4160  -15.1460  -14.4700 C   0  0  0  0  0
  -21.1480  -16.1320  -15.1350 C   0  0  0  0  0
  -20.4640  -17.2830  -15.5600 C   0  0  0  0  0
  -18.3640  -20.4250  -19.7600 C   0  0  0  0  0
  -19.3300  -18.3640  -20.7300 C   0  0  0  0  0
  -12.8910  -24.3020  -21.4370 C   0  0  0  0  0
  -13.8630  -20.9040  -17.5620 N   0  0  0  0  0
  -17.6260  -18.6760  -17.3080 N   0  0  0  0  0
  -21.0460  -14.0390  -14.0480 N   0  0  0  0  0
  -13.0710  -22.7430  -18.4930 O   0  0  0  0  0
  -15.2620  -22.6230  -17.9670 O   0  0  0  0  0
  -14.1470  -18.0060  -18.2340 O   0  0  0  0  0
  -17.1940  -19.2070  -14.8590 O   0  0  0  0  0
  -19.2940  -20.0140  -16.0470 O   0  0  0  0  0
  -11.6830  -24.1780  -20.7150 O   0  0  0  0  0
  -18.3260  -18.9540  -15.8220 S   0  0  0  0  0
  -12.0324  -25.7771  -19.3827 H   0  0  0  0  0
  -11.2179  -24.4305  -18.6720 H   0  0  0  0  0
  -14.1326  -22.7649  -20.6063 H   0  0  0  0  0
  -14.8552  -24.3588  -20.5807 H   0  0  0  0  0
  -13.9383  -24.6521  -18.3559 H   0  0  0  0  0
  -15.7513  -20.4473  -16.6358 H   0  0  0  0  0
  -15.6012  -19.4341  -18.7734 H   0  0  0  0  0
  -14.8066  -18.7962  -15.1333 H   0  0  0  0  0
  -13.1808  -18.9878  -15.9458 H   0  0  0  0  0
  -11.6893  -20.5605  -15.2438 H   0  0  0  0  0
  -15.7370  -20.7130  -13.8560 H   0  0  0  0  0
  -11.1394  -22.4725  -13.7310 H   0  0  0  0  0
  -15.1948  -22.5316  -12.2581 H   0  0  0  0  0
  -12.9255  -23.5065  -12.4015 H   0  0  0  0  0
  -16.4246  -17.1081  -17.9414 H   0  0  0  0  0
  -16.0754  -17.7442  -16.2930 H   0  0  0  0  0
  -19.5141  -18.6183  -18.0804 H   0  0  0  0  0
  -18.3947  -17.2061  -18.4968 H   0  0  0  0  0
  -17.2242  -18.6505  -20.0419 H   0  0  0  0  0
  -17.4843  -16.8226  -14.0498 H   0  0  0  0  0
  -18.6357  -14.7519  -13.4419 H   0  0  0  0  0
  -22.2158  -16.0123  -15.3184 H   0  0  0  0  0
  -20.9812  -17.9845  -16.2146 H   0  0  0  0  0
  -17.6460  -20.8468  -19.0567 H   0  0  0  0  0
  -19.3740  -20.7091  -19.4644 H   0  0  0  0  0
  -18.1576  -20.8019  -20.7617 H   0  0  0  0  0
  -20.3174  -18.6504  -20.3678 H   0  0  0  0  0
  -19.2607  -17.2773  -20.7791 H   0  0  0  0  0
  -19.1696  -18.7848  -21.7226 H   0  0  0  0  0
  -12.8919  -23.7296  -22.3646 H   0  0  0  0  0
  -13.0772  -25.3192  -21.7815 H   0  0  0  0  0
  -12.8995  -20.5863  -17.6678 H   0  0  0  0  0
  -20.5804  -13.4025  -13.4011 H   0  0  0  0  0
  -21.9905  -13.8340  -14.3741 H   0  0  0  0  0
  -13.4241  -18.5179  -18.6041 H   0  0  0  0  0
  4  1  1  0  0  0
  1 34  1  0  0  0
  4  2  1  0  0  0
  2 25  1  0  0  0
 26  3  1  0  0  0
  3 29  1  0  0  0
  3 30  2  0  0  0
 29  4  1  0  0  0
  6  5  1  0  0  0
  5  7  1  0  0  0
  5 26  1  0  0  0
 14  6  1  0  0  0
  6 31  1  0  0  0
  7  8  1  0  0  0
  8  9  4  0  0  0
  8 10  4  0  0  0
  9 11  4  0  0  0
 10 12  4  0  0  0
 11 13  4  0  0  0
 12 13  4  0  0  0
 27 14  1  0  0  0
 15 16  1  0  0  0
 27 15  1  0  0  0
 16 23  1  0  0  0
 16 24  1  0  0  0
 17 18  4  0  0  0
 17 22  4  0  0  0
 35 17  1  0  0  0
 18 19  4  0  0  0
 19 20  4  0  0  0
 21 20  4  0  0  0
 20 28  1  0  0  0
 22 21  4  0  0  0
 25 34  1  0  0  0
 27 35  1  0  0  0
 35 32  2  0  0  0
 35 33  2  0  0  0
  1 36  1  0  0  0
  1 37  1  0  0  0
  2 38  1  0  0  0
  2 39  1  0  0  0
  4 40  1  0  0  0
  5 41  1  0  0  0
  6 42  1  0  0  0
  7 43  1  0  0  0
  7 44  1  0  0  0
  9 45  1  0  0  0
 10 46  1  0  0  0
 11 47  1  0  0  0
 12 48  1  0  0  0
 13 49  1  0  0  0
 14 50  1  0  0  0
 14 51  1  0  0  0
 15 52  1  0  0  0
 15 53  1  0  0  0
 16 54  1  0  0  0
 18 55  1  0  0  0
 19 56  1  0  0  0
 21 57  1  0  0  0
 22 58  1  0  0  0
 23 59  1  0  0  0
 23 60  1  0  0  0
 23 61  1  0  0  0
 24 62  1  0  0  0
 24 63  1  0  0  0
 24 64  1  0  0  0
 25 65  1  0  0  0
 25 66  1  0  0  0
 26 67  1  0  0  0
 28 68  1  0  0  0
 28 69  1  0  0  0
 31 70  1  0  0  0
M  END
$$$$
