4an9_ligand
  -I-interpret- 

 36 38  0  0  0  0  0  0  0  0999 V2000
  -28.5530  -23.6340   -4.7120 C   0  0  0  0  0
  -28.8730  -24.1170   -3.4410 C   0  0  0  0  0
  -30.0030  -24.9200   -3.2360 C   0  0  0  0  0
  -30.8630  -25.2500   -4.2830 C   0  0  0  0  0
  -30.5400  -24.7650   -5.5340 C   0  0  0  0  0
  -29.4220  -23.9850   -5.7520 C   0  0  0  0  0
  -27.4480  -22.8360   -4.9540 N   0  0  0  0  0
  -26.5130  -22.3670   -4.0490 C   0  0  0  0  0
  -26.0710  -21.0150   -3.9730 C   0  0  0  0  0
  -25.1240  -20.6250   -3.0460 C   0  0  0  0  0
  -24.5690  -21.5800   -2.1970 C   0  0  0  0  0
  -24.9640  -22.9190   -2.2700 C   0  0  0  0  0
  -25.9400  -23.2880   -3.2080 C   0  0  0  0  0
  -26.6580  -19.9610   -4.8690 C   0  0  0  0  0
  -26.8150  -18.6340   -4.4610 N   0  0  0  0  0
  -26.9960  -20.4310   -5.9670 O   0  0  0  0  0
  -27.0930  -16.7210   -3.8000 C   0  0  0  0  0
  -26.4820  -17.9860   -3.1910 C   0  0  0  0  0
  -28.2460  -16.3310   -3.0240 O   0  0  0  0  0
  -32.5840  -26.4950   -4.0050 I   0  0  0  0  0
  -27.3770  -17.4280   -5.1240 C   0  0  0  0  0
  -29.2080  -23.5650   -7.0140 F   0  0  0  0  0
  -26.3620  -24.5510   -3.3450 F   0  0  0  0  0
  -24.3930  -23.8240   -1.4250 F   0  0  0  0  0
  -28.2335  -23.8652   -2.5950 H   0  0  0  0  0
  -30.2147  -25.2954   -2.2348 H   0  0  0  0  0
  -31.1882  -25.0054   -6.3767 H   0  0  0  0  0
  -27.3049  -22.5580   -5.9249 H   0  0  0  0  0
  -24.8145  -19.5820   -2.9796 H   0  0  0  0  0
  -23.8176  -21.2795   -1.4669 H   0  0  0  0  0
  -26.5507  -15.7776   -3.8635 H   0  0  0  0  0
  -25.4755  -18.0046   -2.7731 H   0  0  0  0  0
  -26.8057  -18.3856   -2.2299 H   0  0  0  0  0
  -28.6320  -15.5379   -3.4029 H   0  0  0  0  0
  -28.3585  -17.4195   -5.5980 H   0  0  0  0  0
  -27.0102  -17.0567   -6.0809 H   0  0  0  0  0
  1  2  4  0  0  0
  1  6  4  0  0  0
  1  7  1  0  0  0
  2  3  4  0  0  0
  3  4  4  0  0  0
  4  5  4  0  0  0
  4 20  1  0  0  0
  5  6  4  0  0  0
  6 22  1  0  0  0
  7  8  1  0  0  0
  8  9  4  0  0  0
  8 13  4  0  0  0
  9 10  4  0  0  0
  9 14  1  0  0  0
 10 11  4  0  0  0
 11 12  4  0  0  0
 12 13  4  0  0  0
 12 24  1  0  0  0
 13 23  1  0  0  0
 14 15  1  0  0  0
 14 16  2  0  0  0
 15 18  1  0  0  0
 15 21  1  0  0  0
 18 17  1  0  0  0
 17 19  1  0  0  0
 17 21  1  0  0  0
  2 25  1  0  0  0
  3 26  1  0  0  0
  5 27  1  0  0  0
  7 28  1  0  0  0
 10 29  1  0  0  0
 11 30  1  0  0  0
 17 31  1  0  0  0
 18 32  1  0  0  0
 18 33  1  0  0  0
 19 34  1  0  0  0
 21 35  1  0  0  0
 21 36  1  0  0  0
M  END
$$$$
