1msn_ligand
  -I-interpret- 

 78 81  0  0  0  0  0  0  0  0999 V2000
   10.3500   18.0310   18.6630 C   0  0  0  0  0
   10.3960   18.7610   17.4600 C   0  0  0  0  0
   11.5060   19.5930   17.1860 C   0  0  0  0  0
   12.5940   19.6940   18.1060 C   0  0  0  0  0
   12.5390   18.9480   19.3440 C   0  0  0  0  0
   11.4110   18.1140   19.5870 C   0  0  0  0  0
   13.6480   18.9920   20.3890 C   0  0  0  0  0
   13.7390   20.5840   17.7660 C   0  0  0  0  0
   13.4000   21.8680   17.4450 N   0  0  0  0  0
   14.3870   22.8850   17.0580 C   0  0  0  0  0
   13.9120   23.5650   15.7410 C   0  0  0  0  0
   14.5290   23.7930   18.2960 C   0  0  0  0  0
   15.8930   24.5330   18.3050 C   0  0  0  0  0
   17.0170   23.7990   18.5890 N   0  0  0  0  0
   18.3080   24.5330   18.6190 C   0  0  0  0  0
   19.1570   24.0320   19.8400 C   0  0  0  0  0
   18.6540   22.3260   19.9950 S   0  0  0  0  0
   16.9620   22.8240   19.7290 C   0  0  0  0  0
   13.8110   22.5640   14.6120 C   0  0  0  0  0
   14.9290   22.3090   13.7810 C   0  0  0  0  0
   14.8450   21.3630   12.7280 C   0  0  0  0  0
   13.6370   20.6650   12.5020 C   0  0  0  0  0
   12.5140   20.9110   13.3250 C   0  0  0  0  0
   12.6010   21.8560   14.3720 C   0  0  0  0  0
   13.4910   24.7440   18.2910 O   0  0  0  0  0
   15.9160   25.7360   18.0550 O   0  0  0  0  0
   18.8180   24.7880   21.1480 C   0  0  0  0  0
   20.6800   24.0820   19.6000 C   0  0  0  0  0
   18.9290   24.2670   17.2260 C   0  0  0  0  0
   19.7400   25.2500   16.7910 N   0  0  0  0  0
   20.4070   25.1510   15.5020 C   0  0  0  0  0
   18.6740   23.2280   16.6140 O   0  0  0  0  0
   11.3410   17.3920   20.7560 O   0  0  0  0  0
   14.9150   20.2110   17.7640 O   0  0  0  0  0
   20.7450   26.5100   14.9660 C   0  0  0  0  0
   22.0310   27.0430   15.2400 C   0  0  0  0  0
   22.4040   28.3180   14.7600 C   0  0  0  0  0
   21.4830   29.0850   14.0180 C   0  0  0  0  0
   20.1990   28.5730   13.7370 C   0  0  0  0  0
   19.8050   27.2920   14.2150 C   0  0  0  0  0
   18.4160   26.7930   13.8880 C   0  0  0  0  0
    9.4895   17.3984   18.8809 H   0  0  0  0  0
    9.5790   18.6851   16.7425 H   0  0  0  0  0
   11.5318   20.1658   16.2590 H   0  0  0  0  0
   14.5787   18.6396   19.9443 H   0  0  0  0  0
   13.7758   20.0166   20.7384 H   0  0  0  0  0
   13.3797   18.3512   21.2289 H   0  0  0  0  0
   12.4155   22.1329   17.4755 H   0  0  0  0  0
   15.3804   22.5106   16.8108 H   0  0  0  0  0
   14.6379   24.3293   15.4635 H   0  0  0  0  0
   12.9263   23.9984   15.9100 H   0  0  0  0  0
   14.4739   23.1665   19.1863 H   0  0  0  0  0
   18.2283   25.6090   18.7740 H   0  0  0  0  0
   16.3219   21.9719   19.5005 H   0  0  0  0  0
   16.5282   23.2725   20.6228 H   0  0  0  0  0
   15.8626   22.8448   13.9524 H   0  0  0  0  0
   15.7111   21.1744   12.0936 H   0  0  0  0  0
   13.5711   19.9371   11.6933 H   0  0  0  0  0
   11.5823   20.3724   13.1521 H   0  0  0  0  0
   11.7318   22.0443   15.0022 H   0  0  0  0  0
   13.5752   25.3120   19.0603 H   0  0  0  0  0
   17.7438   24.7390   21.3265 H   0  0  0  0  0
   19.3475   24.3256   21.9810 H   0  0  0  0  0
   19.1249   25.8297   21.0540 H   0  0  0  0  0
   21.1946   23.6198   20.4424 H   0  0  0  0  0
   20.9202   23.5411   18.6847 H   0  0  0  0  0
   20.9975   25.1203   19.5039 H   0  0  0  0  0
   19.8885   26.0746   17.3727 H   0  0  0  0  0
   19.7379   24.6545   14.7993 H   0  0  0  0  0
   21.3302   24.5855   15.6285 H   0  0  0  0  0
   12.1314   17.5513   21.2770 H   0  0  0  0  0
   22.7403   26.4611   15.8285 H   0  0  0  0  0
   23.4015   28.7078   14.9628 H   0  0  0  0  0
   21.7636   30.0758   13.6606 H   0  0  0  0  0
   19.5003   29.1657   13.1466 H   0  0  0  0  0
   18.4891   25.8768   13.3020 H   0  0  0  0  0
   17.8764   26.5918   14.8134 H   0  0  0  0  0
   17.8846   27.5518   13.3136 H   0  0  0  0  0
  1  2  4  0  0  0
  1  6  4  0  0  0
  2  3  4  0  0  0
  3  4  4  0  0  0
  4  5  4  0  0  0
  4  8  1  0  0  0
  5  6  4  0  0  0
  5  7  1  0  0  0
  6 33  1  0  0  0
  8  9  1  0  0  0
  8 34  2  0  0  0
  9 10  1  0  0  0
 10 11  1  0  0  0
 10 12  1  0  0  0
 11 19  1  0  0  0
 12 13  1  0  0  0
 12 25  1  0  0  0
 13 14  1  0  0  0
 13 26  2  0  0  0
 14 15  1  0  0  0
 14 18  1  0  0  0
 15 16  1  0  0  0
 15 29  1  0  0  0
 16 17  1  0  0  0
 16 27  1  0  0  0
 16 28  1  0  0  0
 17 18  1  0  0  0
 19 20  4  0  0  0
 19 24  4  0  0  0
 20 21  4  0  0  0
 21 22  4  0  0  0
 22 23  4  0  0  0
 23 24  4  0  0  0
 29 30  1  0  0  0
 29 32  2  0  0  0
 30 31  1  0  0  0
 31 35  1  0  0  0
 35 36  4  0  0  0
 35 40  4  0  0  0
 36 37  4  0  0  0
 37 38  4  0  0  0
 38 39  4  0  0  0
 39 40  4  0  0  0
 40 41  1  0  0  0
  1 42  1  0  0  0
  2 43  1  0  0  0
  3 44  1  0  0  0
  7 45  1  0  0  0
  7 46  1  0  0  0
  7 47  1  0  0  0
  9 48  1  0  0  0
 10 49  1  0  0  0
 11 50  1  0  0  0
 11 51  1  0  0  0
 12 52  1  0  0  0
 15 53  1  0  0  0
 18 54  1  0  0  0
 18 55  1  0  0  0
 20 56  1  0  0  0
 21 57  1  0  0  0
 22 58  1  0  0  0
 23 59  1  0  0  0
 24 60  1  0  0  0
 25 61  1  0  0  0
 27 62  1  0  0  0
 27 63  1  0  0  0
 27 64  1  0  0  0
 28 65  1  0  0  0
 28 66  1  0  0  0
 28 67  1  0  0  0
 30 68  1  0  0  0
 31 69  1  0  0  0
 31 70  1  0  0  0
 33 71  1  0  0  0
 36 72  1  0  0  0
 37 73  1  0  0  0
 38 74  1  0  0  0
 39 75  1  0  0  0
 41 76  1  0  0  0
 41 77  1  0  0  0
 41 78  1  0  0  0
M  END
$$$$
