3t0b_ligand
  -I-interpret- 

 33 33  0  0  0  0  0  0  0  0999 V2000
  -14.8130  -27.5580  -26.1290 C   0  0  0  0  0
  -13.4780  -27.3620  -25.3940 C   0  0  0  0  0
  -13.5430  -26.2460  -24.5130 O   0  0  0  0  0
  -12.2960  -27.1720  -26.3490 C   0  0  0  0  0
  -11.0720  -27.2180  -25.6120 O   0  0  0  0  0
  -12.2850  -28.2570  -27.4240 C   0  0  0  0  0
  -11.9260  -29.5160  -26.8270 O   0  0  0  0  0
  -13.6730  -28.3040  -28.0770 C   0  0  0  0  0
  -14.6490  -28.6080  -27.0850 O   0  0  0  0  0
  -13.8300  -29.3120  -29.2030 C   0  0  0  0  0
  -12.7310  -29.2430  -30.1150 O   0  0  0  0  0
  -16.0700  -28.0390  -24.9790 S   0  0  0  0  0
  -17.6840  -28.2500  -25.6890 C   0  0  0  0  0
  -18.6780  -27.3260  -24.9880 C   0  0  0  0  0
  -17.7310  -28.0770  -27.2060 C   0  0  0  0  0
  -15.1029  -26.6267  -26.6156 H   0  0  0  0  0
  -13.3106  -28.2779  -24.8273 H   0  0  0  0  0
  -14.2821  -26.3578  -23.9107 H   0  0  0  0  0
  -12.3985  -26.2023  -26.8361 H   0  0  0  0  0
  -11.0805  -26.5356  -24.9369 H   0  0  0  0  0
  -11.5473  -28.0395  -28.1963 H   0  0  0  0  0
  -11.0544  -29.4442  -26.4312 H   0  0  0  0  0
  -13.8081  -27.3177  -28.5209 H   0  0  0  0  0
  -14.7478  -29.0870  -29.7462 H   0  0  0  0  0
  -13.8626  -30.3128  -28.7723 H   0  0  0  0  0
  -12.8559  -29.8888  -30.8143 H   0  0  0  0  0
  -17.9664  -29.2895  -25.5221 H   0  0  0  0  0
  -18.7140  -27.5714  -23.9266 H   0  0  0  0  0
  -18.3598  -26.2909  -25.1123 H   0  0  0  0  0
  -19.6670  -27.4586  -25.4266 H   0  0  0  0  0
  -17.3962  -27.0729  -27.4664 H   0  0  0  0  0
  -17.0771  -28.8124  -27.6747 H   0  0  0  0  0
  -18.7531  -28.2226  -27.5555 H   0  0  0  0  0
  1  2  1  0  0  0
  1  9  1  0  0  0
  1 12  1  0  0  0
  2  3  1  0  0  0
  2  4  1  0  0  0
  4  5  1  0  0  0
  4  6  1  0  0  0
  6  7  1  0  0  0
  6  8  1  0  0  0
  8  9  1  0  0  0
  8 10  1  0  0  0
 10 11  1  0  0  0
 12 13  1  0  0  0
 13 14  1  0  0  0
 13 15  1  0  0  0
  1 16  1  0  0  0
  2 17  1  0  0  0
  3 18  1  0  0  0
  4 19  1  0  0  0
  5 20  1  0  0  0
  6 21  1  0  0  0
  7 22  1  0  0  0
  8 23  1  0  0  0
 10 24  1  0  0  0
 10 25  1  0  0  0
 11 26  1  0  0  0
 13 27  1  0  0  0
 14 28  1  0  0  0
 14 29  1  0  0  0
 14 30  1  0  0  0
 15 31  1  0  0  0
 15 32  1  0  0  0
 15 33  1  0  0  0
M  END
$$$$
