3uij_ligand
  -I-interpret- 

 63 63  0  0  0  0  0  0  0  0999 V2000
  -35.0030  -14.6120   -1.5230 N   0  3  0  0  0
  -34.1180  -13.8580   -0.6440 C   0  0  0  0  0
  -34.9170  -13.0060    0.3330 C   0  0  0  0  0
  -36.1370  -12.8890    0.2130 O   0  0  0  0  0
  -33.1800  -12.9880   -1.4580 C   0  0  0  0  0
  -34.2200  -12.4120    1.2980 N   0  0  0  0  0
  -34.8570  -11.5660    2.3050 C   0  0  0  0  0
  -33.9580  -10.3900    2.6920 C   0  0  0  0  0
  -32.7360  -10.4760    2.5880 O   0  0  0  0  0
  -35.2240  -12.3690    3.5800 C   0  0  0  0  0
  -36.2650  -13.4360    3.2660 C   0  0  0  0  0
  -33.9800  -12.9920    4.2050 C   0  0  0  0  0
  -34.5660   -9.2810    3.1360 N   0  0  0  0  0
  -33.7970   -8.1190    3.5970 C   0  0  0  0  0
  -32.9210   -8.4780    4.7920 C   0  0  0  0  0
  -33.1380   -9.5120    5.4240 O   0  0  0  0  0
  -34.8800   -7.1290    4.0350 C   0  0  0  0  0
  -36.1140   -7.5600    3.3240 C   0  0  0  0  0
  -36.0180   -9.0450    3.1880 C   0  0  0  0  0
  -31.9470   -7.6280    5.0970 N   0  0  0  0  0
  -31.0790   -7.8350    6.2520 C   0  0  0  0  0
  -31.4670   -6.9200    7.4130 C   0  0  0  0  0
  -31.4790   -7.3360    8.5740 O   0  0  0  0  0
  -29.6020   -7.6000    5.8880 C   0  0  0  0  0
  -28.8100   -7.1650    7.1220 C   0  0  0  0  0
  -29.4870   -6.5490    4.7990 C   0  0  0  0  0
  -27.4180   -6.6600    6.8040 C   0  0  0  0  0
  -31.7780   -5.7420    7.2180 O   0  0  0  0  0
  -35.6264  -15.1911   -0.9604 H   0  0  0  0  0
  -35.5544  -13.9640   -2.0856 H   0  0  0  0  0
  -34.4454  -15.2068   -2.1360 H   0  0  0  0  0
  -33.5253  -14.5692   -0.0686 H   0  0  0  0  0
  -33.7606  -12.2546   -2.0176 H   0  0  0  0  0
  -32.4909  -12.4734   -0.7884 H   0  0  0  0  0
  -32.6167  -13.6128   -2.1511 H   0  0  0  0  0
  -33.2103  -12.5513    1.3362 H   0  0  0  0  0
  -35.7735  -11.1839    1.8554 H   0  0  0  0  0
  -35.6556  -11.6775    4.3036 H   0  0  0  0  0
  -37.1657  -12.9601    2.8782 H   0  0  0  0  0
  -35.8656  -14.1231    2.5200 H   0  0  0  0  0
  -36.5059  -13.9856    4.1759 H   0  0  0  0  0
  -33.5129  -13.6661    3.4870 H   0  0  0  0  0
  -33.2774  -12.2039    4.4757 H   0  0  0  0  0
  -34.2638  -13.5497    5.0975 H   0  0  0  0  0
  -33.1288   -7.7316    2.8279 H   0  0  0  0  0
  -34.6106   -6.1026    3.7862 H   0  0  0  0  0
  -35.0164   -7.1350    5.1164 H   0  0  0  0  0
  -36.1942   -7.0799    2.3487 H   0  0  0  0  0
  -37.0078   -7.2726    3.8777 H   0  0  0  0  0
  -36.5026   -9.5759    4.0074 H   0  0  0  0  0
  -36.5386   -9.4226    2.3079 H   0  0  0  0  0
  -31.8016   -6.8081    4.5079 H   0  0  0  0  0
  -31.2078   -8.8717    6.5632 H   0  0  0  0  0
  -29.1860   -8.5369    5.5176 H   0  0  0  0  0
  -28.7012   -8.0387    7.7645 H   0  0  0  0  0
  -29.3562   -6.3447    7.5877 H   0  0  0  0  0
  -30.0228   -6.8867    3.9119 H   0  0  0  0  0
  -29.9198   -5.6130    5.1520 H   0  0  0  0  0
  -28.4361   -6.3952    4.5538 H   0  0  0  0  0
  -26.8493   -7.4503    6.3141 H   0  0  0  0  0
  -27.4884   -5.7972    6.1416 H   0  0  0  0  0
  -26.9181   -6.3702    7.7282 H   0  0  0  0  0
  -31.7274   -5.5501    6.2787 H   0  0  0  0  0
  1  2  1  0  0  0
  2  3  1  0  0  0
  2  5  1  0  0  0
  3  4  2  0  0  0
  3  6  1  0  0  0
  6  7  1  0  0  0
  7  8  1  0  0  0
  7 10  1  0  0  0
  8  9  2  0  0  0
  8 13  1  0  0  0
 10 11  1  0  0  0
 10 12  1  0  0  0
 13 14  1  0  0  0
 13 19  1  0  0  0
 14 15  1  0  0  0
 14 17  1  0  0  0
 15 16  2  0  0  0
 15 20  1  0  0  0
 17 18  1  0  0  0
 18 19  1  0  0  0
 20 21  1  0  0  0
 21 22  1  0  0  0
 21 24  1  0  0  0
 22 23  2  0  0  0
 22 28  1  0  0  0
 24 25  1  0  0  0
 24 26  1  0  0  0
 25 27  1  0  0  0
  1 29  1  0  0  0
  1 30  1  0  0  0
  1 31  1  0  0  0
  2 32  1  0  0  0
  5 33  1  0  0  0
  5 34  1  0  0  0
  5 35  1  0  0  0
  6 36  1  0  0  0
  7 37  1  0  0  0
 10 38  1  0  0  0
 11 39  1  0  0  0
 11 40  1  0  0  0
 11 41  1  0  0  0
 12 42  1  0  0  0
 12 43  1  0  0  0
 12 44  1  0  0  0
 14 45  1  0  0  0
 17 46  1  0  0  0
 17 47  1  0  0  0
 18 48  1  0  0  0
 18 49  1  0  0  0
 19 50  1  0  0  0
 19 51  1  0  0  0
 20 52  1  0  0  0
 21 53  1  0  0  0
 24 54  1  0  0  0
 25 55  1  0  0  0
 25 56  1  0  0  0
 26 57  1  0  0  0
 26 58  1  0  0  0
 26 59  1  0  0  0
 27 60  1  0  0  0
 27 61  1  0  0  0
 27 62  1  0  0  0
 28 63  1  0  0  0
M  END
$$$$
