6ps1_ligand
  -I-interpret- 

 46 47  0  0  0  0  0  0  0  0999 V2000
    3.1240    1.0990   50.7900 C   0  0  0  0  0
    2.9990    1.4190   52.2730 C   0  0  0  0  0
    2.4800    0.2780   52.9890 O   0  0  0  0  0
    1.1780   -0.1350   52.5220 C   0  0  0  0  0
    1.2030   -0.4950   51.0400 C   0  0  0  0  0
    1.8730    0.5460   50.2480 N   0  0  0  0  0
    1.3680    0.9260   49.0130 C   0  0  0  0  0
    0.9580    0.0250   48.0990 N   0  0  0  0  0
    0.4460    0.9060   46.7700 S   0  0  0  0  0
    0.7260    2.4540   47.3050 N   0  0  0  0  0
    1.2360    2.2960   48.5340 C   0  0  0  0  0
    1.5610    3.4400   49.2050 O   0  0  0  0  0
    2.6560    4.1570   48.6090 C   0  0  0  0  0
    3.1690    5.2890   49.4990 C   0  0  0  0  0
    3.3930    6.4260   48.6660 O   0  0  0  0  0
    2.2710    5.6480   50.7030 C   0  0  0  0  0
    2.7440    6.8930   51.3690 N   0  3  0  0  0
    2.4440    7.1830   52.8080 C   0  0  0  0  0
    0.9600    7.2720   53.0730 C   0  0  0  0  0
    3.0370    6.0650   53.6870 C   0  0  0  0  0
    3.0110    8.5220   53.3030 C   0  0  0  0  0
    3.9121    0.3568   50.6631 H   0  0  0  0  0
    3.3522    2.0218   50.2566 H   0  0  0  0  0
    2.3166    2.2595   52.3997 H   0  0  0  0  0
    3.9838    1.6692   52.6676 H   0  0  0  0  0
    0.4822    0.6918   52.6644 H   0  0  0  0  0
    0.8728   -1.0164   53.0860 H   0  0  0  0  0
    0.1755   -0.5901   50.6890 H   0  0  0  0  0
    1.7515   -1.4292   50.9194 H   0  0  0  0  0
    2.3019    4.5968   47.6766 H   0  0  0  0  0
    3.4742    3.4535   48.4550 H   0  0  0  0  0
    4.0894    4.9395   49.9667 H   0  0  0  0  0
    3.7167    7.1544   49.2010 H   0  0  0  0  0
    2.3081    4.8305   51.4230 H   0  0  0  0  0
    1.2538    5.8076   50.3453 H   0  0  0  0  0
    2.2561    7.6349   50.8670 H   0  0  0  0  0
    3.7601    6.8065   51.3475 H   0  0  0  0  0
    0.5316    8.0717   52.4688 H   0  0  0  0  0
    0.4881    6.3248   52.8117 H   0  0  0  0  0
    0.7929    7.4835   54.1291 H   0  0  0  0  0
    2.5931    5.1099   53.4063 H   0  0  0  0  0
    4.1162    6.0228   53.5399 H   0  0  0  0  0
    2.8197    6.2743   54.7344 H   0  0  0  0  0
    4.0954    8.5190   53.1926 H   0  0  0  0  0
    2.5867    9.3349   52.7136 H   0  0  0  0  0
    2.7518    8.6590   54.3528 H   0  0  0  0  0
  1  2  1  0  0  0
  1  6  1  0  0  0
  2  3  1  0  0  0
  3  4  1  0  0  0
  4  5  1  0  0  0
  5  6  1  0  0  0
  6  7  1  0  0  0
  7  8  4  0  0  0
  7 11  4  0  0  0
  8  9  4  0  0  0
  9 10  4  0  0  0
 10 11  4  0  0  0
 11 12  1  0  0  0
 12 13  1  0  0  0
 13 14  1  0  0  0
 14 15  1  0  0  0
 14 16  1  0  0  0
 16 17  1  0  0  0
 17 18  1  0  0  0
 18 19  1  0  0  0
 18 20  1  0  0  0
 18 21  1  0  0  0
  1 22  1  0  0  0
  1 23  1  0  0  0
  2 24  1  0  0  0
  2 25  1  0  0  0
  4 26  1  0  0  0
  4 27  1  0  0  0
  5 28  1  0  0  0
  5 29  1  0  0  0
 13 30  1  0  0  0
 13 31  1  0  0  0
 14 32  1  0  0  0
 15 33  1  0  0  0
 16 34  1  0  0  0
 16 35  1  0  0  0
 17 36  1  0  0  0
 17 37  1  0  0  0
 19 38  1  0  0  0
 19 39  1  0  0  0
 19 40  1  0  0  0
 20 41  1  0  0  0
 20 42  1  0  0  0
 20 43  1  0  0  0
 21 44  1  0  0  0
 21 45  1  0  0  0
 21 46  1  0  0  0
M  END
$$$$
