4ej8_ligand
  -I-interpret- 

 18 19  0  0  0  0  0  0  0  0999 V2000
    9.0430   22.5950   24.5300 O   0  0  0  0  0
    9.5420   23.6900   24.3310 C   0  0  0  0  0
    8.8840   24.7720   24.7620 O   0  0  0  0  0
   10.8600   23.7930   23.6100 C   0  0  0  0  0
   11.4600   25.0400   23.4130 C   0  0  0  0  0
   12.6780   25.1920   22.7460 C   0  0  0  0  0
   13.2840   24.0240   22.2810 C   0  0  0  0  0
   14.4820   23.8190   21.5900 C   0  0  0  0  0
   14.5930   22.4480   21.3660 C   0  0  0  0  0
   13.5070   21.8430   21.9030 N   0  0  0  0  0
   12.6960   22.7730   22.4670 C   0  0  0  0  0
   11.4710   22.6290   23.1300 C   0  0  0  0  0
    9.3861   25.5597   24.5408 H   0  0  0  0  0
   10.9577   25.9288   23.7949 H   0  0  0  0  0
   13.1315   26.1719   22.5965 H   0  0  0  0  0
   15.1939   24.5858   21.2845 H   0  0  0  0  0
   15.4122   21.9490   20.8482 H   0  0  0  0  0
   11.0119   21.6499   23.2667 H   0  0  0  0  0
  1  2  2  0  0  0
  2  3  1  0  0  0
  2  4  1  0  0  0
  4  5  4  0  0  0
  4 12  4  0  0  0
  5  6  4  0  0  0
  6  7  4  0  0  0
  7  8  4  0  0  0
  7 11  4  0  0  0
  8  9  4  0  0  0
  9 10  4  0  0  0
 10 11  4  0  0  0
 11 12  4  0  0  0
  3 13  1  0  0  0
  5 14  1  0  0  0
  6 15  1  0  0  0
  8 16  1  0  0  0
  9 17  1  0  0  0
 12 18  1  0  0  0
M  END
$$$$
