6biz_ligand
  -I-interpret- 

211211  0  0  0  0  0  0  0  0999 V2000
   50.1040    7.3370    2.0880 N   0  3  0  0  0
   48.9800    7.9770    2.7740 C   0  0  0  0  0
   49.2580    9.4380    3.1900 C   0  0  0  0  0
   48.4730   10.0460    3.9320 O   0  0  0  0  0
   48.5940    7.1710    4.0100 C   0  0  0  0  0
   49.5530    7.3960    5.1640 C   0  0  0  0  0
   50.7840    7.2840    4.9350 O   0  0  0  0  0
   49.0780    7.7030    6.2850 O   0  0  0  0  0
   50.3680    9.9980    2.7180 N   0  0  0  0  0
   50.7030   11.3990    2.9510 C   0  0  0  0  0
   50.3610   12.1890    1.6980 C   0  0  0  0  0
   50.8690   11.8910    0.6100 O   0  0  0  0  0
   52.1860   11.5800    3.3030 C   0  0  0  0  0
   52.6170   10.5650    4.3670 C   0  0  0  0  0
   52.4520   13.0340    3.7150 C   0  0  0  0  0
   52.0980   10.8770    5.7540 C   0  0  0  0  0
   49.5170   13.2050    1.8570 N   0  0  0  0  0
   49.1940   14.1060    0.7590 C   0  0  0  0  0
   50.4170   14.8980    0.3280 C   0  0  0  0  0
   51.1540   15.4230    1.1630 O   0  0  0  0  0
   48.1270   15.0840    1.2070 C   0  0  0  0  0
   46.8040   14.8580    0.6030 C   0  0  0  0  0
   46.5310   15.3200   -0.6660 C   0  0  0  0  0
   45.8030   14.2440    1.3310 C   0  0  0  0  0
   45.2920   15.1460   -1.2190 C   0  0  0  0  0
   44.5630   14.0620    0.7860 C   0  0  0  0  0
   44.3080   14.5290   -0.4930 C   0  0  0  0  0
   50.6110   15.0250   -0.9780 N   0  0  0  0  0
   51.6940   15.8610   -1.4890 C   0  0  0  0  0
   51.1280   17.1710   -2.0130 C   0  0  0  0  0
   50.0910   17.1700   -2.6790 O   0  0  0  0  0
   52.4630   15.1370   -2.5900 C   0  0  0  0  0
   53.6350   14.3080   -2.0830 C   0  0  0  0  0
   54.8780   15.1500   -1.8520 C   0  0  0  0  0
   55.4800   15.0290   -0.7590 O   0  0  0  0  0
   52.2480   19.7910   -3.3790 C   0  0  0  0  0
   53.4020   19.3150   -3.3300 O   0  0  0  0  0
   51.3230   19.5430   -2.2220 C   0  0  0  0  0
   51.6820   18.2580   -1.6070 N   0  0  0  0  0
   51.4040   20.6920   -1.2150 C   0  0  0  0  0
   52.7100   20.6400   -0.4410 C   0  0  0  0  0
   52.9460   21.9480    0.3060 C   0  0  0  0  0
   53.5800   22.9240   -0.5430 N   0  0  0  0  0
   54.8300   23.3260   -0.3540 C   0  0  0  0  0
   55.5650   22.7620    0.4430 O   0  0  0  0  0
   55.2340   24.3690   -1.0800 N   0  0  0  0  0
   51.8050   20.5340   -4.3320 N   0  0  0  0  0
   52.8990   20.9640   -5.2100 C   0  0  0  0  0
   53.1160   22.4600   -5.0440 C   0  0  0  0  0
   52.1760   23.2010   -4.7330 O   0  0  0  0  0
   52.6190   20.5800   -6.6860 C   0  0  0  0  0
   53.8720   20.7690   -7.5490 C   0  0  0  0  0
   51.4330   21.3590   -7.2410 C   0  0  0  0  0
   53.7350   20.1930   -8.9600 C   0  0  0  0  0
   54.3570   22.9080   -5.2070 N   0  0  0  0  0
   54.6500   24.3240   -5.0300 C   0  0  0  0  0
   54.0590   25.1510   -6.1750 C   0  0  0  0  0
   53.8420   24.6610   -7.2900 O   0  0  0  0  0
   56.1600   24.5640   -4.9350 C   0  0  0  0  0
   53.7740   26.4110   -5.8760 N   0  0  0  0  0
   53.3710   27.3720   -6.8840 C   0  0  0  0  0
   54.6020   28.0920   -7.4040 C   0  0  0  0  0
   55.5040   28.4430   -6.6360 O   0  0  0  0  0
   52.3790   28.3830   -6.3080 C   0  0  0  0  0
   51.2110   27.7290   -5.8370 O   0  0  0  0  0
   54.6270   28.3280   -8.7110 N   0  0  0  0  0
   55.8080   28.8990   -9.3430 C   0  0  0  0  0
   55.9140   30.3820   -9.0340 C   0  0  0  0  0
   54.9280   31.1170   -9.0980 O   0  0  0  0  0
   55.7480   28.6880  -10.8530 C   0  0  0  0  0
   57.0890   28.5720  -11.5150 C   0  0  0  0  0
   57.6590   27.1860  -11.3460 C   0  0  0  0  0
   58.3360   26.9380  -10.3090 O   0  0  0  0  0
   57.3930   26.3460  -12.2400 O   0  0  0  0  0
   57.1320   30.8350   -8.7530 N   0  0  0  0  0
   57.3650   32.2160   -8.3600 C   0  0  0  0  0
   57.7080   33.0530   -9.5880 C   0  0  0  0  0
   58.6680   32.7470  -10.3050 O   0  0  0  0  0
   58.4800   32.2860   -7.3150 C   0  0  0  0  0
   56.9350   34.1110   -9.8310 N   0  0  0  0  0
   57.2680   35.0140  -10.9290 C   0  0  0  0  0
   58.5380   35.7650  -10.5750 C   0  0  0  0  0
   58.7030   36.1680   -9.4290 O   0  0  0  0  0
   56.1410   36.0080  -11.2090 C   0  0  0  0  0
   55.0480   35.3730  -11.8290 O   0  0  0  0  0
   59.7320   38.8640  -11.0720 C   0  0  0  0  0
   58.8850   39.2010  -11.9400 O   0  0  0  0  0
   60.2340   37.4390  -11.0410 C   0  0  0  0  0
   59.1440   36.5040  -11.4140 N   0  0  0  0  0
   61.4520   37.2760  -11.9580 C   0  0  0  0  0
   61.1870   37.6530  -13.4150 C   0  0  0  0  0
   62.4930   37.7780  -14.2010 C   0  0  0  0  0
   62.2640   37.8380  -15.6380 N   0  0  0  0  0
   63.1940   37.4900  -16.5390 C   0  0  0  0  0
   62.8930   37.1830  -17.6950 O   0  0  0  0  0
   64.4720   37.4850  -16.1440 N   0  0  0  0  0
   60.4310   39.3730  -10.0220 N   0  0  0  0  0
   60.3890   40.8160   -9.8010 C   0  0  0  0  0
   60.8550   41.5660  -11.0450 C   0  0  0  0  0
   60.0830   42.3080  -11.6560 O   0  0  0  0  0
   61.2470   41.2090   -8.5900 C   0  0  0  0  0
   60.5830   41.2100   -7.1990 C   0  0  0  0  0
   61.5300   41.7830   -6.1390 C   0  0  0  0  0
   59.2470   41.9530   -7.1880 C   0  0  0  0  0
   62.0100   41.4410  -11.4570 O   0  0  0  0  0
   50.3536    7.8837    1.2639 H   0  0  0  0  0
   50.9032    7.2881    2.7199 H   0  0  0  0  0
   49.8355    6.3948    1.8040 H   0  0  0  0  0
   48.1618    8.0000    2.0541 H   0  0  0  0  0
   48.6218    6.1135    3.7474 H   0  0  0  0  0
   47.6013    7.4909    4.3269 H   0  0  0  0  0
   50.9166    7.0433    4.0152 H   0  0  0  0  0
   51.0110    9.4253    2.1712 H   0  0  0  0  0
   50.1263   11.7625    3.8015 H   0  0  0  0  0
   52.7989   11.3796    2.4242 H   0  0  0  0  0
   53.7057   10.5865    4.4148 H   0  0  0  0  0
   52.2086    9.5968    4.0772 H   0  0  0  0  0
   52.1946   13.6972    2.8892 H   0  0  0  0  0
   51.8430   13.2811    4.5845 H   0  0  0  0  0
   53.5067   13.1529    3.9629 H   0  0  0  0  0
   52.4681   11.8530    6.0680 H   0  0  0  0  0
   51.0082   10.8880    5.7388 H   0  0  0  0  0
   52.4453   10.1140    6.4506 H   0  0  0  0  0
   49.0861   13.3566    2.7690 H   0  0  0  0  0
   48.8410   13.5058   -0.0796 H   0  0  0  0  0
   48.4538   16.0774    0.8996 H   0  0  0  0  0
   48.0124   14.9616    2.2840 H   0  0  0  0  0
   47.3095   15.8288   -1.2345 H   0  0  0  0  0
   46.0036   13.9026    2.3465 H   0  0  0  0  0
   45.0891   15.4962   -2.2311 H   0  0  0  0  0
   43.7822   13.5543    1.3523 H   0  0  0  0  0
   43.3153   14.4043   -0.9255 H   0  0  0  0  0
   49.9990   14.5350   -1.6305 H   0  0  0  0  0
   52.3872   16.0716   -0.6746 H   0  0  0  0  0
   52.8692   15.8986   -3.2556 H   0  0  0  0  0
   51.7671   14.4517   -3.0739 H   0  0  0  0  0
   53.8701   13.5571   -2.8374 H   0  0  0  0  0
   53.3471   13.8611   -1.1314 H   0  0  0  0  0
   55.2366   15.8403   -2.6155 H   0  0  0  0  0
   50.2906   19.4961   -2.5685 H   0  0  0  0  0
   52.3721   18.2281   -0.8565 H   0  0  0  0  0
   50.5754   20.6027   -0.5125 H   0  0  0  0  0
   51.3532   21.6372   -1.7555 H   0  0  0  0  0
   53.5293   20.4819   -1.1424 H   0  0  0  0  0
   52.6592   19.8256    0.2817 H   0  0  0  0  0
   53.5978   21.7506    1.1570 H   0  0  0  0  0
   51.9832   22.3421    0.6314 H   0  0  0  0  0
   53.0483   23.3205   -1.3179 H   0  0  0  0  0
   56.1857   24.7220   -0.9800 H   0  0  0  0  0
   54.5913   24.8138   -1.7353 H   0  0  0  0  0
   50.8258   20.7894   -4.4596 H   0  0  0  0  0
   53.8147   20.4463   -4.9245 H   0  0  0  0  0
   52.3560   19.5226   -6.7156 H   0  0  0  0  0
   54.6900   20.2417   -7.0582 H   0  0  0  0  0
   54.0424   21.8410   -7.6482 H   0  0  0  0  0
   50.5453   21.1377   -6.6485 H   0  0  0  0  0
   51.6467   22.4268   -7.1928 H   0  0  0  0  0
   51.2616   21.0679   -8.2773 H   0  0  0  0  0
   53.5404   19.1224   -8.8967 H   0  0  0  0  0
   52.9080   20.6842   -9.4728 H   0  0  0  0  0
   54.6593   20.3636   -9.5120 H   0  0  0  0  0
   55.1043   22.2600   -5.4561 H   0  0  0  0  0
   54.1885   24.6426   -4.0953 H   0  0  0  0  0
   56.5611   24.0142   -4.0836 H   0  0  0  0  0
   56.6398   24.2188   -5.8508 H   0  0  0  0  0
   56.3497   25.6292   -4.8032 H   0  0  0  0  0
   53.8405   26.7143   -4.9044 H   0  0  0  0  0
   52.8786   26.8432   -7.7000 H   0  0  0  0  0
   52.0970   29.0854   -7.0924 H   0  0  0  0  0
   52.8510   28.9037   -5.4748 H   0  0  0  0  0
   50.6027   28.3804   -5.4803 H   0  0  0  0  0
   53.8090   28.1066   -9.2787 H   0  0  0  0  0
   56.6892   28.3954   -8.9455 H   0  0  0  0  0
   55.2549   29.5617  -11.2792 H   0  0  0  0  0
   55.2238   27.7479  -11.0245 H   0  0  0  0  0
   57.7692   29.2878  -11.0535 H   0  0  0  0  0
   56.9713   28.7736  -12.5797 H   0  0  0  0  0
   58.4058   27.7334   -9.7760 H   0  0  0  0  0
   57.9250   30.1965   -8.8147 H   0  0  0  0  0
   56.4580   32.6216   -7.9117 H   0  0  0  0  0
   58.1904   31.7083   -6.4372 H   0  0  0  0  0
   59.3972   31.8743   -7.7361 H   0  0  0  0  0
   58.6441   33.3251   -7.0297 H   0  0  0  0  0
   56.1141   34.2892   -9.2524 H   0  0  0  0  0
   57.4125   34.4209  -11.8321 H   0  0  0  0  0
   56.5177   36.7840  -11.8754 H   0  0  0  0  0
   55.8069   36.4324  -10.2623 H   0  0  0  0  0
   54.3560   36.0177  -11.9934 H   0  0  0  0  0
   60.5517   37.1982  -10.0265 H   0  0  0  0  0
   58.8664   36.4512  -12.3941 H   0  0  0  0  0
   61.7305   36.2223  -11.9419 H   0  0  0  0  0
   62.2284   37.9449  -11.5867 H   0  0  0  0  0
   60.6742   38.6146  -13.4376 H   0  0  0  0  0
   60.5799   36.8712  -13.8715 H   0  0  0  0  0
   63.1021   36.8990  -13.9902 H   0  0  0  0  0
   62.9861   38.7012  -13.8965 H   0  0  0  0  0
   61.3559   38.1590  -15.9739 H   0  0  0  0  0
   65.2079   37.2257  -16.8010 H   0  0  0  0  0
   64.7106   37.7405  -15.1858 H   0  0  0  0  0
   60.9695   38.7638   -9.4061 H   0  0  0  0  0
   59.3555   41.0943   -9.5950 H   0  0  0  0  0
   59.2269   42.3048  -11.2216 H   0  0  0  0  0
   61.5420   42.2429   -8.7692 H   0  0  0  0  0
   62.0307   40.4534   -8.5347 H   0  0  0  0  0
   60.3714   40.1696   -6.9525 H   0  0  0  0  0
   62.4341   41.1758   -6.0951 H   0  0  0  0  0
   61.7914   42.8077   -6.4030 H   0  0  0  0  0
   61.0356   41.7716   -5.1677 H   0  0  0  0  0
   59.4067   42.9896   -7.4848 H   0  0  0  0  0
   58.5611   41.4750   -7.8874 H   0  0  0  0  0
   58.8239   41.9223   -6.1839 H   0  0  0  0  0
  2  1  1  0  0  0
  3  2  1  0  0  0
  2  5  1  0  0  0
  3  4  2  0  0  0
  9  3  1  0  0  0
  5  6  1  0  0  0
  6  7  1  0  0  0
  6  8  2  0  0  0
 10  9  1  0  0  0
 11 10  1  0  0  0
 10 13  1  0  0  0
 11 12  2  0  0  0
 17 11  1  0  0  0
 13 14  1  0  0  0
 13 15  1  0  0  0
 14 16  1  0  0  0
 18 17  1  0  0  0
 19 18  1  0  0  0
 18 21  1  0  0  0
 19 20  2  0  0  0
 28 19  1  0  0  0
 21 22  1  0  0  0
 22 23  4  0  0  0
 22 24  4  0  0  0
 23 25  4  0  0  0
 24 26  4  0  0  0
 25 27  4  0  0  0
 26 27  4  0  0  0
 29 28  1  0  0  0
 30 29  1  0  0  0
 29 32  1  0  0  0
 30 31  2  0  0  0
 39 30  1  0  0  0
 32 33  1  0  0  0
 33 34  1  0  0  0
 34 35  2  0  0  0
 36 37  2  0  0  0
 36 38  1  0  0  0
 47 36  1  0  0  0
 38 39  1  0  0  0
 38 40  1  0  0  0
 40 41  1  0  0  0
 41 42  1  0  0  0
 42 43  1  0  0  0
 43 44  1  0  0  0
 44 45  2  0  0  0
 44 46  1  0  0  0
 48 47  1  0  0  0
 49 48  1  0  0  0
 48 51  1  0  0  0
 49 50  2  0  0  0
 55 49  1  0  0  0
 51 52  1  0  0  0
 51 53  1  0  0  0
 52 54  1  0  0  0
 56 55  1  0  0  0
 57 56  1  0  0  0
 56 59  1  0  0  0
 57 58  2  0  0  0
 60 57  1  0  0  0
 61 60  1  0  0  0
 62 61  1  0  0  0
 61 64  1  0  0  0
 62 63  2  0  0  0
 66 62  1  0  0  0
 64 65  1  0  0  0
 67 66  1  0  0  0
 68 67  1  0  0  0
 67 70  1  0  0  0
 68 69  2  0  0  0
 75 68  1  0  0  0
 70 71  1  0  0  0
 71 72  1  0  0  0
 72 73  1  0  0  0
 72 74  2  0  0  0
 76 75  1  0  0  0
 77 76  1  0  0  0
 76 79  1  0  0  0
 77 78  2  0  0  0
 80 77  1  0  0  0
 81 80  1  0  0  0
 82 81  1  0  0  0
 81 84  1  0  0  0
 82 83  2  0  0  0
 89 82  1  0  0  0
 84 85  1  0  0  0
 86 87  2  0  0  0
 88 86  1  0  0  0
 86 97  1  0  0  0
 88 89  1  0  0  0
 88 90  1  0  0  0
 90 91  1  0  0  0
 91 92  1  0  0  0
 92 93  1  0  0  0
 93 94  1  0  0  0
 94 95  2  0  0  0
 94 96  1  0  0  0
 97 98  1  0  0  0
 98 99  1  0  0  0
 98101  1  0  0  0
 99100  1  0  0  0
 99105  2  0  0  0
101102  1  0  0  0
102103  1  0  0  0
102104  1  0  0  0
  1106  1  0  0  0
  1107  1  0  0  0
  1108  1  0  0  0
  2109  1  0  0  0
  5110  1  0  0  0
  5111  1  0  0  0
  7112  1  0  0  0
  9113  1  0  0  0
 10114  1  0  0  0
 13115  1  0  0  0
 14116  1  0  0  0
 14117  1  0  0  0
 15118  1  0  0  0
 15119  1  0  0  0
 15120  1  0  0  0
 16121  1  0  0  0
 16122  1  0  0  0
 16123  1  0  0  0
 17124  1  0  0  0
 18125  1  0  0  0
 21126  1  0  0  0
 21127  1  0  0  0
 23128  1  0  0  0
 24129  1  0  0  0
 25130  1  0  0  0
 26131  1  0  0  0
 27132  1  0  0  0
 28133  1  0  0  0
 29134  1  0  0  0
 32135  1  0  0  0
 32136  1  0  0  0
 33137  1  0  0  0
 33138  1  0  0  0
 34139  1  0  0  0
 38140  1  0  0  0
 39141  1  0  0  0
 40142  1  0  0  0
 40143  1  0  0  0
 41144  1  0  0  0
 41145  1  0  0  0
 42146  1  0  0  0
 42147  1  0  0  0
 43148  1  0  0  0
 46149  1  0  0  0
 46150  1  0  0  0
 47151  1  0  0  0
 48152  1  0  0  0
 51153  1  0  0  0
 52154  1  0  0  0
 52155  1  0  0  0
 53156  1  0  0  0
 53157  1  0  0  0
 53158  1  0  0  0
 54159  1  0  0  0
 54160  1  0  0  0
 54161  1  0  0  0
 55162  1  0  0  0
 56163  1  0  0  0
 59164  1  0  0  0
 59165  1  0  0  0
 59166  1  0  0  0
 60167  1  0  0  0
 61168  1  0  0  0
 64169  1  0  0  0
 64170  1  0  0  0
 65171  1  0  0  0
 66172  1  0  0  0
 67173  1  0  0  0
 70174  1  0  0  0
 70175  1  0  0  0
 71176  1  0  0  0
 71177  1  0  0  0
 73178  1  0  0  0
 75179  1  0  0  0
 76180  1  0  0  0
 79181  1  0  0  0
 79182  1  0  0  0
 79183  1  0  0  0
 80184  1  0  0  0
 81185  1  0  0  0
 84186  1  0  0  0
 84187  1  0  0  0
 85188  1  0  0  0
 88189  1  0  0  0
 89190  1  0  0  0
 90191  1  0  0  0
 90192  1  0  0  0
 91193  1  0  0  0
 91194  1  0  0  0
 92195  1  0  0  0
 92196  1  0  0  0
 93197  1  0  0  0
 96198  1  0  0  0
 96199  1  0  0  0
 97200  1  0  0  0
 98201  1  0  0  0
100202  1  0  0  0
101203  1  0  0  0
101204  1  0  0  0
102205  1  0  0  0
103206  1  0  0  0
103207  1  0  0  0
103208  1  0  0  0
104209  1  0  0  0
104210  1  0  0  0
104211  1  0  0  0
M  END
$$$$
