### 
### Created by X-TOOL on Wed Jan  1 15:39:36 2020
### 

@<TRIPOS>MOLECULE
6biz_ligand
  208   208     1     0     0
SMALL
GAST_HUCK


@<TRIPOS>ATOM
      1 N          50.1040    7.3370    2.0880 N.4       1 ASP         0.2391
      2 CA         48.9800    7.9770    2.7740 C.3       1 ASP         0.0764
      3 C          49.2580    9.4380    3.1900 C.2       1 ASP         0.2284
      4 O          48.4730   10.0460    3.9320 O.2       1 ASP        -0.3906
      5 CB         48.5940    7.1710    4.0100 C.3       1 ASP         0.0607
      6 CG         49.5530    7.3960    5.1640 C.2       1 ASP         0.0425
      7 OD1        50.7840    7.2840    4.9350 O.co2     1 ASP        -0.5686
      8 OD2        49.0780    7.7030    6.2850 O.co2     1 ASP        -0.5686
      9 N          50.3680    9.9980    2.7180 N.am      1 ILE        -0.2607
     10 CA         50.7030   11.3990    2.9510 C.3       1 ILE         0.1336
     11 C          50.3610   12.1890    1.6980 C.2       1 ILE         0.2043
     12 O          50.8690   11.8910    0.6100 O.2       1 ILE        -0.3944
     13 CB         52.1860   11.5800    3.3030 C.3       1 ILE        -0.0037
     14 CG1        52.6170   10.5650    4.3670 C.3       1 ILE        -0.0491
     15 CG2        52.4520   13.0340    3.7150 C.3       1 ILE        -0.0582
     16 CD1        52.0980   10.8770    5.7540 C.3       1 ILE        -0.0648
     17 N          49.5170   13.2050    1.8570 N.am      1 PHE        -0.2619
     18 CA         49.1940   14.1060    0.7590 C.3       1 PHE         0.1404
     19 C          50.4170   14.8980    0.3280 C.2       1 PHE         0.2060
     20 O          51.1540   15.4230    1.1630 O.2       1 PHE        -0.3942
     21 CB         48.1270   15.0840    1.2070 C.3       1 PHE         0.0214
     22 CG         46.8040   14.8580    0.6030 C.ar      1 PHE        -0.0386
     23 CD1        46.5310   15.3200   -0.6660 C.ar      1 PHE        -0.0601
     24 CD2        45.8030   14.2440    1.3310 C.ar      1 PHE        -0.0601
     25 CE1        45.2920   15.1460   -1.2190 C.ar      1 PHE        -0.0686
     26 CE2        44.5630   14.0620    0.7860 C.ar      1 PHE        -0.0686
     27 CZ         44.3080   14.5290   -0.4930 C.ar      1 PHE        -0.0687
     28 N          50.6110   15.0250   -0.9780 N.am      1 GLU        -0.2634
     29 CA         51.6940   15.8610   -1.4890 C.3       1 GLU         0.1331
     30 C          51.1280   17.1710   -2.0130 C.2       1 GLU         0.2041
     31 O          50.0910   17.1700   -2.6790 O.2       1 GLU        -0.3944
     32 CB         52.4630   15.1370   -2.5900 C.3       1 GLU         0.0033
     33 CG         53.6350   14.3080   -2.0830 C.3       1 GLU         0.0231
     34 CD         54.8780   15.1500   -1.8520 C.2       1 GLU         0.0994
     35 OE1        55.4800   15.0290   -0.7590 O.2       1 GLU        -0.3749
     36 C1         52.2480   19.7910   -3.3790 C.2       1 CIR         0.2039
     37 O1         53.4020   19.3150   -3.3300 O.2       1 CIR        -0.3944
     38 C2         51.3230   19.5430   -2.2220 C.3       1 CIR         0.1310
     39 N2         51.6820   18.2580   -1.6070 N.am      1 CIR        -0.2637
     40 C3         51.4040   20.6920   -1.2150 C.3       1 CIR        -0.0106
     41 C4         52.7100   20.6400   -0.4410 C.3       1 CIR        -0.0288
     42 C5         52.9460   21.9480    0.3060 C.3       1 CIR         0.0314
     43 N6         53.5800   22.9240   -0.5430 N.am      1 CIR        -0.2733
     44 C7         54.8300   23.3260   -0.3540 C.2       1 CIR         0.2548
     45 O7         55.5650   22.7620    0.4430 O.2       1 CIR        -0.4010
     46 N8         55.2340   24.3690   -1.0800 N.am      1 CIR        -0.2870
     47 N          51.8050   20.5340   -4.3320 N.am      1 ILE        -0.2635
     48 CA         52.8990   20.9640   -5.2100 C.3       1 ILE         0.1335
     49 C          53.1160   22.4600   -5.0440 C.2       1 ILE         0.2041
     50 O          52.1760   23.2010   -4.7330 O.2       1 ILE        -0.3944
     51 CB         52.6190   20.5800   -6.6860 C.3       1 ILE        -0.0037
     52 CG1        53.8720   20.7690   -7.5490 C.3       1 ILE        -0.0491
     53 CG2        51.4330   21.3590   -7.2410 C.3       1 ILE        -0.0582
     54 CD1        53.7350   20.1930   -8.9600 C.3       1 ILE        -0.0648
     55 N          54.3570   22.9080   -5.2070 N.am      1 ALA        -0.2640
     56 CA         54.6500   24.3240   -5.0300 C.3       1 ALA         0.1282
     57 C          54.0590   25.1510   -6.1750 C.2       1 ALA         0.2037
     58 O          53.8420   24.6610   -7.2900 O.2       1 ALA        -0.3944
     59 CB         56.1600   24.5640   -4.9350 C.3       1 ALA        -0.0244
     60 N          53.7740   26.4110   -5.8760 N.am      1 SER        -0.2616
     61 CA         53.3710   27.3720   -6.8840 C.3       1 SER         0.1539
     62 C          54.6020   28.0920   -7.4040 C.2       1 SER         0.2062
     63 O          55.5040   28.4430   -6.6360 O.2       1 SER        -0.3943
     64 CB         52.3790   28.3830   -6.3080 C.3       1 SER         0.0843
     65 OG         51.2110   27.7290   -5.8370 O.3       1 SER        -0.3903
     66 N          54.6270   28.3280   -8.7110 N.am      1 GLU        -0.2636
     67 CA         55.8080   28.8990   -9.3430 C.3       1 GLU         0.1325
     68 C          55.9140   30.3820   -9.0340 C.2       1 GLU         0.2040
     69 O          54.9280   31.1170   -9.0980 O.2       1 GLU        -0.3944
     70 CB         55.7480   28.6880  -10.8530 C.3       1 GLU        -0.0008
     71 CG         57.0890   28.5720  -11.5150 C.3       1 GLU         0.0044
     72 CD         57.6590   27.1860  -11.3460 C.2       1 GLU         0.0350
     73 OE1        58.3360   26.9380  -10.3090 O.co2     1 GLU        -0.5690
     74 OE2        57.3930   26.3460  -12.2400 O.co2     1 GLU        -0.5690
     75 N          57.1320   30.8350   -8.7530 N.am      1 ALA        -0.2640
     76 CA         57.3650   32.2160   -8.3600 C.3       1 ALA         0.1282
     77 C          57.7080   33.0530   -9.5880 C.2       1 ALA         0.2037
     78 O          58.6680   32.7470  -10.3050 O.2       1 ALA        -0.3944
     79 CB         58.4800   32.2860   -7.3150 C.3       1 ALA        -0.0244
     80 N          56.9350   34.1110   -9.8310 N.am      1 SER        -0.2616
     81 CA         57.2680   35.0140  -10.9290 C.3       1 SER         0.1539
     82 C          58.5380   35.7650  -10.5750 C.2       1 SER         0.2062
     83 O          58.7030   36.1680   -9.4290 O.2       1 SER        -0.3943
     84 CB         56.1410   36.0080  -11.2090 C.3       1 SER         0.0843
     85 OG         55.0480   35.3730  -11.8290 O.3       1 SER        -0.3903
     86 C1         59.7320   38.8640  -11.0720 C.2       1 CIR         0.2033
     87 O1         58.8850   39.2010  -11.9400 O.2       1 CIR        -0.3944
     88 C2         60.2340   37.4390  -11.0410 C.3       1 CIR         0.1310
     89 N2         59.1440   36.5040  -11.4140 N.am      1 CIR        -0.2637
     90 C3         61.4520   37.2760  -11.9580 C.3       1 CIR        -0.0106
     91 C4         61.1870   37.6530  -13.4150 C.3       1 CIR        -0.0288
     92 C5         62.4930   37.7780  -14.2010 C.3       1 CIR         0.0314
     93 N6         62.2640   37.8380  -15.6380 N.am      1 CIR        -0.2733
     94 C7         63.1940   37.4900  -16.5390 C.2       1 CIR         0.2548
     95 O7         62.8930   37.1830  -17.6950 O.2       1 CIR        -0.4010
     96 N8         64.4720   37.4850  -16.1440 N.am      1 CIR        -0.2870
     97 N          60.4310   39.3730  -10.0220 N.am      1 LEU        -0.2695
     98 CA         60.3890   40.8160   -9.8010 C.3       1 LEU         0.0946
     99 C          60.8550   41.5660  -11.0450 C.2       1 LEU         0.0601
    100 O          60.0830   42.3080  -11.6560 O.co2     1 LEU        -0.5666
    101 CB         61.2470   41.2090   -8.5900 C.3       1 LEU        -0.0156
    102 CG         60.5830   41.2100   -7.1990 C.3       1 LEU        -0.0431
    103 CD1        61.5300   41.7830   -6.1390 C.3       1 LEU        -0.0625
    104 CD2        59.2470   41.9530   -7.1880 C.3       1 LEU        -0.0625
    105 OXT        62.0100   41.4410  -11.4570 O.co2     1 LEU        -0.5666
    106 H1         49.8552    6.3906    1.8463 H         1 ASP         0.2016
    107 H2         50.9078    7.3282    2.6961 H         1 ASP         0.2016
    108 H3         50.3228    7.8515    1.2493 H         1 ASP         0.2016
    109 H4         48.1265    7.9821    2.0802 H         1 ASP         0.1117
    110 H5         48.5965    6.1020    3.7508 H         1 ASP         0.0512
    111 H6         47.5835    7.4693    4.3260 H         1 ASP         0.0512
    112 H7         50.9984    9.4365    2.1819 H         1 ILE         0.1885
    113 H8         50.0979   11.7736    3.7898 H         1 ILE         0.0803
    114 H9         52.7776   11.3786    2.3978 H         1 ILE         0.0345
    115 H10        53.7162   10.5468    4.4040 H         1 ILE         0.0267
    116 H11        52.2435    9.5733    4.0719 H         1 ILE         0.0267
    117 H12        52.1217   13.7090    2.9117 H         1 ILE         0.0235
    118 H13        53.5286   13.1739    3.8919 H         1 ILE         0.0235
    119 H14        51.8963   13.2615    4.6367 H         1 ILE         0.0235
    120 H15        52.4478   10.1076    6.4580 H         1 ILE         0.0230
    121 H16        50.9982   10.8883    5.7400 H         1 ILE         0.0230
    122 H17        52.4708   11.8618    6.0721 H         1 ILE         0.0230
    123 H18        49.0945   13.3536    2.7511 H         1 PHE         0.1885
    124 H19        48.8223   13.5175   -0.0927 H         1 PHE         0.0823
    125 H20        48.4574   16.0992    0.9420 H         1 PHE         0.0474
    126 H21        48.0246   15.0052    2.2994 H         1 PHE         0.0474
    127 H22        47.3052   15.8260   -1.2314 H         1 PHE         0.0557
    128 H23        46.0025   13.9045    2.3409 H         1 PHE         0.0557
    129 H24        45.0902   15.4942   -2.2255 H         1 PHE         0.0599
    130 H25        43.7865   13.5571    1.3491 H         1 PHE         0.0599
    131 H26        43.3208   14.4050   -0.9232 H         1 PHE         0.0559
    132 H27        50.0110   14.5446   -1.6177 H         1 GLU         0.1883
    133 H28        52.3880   16.0807   -0.6643 H         1 GLU         0.0801
    134 H29        52.8497   15.8887   -3.2938 H         1 GLU         0.0338
    135 H30        51.7667   14.4668   -3.1153 H         1 GLU         0.0338
    136 H31        53.8669   13.5311   -2.8264 H         1 GLU         0.0495
    137 H32        53.3479   13.8328   -1.1334 H         1 GLU         0.0495
    138 H33        55.2363   15.8397   -2.6148 H         1 GLU         0.1349
    139 H34        50.2902   19.4810   -2.5955 H         1 CIR         0.0800
    140 H35        52.3585   18.2287   -0.8712 H         1 CIR         0.1883
    141 H36        50.5635   20.6134   -0.5097 H         1 CIR         0.0313
    142 H37        51.3421   21.6489   -1.7540 H         1 CIR         0.0313
    143 H38        53.5395   20.4705   -1.1433 H         1 CIR         0.0287
    144 H39        52.6679   19.8131    0.2832 H         1 CIR         0.0287
    145 H40        53.5923   21.7539    1.1747 H         1 CIR         0.0517
    146 H41        51.9793   22.3448    0.6495 H         1 CIR         0.0517
    147 H42        53.0587   23.3127   -1.3027 H         1 CIR         0.1845
    148 H43        56.1663   24.7166   -0.9802 H         1 CIR         0.1808
    149 H44        54.6046   24.8036   -1.7243 H         1 CIR         0.1808
    150 H45        50.8450   20.7844   -4.4571 H         1 ILE         0.1883
    151 H46        53.8178   20.4468   -4.8966 H         1 ILE         0.0803
    152 H47        52.3559   19.5122   -6.7100 H         1 ILE         0.0345
    153 H48        54.7165   20.2708   -7.0503 H         1 ILE         0.0267
    154 H49        54.0785   21.8463   -7.6315 H         1 ILE         0.0267
    155 H50        50.5556   21.1990   -6.5971 H         1 ILE         0.0235
    156 H51        51.2089   21.0094   -8.2596 H         1 ILE         0.0235
    157 H52        51.6782   22.4310   -7.2669 H         1 ILE         0.0235
    158 H53        54.6672   20.3646   -9.5182 H         1 ILE         0.0230
    159 H54        52.9007   20.6879   -9.4787 H         1 ILE         0.0230
    160 H55        53.5387   19.1125   -8.8975 H         1 ILE         0.0230
    161 H56        55.0897   22.2727   -5.4512 H         1 ALA         0.1883
    162 H57        54.1871   24.6550   -4.0887 H         1 ALA         0.0797
    163 H58        56.3528   25.6388   -4.8020 H         1 ALA         0.0277
    164 H59        56.6454   24.2160   -5.8587 H         1 ALA         0.0277
    165 H60        56.5661   24.0096   -4.0761 H         1 ALA         0.0277
    166 H61        53.8392   26.7083   -4.9234 H         1 SER         0.1884
    167 H62        52.8885   26.8368   -7.7151 H         1 SER         0.0823
    168 H63        52.0988   29.1010   -7.0928 H         1 SER         0.0606
    169 H64        52.8539   28.9191   -5.4731 H         1 SER         0.0606
    170 H65        50.6090   28.3736   -5.4840 H         1 SER         0.2097
    171 H66        53.8251   28.1109   -9.2676 H         1 GLU         0.1883
    172 H67        56.7001   28.3907   -8.9482 H         1 GLU         0.0801
    173 H68        55.2166   29.5416  -11.2991 H         1 GLU         0.0330
    174 H69        55.1860   27.7630  -11.0493 H         1 GLU         0.0330
    175 H70        57.7773   29.3012  -11.0629 H         1 GLU         0.0433
    176 H71        56.9799   28.7873  -12.5882 H         1 GLU         0.0433
    177 H72        57.9095   30.2090   -8.8135 H         1 ALA         0.1883
    178 H73        56.4431   32.6153   -7.9120 H         1 ALA         0.0797
    179 H74        58.6466   33.3343   -7.0262 H         1 ALA         0.0277
    180 H75        59.4063   31.8708   -7.7387 H         1 ALA         0.0277
    181 H76        58.1889   31.7034   -6.4286 H         1 ALA         0.0277
    182 H77        56.1302   34.2857   -9.2637 H         1 SER         0.1884
    183 H78        57.4422   34.4177  -11.8368 H         1 SER         0.0823
    184 H79        56.5180   36.8017  -11.8707 H         1 SER         0.0606
    185 H80        55.8077   36.4504  -10.2587 H         1 SER         0.0606
    186 H81        54.3632   36.0110  -11.9917 H         1 SER         0.2097
    187 H82        60.5480   37.2057  -10.0129 H         1 CIR         0.0800
    188 H83        58.8718   36.4523  -12.3749 H         1 CIR         0.1883
    189 H84        61.7714   36.2239  -11.9254 H         1 CIR         0.0313
    190 H85        62.2607   37.9167  -11.5764 H         1 CIR         0.0313
    191 H86        60.6565   38.6161  -13.4455 H         1 CIR         0.0287
    192 H87        60.5623   36.8754  -13.8788 H         1 CIR         0.0287
    193 H88        63.1256   36.9060  -13.9788 H         1 CIR         0.0517
    194 H89        63.0103   38.6961  -13.8857 H         1 CIR         0.0517
    195 H90        61.3737   38.1527  -15.9673 H         1 CIR         0.1845
    196 H91        65.1934   37.2309  -16.7882 H         1 CIR         0.1808
    197 H92        64.7060   37.7354  -15.2045 H         1 CIR         0.1808
    198 H93        60.9590   38.7758   -9.4182 H         1 LEU         0.1875
    199 H94        59.3473   41.1023   -9.5940 H         1 LEU         0.0726
    200 H95        61.6234   42.2263   -8.7728 H         1 LEU         0.0308
    201 H96        62.0929   40.5071   -8.5475 H         1 LEU         0.0308
    202 H97        60.3784   40.1624   -6.9330 H         1 LEU         0.0297
    203 H98        61.0321   41.7720   -5.1582 H         1 LEU         0.0232
    204 H99        61.7946   42.8172   -6.4043 H         1 LEU         0.0232
    205 H100       62.4429   41.1710   -6.0936 H         1 LEU         0.0232
    206 H101       58.5839   41.5263   -7.9550 H         1 LEU         0.0232
    207 H102       59.4180   43.0182   -7.4026 H         1 LEU         0.0232
    208 H103       58.7777   41.8490   -6.1986 H         1 LEU         0.0232
@<TRIPOS>BOND
     1    2    1 1  
     2    3    2 1  
     3    2    5 1  
     4    3    4 2  
     5    9    3 am 
     6    5    6 1  
     7    6    7 ar 
     8    6    8 ar 
     9   10    9 1  
    10   11   10 1  
    11   10   13 1  
    12   11   12 2  
    13   17   11 am 
    14   13   14 1  
    15   13   15 1  
    16   14   16 1  
    17   18   17 1  
    18   19   18 1  
    19   18   21 1  
    20   19   20 2  
    21   28   19 am 
    22   21   22 1  
    23   22   23 ar 
    24   22   24 ar 
    25   23   25 ar 
    26   24   26 ar 
    27   25   27 ar 
    28   26   27 ar 
    29   29   28 1  
    30   30   29 1  
    31   29   32 1  
    32   30   31 2  
    33   39   30 am 
    34   32   33 1  
    35   33   34 1  
    36   34   35 2  
    37   36   37 2  
    38   36   38 1  
    39   47   36 am 
    40   38   39 1  
    41   38   40 1  
    42   40   41 1  
    43   41   42 1  
    44   42   43 1  
    45   43   44 am 
    46   44   45 2  
    47   44   46 am 
    48   48   47 1  
    49   49   48 1  
    50   48   51 1  
    51   49   50 2  
    52   55   49 am 
    53   51   52 1  
    54   51   53 1  
    55   52   54 1  
    56   56   55 1  
    57   57   56 1  
    58   56   59 1  
    59   57   58 2  
    60   60   57 am 
    61   61   60 1  
    62   62   61 1  
    63   61   64 1  
    64   62   63 2  
    65   66   62 am 
    66   64   65 1  
    67   67   66 1  
    68   68   67 1  
    69   67   70 1  
    70   68   69 2  
    71   75   68 am 
    72   70   71 1  
    73   71   72 1  
    74   72   73 ar 
    75   72   74 ar 
    76   76   75 1  
    77   77   76 1  
    78   76   79 1  
    79   77   78 2  
    80   80   77 am 
    81   81   80 1  
    82   82   81 1  
    83   81   84 1  
    84   82   83 2  
    85   89   82 am 
    86   84   85 1  
    87   86   87 2  
    88   88   86 1  
    89   86   97 am 
    90   88   89 1  
    91   88   90 1  
    92   90   91 1  
    93   91   92 1  
    94   92   93 1  
    95   93   94 am 
    96   94   95 2  
    97   94   96 am 
    98   97   98 1  
    99   98   99 1  
   100   98  101 1  
   101   99  100 ar 
   102   99  105 ar 
   103  101  102 1  
   104  102  103 1  
   105  102  104 1  
   106    1  106 1  
   107    1  107 1  
   108    1  108 1  
   109    2  109 1  
   110    5  110 1  
   111    5  111 1  
   112    9  112 1  
   113   10  113 1  
   114   13  114 1  
   115   14  115 1  
   116   14  116 1  
   117   15  117 1  
   118   15  118 1  
   119   15  119 1  
   120   16  120 1  
   121   16  121 1  
   122   16  122 1  
   123   17  123 1  
   124   18  124 1  
   125   21  125 1  
   126   21  126 1  
   127   23  127 1  
   128   24  128 1  
   129   25  129 1  
   130   26  130 1  
   131   27  131 1  
   132   28  132 1  
   133   29  133 1  
   134   32  134 1  
   135   32  135 1  
   136   33  136 1  
   137   33  137 1  
   138   34  138 1  
   139   38  139 1  
   140   39  140 1  
   141   40  141 1  
   142   40  142 1  
   143   41  143 1  
   144   41  144 1  
   145   42  145 1  
   146   42  146 1  
   147   43  147 1  
   148   46  148 1  
   149   46  149 1  
   150   47  150 1  
   151   48  151 1  
   152   51  152 1  
   153   52  153 1  
   154   52  154 1  
   155   53  155 1  
   156   53  156 1  
   157   53  157 1  
   158   54  158 1  
   159   54  159 1  
   160   54  160 1  
   161   55  161 1  
   162   56  162 1  
   163   59  163 1  
   164   59  164 1  
   165   59  165 1  
   166   60  166 1  
   167   61  167 1  
   168   64  168 1  
   169   64  169 1  
   170   65  170 1  
   171   66  171 1  
   172   67  172 1  
   173   70  173 1  
   174   70  174 1  
   175   71  175 1  
   176   71  176 1  
   177   75  177 1  
   178   76  178 1  
   179   79  179 1  
   180   79  180 1  
   181   79  181 1  
   182   80  182 1  
   183   81  183 1  
   184   84  184 1  
   185   84  185 1  
   186   85  186 1  
   187   88  187 1  
   188   89  188 1  
   189   90  189 1  
   190   90  190 1  
   191   91  191 1  
   192   91  192 1  
   193   92  193 1  
   194   92  194 1  
   195   93  195 1  
   196   96  196 1  
   197   96  197 1  
   198   97  198 1  
   199   98  199 1  
   200  101  200 1  
   201  101  201 1  
   202  102  202 1  
   203  103  203 1  
   204  103  204 1  
   205  103  205 1  
   206  104  206 1  
   207  104  207 1  
   208  104  208 1  
@<TRIPOS>SUBSTRUCTURE
     1 ASP         1

