1rry_ligand
  -I-interpret- 

 22 22  0  0  0  0  0  0  0  0999 V2000
   51.3450   47.2590   71.5030 C   0  0  0  0  0
   50.0950   47.8670   72.1010 C   0  0  0  0  0
   49.7930   47.1800   73.3110 O   0  0  0  0  0
   48.6980   47.5250   74.0390 C   0  0  0  0  0
   47.9600   48.4380   73.6740 O   0  0  0  0  0
   48.4060   46.7720   75.2910 C   0  0  0  0  0
   49.2530   45.7290   75.7220 C   0  0  0  0  0
   48.9870   45.0360   76.8640 N   0  0  0  0  0
   47.9040   45.3210   77.6110 C   0  0  0  0  0
   47.6520   44.5870   78.7770 N   0  0  0  0  0
   47.0600   46.3070   77.2340 N   0  0  0  0  0
   47.2720   47.0460   76.1100 C   0  0  0  0  0
   46.3850   48.0410   75.7740 O   0  0  0  0  0
   52.1707   47.3633   72.2068 H   0  0  0  0  0
   51.1715   46.2025   71.2984 H   0  0  0  0  0
   51.5900   47.7748   70.5745 H   0  0  0  0  0
   49.2640   47.7723   71.4020 H   0  0  0  0  0
   50.2567   48.9256   72.3045 H   0  0  0  0  0
   50.1334   45.4740   75.1321 H   0  0  0  0  0
   48.2878   43.8402   79.0569 H   0  0  0  0  0
   46.8327   44.7993   79.3462 H   0  0  0  0  0
   46.2402   46.5034   77.8082 H   0  0  0  0  0
  1  2  1  0  0  0
  2  3  1  0  0  0
  3  4  1  0  0  0
  4  5  2  0  0  0
  4  6  1  0  0  0
  6  7  2  0  0  0
  6 12  1  0  0  0
  7  8  1  0  0  0
  8  9  2  0  0  0
  9 10  1  0  0  0
  9 11  1  0  0  0
 11 12  1  0  0  0
 12 13  2  0  0  0
  1 14  1  0  0  0
  1 15  1  0  0  0
  1 16  1  0  0  0
  2 17  1  0  0  0
  2 18  1  0  0  0
  7 19  1  0  0  0
 10 20  1  0  0  0
 10 21  1  0  0  0
 11 22  1  0  0  0
M  END
$$$$
