4zt7_ligand
  -I-interpret- 

 46 49  0  0  0  0  0  0  0  0999 V2000
  -43.2490   17.6980   15.9680 C   0  0  0  0  0
  -41.3380   11.4110    8.5450 N   0  3  0  0  0
  -42.6220   15.9090   14.4820 C   0  0  0  0  0
  -44.0350   14.5800   13.4280 N   0  0  0  0  0
  -43.4820   12.6090   11.4070 C   0  0  0  0  0
  -42.8040   11.5830   10.5230 C   0  0  0  0  0
  -42.5090   12.0750    9.1260 C   0  0  0  0  0
  -40.1790   10.7070    6.5380 C   0  0  0  0  0
  -41.3010   17.0120    6.9980 Cl  0  0  0  0  0
  -40.3800   15.5360    7.0350 C   0  0  0  0  0
  -39.0040   15.6070    7.0700 C   0  0  0  0  0
  -38.2840   14.4290    7.1210 C   0  0  0  0  0
  -36.5460   14.5330    7.1680 Cl  0  0  0  0  0
  -41.0440   14.3240    7.0500 C   0  0  0  0  0
  -40.3200   13.1270    7.1100 C   0  0  0  0  0
  -38.9140   13.1760    7.1410 C   0  0  0  0  0
  -38.1830   12.0000    7.1880 N   0  0  0  0  0
  -38.8070   10.6760    7.1920 C   0  0  0  0  0
  -41.0540   11.7960    7.1540 C   0  0  0  0  0
  -42.5040   13.4750   12.0480 N   0  0  0  0  0
  -42.7700   14.3770   12.9950 C   0  0  0  0  0
  -41.8760   15.1430   13.5920 N   0  0  0  0  0
  -43.9700   15.5690   14.3830 C   0  0  0  0  0
  -44.9730   16.1790   15.0290 N   0  0  0  0  0
  -44.5430   17.2560   15.8140 C   0  0  0  0  0
  -45.5370   17.8900   16.4790 F   0  0  0  0  0
  -42.2730   16.9930   15.2870 C   0  0  0  0  0
  -43.0062   18.5574   16.5930 H   0  0  0  0  0
  -41.5288   10.4090    8.5467 H   0  0  0  0  0
  -40.5295   11.6841    9.1037 H   0  0  0  0  0
  -44.0451   12.0862   12.1801 H   0  0  0  0  0
  -44.1394   13.2215   10.7900 H   0  0  0  0  0
  -43.4838   10.7360   10.4307 H   0  0  0  0  0
  -41.8492   11.3365   10.9874 H   0  0  0  0  0
  -43.3721   11.8545    8.4979 H   0  0  0  0  0
  -42.3035   13.1442    9.1777 H   0  0  0  0  0
  -40.6617    9.7419    6.6917 H   0  0  0  0  0
  -40.0554   10.9169    5.4756 H   0  0  0  0  0
  -38.4953   16.5709    7.0577 H   0  0  0  0  0
  -42.1332   14.2999    7.0151 H   0  0  0  0  0
  -37.1653   12.0595    7.2213 H   0  0  0  0  0
  -38.1711    9.9921    6.6298 H   0  0  0  0  0
  -38.9239   10.3517    8.2261 H   0  0  0  0  0
  -41.9862   11.9037    6.5995 H   0  0  0  0  0
  -41.5332   13.3851   11.7483 H   0  0  0  0  0
  -41.2272   17.2858   15.3799 H   0  0  0  0  0
  1 25  4  0  0  0
 27  1  4  0  0  0
  7  2  1  0  0  0
  2 19  1  0  0  0
  3 22  4  0  0  0
 23  3  4  0  0  0
  3 27  4  0  0  0
 21  4  4  0  0  0
  4 23  4  0  0  0
  5  6  1  0  0  0
 20  5  1  0  0  0
  6  7  1  0  0  0
  8 18  1  0  0  0
 19  8  1  0  0  0
 10  9  1  0  0  0
 10 11  4  0  0  0
 14 10  4  0  0  0
 12 11  4  0  0  0
 12 13  1  0  0  0
 16 12  4  0  0  0
 15 14  4  0  0  0
 15 16  4  0  0  0
 19 15  1  0  0  0
 16 17  1  0  0  0
 18 17  1  0  0  0
 20 21  1  0  0  0
 21 22  4  0  0  0
 23 24  4  0  0  0
 24 25  4  0  0  0
 25 26  1  0  0  0
  1 28  1  0  0  0
  2 29  1  0  0  0
  2 30  1  0  0  0
  5 31  1  0  0  0
  5 32  1  0  0  0
  6 33  1  0  0  0
  6 34  1  0  0  0
  7 35  1  0  0  0
  7 36  1  0  0  0
  8 37  1  0  0  0
  8 38  1  0  0  0
 11 39  1  0  0  0
 14 40  1  0  0  0
 17 41  1  0  0  0
 18 42  1  0  0  0
 18 43  1  0  0  0
 19 44  1  0  0  0
 20 45  1  0  0  0
 27 46  1  0  0  0
M  END
$$$$
