4i0f_ligand
  -I-interpret- 

 49 52  0  0  0  0  0  0  0  0999 V2000
    9.9610  -11.3380    4.5550 Cl  0  0  0  0  0
   10.3020  -12.7740    5.5610 C   0  0  0  0  0
    9.5710  -13.9400    5.3360 C   0  0  0  0  0
    9.7600  -15.0860    6.0900 C   0  0  0  0  0
   11.2740  -12.6430    6.5280 C   0  0  0  0  0
   11.4970  -13.7740    7.3240 C   0  0  0  0  0
   10.7310  -14.9860    7.0900 C   0  0  0  0  0
   12.5080  -13.7890    8.4520 C   0  0  0  0  0
   11.9110  -14.5950    9.5930 C   0  0  0  0  0
   12.9480  -14.6400   10.6960 C   0  0  0  0  0
   10.6760  -13.8810   10.1890 C   0  0  0  0  0
   11.5830  -15.9400    9.1050 N   0  0  0  0  0
   11.0570  -16.1600    7.9690 C   0  0  0  0  0
   10.8080  -17.3620    7.4480 N   0  0  0  0  0
   10.8320  -18.6080    8.2490 C   0  0  0  0  0
   11.5300  -19.6260    7.4030 C   0  0  0  0  0
   11.7920  -20.7450    7.8910 O   0  0  0  0  0
   11.7850  -19.4380    6.2100 O   0  0  0  0  0
    9.4280  -19.1070    8.6540 C   0  0  0  0  0
    9.0840  -18.2970    9.9050 C   0  0  0  0  0
    9.6050  -18.5940   11.1740 C   0  0  0  0  0
    9.0380  -17.3900   12.3000 S   0  0  0  0  0
    8.0440  -16.4370   11.2510 C   0  0  0  0  0
    8.1860  -17.0770   10.0060 C   0  0  0  0  0
    7.5530  -16.4480    8.7970 C   0  0  0  0  0
    7.4140  -15.0330    8.6720 C   0  0  0  0  0
    6.8870  -14.8100    7.4390 N   0  0  0  0  0
    6.7150  -16.0870    6.8270 N   0  0  0  0  0
    7.1460  -17.1040    7.6620 C   0  0  0  0  0
    8.8262  -13.9497    4.5403 H   0  0  0  0  0
    9.1923  -16.0001    5.9161 H   0  0  0  0  0
   11.8341  -11.7181    6.6652 H   0  0  0  0  0
   12.7282  -12.7727    8.7788 H   0  0  0  0  0
   13.4436  -14.2378    8.1182 H   0  0  0  0  0
   13.8544  -15.1157   10.3216 H   0  0  0  0  0
   13.1762  -13.6246   11.0200 H   0  0  0  0  0
   12.5570  -15.2120   11.5374 H   0  0  0  0  0
   10.9714  -12.9028   10.5684 H   0  0  0  0  0
    9.9196  -13.7582    9.4138 H   0  0  0  0  0
   10.2693  -14.4804   11.0035 H   0  0  0  0  0
   10.5913  -17.4264    6.4534 H   0  0  0  0  0
   11.3456  -18.4263    9.1931 H   0  0  0  0  0
   11.5454  -20.7539    8.8188 H   0  0  0  0  0
    9.4134  -20.1803    8.8437 H   0  0  0  0  0
    8.6967  -18.9632    7.8586 H   0  0  0  0  0
   10.2546  -19.4355   11.4148 H   0  0  0  0  0
    7.4518  -15.5552   11.4956 H   0  0  0  0  0
    7.6777  -14.2816    9.4163 H   0  0  0  0  0
    7.1591  -18.1758    7.4641 H   0  0  0  0  0
  1  2  1  0  0  0
  2  3  4  0  0  0
  2  5  4  0  0  0
  3  4  4  0  0  0
  4  7  4  0  0  0
  5  6  4  0  0  0
  6  7  4  0  0  0
  6  8  1  0  0  0
  7 13  1  0  0  0
  8  9  1  0  0  0
  9 10  1  0  0  0
  9 11  1  0  0  0
  9 12  1  0  0  0
 12 13  2  0  0  0
 13 14  1  0  0  0
 14 15  1  0  0  0
 15 16  1  0  0  0
 15 19  1  0  0  0
 16 17  1  0  0  0
 16 18  2  0  0  0
 19 20  1  0  0  0
 20 21  4  0  0  0
 20 24  4  0  0  0
 21 22  4  0  0  0
 22 23  4  0  0  0
 23 24  4  0  0  0
 24 25  1  0  0  0
 25 26  4  0  0  0
 25 29  4  0  0  0
 26 27  4  0  0  0
 27 28  4  0  0  0
 28 29  4  0  0  0
  3 30  1  0  0  0
  4 31  1  0  0  0
  5 32  1  0  0  0
  8 33  1  0  0  0
  8 34  1  0  0  0
 10 35  1  0  0  0
 10 36  1  0  0  0
 10 37  1  0  0  0
 11 38  1  0  0  0
 11 39  1  0  0  0
 11 40  1  0  0  0
 14 41  1  0  0  0
 15 42  1  0  0  0
 17 43  1  0  0  0
 19 44  1  0  0  0
 19 45  1  0  0  0
 21 46  1  0  0  0
 23 47  1  0  0  0
 26 48  1  0  0  0
 29 49  1  0  0  0
M  END
$$$$
