4eb9_ligand
  -I-interpret- 

176184  0  0  0  0  0  0  0  0999 V2000
   37.9980   -9.7820    9.2550 C   0  0  0  0  0
   40.0560   -9.0240    8.1050 N   0  3  0  0  0
   37.4960  -10.3490    8.2820 O   0  0  0  0  0
   38.9940   -8.6330    9.0600 C   0  0  0  0  0
   38.2630   -7.3690    8.5560 C   0  0  0  0  0
   37.1850   -6.8520    9.5150 C   0  0  0  0  0
   23.7200  -30.3050   19.0240 C   0  0  0  0  0
   39.5990   -9.0670    6.6950 C   0  0  0  0  0
   20.7240  -27.8500   21.0690 C   0  0  0  0  0
   22.7280  -26.7380   19.0330 O   0  0  0  0  0
   34.7180  -12.1020   14.9330 O   0  0  0  0  0
   30.0040  -25.2860   18.5100 O   0  0  0  0  0
   35.9900   -9.6050   12.4890 O   0  0  0  0  0
   27.1990  -27.5520   18.6920 O   0  0  0  0  0
   39.6870  -12.2320   11.7210 O   0  0  0  0  0
   25.2350  -25.1020   21.9500 O   0  0  0  0  0
   33.5460   -6.5160   18.8770 C   0  0  0  0  0
   33.9070  -30.7580   18.5250 C   0  0  0  0  0
   34.3900   -6.7550   17.7890 C   0  0  0  0  0
   32.7200   -7.5360   19.3510 C   0  0  0  0  0
   34.6470  -29.8620   17.7530 C   0  0  0  0  0
   32.6730  -30.3640   19.0480 C   0  0  0  0  0
   34.4100   -8.0110   17.1800 C   0  0  0  0  0
   32.7410   -8.7890   18.7390 C   0  0  0  0  0
   34.1530  -28.5810   17.5020 C   0  0  0  0  0
   32.1830  -29.0800   18.7990 C   0  0  0  0  0
   33.2300  -17.7640   17.1540 C   0  0  0  0  0
   34.1650  -18.3780   16.3180 C   0  0  0  0  0
   31.4320  -18.7570   15.8860 C   0  0  0  0  0
   32.3650  -19.3720   15.0520 C   0  0  0  0  0
   32.5380  -12.1710   18.4460 C   0  0  0  0  0
   32.8420  -24.6220   16.5140 C   0  0  0  0  0
   22.5760  -29.6100   19.7660 C   0  0  0  0  0
   30.8350  -15.7480   17.7220 C   0  0  0  0  0
   35.6330  -20.9620   14.9760 C   0  0  0  0  0
   31.4810  -15.1150   18.9610 C   0  0  0  0  0
   34.8860  -21.9210   15.9240 C   0  0  0  0  0
   38.4020  -12.5580   12.2620 C   0  0  0  0  0
   26.1180  -24.5530   20.9600 C   0  0  0  0  0
   30.8260  -17.2780   17.8510 C   0  0  0  0  0
   34.7430  -19.8760   14.3280 C   0  0  0  0  0
   36.4460  -13.7860   11.1480 C   0  0  0  0  0
   25.7120  -23.3900   18.7130 C   0  0  0  0  0
   35.2100  -13.6980   12.0710 C   0  0  0  0  0
   27.0750  -23.4570   18.0010 C   0  0  0  0  0
   32.8470  -12.9020   12.2460 C   0  0  0  0  0
   28.2140  -24.1250   15.8960 C   0  0  0  0  0
   32.3610  -11.5520   12.7940 C   0  0  0  0  0
   28.7690  -25.4850   15.4920 C   0  0  0  0  0
   30.8500  -13.7650   19.3140 C   0  0  0  0  0
   33.9590  -22.8710   15.1690 C   0  0  0  0  0
   31.3180  -11.4570   16.8140 N   0  0  0  0  0
   34.4490  -26.0300   16.4700 N   0  0  0  0  0
   30.6690  -12.3090   17.4260 N   0  0  0  0  0
   34.8000  -25.0270   15.8350 N   0  0  0  0  0
   22.0790  -28.0130   21.6330 N   0  3  0  0  0
   33.4700  -10.2800   15.5100 N   0  0  0  0  0
   30.9870  -26.8450   17.1730 N   0  0  0  0  0
   37.7210  -10.0990   10.5220 N   0  0  0  0  0
   24.8360  -27.0460   19.7980 N   0  0  0  0  0
   23.5360  -27.3170   19.7580 C   0  0  0  0  0
   33.9990  -11.1470   14.6410 C   0  0  0  0  0
   29.9570  -26.0970   17.5890 C   0  0  0  0  0
   35.7670  -10.6750   11.9170 C   0  0  0  0  0
   26.7580  -26.4540   18.3470 C   0  0  0  0  0
   31.8610  -17.9480   16.9370 C   0  0  0  0  0
   33.7330  -19.1910   15.2680 C   0  0  0  0  0
   33.5830   -9.0300   17.6510 C   0  0  0  0  0
   32.9150  -28.1840   18.0170 C   0  0  0  0  0
   32.4960  -11.3340   17.4270 C   0  0  0  0  0
   33.2140  -25.8270   16.9170 C   0  0  0  0  0
   37.4130  -12.5570   11.0960 C   0  0  0  0  0
   25.3670  -24.5910   19.6370 C   0  0  0  0  0
   23.0910  -28.4680   20.6530 C   0  0  0  0  0
   34.2130  -12.6170   11.6310 C   0  0  0  0  0
   27.0790  -24.4690   16.8490 C   0  0  0  0  0
   33.6540  -10.8350   13.1860 C   0  0  0  0  0
   28.6720  -26.2990   16.7780 C   0  0  0  0  0
   33.6270  -10.4030   16.9690 C   0  0  0  0  0
   32.3290  -26.7750   17.7780 C   0  0  0  0  0
   36.7420  -11.1620   10.8350 C   0  0  0  0  0
   25.4030  -25.9850   18.9400 C   0  0  0  0  0
   34.6530  -11.3420   12.2200 N   0  0  0  0  0
   27.4390  -25.7800   17.4130 N   0  0  0  0  0
   31.3360  -12.7390   18.3790 N   0  0  0  0  0
   33.8970  -24.1820   15.8390 N   0  0  0  0  0
   40.3626   -9.9638    8.3562 H   0  0  0  0  0
   40.7953   -8.3239    8.1659 H   0  0  0  0  0
   39.4563   -8.4105   10.0217 H   0  0  0  0  0
   37.7670   -7.6319    7.6217 H   0  0  0  0  0
   39.0098   -6.5818    8.4526 H   0  0  0  0  0
   36.4307   -7.6249    9.6624 H   0  0  0  0  0
   37.6421   -6.6014   10.4723 H   0  0  0  0  0
   36.7183   -5.9634    9.0900 H   0  0  0  0  0
   24.2337  -29.5812   18.3912 H   0  0  0  0  0
   24.4218  -30.7196   19.7476 H   0  0  0  0  0
   23.3164  -31.1074   18.4065 H   0  0  0  0  0
   38.7903   -9.7915    6.5984 H   0  0  0  0  0
   39.2418   -8.0804    6.3999 H   0  0  0  0  0
   40.4301   -9.3607    6.0538 H   0  0  0  0  0
   20.7515  -27.1106   20.2686 H   0  0  0  0  0
   20.3800  -28.8049   20.6716 H   0  0  0  0  0
   20.0439  -27.5146   21.8520 H   0  0  0  0  0
   40.3373  -12.2230   12.4271 H   0  0  0  0  0
   25.6718  -25.0968   22.8049 H   0  0  0  0  0
   33.5330   -5.5359   19.3538 H   0  0  0  0  0
   34.2896  -31.7600   18.7190 H   0  0  0  0  0
   35.0340   -5.9590   17.4152 H   0  0  0  0  0
   32.0592   -7.3536   20.1985 H   0  0  0  0  0
   35.6121  -30.1628   17.3454 H   0  0  0  0  0
   32.0911  -31.0603   19.6519 H   0  0  0  0  0
   35.0732   -8.1954   16.3349 H   0  0  0  0  0
   32.0965   -9.5850   19.1120 H   0  0  0  0  0
   34.7367  -27.8847   16.8999 H   0  0  0  0  0
   31.2237  -28.7755   19.2175 H   0  0  0  0  0
   33.5690  -17.1383   17.9796 H   0  0  0  0  0
   35.2309  -18.2228   16.4849 H   0  0  0  0  0
   30.3661  -18.9090   15.7160 H   0  0  0  0  0
   32.0248  -19.9976   14.2268 H   0  0  0  0  0
   33.3451  -12.3503   19.1563 H   0  0  0  0  0
   31.8952  -24.1126   16.6936 H   0  0  0  0  0
   22.0810  -30.3441   20.4017 H   0  0  0  0  0
   21.8905  -29.1919   19.0288 H   0  0  0  0  0
   31.4087  -15.4681   16.8385 H   0  0  0  0  0
   29.8087  -15.3916   17.6336 H   0  0  0  0  0
   36.0381  -21.5673   14.1651 H   0  0  0  0  0
   36.3834  -20.4441   15.5733 H   0  0  0  0  0
   32.5372  -14.9510   18.7473 H   0  0  0  0  0
   31.3330  -15.7901   19.8039 H   0  0  0  0  0
   34.2787  -21.3224   16.6030 H   0  0  0  0  0
   35.6268  -22.5195   16.4542 H   0  0  0  0  0
   38.1066  -11.8315   13.0190 H   0  0  0  0  0
   38.4243  -13.5334   12.7481 H   0  0  0  0  0
   27.0412  -25.1294   20.8998 H   0  0  0  0  0
   26.4031  -23.5326   21.2162 H   0  0  0  0  0
   29.8380  -17.6352   17.5605 H   0  0  0  0  0
   31.0725  -17.5311   18.8822 H   0  0  0  0  0
   34.1568  -20.3768   13.5575 H   0  0  0  0  0
   35.4166  -19.0944   13.9766 H   0  0  0  0  0
   36.0466  -13.8826   10.1384 H   0  0  0  0  0
   37.0437  -14.6077   11.5427 H   0  0  0  0  0
   24.9563  -23.3808   17.9276 H   0  0  0  0  0
   25.7445  -22.5094   19.3545 H   0  0  0  0  0
   35.5587  -13.4424   13.0716 H   0  0  0  0  0
   34.6973  -14.6592   12.0340 H   0  0  0  0  0
   27.8227  -23.7703   18.7296 H   0  0  0  0  0
   27.2897  -22.4718   17.5871 H   0  0  0  0  0
   32.1531  -13.3105   11.5113 H   0  0  0  0  0
   32.9094  -13.6553   13.0314 H   0  0  0  0  0
   27.8761  -23.5420   15.0392 H   0  0  0  0  0
   28.9680  -23.4885   16.3591 H   0  0  0  0  0
   31.6767  -11.6659   13.6347 H   0  0  0  0  0
   31.7790  -10.9910   12.0628 H   0  0  0  0  0
   29.7876  -25.4257   15.1085 H   0  0  0  0  0
   28.2168  -25.9356   14.6673 H   0  0  0  0  0
   31.1256  -13.4895   20.3320 H   0  0  0  0  0
   29.7651  -13.8400   19.2402 H   0  0  0  0  0
   34.3443  -23.0099   14.1589 H   0  0  0  0  0
   32.9579  -22.4405   15.1446 H   0  0  0  0  0
   22.0197  -28.7269   22.3591 H   0  0  0  0  0
   22.3769  -27.0982   21.9717 H   0  0  0  0  0
   32.9312   -9.4948   15.1446 H   0  0  0  0  0
   30.8355  -27.4939   16.4008 H   0  0  0  0  0
   38.1889   -9.6035   11.2809 H   0  0  0  0  0
   25.4454  -27.5727   20.4238 H   0  0  0  0  0
   37.9906  -12.7056   10.1836 H   0  0  0  0  0
   24.3140  -24.4535   19.8826 H   0  0  0  0  0
   23.9344  -28.8373   21.2364 H   0  0  0  0  0
   34.1604  -12.5922   10.5426 H   0  0  0  0  0
   26.1097  -24.4645   16.3505 H   0  0  0  0  0
   33.5942   -9.7476   13.1398 H   0  0  0  0  0
   28.5983  -27.3797   16.6561 H   0  0  0  0  0
   34.5970  -10.8169   17.2445 H   0  0  0  0  0
   32.2829  -26.3418   18.7772 H   0  0  0  0  0
   36.1333  -11.3593    9.9526 H   0  0  0  0  0
   24.7725  -25.8145   18.0674 H   0  0  0  0  0
  1  3  2  0  0  0
  1  4  1  0  0  0
 59  1  1  0  0  0
  4  2  1  0  0  0
  2  8  1  0  0  0
  4  5  1  0  0  0
  5  6  1  0  0  0
 33  7  1  0  0  0
 56  9  1  0  0  0
 61 10  2  0  0  0
 62 11  2  0  0  0
 63 12  2  0  0  0
 64 13  2  0  0  0
 65 14  2  0  0  0
 38 15  1  0  0  0
 39 16  1  0  0  0
 19 17  4  0  0  0
 20 17  4  0  0  0
 21 18  4  0  0  0
 22 18  4  0  0  0
 23 19  4  0  0  0
 24 20  4  0  0  0
 25 21  4  0  0  0
 26 22  4  0  0  0
 68 23  4  0  0  0
 68 24  4  0  0  0
 69 25  4  0  0  0
 69 26  4  0  0  0
 28 27  4  0  0  0
 27 66  4  0  0  0
 67 28  4  0  0  0
 30 29  4  0  0  0
 29 66  4  0  0  0
 67 30  4  0  0  0
 31 70  4  0  0  0
 85 31  4  0  0  0
 71 32  4  0  0  0
 32 86  4  0  0  0
 74 33  1  0  0  0
 34 36  1  0  0  0
 40 34  1  0  0  0
 37 35  1  0  0  0
 35 41  1  0  0  0
 36 50  1  0  0  0
 51 37  1  0  0  0
 72 38  1  0  0  0
 73 39  1  0  0  0
 66 40  1  0  0  0
 41 67  1  0  0  0
 44 42  1  0  0  0
 42 72  1  0  0  0
 43 45  1  0  0  0
 73 43  1  0  0  0
 75 44  1  0  0  0
 45 76  1  0  0  0
 48 46  1  0  0  0
 46 75  1  0  0  0
 47 49  1  0  0  0
 76 47  1  0  0  0
 77 48  1  0  0  0
 49 78  1  0  0  0
 50 85  1  0  0  0
 86 51  1  0  0  0
 54 52  4  0  0  0
 52 70  4  0  0  0
 53 55  4  0  0  0
 71 53  4  0  0  0
 85 54  4  0  0  0
 55 86  4  0  0  0
 74 56  1  0  0  0
 57 62  1  0  0  0
 79 57  1  0  0  0
 63 58  1  0  0  0
 58 80  1  0  0  0
 81 59  1  0  0  0
 60 61  1  0  0  0
 82 60  1  0  0  0
 61 74  1  0  0  0
 62 77  1  0  0  0
 78 63  1  0  0  0
 81 64  1  0  0  0
 64 83  1  0  0  0
 82 65  1  0  0  0
 65 84  1  0  0  0
 79 68  1  0  0  0
 80 69  1  0  0  0
 70 79  1  0  0  0
 80 71  1  0  0  0
 72 81  1  0  0  0
 73 82  1  0  0  0
 75 83  1  0  0  0
 76 84  1  0  0  0
 77 83  1  0  0  0
 78 84  1  0  0  0
  2 87  1  0  0  0
  2 88  1  0  0  0
  4 89  1  0  0  0
  5 90  1  0  0  0
  5 91  1  0  0  0
  6 92  1  0  0  0
  6 93  1  0  0  0
  6 94  1  0  0  0
  7 95  1  0  0  0
  7 96  1  0  0  0
  7 97  1  0  0  0
  8 98  1  0  0  0
  8 99  1  0  0  0
  8100  1  0  0  0
  9101  1  0  0  0
  9102  1  0  0  0
  9103  1  0  0  0
 15104  1  0  0  0
 16105  1  0  0  0
 17106  1  0  0  0
 18107  1  0  0  0
 19108  1  0  0  0
 20109  1  0  0  0
 21110  1  0  0  0
 22111  1  0  0  0
 23112  1  0  0  0
 24113  1  0  0  0
 25114  1  0  0  0
 26115  1  0  0  0
 27116  1  0  0  0
 28117  1  0  0  0
 29118  1  0  0  0
 30119  1  0  0  0
 31120  1  0  0  0
 32121  1  0  0  0
 33122  1  0  0  0
 33123  1  0  0  0
 34124  1  0  0  0
 34125  1  0  0  0
 35126  1  0  0  0
 35127  1  0  0  0
 36128  1  0  0  0
 36129  1  0  0  0
 37130  1  0  0  0
 37131  1  0  0  0
 38132  1  0  0  0
 38133  1  0  0  0
 39134  1  0  0  0
 39135  1  0  0  0
 40136  1  0  0  0
 40137  1  0  0  0
 41138  1  0  0  0
 41139  1  0  0  0
 42140  1  0  0  0
 42141  1  0  0  0
 43142  1  0  0  0
 43143  1  0  0  0
 44144  1  0  0  0
 44145  1  0  0  0
 45146  1  0  0  0
 45147  1  0  0  0
 46148  1  0  0  0
 46149  1  0  0  0
 47150  1  0  0  0
 47151  1  0  0  0
 48152  1  0  0  0
 48153  1  0  0  0
 49154  1  0  0  0
 49155  1  0  0  0
 50156  1  0  0  0
 50157  1  0  0  0
 51158  1  0  0  0
 51159  1  0  0  0
 56160  1  0  0  0
 56161  1  0  0  0
 57162  1  0  0  0
 58163  1  0  0  0
 59164  1  0  0  0
 60165  1  0  0  0
 72166  1  0  0  0
 73167  1  0  0  0
 74168  1  0  0  0
 75169  1  0  0  0
 76170  1  0  0  0
 77171  1  0  0  0
 78172  1  0  0  0
 79173  1  0  0  0
 80174  1  0  0  0
 81175  1  0  0  0
 82176  1  0  0  0
M  END
$$$$
