### 
### Created by X-TOOL on Mon Sep 10 21:13:12 2018
### 

@<TRIPOS>MOLECULE
4eb9_ligand
  176   184     1     0     0
SMALL
GAST_HUCK


@<TRIPOS>ATOM
      1 C          37.9980   -9.7820    9.2550 C.2       1 0O6         0.2268
      2 N          40.0560   -9.0240    8.1050 N.4       1 0O6         0.2439
      3 O          37.4960  -10.3490    8.2820 O.2       1 0O6        -0.3907
      4 CA         38.9940   -8.6330    9.0600 C.3       1 0O6         0.0663
      5 CB         38.2630   -7.3690    8.5560 C.3       1 0O6         0.0051
      6 CAA        37.1850   -6.8520    9.5150 C.3       1 0O6        -0.0580
      7 CAB        23.7200  -30.3050   19.0240 C.3       1 0O6        -0.0580
      8 CAC        39.5990   -9.0670    6.6950 C.3       1 0O6        -0.0428
      9 CAD        20.7240  -27.8500   21.0690 C.3       1 0O6        -0.0428
     10 OAF        22.7280  -26.7380   19.0330 O.2       1 0O6        -0.3907
     11 OAG        34.7180  -12.1020   14.9330 O.2       1 0O6        -0.3942
     12 OAH        30.0040  -25.2860   18.5100 O.2       1 0O6        -0.3942
     13 OAI        35.9900   -9.6050   12.4890 O.2       1 0O6        -0.3942
     14 OAJ        27.1990  -27.5520   18.6920 O.2       1 0O6        -0.3942
     15 OAK        39.6870  -12.2320   11.7210 O.3       1 0O6        -0.3945
     16 OAL        25.2350  -25.1020   21.9500 O.3       1 0O6        -0.3945
     17 CAM        33.5460   -6.5160   18.8770 C.ar      1 0O6        -0.0687
     18 CAN        33.9070  -30.7580   18.5250 C.ar      1 0O6        -0.0687
     19 CAO        34.3900   -6.7550   17.7890 C.ar      1 0O6        -0.0684
     20 CAP        32.7200   -7.5360   19.3510 C.ar      1 0O6        -0.0684
     21 CAQ        34.6470  -29.8620   17.7530 C.ar      1 0O6        -0.0684
     22 CAR        32.6730  -30.3640   19.0480 C.ar      1 0O6        -0.0684
     23 CAS        34.4100   -8.0110   17.1800 C.ar      1 0O6        -0.0569
     24 CAT        32.7410   -8.7890   18.7390 C.ar      1 0O6        -0.0569
     25 CAU        34.1530  -28.5810   17.5020 C.ar      1 0O6        -0.0569
     26 CAV        32.1830  -29.0800   18.7990 C.ar      1 0O6        -0.0569
     27 CAW        33.2300  -17.7640   17.1540 C.ar      1 0O6        -0.0668
     28 CAX        34.1650  -18.3780   16.3180 C.ar      1 0O6        -0.0668
     29 CAY        31.4320  -18.7570   15.8860 C.ar      1 0O6        -0.0668
     30 CAZ        32.3650  -19.3720   15.0520 C.ar      1 0O6        -0.0668
     31 CBA        32.5380  -12.1710   18.4460 C.2       1 0O6         0.0740
     32 CBB        32.8420  -24.6220   16.5140 C.2       1 0O6         0.0740
     33 CBD        22.5760  -29.6100   19.7660 C.3       1 0O6         0.0051
     34 CBE        30.8350  -15.7480   17.7220 C.3       1 0O6        -0.0414
     35 CBF        35.6330  -20.9620   14.9760 C.3       1 0O6        -0.0414
     36 CBG        31.4810  -15.1150   18.9610 C.3       1 0O6        -0.0208
     37 CBH        34.8860  -21.9210   15.9240 C.3       1 0O6        -0.0208
     38 CBI        38.4020  -12.5580   12.2620 C.3       1 0O6         0.0512
     39 CBJ        26.1180  -24.5530   20.9600 C.3       1 0O6         0.0512
     40 CBK        30.8260  -17.2780   17.8510 C.3       1 0O6        -0.0222
     41 CBL        34.7430  -19.8760   14.3280 C.3       1 0O6        -0.0222
     42 CBM        36.4460  -13.7860   11.1480 C.3       1 0O6        -0.0418
     43 CBN        25.7120  -23.3900   18.7130 C.3       1 0O6        -0.0418
     44 CBO        35.2100  -13.6980   12.0710 C.3       1 0O6        -0.0289
     45 CBP        27.0750  -23.4570   18.0010 C.3       1 0O6        -0.0289
     46 CBQ        32.8470  -12.9020   12.2460 C.3       1 0O6        -0.0253
     47 CBR        28.2140  -24.1250   15.8960 C.3       1 0O6        -0.0253
     48 CBS        32.3610  -11.5520   12.7940 C.3       1 0O6        -0.0101
     49 CBT        28.7690  -25.4850   15.4920 C.3       1 0O6        -0.0101
     50 CBU        30.8500  -13.7650   19.3140 C.3       1 0O6         0.0757
     51 CBV        33.9590  -22.8710   15.1690 C.3       1 0O6         0.0757
     52 NBW        31.3180  -11.4570   16.8140 N.2       1 0O6        -0.2219
     53 NBX        34.4490  -26.0300   16.4700 N.2       1 0O6        -0.2219
     54 NBY        30.6690  -12.3090   17.4260 N.2       1 0O6        -0.1014
     55 NBZ        34.8000  -25.0270   15.8350 N.2       1 0O6        -0.1014
     56 NCB        22.0790  -28.0130   21.6330 N.4       1 0O6         0.2439
     57 NCC        33.4700  -10.2800   15.5100 N.am      1 0O6        -0.2629
     58 NCD        30.9870  -26.8450   17.1730 N.am      1 0O6        -0.2629
     59 NCE        37.7210  -10.0990   10.5220 N.am      1 0O6        -0.2607
     60 NCF        24.8360  -27.0460   19.7980 N.am      1 0O6        -0.2607
     61 CCH        23.5360  -27.3170   19.7580 C.2       1 0O6         0.2268
     62 CCI        33.9990  -11.1470   14.6410 C.2       1 0O6         0.2053
     63 CCJ        29.9570  -26.0970   17.5890 C.2       1 0O6         0.2053
     64 CCK        35.7670  -10.6750   11.9170 C.2       1 0O6         0.2070
     65 CCL        26.7580  -26.4540   18.3470 C.2       1 0O6         0.2070
     66 CCM        31.8610  -17.9480   16.9370 C.ar      1 0O6        -0.0497
     67 CCN        33.7330  -19.1910   15.2680 C.ar      1 0O6        -0.0497
     68 CCO        33.5830   -9.0300   17.6510 C.ar      1 0O6        -0.0103
     69 CCP        32.9150  -28.1840   18.0170 C.ar      1 0O6        -0.0103
     70 CCQ        32.4960  -11.3340   17.4270 C.2       1 0O6         0.0734
     71 CCR        33.2140  -25.8270   16.9170 C.2       1 0O6         0.0734
     72 CCS        37.4130  -12.5570   11.0960 C.3       1 0O6         0.0226
     73 CCT        25.3670  -24.5910   19.6370 C.3       1 0O6         0.0226
     74 CCV        23.0910  -28.4680   20.6530 C.3       1 0O6         0.0663
     75 CCW        34.2130  -12.6170   11.6310 C.3       1 0O6         0.0481
     76 CCX        27.0790  -24.4690   16.8490 C.3       1 0O6         0.0481
     77 CCY        33.6540  -10.8350   13.1860 C.3       1 0O6         0.1342
     78 CCZ        28.6720  -26.2990   16.7780 C.3       1 0O6         0.1342
     79 CDA        33.6270  -10.4030   16.9690 C.3       1 0O6         0.1096
     80 CDB        32.3290  -26.7750   17.7780 C.3       1 0O6         0.1096
     81 CDC        36.7420  -11.1620   10.8350 C.3       1 0O6         0.1362
     82 CDD        25.4030  -25.9850   18.9400 C.3       1 0O6         0.1362
     83 NDE        34.6530  -11.3420   12.2200 N.am      1 0O6        -0.2468
     84 NDF        27.4390  -25.7800   17.4130 N.am      1 0O6        -0.2468
     85 NDG        31.3360  -12.7390   18.3790 N.pl3     1 0O6        -0.1805
     86 NDH        33.8970  -24.1820   15.8390 N.pl3     1 0O6        -0.1805
     87 H          40.3626   -9.9638    8.3562 H         1 0O6         0.2032
     88 H          40.7953   -8.3239    8.1659 H         1 0O6         0.2032
     89 H          39.4563   -8.4105   10.0217 H         1 0O6         0.1099
     90 H          37.7670   -7.6319    7.6217 H         1 0O6         0.0343
     91 H          39.0098   -6.5818    8.4526 H         1 0O6         0.0343
     92 H          36.4307   -7.6249    9.6624 H         1 0O6         0.0233
     93 H          37.6421   -6.6014   10.4723 H         1 0O6         0.0233
     94 H          36.7183   -5.9634    9.0900 H         1 0O6         0.0233
     95 H          24.2337  -29.5812   18.3912 H         1 0O6         0.0233
     96 H          24.4218  -30.7196   19.7476 H         1 0O6         0.0233
     97 H          23.3164  -31.1074   18.4065 H         1 0O6         0.0233
     98 H          38.7903   -9.7915    6.5984 H         1 0O6         0.0777
     99 H          39.2418   -8.0804    6.3999 H         1 0O6         0.0777
    100 H          40.4301   -9.3607    6.0538 H         1 0O6         0.0777
    101 H          20.7515  -27.1106   20.2686 H         1 0O6         0.0777
    102 H          20.3800  -28.8049   20.6716 H         1 0O6         0.0777
    103 H          20.0439  -27.5146   21.8520 H         1 0O6         0.0777
    104 H          40.3373  -12.2230   12.4271 H         1 0O6         0.2094
    105 H          25.6718  -25.0968   22.8049 H         1 0O6         0.2094
    106 H          33.5330   -5.5359   19.3538 H         1 0O6         0.0559
    107 H          34.2896  -31.7600   18.7190 H         1 0O6         0.0559
    108 H          35.0340   -5.9590   17.4152 H         1 0O6         0.0599
    109 H          32.0592   -7.3536   20.1985 H         1 0O6         0.0599
    110 H          35.6121  -30.1628   17.3454 H         1 0O6         0.0599
    111 H          32.0911  -31.0603   19.6519 H         1 0O6         0.0599
    112 H          35.0732   -8.1954   16.3349 H         1 0O6         0.0559
    113 H          32.0965   -9.5850   19.1120 H         1 0O6         0.0559
    114 H          34.7367  -27.8847   16.8999 H         1 0O6         0.0559
    115 H          31.2237  -28.7755   19.2175 H         1 0O6         0.0559
    116 H          33.5690  -17.1383   17.9796 H         1 0O6         0.0540
    117 H          35.2309  -18.2228   16.4849 H         1 0O6         0.0540
    118 H          30.3661  -18.9090   15.7160 H         1 0O6         0.0540
    119 H          32.0248  -19.9976   14.2268 H         1 0O6         0.0540
    120 H          33.3451  -12.3503   19.1563 H         1 0O6         0.0907
    121 H          31.8952  -24.1126   16.6936 H         1 0O6         0.0907
    122 H          22.0810  -30.3441   20.4017 H         1 0O6         0.0343
    123 H          21.8905  -29.1919   19.0288 H         1 0O6         0.0343
    124 H          31.4087  -15.4681   16.8385 H         1 0O6         0.0287
    125 H          29.8087  -15.3916   17.6336 H         1 0O6         0.0287
    126 H          36.0381  -21.5673   14.1651 H         1 0O6         0.0287
    127 H          36.3834  -20.4441   15.5733 H         1 0O6         0.0287
    128 H          32.5372  -14.9510   18.7473 H         1 0O6         0.0296
    129 H          31.3330  -15.7901   19.8039 H         1 0O6         0.0296
    130 H          34.2787  -21.3224   16.6030 H         1 0O6         0.0296
    131 H          35.6268  -22.5195   16.4542 H         1 0O6         0.0296
    132 H          38.1066  -11.8315   13.0190 H         1 0O6         0.0562
    133 H          38.4243  -13.5334   12.7481 H         1 0O6         0.0562
    134 H          27.0412  -25.1294   20.8998 H         1 0O6         0.0562
    135 H          26.4031  -23.5326   21.2162 H         1 0O6         0.0562
    136 H          29.8380  -17.6352   17.5605 H         1 0O6         0.0413
    137 H          31.0725  -17.5311   18.8822 H         1 0O6         0.0413
    138 H          34.1568  -20.3768   13.5575 H         1 0O6         0.0413
    139 H          35.4166  -19.0944   13.9766 H         1 0O6         0.0413
    140 H          36.0466  -13.8826   10.1384 H         1 0O6         0.0272
    141 H          37.0437  -14.6077   11.5427 H         1 0O6         0.0272
    142 H          24.9563  -23.3808   17.9276 H         1 0O6         0.0272
    143 H          25.7445  -22.5094   19.3545 H         1 0O6         0.0272
    144 H          35.5587  -13.4424   13.0716 H         1 0O6         0.0288
    145 H          34.6973  -14.6592   12.0340 H         1 0O6         0.0288
    146 H          27.8227  -23.7703   18.7296 H         1 0O6         0.0288
    147 H          27.2897  -22.4718   17.5871 H         1 0O6         0.0288
    148 H          32.1531  -13.3105   11.5113 H         1 0O6         0.0290
    149 H          32.9094  -13.6553   13.0314 H         1 0O6         0.0290
    150 H          27.8761  -23.5420   15.0392 H         1 0O6         0.0290
    151 H          28.9680  -23.4885   16.3591 H         1 0O6         0.0290
    152 H          31.6767  -11.6659   13.6347 H         1 0O6         0.0313
    153 H          31.7790  -10.9910   12.0628 H         1 0O6         0.0313
    154 H          29.7876  -25.4257   15.1085 H         1 0O6         0.0313
    155 H          28.2168  -25.9356   14.6673 H         1 0O6         0.0313
    156 H          31.1256  -13.4895   20.3320 H         1 0O6         0.0648
    157 H          29.7651  -13.8400   19.2402 H         1 0O6         0.0648
    158 H          34.3443  -23.0099   14.1589 H         1 0O6         0.0648
    159 H          32.9579  -22.4405   15.1446 H         1 0O6         0.0648
    160 H          22.0197  -28.7269   22.3591 H         1 0O6         0.2032
    161 H          22.3769  -27.0982   21.9717 H         1 0O6         0.2032
    162 H          32.9312   -9.4948   15.1446 H         1 0O6         0.1901
    163 H          30.8355  -27.4939   16.4008 H         1 0O6         0.1901
    164 H          38.1889   -9.6035   11.2809 H         1 0O6         0.1885
    165 H          25.4454  -27.5727   20.4238 H         1 0O6         0.1885
    166 H          37.9906  -12.7056   10.1836 H         1 0O6         0.0370
    167 H          24.3140  -24.4535   19.8826 H         1 0O6         0.0370
    168 H          23.9344  -28.8373   21.2364 H         1 0O6         0.1099
    169 H          34.1604  -12.5922   10.5426 H         1 0O6         0.0560
    170 H          26.1097  -24.4645   16.3505 H         1 0O6         0.0560
    171 H          33.5942   -9.7476   13.1398 H         1 0O6         0.0802
    172 H          28.5983  -27.3797   16.6561 H         1 0O6         0.0802
    173 H          34.5970  -10.8169   17.2445 H         1 0O6         0.0834
    174 H          32.2829  -26.3418   18.7772 H         1 0O6         0.0834
    175 H          36.1333  -11.3593    9.9526 H         1 0O6         0.0803
    176 H          24.7725  -25.8145   18.0674 H         1 0O6         0.0803
@<TRIPOS>BOND
     1    1    3 2  
     2    1    4 1  
     3   59    1 am 
     4    4    2 1  
     5    2    8 1  
     6    4    5 1  
     7    5    6 1  
     8   33    7 1  
     9   56    9 1  
    10   61   10 2  
    11   62   11 2  
    12   63   12 2  
    13   64   13 2  
    14   65   14 2  
    15   38   15 1  
    16   39   16 1  
    17   19   17 ar 
    18   20   17 ar 
    19   21   18 ar 
    20   22   18 ar 
    21   23   19 ar 
    22   24   20 ar 
    23   25   21 ar 
    24   26   22 ar 
    25   68   23 ar 
    26   68   24 ar 
    27   69   25 ar 
    28   69   26 ar 
    29   28   27 ar 
    30   27   66 ar 
    31   67   28 ar 
    32   30   29 ar 
    33   29   66 ar 
    34   67   30 ar 
    35   31   70 2  
    36   85   31 1  
    37   71   32 2  
    38   32   86 1  
    39   74   33 1  
    40   34   36 1  
    41   40   34 1  
    42   37   35 1  
    43   35   41 1  
    44   36   50 1  
    45   51   37 1  
    46   72   38 1  
    47   73   39 1  
    48   66   40 1  
    49   41   67 1  
    50   44   42 1  
    51   42   72 1  
    52   43   45 1  
    53   73   43 1  
    54   75   44 1  
    55   45   76 1  
    56   48   46 1  
    57   46   75 1  
    58   47   49 1  
    59   76   47 1  
    60   77   48 1  
    61   49   78 1  
    62   50   85 1  
    63   86   51 1  
    64   54   52 2  
    65   52   70 1  
    66   53   55 2  
    67   71   53 1  
    68   85   54 1  
    69   55   86 1  
    70   74   56 1  
    71   57   62 am 
    72   79   57 1  
    73   63   58 am 
    74   58   80 1  
    75   81   59 1  
    76   60   61 am 
    77   82   60 1  
    78   61   74 1  
    79   62   77 1  
    80   78   63 1  
    81   81   64 1  
    82   64   83 am 
    83   82   65 1  
    84   65   84 am 
    85   79   68 1  
    86   80   69 1  
    87   70   79 1  
    88   80   71 1  
    89   72   81 1  
    90   73   82 1  
    91   75   83 1  
    92   76   84 1  
    93   77   83 1  
    94   78   84 1  
    95    2   87 1  
    96    2   88 1  
    97    4   89 1  
    98    5   90 1  
    99    5   91 1  
   100    6   92 1  
   101    6   93 1  
   102    6   94 1  
   103    7   95 1  
   104    7   96 1  
   105    7   97 1  
   106    8   98 1  
   107    8   99 1  
   108    8  100 1  
   109    9  101 1  
   110    9  102 1  
   111    9  103 1  
   112   15  104 1  
   113   16  105 1  
   114   17  106 1  
   115   18  107 1  
   116   19  108 1  
   117   20  109 1  
   118   21  110 1  
   119   22  111 1  
   120   23  112 1  
   121   24  113 1  
   122   25  114 1  
   123   26  115 1  
   124   27  116 1  
   125   28  117 1  
   126   29  118 1  
   127   30  119 1  
   128   31  120 1  
   129   32  121 1  
   130   33  122 1  
   131   33  123 1  
   132   34  124 1  
   133   34  125 1  
   134   35  126 1  
   135   35  127 1  
   136   36  128 1  
   137   36  129 1  
   138   37  130 1  
   139   37  131 1  
   140   38  132 1  
   141   38  133 1  
   142   39  134 1  
   143   39  135 1  
   144   40  136 1  
   145   40  137 1  
   146   41  138 1  
   147   41  139 1  
   148   42  140 1  
   149   42  141 1  
   150   43  142 1  
   151   43  143 1  
   152   44  144 1  
   153   44  145 1  
   154   45  146 1  
   155   45  147 1  
   156   46  148 1  
   157   46  149 1  
   158   47  150 1  
   159   47  151 1  
   160   48  152 1  
   161   48  153 1  
   162   49  154 1  
   163   49  155 1  
   164   50  156 1  
   165   50  157 1  
   166   51  158 1  
   167   51  159 1  
   168   56  160 1  
   169   56  161 1  
   170   57  162 1  
   171   58  163 1  
   172   59  164 1  
   173   60  165 1  
   174   72  166 1  
   175   73  167 1  
   176   74  168 1  
   177   75  169 1  
   178   76  170 1  
   179   77  171 1  
   180   78  172 1  
   181   79  173 1  
   182   80  174 1  
   183   81  175 1  
   184   82  176 1  
@<TRIPOS>SUBSTRUCTURE
     1 0O6         1

