2xmy_ligand
  -I-interpret- 

 50 52  0  0  0  0  0  0  0  0999 V2000
   29.4980   31.1520   26.4930 C   0  0  0  0  0
   28.6540   30.1220   25.7410 C   0  0  0  0  0
   29.1410   29.3670   24.7430 N   0  0  0  0  0
   30.5450   29.4560   24.2860 C   0  0  0  0  0
   28.2630   28.5150   24.1930 C   0  0  0  0  0
   28.5090   27.7220   23.2860 O   0  0  0  0  0
   26.7570   28.6600   24.9740 S   0  0  0  0  0
   27.3150   29.8520   26.0450 C   0  0  0  0  0
   26.5150   30.4950   26.9850 C   0  0  0  0  0
   25.5090   29.8410   27.5940 N   0  0  0  0  0
   26.7310   31.8440   27.2430 C   0  0  0  0  0
   25.9060   32.4940   28.1460 C   0  0  0  0  0
   24.9240   31.8210   28.7180 N   0  0  0  0  0
   24.7120   30.5280   28.4380 C   0  0  0  0  0
   23.7130   29.9770   29.1090 N   0  0  0  0  0
   23.1060   28.8330   28.8340 C   0  0  0  0  0
   22.1780   28.4250   29.7840 C   0  0  0  0  0
   21.4380   27.2680   29.6190 C   0  0  0  0  0
   23.2980   28.0950   27.6740 C   0  0  0  0  0
   22.5450   26.9330   27.4920 C   0  0  0  0  0
   21.6290   26.5230   28.4640 C   0  0  0  0  0
   20.6350   25.0970   28.2840 S   0  0  0  0  0
   19.4840   25.4450   27.3850 O   0  0  0  0  0
   20.0620   24.7470   29.6370 O   0  0  0  0  0
   21.4760   23.8290   27.6680 N   0  0  0  0  0
   20.6200   22.6290   27.6210 C   0  0  0  0  0
   20.7430   21.8030   28.9100 C   0  0  0  0  0
   19.6010   21.9430   29.7940 O   0  0  0  0  0
   19.2510   20.6700   30.3310 C   0  0  0  0  0
   29.0383   32.1357   26.3978 H   0  0  0  0  0
   29.5531   30.8757   27.5459 H   0  0  0  0  0
   30.5020   31.1761   26.0694 H   0  0  0  0  0
   31.0307   28.4892   24.4180 H   0  0  0  0  0
   30.5658   29.7337   23.2322 H   0  0  0  0  0
   31.0695   30.2105   24.8723 H   0  0  0  0  0
   27.5366   32.3814   26.7427 H   0  0  0  0  0
   26.0650   33.5464   28.3813 H   0  0  0  0  0
   23.3749   30.4880   29.9245 H   0  0  0  0  0
   22.0298   29.0297   30.6787 H   0  0  0  0  0
   20.7227   26.9495   30.3773 H   0  0  0  0  0
   24.0198   28.4151   26.9226 H   0  0  0  0  0
   22.6728   26.3418   26.5852 H   0  0  0  0  0
   22.4485   23.8657   27.3624 H   0  0  0  0  0
   20.9368   22.0102   26.7815 H   0  0  0  0  0
   19.5833   22.9471   27.5110 H   0  0  0  0  0
   21.6210   22.1610   29.4476 H   0  0  0  0  0
   20.8102   20.7536   28.6231 H   0  0  0  0  0
   18.9977   19.9909   29.5169 H   0  0  0  0  0
   20.0956   20.2687   30.8912 H   0  0  0  0  0
   18.3930   20.7803   30.9941 H   0  0  0  0  0
  1  2  1  0  0  0
  2  3  1  0  0  0
  2  8  2  0  0  0
  3  4  1  0  0  0
  3  5  1  0  0  0
  5  6  2  0  0  0
  5  7  1  0  0  0
  7  8  1  0  0  0
  8  9  1  0  0  0
  9 10  4  0  0  0
  9 11  4  0  0  0
 10 14  4  0  0  0
 11 12  4  0  0  0
 12 13  4  0  0  0
 13 14  4  0  0  0
 14 15  1  0  0  0
 15 16  1  0  0  0
 16 17  4  0  0  0
 16 19  4  0  0  0
 17 18  4  0  0  0
 18 21  4  0  0  0
 19 20  4  0  0  0
 20 21  4  0  0  0
 21 22  1  0  0  0
 22 23  2  0  0  0
 22 24  2  0  0  0
 22 25  1  0  0  0
 25 26  1  0  0  0
 26 27  1  0  0  0
 27 28  1  0  0  0
 28 29  1  0  0  0
  1 30  1  0  0  0
  1 31  1  0  0  0
  1 32  1  0  0  0
  4 33  1  0  0  0
  4 34  1  0  0  0
  4 35  1  0  0  0
 11 36  1  0  0  0
 12 37  1  0  0  0
 15 38  1  0  0  0
 17 39  1  0  0  0
 18 40  1  0  0  0
 19 41  1  0  0  0
 20 42  1  0  0  0
 25 43  1  0  0  0
 26 44  1  0  0  0
 26 45  1  0  0  0
 27 46  1  0  0  0
 27 47  1  0  0  0
 29 48  1  0  0  0
 29 49  1  0  0  0
 29 50  1  0  0  0
M  END
$$$$
