3k84_ligand
  -I-interpret- 

 69 70  0  0  0  0  0  0  0  0999 V2000
  -45.0810   -4.5670   -2.3610 C   0  0  0  0  0
  -45.2890   -4.7110   -3.7330 C   0  0  0  0  0
  -46.4020   -5.3370   -4.2920 C   0  0  0  0  0
  -46.3200   -5.3840   -5.8220 C   0  0  0  0  0
  -47.4210   -6.2670   -6.4070 C   0  0  0  0  0
  -47.4630   -7.6670   -5.7900 C   0  0  0  0  0
  -48.3180   -8.6170   -6.6350 C   0  0  0  0  0
  -48.4640  -10.0000   -5.9810 C   0  0  0  0  0
  -47.1330  -10.7560   -5.9370 C   0  0  0  0  0
  -46.5910  -11.0730   -7.3330 C   0  0  0  0  0
  -52.0980    1.0650   -1.3990 O   0  0  0  0  0
  -46.5020    6.3830   -3.7080 C   0  0  0  0  0
  -46.2620    5.0520   -3.3570 C   0  0  0  0  0
  -47.7100    6.9830   -3.3180 C   0  0  0  0  0
  -47.2280    4.3730   -2.6120 C   0  0  0  0  0
  -50.2780    4.8930   -0.7460 N   0  0  0  0  0
  -48.5370   -2.4670   -0.3520 C   0  0  0  0  0
  -49.8260   -2.0530   -1.0220 C   0  0  0  0  0
  -47.7100   -3.2800   -1.3180 C   0  0  0  0  0
  -50.5440   -1.0420   -0.1470 C   0  0  0  0  0
  -46.5590   -3.9240   -0.5590 C   0  0  0  0  0
  -49.9990    0.3710   -0.3870 C   0  0  0  0  0
  -48.6180    6.3130   -2.6110 N   0  0  0  0  0
  -50.9620    3.9840   -0.2590 N   0  0  0  0  0
  -49.4640    3.0140   -1.5440 O   0  0  0  0  0
  -45.9580   -5.0500   -1.3960 C   0  0  0  0  0
  -48.4030    5.0340   -2.2580 C   0  0  0  0  0
  -49.3570    4.3650   -1.5330 C   0  0  0  0  0
  -50.5260    2.8040   -0.7030 C   0  0  0  0  0
  -51.1380    1.4050   -0.3670 C   0  0  0  0  0
  -44.1825   -4.0478   -2.0275 H   0  0  0  0  0
  -44.5347   -4.3092   -4.4095 H   0  0  0  0  0
  -47.2901   -4.7695   -4.0137 H   0  0  0  0  0
  -46.4426   -6.3606   -3.9194 H   0  0  0  0  0
  -45.3531   -5.7992   -6.1062 H   0  0  0  0  0
  -46.4431   -4.3723   -6.2084 H   0  0  0  0  0
  -47.2213   -6.3815   -7.4724 H   0  0  0  0  0
  -48.3763   -5.7854   -6.1984 H   0  0  0  0  0
  -47.9008   -7.5963   -4.7943 H   0  0  0  0  0
  -46.4469   -8.0590   -5.7452 H   0  0  0  0  0
  -47.8285   -8.7474   -7.6001 H   0  0  0  0  0
  -49.3122   -8.1816   -6.7349 H   0  0  0  0  0
  -49.1689  -10.5844   -6.5723 H   0  0  0  0  0
  -48.8100   -9.8584   -4.9571 H   0  0  0  0  0
  -47.3002  -11.7005   -5.4192 H   0  0  0  0  0
  -46.4044  -10.1239   -5.4294 H   0  0  0  0  0
  -47.3109  -11.6915   -7.8690 H   0  0  0  0  0
  -46.4311  -10.1433   -7.8790 H   0  0  0  0  0
  -45.6464  -11.6091   -7.2415 H   0  0  0  0  0
  -52.8127    1.7059   -1.3933 H   0  0  0  0  0
  -45.7624    6.9471   -4.2762 H   0  0  0  0  0
  -45.3402    4.5544   -3.6584 H   0  0  0  0  0
  -47.9084    8.0172   -3.5994 H   0  0  0  0  0
  -47.0652    3.3382   -2.3107 H   0  0  0  0  0
  -48.7611   -3.0666    0.5302 H   0  0  0  0  0
  -47.9800   -1.5790   -0.0531 H   0  0  0  0  0
  -50.4604   -2.9278   -1.1646 H   0  0  0  0  0
  -49.6060   -1.6056   -1.9913 H   0  0  0  0  0
  -47.3181   -2.6333   -2.1031 H   0  0  0  0  0
  -48.3291   -4.0525   -1.7742 H   0  0  0  0  0
  -50.3854   -1.3068    0.8984 H   0  0  0  0  0
  -51.6057   -1.0555   -0.3933 H   0  0  0  0  0
  -46.9291   -4.3309    0.3820 H   0  0  0  0  0
  -45.7936   -3.1743   -0.3586 H   0  0  0  0  0
  -49.5142    0.4002   -1.3628 H   0  0  0  0  0
  -49.2894    0.6136    0.4040 H   0  0  0  0  0
  -45.4036   -5.7120   -0.7308 H   0  0  0  0  0
  -46.7707   -5.5707   -1.9025 H   0  0  0  0  0
  -51.6253    1.4173    0.6079 H   0  0  0  0  0
  1  2  2  0  0  0
 26  1  1  0  0  0
  2  3  1  0  0  0
  3  4  1  0  0  0
  4  5  1  0  0  0
  5  6  1  0  0  0
  6  7  1  0  0  0
  7  8  1  0  0  0
  8  9  1  0  0  0
  9 10  1  0  0  0
 30 11  1  0  0  0
 13 12  4  0  0  0
 14 12  4  0  0  0
 15 13  4  0  0  0
 23 14  4  0  0  0
 27 15  4  0  0  0
 24 16  4  0  0  0
 28 16  4  0  0  0
 18 17  1  0  0  0
 17 19  1  0  0  0
 20 18  1  0  0  0
 19 21  1  0  0  0
 22 20  1  0  0  0
 21 26  1  0  0  0
 30 22  1  0  0  0
 27 23  4  0  0  0
 29 24  4  0  0  0
 25 28  4  0  0  0
 29 25  4  0  0  0
 28 27  1  0  0  0
 29 30  1  0  0  0
  1 31  1  0  0  0
  2 32  1  0  0  0
  3 33  1  0  0  0
  3 34  1  0  0  0
  4 35  1  0  0  0
  4 36  1  0  0  0
  5 37  1  0  0  0
  5 38  1  0  0  0
  6 39  1  0  0  0
  6 40  1  0  0  0
  7 41  1  0  0  0
  7 42  1  0  0  0
  8 43  1  0  0  0
  8 44  1  0  0  0
  9 45  1  0  0  0
  9 46  1  0  0  0
 10 47  1  0  0  0
 10 48  1  0  0  0
 10 49  1  0  0  0
 11 50  1  0  0  0
 12 51  1  0  0  0
 13 52  1  0  0  0
 14 53  1  0  0  0
 15 54  1  0  0  0
 17 55  1  0  0  0
 17 56  1  0  0  0
 18 57  1  0  0  0
 18 58  1  0  0  0
 19 59  1  0  0  0
 19 60  1  0  0  0
 20 61  1  0  0  0
 20 62  1  0  0  0
 21 63  1  0  0  0
 21 64  1  0  0  0
 22 65  1  0  0  0
 22 66  1  0  0  0
 26 67  1  0  0  0
 26 68  1  0  0  0
 30 69  1  0  0  0
M  END
$$$$
