4uof_ligand
  -I-interpret- 

 41 43  0  0  0  0  0  0  0  0999 V2000
    5.5510  -54.1320    5.5930 P   0  0  0  0  0
    5.0450  -52.6870    5.5680 O   0  0  0  0  0
    6.3270  -54.3740    6.9210 O   0  0  0  0  0
    4.4270  -55.1240    5.4410 O   0  0  0  0  0
    7.0940  -55.6930    3.9030 P   0  0  0  0  0
    6.0460  -56.7660    4.2170 O   0  0  0  0  0
    7.3340  -55.6860    2.4500 O   0  0  0  0  0
    6.5290  -54.3220    4.3500 O   0  0  0  0  0
    8.4250  -55.9590    4.6950 O   0  0  0  0  0
    8.3920  -56.6400    5.9380 C   0  0  0  0  0
    9.6100  -56.1500    6.7750 C   0  0  0  0  0
   10.7110  -56.2880    6.0880 O   0  0  0  0  0
    9.4980  -54.6340    6.9700 C   0  0  0  0  0
    8.6890  -54.3470    8.0340 O   0  0  0  0  0
   10.9600  -54.2080    7.1580 C   0  0  0  0  0
   11.6810  -55.1160    6.5140 C   0  0  0  0  0
   12.3110  -54.5710    5.3300 N   0  0  0  0  0
   11.3360  -54.3740    4.3830 C   0  0  0  0  0
   11.9060  -53.8510    3.2740 N   0  0  0  0  0
   13.2430  -53.7370    3.5130 C   0  0  0  0  0
   14.2630  -53.2750    2.7370 C   0  0  0  0  0
   14.2630  -52.7750    1.4060 N   0  0  0  0  0
   15.5160  -53.2570    3.2260 N   0  0  0  0  0
   15.7580  -53.7060    4.4950 C   0  0  0  0  0
   14.7360  -54.1600    5.2610 N   0  0  0  0  0
   13.4890  -54.1830    4.7830 C   0  0  0  0  0
    5.7880  -52.0872    5.6672 H   0  0  0  0  0
    7.0369  -53.7323    6.9970 H   0  0  0  0  0
    5.8793  -56.7819    5.1623 H   0  0  0  0  0
    8.4457  -57.7176    5.7830 H   0  0  0  0  0
    7.4602  -56.4290    6.4628 H   0  0  0  0  0
    9.6217  -56.7156    7.7067 H   0  0  0  0  0
    9.0336  -54.0975    6.1426 H   0  0  0  0  0
    8.6298  -53.3949    8.1419 H   0  0  0  0  0
   11.2289  -54.1605    8.2132 H   0  0  0  0  0
   11.1371  -53.2066    6.7656 H   0  0  0  0  0
   12.4740  -55.4664    7.1747 H   0  0  0  0  0
   10.2771  -54.6017    4.5053 H   0  0  0  0  0
   13.3903  -52.7235    0.8806 H   0  0  0  0  0
   15.1357  -52.4678    0.9766 H   0  0  0  0  0
   16.7736  -53.6988    4.8907 H   0  0  0  0  0
  1  2  1  0  0  0
  1  3  1  0  0  0
  1  4  2  0  0  0
  8  1  1  0  0  0
  5  6  1  0  0  0
  5  7  2  0  0  0
  5  8  1  0  0  0
  5  9  1  0  0  0
  9 10  1  0  0  0
 10 11  1  0  0  0
 11 12  1  0  0  0
 11 13  1  0  0  0
 12 16  1  0  0  0
 13 14  1  0  0  0
 13 15  1  0  0  0
 15 16  1  0  0  0
 16 17  1  0  0  0
 17 18  4  0  0  0
 17 26  4  0  0  0
 18 19  4  0  0  0
 19 20  4  0  0  0
 20 21  4  0  0  0
 20 26  4  0  0  0
 21 22  1  0  0  0
 21 23  4  0  0  0
 23 24  4  0  0  0
 24 25  4  0  0  0
 25 26  4  0  0  0
  2 27  1  0  0  0
  3 28  1  0  0  0
  6 29  1  0  0  0
 10 30  1  0  0  0
 10 31  1  0  0  0
 11 32  1  0  0  0
 13 33  1  0  0  0
 14 34  1  0  0  0
 15 35  1  0  0  0
 15 36  1  0  0  0
 16 37  1  0  0  0
 18 38  1  0  0  0
 22 39  1  0  0  0
 22 40  1  0  0  0
 24 41  1  0  0  0
M  END
$$$$
