4iid_ligand
  -I-interpret- 

 25 25  0  0  0  0  0  0  0  0999 V2000
  -20.8870  -20.3580  -23.4400 C   0  0  0  0  0
  -22.0330  -19.7770  -24.2580 C   0  0  0  0  0
  -22.8080  -20.8310  -24.8510 O   0  0  0  0  0
  -21.5510  -18.8710  -25.3870 C   0  0  0  0  0
  -22.7050  -18.1920  -25.9100 O   0  0  0  0  0
  -20.5550  -17.8490  -24.8340 C   0  0  0  0  0
  -20.1510  -16.9300  -25.8340 O   0  0  0  0  0
  -19.3580  -18.5730  -24.2430 C   0  0  0  0  0
  -19.8890  -19.3230  -23.0880 N   0  3  0  0  0
  -18.3320  -17.6240  -23.6960 C   0  0  0  0  0
  -18.9200  -16.8110  -22.6920 O   0  0  0  0  0
  -20.3923  -21.1246  -24.0364 H   0  0  0  0  0
  -21.2965  -20.7693  -22.5174 H   0  0  0  0  0
  -22.6304  -19.1879  -23.5622 H   0  0  0  0  0
  -23.1260  -21.4193  -24.1622 H   0  0  0  0  0
  -21.0559  -19.4490  -26.1673 H   0  0  0  0  0
  -23.3257  -18.8378  -26.2552 H   0  0  0  0  0
  -21.0448  -17.2741  -24.0481 H   0  0  0  0  0
  -20.9242  -16.4866  -26.1907 H   0  0  0  0  0
  -18.8862  -19.1835  -25.0129 H   0  0  0  0  0
  -19.1005  -19.8022  -22.6532 H   0  0  0  0  0
  -20.3568  -18.6490  -22.4820 H   0  0  0  0  0
  -17.9594  -16.9910  -24.5013 H   0  0  0  0  0
  -17.5079  -18.1921  -23.2644 H   0  0  0  0  0
  -18.2605  -16.2058  -22.3450 H   0  0  0  0  0
  1  2  1  0  0  0
  1  9  1  0  0  0
  2  3  1  0  0  0
  2  4  1  0  0  0
  4  5  1  0  0  0
  4  6  1  0  0  0
  6  7  1  0  0  0
  6  8  1  0  0  0
  8  9  1  0  0  0
  8 10  1  0  0  0
 10 11  1  0  0  0
  1 12  1  0  0  0
  1 13  1  0  0  0
  2 14  1  0  0  0
  3 15  1  0  0  0
  4 16  1  0  0  0
  5 17  1  0  0  0
  6 18  1  0  0  0
  7 19  1  0  0  0
  8 20  1  0  0  0
  9 21  1  0  0  0
  9 22  1  0  0  0
 10 23  1  0  0  0
 10 24  1  0  0  0
 11 25  1  0  0  0
M  END
$$$$
