### 
### Created by X-TOOL on Mon Sep 10 21:12:49 2018
### 

@<TRIPOS>MOLECULE
1kne_ligand
  110   109     1     0     0
SMALL
GAST_HUCK


@<TRIPOS>ATOM
      1 N          -0.5120   33.8360    2.6060 N.4       1 GLN         0.2380
      2 CA         -1.8500   33.1840    2.7120 C.3       1 GLN         0.0671
      3 C          -1.8500   32.0810    3.7720 C.2       1 GLN         0.2269
      4 O          -1.6490   32.3990    4.9430 O.2       1 GLN        -0.3907
      5 CB         -2.2660   32.5940    1.3530 C.3       1 GLN         0.0247
      6 CG         -3.7810   32.1160    1.2990 C.3       1 GLN         0.0443
      7 CD         -4.7450   33.2830    1.2790 C.2       1 GLN         0.1738
      8 OE1        -4.7760   34.0630    0.3180 O.2       1 GLN        -0.3973
      9 NE2        -5.5440   33.4140    2.3390 N.am      1 GLN        -0.3009
     10 N          -2.0400   30.8190    3.3810 N.am      1 THR        -0.2586
     11 CA         -2.0800   29.7340    4.3640 C.3       1 THR         0.1566
     12 C          -1.1380   28.5590    4.1270 C.2       1 THR         0.2065
     13 O          -0.4710   28.4950    3.0890 O.2       1 THR        -0.3943
     14 CB         -3.4850   29.1230    4.4710 C.3       1 THR         0.0924
     15 OG1        -3.6980   28.2350    3.3660 O.3       1 THR        -0.3874
     16 CG2        -4.5530   30.2070    4.4490 C.3       1 THR        -0.0346
     17 N          -1.1170   27.6320    5.0820 N.am      1 ALA        -0.2639
     18 CA         -0.2870   26.4440    4.9770 C.3       1 ALA         0.1282
     19 C          -0.6120   25.3290    5.9700 C.2       1 ALA         0.2036
     20 O          -1.0800   25.6030    7.0760 O.2       1 ALA        -0.3944
     21 CB          1.1720   26.8250    5.0930 C.3       1 ALA        -0.0244
     22 N          -0.3730   24.0910    5.5480 N.am      1 ARG        -0.2637
     23 CA         -0.5880   22.9230    6.3810 C.3       1 ARG         0.1311
     24 C           0.4990   22.8160    7.4450 C.2       1 ARG         0.2039
     25 O           1.6680   23.0280    7.1150 O.2       1 ARG        -0.3944
     26 CB         -0.5680   21.6420    5.5100 C.3       1 ARG        -0.0092
     27 CG         -0.9720   20.2980    6.2760 C.3       1 ARG        -0.0156
     28 CD         -0.9130   19.0260    5.3100 C.3       1 ARG         0.0627
     29 NE         -1.5460   17.8390    5.8890 N.pl3     1 ARG        -0.2723
     30 CZ         -2.8610   17.7030    6.0720 C.cat     1 ARG         0.2882
     31 NH1        -3.6870   18.6790    5.7230 N.pl3     1 ARG        -0.2849
     32 NH2        -3.3550   16.5910    6.5980 N.pl3     1 ARG        -0.2849
     33 N           0.1340   22.5210    8.6870 N.am      1 M3L        -0.2637
     34 CA          1.1260   22.3880    9.7500 C.3       1 M3L         0.1310
     35 CB          0.7080   23.1880   11.0030 C.3       1 M3L        -0.0122
     36 CG          1.8180   23.1750   12.1490 C.3       1 M3L        -0.0440
     37 CD          1.3840   23.9800   13.4580 C.3       1 M3L        -0.0123
     38 CE          0.9020   25.4650   13.1480 C.3       1 M3L        -0.0309
     39 NZ          0.5000   26.1820   14.4150 N.4       1 M3L         0.2369
     40 C           1.3340   20.9290   10.1490 C.2       1 M3L         0.2040
     41 O           0.3780   20.2960   10.6020 O.2       1 M3L        -0.3944
     42 CM1         1.7460   26.1740   15.2560 C.3       1 M3L        -0.0418
     43 CM2         0.0680   27.5340   13.9460 C.3       1 M3L        -0.0418
     44 CM3        -0.6130   25.3520   14.9750 C.3       1 M3L        -0.0418
     45 N           2.5510   20.4140    9.9960 N.am      1 SER        -0.2627
     46 CA          2.8490   19.0190   10.3370 C.3       1 SER         0.1356
     47 C           3.2310   18.7600   11.7930 C.2       1 SER         0.1267
     48 O           3.1180   19.6930   12.6210 O.2       1 SER        -0.3724
     49 CB          3.9670   18.4770    9.4200 C.3       1 SER         0.0830
     50 OG          5.1110   19.3190    9.4450 O.3       1 SER        -0.3903
     51 H1         -0.5441   34.5562    1.9014 H         1 GLN         0.2015
     52 H2          0.1783   33.1471    2.3511 H         1 GLN         0.2015
     53 H3         -0.2664   34.2453    3.4938 H         1 GLN         0.2015
     54 H4         -2.5852   33.9482    3.0043 H         1 GLN         0.1100
     55 H5         -1.6214   31.7289    1.1383 H         1 GLN         0.0370
     56 H6         -2.1171   33.3629    0.5806 H         1 GLN         0.0370
     57 H7         -3.9900   31.4983    2.1848 H         1 GLN         0.0506
     58 H8         -3.9316   31.5158    0.3896 H         1 GLN         0.0506
     59 H9         -6.2009   34.1668    2.3800 H         1 GLN         0.1814
     60 H10        -5.4861   32.7594    3.0927 H         1 GLN         0.1814
     61 H11        -2.1559   30.6127    2.4094 H         1 THR         0.1885
     62 H12        -1.8159   30.1814    5.3335 H         1 THR         0.0826
     63 H13        -3.5618   28.5607    5.4133 H         1 THR         0.0639
     64 H14        -3.0339   27.5558    3.3745 H         1 THR         0.2101
     65 H15        -5.5475   29.7435    4.5268 H         1 THR         0.0257
     66 H16        -4.4839   30.7707    3.5070 H         1 THR         0.0257
     67 H17        -4.3996   30.8902    5.2973 H         1 THR         0.0257
     68 H18        -1.6878   27.7565    5.8936 H         1 ALA         0.1883
     69 H19        -0.4494   26.0307    3.9706 H         1 ALA         0.0797
     70 H20         1.7944   25.9215    5.0127 H         1 ALA         0.0277
     71 H21         1.3489   27.3068    6.0659 H         1 ALA         0.0277
     72 H22         1.4339   27.5236    4.2847 H         1 ALA         0.0277
     73 H23        -0.0308   23.9596    4.6176 H         1 ARG         0.1883
     74 H24        -1.5674   23.0114    6.8739 H         1 ARG         0.0800
     75 H25         0.4498   21.5154    5.1125 H         1 ARG         0.0313
     76 H26        -1.2719   21.7847    4.6769 H         1 ARG         0.0313
     77 H27        -1.9957   20.4032    6.6646 H         1 ARG         0.0301
     78 H28        -0.2761   20.1421    7.1134 H         1 ARG         0.0301
     79 H29         0.1415   18.7938    5.0998 H         1 ARG         0.0689
     80 H30        -1.4280   19.2750    4.3704 H         1 ARG         0.0689
     81 H31        -0.9369   17.0586    6.1734 H         1 ARG         0.2642
     82 H32        -4.7013   18.5709    5.8656 H         1 ARG         0.2615
     83 H33        -3.3146   19.5456    5.3092 H         1 ARG         0.2615
     84 H34        -2.7224   15.8260    6.8729 H         1 ARG         0.2615
     85 H35        -4.3715   16.4919    6.7318 H         1 ARG         0.2615
     86 H36        -0.8345   22.3880    8.8975 H         1 M3L         0.1883
     87 H37         2.0806   22.7887    9.3783 H         1 M3L         0.0800
     88 H38        -0.2172   22.7503   11.4060 H         1 M3L         0.0312
     89 H39         0.5217   24.2309   10.7072 H         1 M3L         0.0312
     90 H40         2.7375   23.6278   11.7496 H         1 M3L         0.0269
     91 H41         2.0162   22.1305   12.4312 H         1 M3L         0.0269
     92 H42         2.2447   24.0270   14.1413 H         1 M3L         0.0317
     93 H43         0.5590   23.4387   13.9442 H         1 M3L         0.0317
     94 H44         0.0389   25.4278   12.4671 H         1 M3L         0.0815
     95 H45         1.7239   26.0167   12.6684 H         1 M3L         0.0815
     96 H46         1.5467   26.6814   16.2114 H         1 M3L         0.0778
     97 H47         2.5517   26.6997   14.7227 H         1 M3L         0.0778
     98 H48         2.0512   25.1350   15.4494 H         1 M3L         0.0778
     99 H49        -0.8464   27.4377   13.3422 H         1 M3L         0.0778
    100 H50         0.8653   27.9822   13.3349 H         1 M3L         0.0778
    101 H51        -0.1329   28.1769   14.8156 H         1 M3L         0.0778
    102 H52        -0.2175   24.3772   15.2965 H         1 M3L         0.0778
    103 H53        -1.3810   25.1993   14.2025 H         1 M3L         0.0778
    104 H54        -1.0582   25.8696   15.8375 H         1 M3L         0.0778
    105 H55         3.2829   20.9941    9.6386 H         1 SER         0.1885
    106 H56         1.9341   18.4416   10.1379 H         1 SER         0.0813
    107 H57         3.5949   17.7823   12.1054 H         1 SER         0.1374
    108 H58         3.5878   18.4189    8.3891 H         1 SER         0.0607
    109 H59         4.2548   17.4719    9.7620 H         1 SER         0.0607
    110 H60         5.7793   18.9604    8.8730 H         1 SER         0.2097
@<TRIPOS>BOND
     1    2    1 1  
     2    2    5 1  
     3    3    2 1  
     4    3    4 2  
     5    5    6 1  
     6    6    7 1  
     7    7    9 am 
     8    7    8 2  
     9   11   10 1  
    10   11   14 1  
    11   12   11 1  
    12   12   13 2  
    13   14   16 1  
    14   14   15 1  
    15   10    3 am 
    16   18   17 1  
    17   18   21 1  
    18   19   18 1  
    19   19   20 2  
    20   17   12 am 
    21   23   22 1  
    22   23   26 1  
    23   24   23 1  
    24   24   25 2  
    25   26   27 1  
    26   27   28 1  
    27   28   29 1  
    28   29   30 ar 
    29   30   32 ar 
    30   30   31 ar 
    31   22   19 am 
    32   45   46 1  
    33   46   49 1  
    34   46   47 1  
    35   47   48 2  
    36   49   50 1  
    37   34   33 1  
    38   34   35 1  
    39   40   34 1  
    40   35   36 1  
    41   36   37 1  
    42   37   38 1  
    43   38   39 1  
    44   39   42 1  
    45   39   43 1  
    46   39   44 1  
    47   40   41 2  
    48   33   24 am 
    49   40   45 am 
    50    1   51 1  
    51    1   52 1  
    52    1   53 1  
    53    2   54 1  
    54    5   55 1  
    55    5   56 1  
    56    6   57 1  
    57    6   58 1  
    58    9   59 1  
    59    9   60 1  
    60   10   61 1  
    61   11   62 1  
    62   14   63 1  
    63   15   64 1  
    64   16   65 1  
    65   16   66 1  
    66   16   67 1  
    67   17   68 1  
    68   18   69 1  
    69   21   70 1  
    70   21   71 1  
    71   21   72 1  
    72   22   73 1  
    73   23   74 1  
    74   26   75 1  
    75   26   76 1  
    76   27   77 1  
    77   27   78 1  
    78   28   79 1  
    79   28   80 1  
    80   29   81 1  
    81   31   82 1  
    82   31   83 1  
    83   32   84 1  
    84   32   85 1  
    85   33   86 1  
    86   34   87 1  
    87   35   88 1  
    88   35   89 1  
    89   36   90 1  
    90   36   91 1  
    91   37   92 1  
    92   37   93 1  
    93   38   94 1  
    94   38   95 1  
    95   42   96 1  
    96   42   97 1  
    97   42   98 1  
    98   43   99 1  
    99   43  100 1  
   100   43  101 1  
   101   44  102 1  
   102   44  103 1  
   103   44  104 1  
   104   45  105 1  
   105   46  106 1  
   106   47  107 1  
   107   49  108 1  
   108   49  109 1  
   109   50  110 1  
@<TRIPOS>SUBSTRUCTURE
     1 GLN         1

