1kne_ligand
  -I-interpret- 

109108  0  0  0  0  0  0  0  0999 V2000
   -0.5120   33.8360    2.6060 N   0  3  0  0  0
   -1.8500   33.1840    2.7120 C   0  0  0  0  0
   -1.8500   32.0810    3.7720 C   0  0  0  0  0
   -1.6490   32.3990    4.9430 O   0  0  0  0  0
   -2.2660   32.5940    1.3530 C   0  0  0  0  0
   -3.7810   32.1160    1.2990 C   0  0  0  0  0
   -4.7450   33.2830    1.2790 C   0  0  0  0  0
   -4.7760   34.0630    0.3180 O   0  0  0  0  0
   -5.5440   33.4140    2.3390 N   0  0  0  0  0
   -2.0400   30.8190    3.3810 N   0  0  0  0  0
   -2.0800   29.7340    4.3640 C   0  0  0  0  0
   -1.1380   28.5590    4.1270 C   0  0  0  0  0
   -0.4710   28.4950    3.0890 O   0  0  0  0  0
   -3.4850   29.1230    4.4710 C   0  0  0  0  0
   -3.6980   28.2350    3.3660 O   0  0  0  0  0
   -4.5530   30.2070    4.4490 C   0  0  0  0  0
   -1.1170   27.6320    5.0820 N   0  0  0  0  0
   -0.2870   26.4440    4.9770 C   0  0  0  0  0
   -0.6120   25.3290    5.9700 C   0  0  0  0  0
   -1.0800   25.6030    7.0760 O   0  0  0  0  0
    1.1720   26.8250    5.0930 C   0  0  0  0  0
   -0.3730   24.0910    5.5480 N   0  0  0  0  0
   -0.5880   22.9230    6.3810 C   0  0  0  0  0
    0.4990   22.8160    7.4450 C   0  0  0  0  0
    1.6680   23.0280    7.1150 O   0  0  0  0  0
   -0.5680   21.6420    5.5100 C   0  0  0  0  0
   -0.9720   20.2980    6.2760 C   0  0  0  0  0
   -0.9130   19.0260    5.3100 C   0  0  0  0  0
   -1.5460   17.8390    5.8890 N   0  0  0  0  0
   -2.8610   17.7030    6.0720 C   0  0  0  0  0
   -3.6870   18.6790    5.7230 N   0  0  0  0  0
   -3.3550   16.5910    6.5980 N   0  0  0  0  0
    0.1340   22.5210    8.6870 N   0  0  0  0  0
    1.1260   22.3880    9.7500 C   0  0  0  0  0
    0.7080   23.1880   11.0030 C   0  0  0  0  0
    1.8180   23.1750   12.1490 C   0  0  0  0  0
    1.3840   23.9800   13.4580 C   0  0  0  0  0
    0.9020   25.4650   13.1480 C   0  0  0  0  0
    0.5000   26.1820   14.4150 N   0  3  0  0  0
    1.3340   20.9290   10.1490 C   0  0  0  0  0
    0.3780   20.2960   10.6020 O   0  0  0  0  0
    1.7460   26.1740   15.2560 C   0  0  0  0  0
    0.0680   27.5340   13.9460 C   0  0  0  0  0
   -0.6130   25.3520   14.9750 C   0  0  0  0  0
    2.5510   20.4140    9.9960 N   0  0  0  0  0
    2.8490   19.0190   10.3370 C   0  0  0  0  0
    3.2310   18.7600   11.7930 C   0  0  0  0  0
    3.1180   19.6930   12.6210 O   0  0  0  0  0
    3.9670   18.4770    9.4200 C   0  0  0  0  0
    5.1110   19.3190    9.4450 O   0  0  0  0  0
   -0.5456   34.5645    1.8928 H   0  0  0  0  0
   -0.2645   34.2497    3.5049 H   0  0  0  0  0
    0.1856   33.1380    2.3481 H   0  0  0  0  0
   -2.5672   33.9483    3.0112 H   0  0  0  0  0
   -1.6420   31.7185    1.1736 H   0  0  0  0  0
   -2.1458   33.3794    0.6068 H   0  0  0  0  0
   -3.9828   31.5231    2.1911 H   0  0  0  0  0
   -3.9240   31.5408    0.3842 H   0  0  0  0  0
   -6.2152   34.1809    2.3800 H   0  0  0  0  0
   -5.4838   32.7473    3.1086 H   0  0  0  0  0
   -2.1582   30.6086    2.3900 H   0  0  0  0  0
   -1.7572   30.2462    5.2704 H   0  0  0  0  0
   -3.5561   28.5816    5.4144 H   0  0  0  0  0
   -4.5756   27.8512    3.4299 H   0  0  0  0  0
   -4.3998   30.8833    5.2900 H   0  0  0  0  0
   -4.4835   30.7649    3.5152 H   0  0  0  0  0
   -5.5379   29.7465    4.5262 H   0  0  0  0  0
   -1.6992   27.7590    5.9098 H   0  0  0  0  0
   -0.5092   26.0263    3.9951 H   0  0  0  0  0
    1.4302   27.5173    4.2916 H   0  0  0  0  0
    1.3460   27.3023    6.0574 H   0  0  0  0  0
    1.7876   25.9290    5.0133 H   0  0  0  0  0
   -0.0239   23.9570    4.5990 H   0  0  0  0  0
   -1.5579   23.0250    6.8678 H   0  0  0  0  0
    0.4578   21.5117    5.1654 H   0  0  0  0  0
   -1.3043   21.7873    4.7196 H   0  0  0  0  0
   -1.9935   20.4047    6.6411 H   0  0  0  0  0
   -0.2662   20.1425    7.0919 H   0  0  0  0  0
    0.1366   18.7906    5.1342 H   0  0  0  0  0
   -1.4513   19.2774    4.3961 H   0  0  0  0  0
   -0.9428   17.0662    6.1706 H   0  0  0  0  0
   -3.3182   19.5372    5.3132 H   0  0  0  0  0
   -4.3616   16.4929    6.7305 H   0  0  0  0  0
   -2.7285   15.8335    6.8702 H   0  0  0  0  0
   -0.8539   22.3853    8.9017 H   0  0  0  0  0
    2.0605   22.7858    9.3543 H   0  0  0  0  0
   -0.1925   22.7257   11.4073 H   0  0  0  0  0
    0.5551   24.2239   10.7002 H   0  0  0  0  0
    2.7109   23.6548   11.7482 H   0  0  0  0  0
    1.9797   22.1369   12.4392 H   0  0  0  0  0
    2.2546   24.0442   14.1107 H   0  0  0  0  0
    0.5472   23.4484   13.9111 H   0  0  0  0  0
    0.0388   25.4200   12.4839 H   0  0  0  0  0
    1.7252   26.0094   12.6854 H   0  0  0  0  0
    2.0474   25.1440   15.4468 H   0  0  0  0  0
    2.5436   26.6951   14.7265 H   0  0  0  0  0
    1.5473   26.6770   16.2023 H   0  0  0  0  0
    0.9004   28.0256   13.4424 H   0  0  0  0  0
   -0.7660   27.4272   13.2524 H   0  0  0  0  0
   -0.2443   28.1316   14.8024 H   0  0  0  0  0
   -1.4297   25.3080   14.2545 H   0  0  0  0  0
   -0.2482   24.3444   15.1746 H   0  0  0  0  0
   -0.9686   25.8014   15.9022 H   0  0  0  0  0
    3.2976   21.0057    9.6314 H   0  0  0  0  0
    1.9071   18.4929   10.1819 H   0  0  0  0  0
    3.5952   17.7814   12.1057 H   0  0  0  0  0
    3.5884   18.4374    8.3986 H   0  0  0  0  0
    4.2570   17.4881    9.7749 H   0  0  0  0  0
    5.7864   18.9566    8.8669 H   0  0  0  0  0
  2  1  1  0  0  0
  2  5  1  0  0  0
  3  2  1  0  0  0
  3  4  2  0  0  0
  5  6  1  0  0  0
  6  7  1  0  0  0
  7  9  1  0  0  0
  7  8  2  0  0  0
 11 10  1  0  0  0
 11 14  1  0  0  0
 12 11  1  0  0  0
 12 13  2  0  0  0
 14 16  1  0  0  0
 14 15  1  0  0  0
 10  3  1  0  0  0
 18 17  1  0  0  0
 18 21  1  0  0  0
 19 18  1  0  0  0
 19 20  2  0  0  0
 17 12  1  0  0  0
 23 22  1  0  0  0
 23 26  1  0  0  0
 24 23  1  0  0  0
 24 25  2  0  0  0
 26 27  1  0  0  0
 27 28  1  0  0  0
 28 29  1  0  0  0
 29 30  1  0  0  0
 30 32  1  0  0  0
 30 31  2  0  0  0
 22 19  1  0  0  0
 45 46  1  0  0  0
 46 49  1  0  0  0
 46 47  1  0  0  0
 47 48  2  0  0  0
 49 50  1  0  0  0
 34 33  1  0  0  0
 34 35  1  0  0  0
 40 34  1  0  0  0
 35 36  1  0  0  0
 36 37  1  0  0  0
 37 38  1  0  0  0
 38 39  1  0  0  0
 39 42  1  0  0  0
 39 43  1  0  0  0
 39 44  1  0  0  0
 40 41  2  0  0  0
 33 24  1  0  0  0
 40 45  1  0  0  0
  1 51  1  0  0  0
  1 52  1  0  0  0
  1 53  1  0  0  0
  2 54  1  0  0  0
  5 55  1  0  0  0
  5 56  1  0  0  0
  6 57  1  0  0  0
  6 58  1  0  0  0
  9 59  1  0  0  0
  9 60  1  0  0  0
 10 61  1  0  0  0
 11 62  1  0  0  0
 14 63  1  0  0  0
 15 64  1  0  0  0
 16 65  1  0  0  0
 16 66  1  0  0  0
 16 67  1  0  0  0
 17 68  1  0  0  0
 18 69  1  0  0  0
 21 70  1  0  0  0
 21 71  1  0  0  0
 21 72  1  0  0  0
 22 73  1  0  0  0
 23 74  1  0  0  0
 26 75  1  0  0  0
 26 76  1  0  0  0
 27 77  1  0  0  0
 27 78  1  0  0  0
 28 79  1  0  0  0
 28 80  1  0  0  0
 29 81  1  0  0  0
 31 82  1  0  0  0
 32 83  1  0  0  0
 32 84  1  0  0  0
 33 85  1  0  0  0
 34 86  1  0  0  0
 35 87  1  0  0  0
 35 88  1  0  0  0
 36 89  1  0  0  0
 36 90  1  0  0  0
 37 91  1  0  0  0
 37 92  1  0  0  0
 38 93  1  0  0  0
 38 94  1  0  0  0
 42 95  1  0  0  0
 42 96  1  0  0  0
 42 97  1  0  0  0
 43 98  1  0  0  0
 43 99  1  0  0  0
 43100  1  0  0  0
 44101  1  0  0  0
 44102  1  0  0  0
 44103  1  0  0  0
 45104  1  0  0  0
 46105  1  0  0  0
 47106  1  0  0  0
 49107  1  0  0  0
 49108  1  0  0  0
 50109  1  0  0  0
M  END
$$$$
