5wi0_ligand
  -I-interpret- 

 32 33  0  0  0  0  0  0  0  0999 V2000
   16.3990    8.3980    3.1670 N   0  0  0  0  0
   14.9440    8.8310    1.2490 C   0  0  0  0  0
   14.1180    9.6760    2.0400 C   0  0  0  0  0
   15.5510    9.0960    3.8910 C   0  0  0  0  0
   14.8620    9.3480    6.3700 C   0  0  0  0  0
   13.7000   10.1240    6.3490 C   0  0  0  0  0
   13.5720   10.0330    8.7560 C   0  0  0  0  0
   16.4950    8.2510    7.6240 F   0  0  0  0  0
   15.3430    8.9530    7.6060 C   0  0  0  0  0
   14.7300    9.2700    8.7970 C   0  0  0  0  0
   13.0670   10.4670    7.5390 C   0  0  0  0  0
   15.6390    8.9660    5.2400 N   0  0  0  0  0
   14.4740    9.7480    3.3680 N   0  0  0  0  0
   13.1900   10.3760    1.6190 O   0  0  0  0  0
   16.0390    8.2380    1.7970 C   0  0  0  0  0
   16.9620    7.3290    1.0450 C   0  0  0  0  0
   16.4810    5.8700    0.7540 C   0  0  0  0  0
   15.3620    5.7560   -0.2690 C   0  0  0  0  0
   17.2529    7.9998    3.5579 H   0  0  0  0  0
   14.6993    8.6579    0.2010 H   0  0  0  0  0
   13.2887   10.4613    5.3976 H   0  0  0  0  0
   13.0581   10.2919    9.6817 H   0  0  0  0  0
   15.1433    8.9307    9.7468 H   0  0  0  0  0
   12.1671   11.0816    7.5152 H   0  0  0  0  0
   16.4825    8.4631    5.5156 H   0  0  0  0  0
   17.8419    7.2219    1.6793 H   0  0  0  0  0
   17.0890    7.7918    0.0663 H   0  0  0  0  0
   16.0923    5.4733    1.6919 H   0  0  0  0  0
   17.3366    5.3314    0.3467 H   0  0  0  0  0
   14.4912    6.3087    0.0838 H   0  0  0  0  0
   15.6968    6.1712   -1.2196 H   0  0  0  0  0
   15.0985    4.7067   -0.4020 H   0  0  0  0  0
  4  1  1  0  0  0
  1 15  1  0  0  0
  3  2  1  0  0  0
 15  2  2  0  0  0
 13  3  1  0  0  0
  3 14  2  0  0  0
 12  4  1  0  0  0
  4 13  4  0  0  0
  6  5  4  0  0  0
  5  9  4  0  0  0
  5 12  1  0  0  0
 11  6  4  0  0  0
  7 10  4  0  0  0
  7 11  4  0  0  0
  9  8  1  0  0  0
  9 10  4  0  0  0
 15 16  1  0  0  0
 16 17  1  0  0  0
 17 18  1  0  0  0
  1 19  1  0  0  0
  2 20  1  0  0  0
  6 21  1  0  0  0
  7 22  1  0  0  0
 10 23  1  0  0  0
 11 24  1  0  0  0
 12 25  1  0  0  0
 16 26  1  0  0  0
 16 27  1  0  0  0
 17 28  1  0  0  0
 17 29  1  0  0  0
 18 30  1  0  0  0
 18 31  1  0  0  0
 18 32  1  0  0  0
M  END
$$$$
