4bo0_ligand
  -I-interpret- 

 42 44  0  0  0  0  0  0  0  0999 V2000
   -6.6800    0.0520  -35.2870 C   0  0  0  0  0
   -7.1620   -1.1950  -35.7860 O   0  0  0  0  0
   -6.1880   -2.1220  -35.8780 C   0  0  0  0  0
   -6.5730   -3.2660  -35.4050 C   0  0  0  0  0
   -4.9210   -1.9290  -36.4260 C   0  0  0  0  0
   -4.0670   -3.0290  -36.4340 C   0  0  0  0  0
   -4.5340   -4.2320  -35.9090 C   0  0  0  0  0
   -5.7690   -4.3200  -35.4020 C   0  0  0  0  0
   -6.4620   -5.3200  -34.8320 N   0  0  0  0  0
   -5.9540   -6.6770  -34.6150 C   0  0  0  0  0
   -7.6460   -4.9100  -34.5240 N   0  0  0  0  0
   -7.7410   -3.6190  -34.8920 C   0  0  0  0  0
   -8.8280   -2.8590  -34.6680 N   0  0  0  0  0
   -9.9210   -3.5090  -34.1820 C   0  0  0  0  0
  -10.9440   -2.8920  -33.8550 O   0  0  0  0  0
   -9.8450   -4.8590  -34.1220 N   0  0  0  0  0
  -10.7940   -5.5720  -33.5760 C   0  0  0  0  0
  -12.1410   -5.2440  -33.3980 C   0  0  0  0  0
  -12.9500   -6.1560  -32.7760 C   0  0  0  0  0
  -12.4190   -7.3470  -32.2950 C   0  0  0  0  0
  -11.0740   -7.6460  -32.4720 C   0  0  0  0  0
  -10.2700   -6.7400  -33.1260 C   0  0  0  0  0
   -8.9210   -6.8510  -33.4120 O   0  0  0  0  0
   -8.2870   -8.0570  -32.9380 C   0  0  0  0  0
   -6.2586   -0.0945  -34.2925 H   0  0  0  0  0
   -5.9103    0.4366  -35.9561 H   0  0  0  0  0
   -7.5043    0.7631  -35.2326 H   0  0  0  0  0
   -4.6135   -0.9639  -36.8287 H   0  0  0  0  0
   -3.0588   -2.9507  -36.8407 H   0  0  0  0  0
   -3.8874   -5.1095  -35.9113 H   0  0  0  0  0
   -5.6873   -7.1214  -35.5739 H   0  0  0  0  0
   -5.0729   -6.6357  -33.9747 H   0  0  0  0  0
   -6.7252   -7.2799  -34.1356 H   0  0  0  0  0
   -8.8330   -1.8556  -34.8513 H   0  0  0  0  0
   -9.0287   -5.3303  -34.5117 H   0  0  0  0  0
  -12.5359   -4.2890  -33.7447 H   0  0  0  0  0
  -14.0134   -5.9478  -32.6575 H   0  0  0  0  0
  -13.0646   -8.0537  -31.7735 H   0  0  0  0  0
  -10.6617   -8.5835  -32.0988 H   0  0  0  0  0
   -8.3793   -8.1123  -31.8533 H   0  0  0  0  0
   -8.7717   -8.9225  -33.3898 H   0  0  0  0  0
   -7.2326   -8.0443  -33.2140 H   0  0  0  0  0
  1  2  1  0  0  0
  2  3  1  0  0  0
  3  4  4  0  0  0
  3  5  4  0  0  0
  4  8  4  0  0  0
  4 12  4  0  0  0
  5  6  4  0  0  0
  6  7  4  0  0  0
  7  8  4  0  0  0
  8  9  4  0  0  0
  9 10  1  0  0  0
  9 11  4  0  0  0
 11 12  4  0  0  0
 12 13  1  0  0  0
 13 14  1  0  0  0
 14 15  2  0  0  0
 14 16  1  0  0  0
 16 17  1  0  0  0
 17 18  4  0  0  0
 17 22  4  0  0  0
 18 19  4  0  0  0
 19 20  4  0  0  0
 20 21  4  0  0  0
 21 22  4  0  0  0
 22 23  1  0  0  0
 23 24  1  0  0  0
  1 25  1  0  0  0
  1 26  1  0  0  0
  1 27  1  0  0  0
  5 28  1  0  0  0
  6 29  1  0  0  0
  7 30  1  0  0  0
 10 31  1  0  0  0
 10 32  1  0  0  0
 10 33  1  0  0  0
 13 34  1  0  0  0
 16 35  1  0  0  0
 18 36  1  0  0  0
 19 37  1  0  0  0
 20 38  1  0  0  0
 21 39  1  0  0  0
 24 40  1  0  0  0
 24 41  1  0  0  0
 24 42  1  0  0  0
M  END
$$$$
