### 
### Created by X-TOOL on Mon Sep 10 21:12:50 2018
### 

@<TRIPOS>MOLECULE
1pcg_ligand
  164   163     1     0     0
SMALL
GAST_HUCK


@<TRIPOS>ATOM
      1 N           7.4970   42.9440   -1.0000 N.4       1 LYS         0.2379
      2 CA          6.4070   42.0830   -0.4680 C.3       1 LYS         0.0650
      3 C           6.1670   40.9230   -1.4040 C.2       1 LYS         0.2267
      4 O           5.7520   41.1200   -2.5420 O.2       1 LYS        -0.3907
      5 CB          5.0830   42.8400   -0.3560 C.3       1 LYS         0.0080
      6 CG          5.0790   44.0400    0.5570 C.3       1 LYS        -0.0410
      7 CD          3.6970   44.6700    0.5710 C.3       1 LYS        -0.0123
      8 CE          3.6530   45.9110    1.4460 C.3       1 LYS        -0.0354
      9 NZ          2.2810   46.5020    1.4840 N.4       1 LYS         0.2185
     10 N           6.4280   39.7110   -0.9260 N.am      1 DCY        -0.2602
     11 CA          6.1870   38.5250   -1.7300 C.3       1 DCY         0.1397
     12 C           7.4410   37.9080   -2.3340 C.2       1 DCY         0.2047
     13 O           7.4460   36.7680   -2.7770 O.2       1 DCY        -0.3944
     14 CB          5.3320   37.5210   -0.9330 C.3       1 DCY         0.0311
     15 SG          6.2230   36.4020    0.1840 S.3       1 DCY        -0.1735
     16 N           8.4920   38.7200   -2.3840 N.am      1 ILE        -0.2634
     17 CA          9.7700   38.3470   -2.9800 C.3       1 ILE         0.1335
     18 C          10.2660   36.9870   -2.5210 C.2       1 ILE         0.2042
     19 O          10.7850   36.1960   -3.3040 O.2       1 ILE        -0.3944
     20 CB         10.8270   39.4370   -2.6780 C.3       1 ILE        -0.0037
     21 CG1        10.2620   40.8130   -3.0700 C.3       1 ILE        -0.0491
     22 CG2        12.1180   39.1350   -3.4160 C.3       1 ILE        -0.0582
     23 CD1        11.1950   41.9610   -2.7430 C.3       1 ILE        -0.0648
     24 N          10.0750   36.7110   -1.2420 N.am      1 LEU        -0.2637
     25 CA         10.5160   35.4500   -0.6780 C.3       1 LEU         0.1312
     26 C           9.8150   34.2200   -1.2320 C.2       1 LEU         0.2039
     27 O          10.4620   33.2140   -1.5750 O.2       1 LEU        -0.3944
     28 CB         10.4060   35.4790    0.8490 C.3       1 LEU        -0.0101
     29 CG         10.9410   34.2600    1.6120 C.3       1 LEU        -0.0425
     30 CD1        12.4430   34.1500    1.4460 C.3       1 LEU        -0.0625
     31 CD2        10.6190   34.3600    3.0900 C.3       1 LEU        -0.0625
     32 N           8.4930   34.2590   -1.3170 N.am      1 CYS        -0.2629
     33 CA          7.7730   33.0980   -1.8430 C.3       1 CYS         0.1396
     34 C           8.1850   32.7710   -3.2850 C.2       1 CYS         0.2047
     35 O           8.0550   31.6310   -3.7220 O.2       1 CYS        -0.3944
     36 CB          6.2810   33.3690   -1.8390 C.3       1 CYS         0.0311
     37 SG          5.5990   33.8290   -0.2390 S.3       1 CYS        -0.1735
     38 N           8.6610   33.7760   -4.0190 N.am      1 ARG        -0.2637
     39 CA          9.0590   33.5910   -5.4210 C.3       1 ARG         0.1311
     40 C          10.4440   33.0010   -5.4890 C.2       1 ARG         0.2039
     41 O          10.6810   32.0710   -6.2480 O.2       1 ARG        -0.3944
     42 CB          8.9830   34.9170   -6.1810 C.3       1 ARG        -0.0092
     43 CG          7.8410   35.7650   -5.6970 C.3       1 ARG        -0.0156
     44 CD          7.0840   36.4700   -6.7690 C.3       1 ARG         0.0627
     45 NE          5.9510   37.1730   -6.1770 N.pl3     1 ARG        -0.2723
     46 CZ          5.0650   37.8540   -6.8890 C.cat     1 ARG         0.2882
     47 NH1         5.1960   37.9120   -8.2110 N.pl3     1 ARG        -0.2849
     48 NH2         4.0580   38.4760   -6.2940 N.pl3     1 ARG        -0.2849
     49 N          11.3570   33.5270   -4.6850 N.am      1 LEU        -0.2637
     50 CA         12.7200   33.0060   -4.6700 C.3       1 LEU         0.1312
     51 C          12.7470   31.5320   -4.2480 C.2       1 LEU         0.2039
     52 O          13.5590   30.7490   -4.7390 O.2       1 LEU        -0.3944
     53 CB         13.5930   33.8530   -3.7410 C.3       1 LEU        -0.0101
     54 CG         14.0890   35.1160   -4.4350 C.3       1 LEU        -0.0425
     55 CD1        14.8610   35.9720   -3.4750 C.3       1 LEU        -0.0625
     56 CD2        14.9770   34.7380   -5.5980 C.3       1 LEU        -0.0625
     57 N          11.8460   31.1530   -3.3500 N.am      1 LEU        -0.2637
     58 CA         11.7770   29.7710   -2.8880 C.3       1 LEU         0.1312
     59 C          11.0740   28.9140   -3.9360 C.2       1 LEU         0.2034
     60 O          11.1010   27.6830   -3.8730 O.2       1 LEU        -0.3944
     61 CB         11.0280   29.7000   -1.5520 C.3       1 LEU        -0.0101
     62 CG         11.8060   30.2170   -0.3440 C.3       1 LEU        -0.0425
     63 CD1        10.9200   30.2290    0.8730 C.3       1 LEU        -0.0625
     64 CD2        13.0070   29.3390   -0.0750 C.3       1 LEU        -0.0625
     65 N          10.4530   29.5950   -4.8970 N.am      1 GLN        -0.2693
     66 CA          9.7220   28.9480   -5.9740 C.3       1 GLN         0.0964
     67 C          10.7090   28.3560   -6.9540 C.2       1 GLN         0.0602
     68 O          11.5390   29.1360   -7.5030 O.co2     1 GLN        -0.5666
     69 CB          8.8080   29.9630   -6.6860 C.3       1 GLN        -0.0010
     70 CG          7.9680   29.4140   -7.8430 C.3       1 GLN         0.0407
     71 CD          7.0520   28.2720   -7.4290 C.2       1 GLN         0.1737
     72 OE1         7.5100   27.2580   -6.8990 O.2       1 GLN        -0.3973
     73 NE2         5.7560   28.4290   -7.6770 N.am      1 GLN        -0.3009
     74 OXT        10.6370   27.1240   -7.1320 O.co2     1 GLN        -0.5666
     75 H1          7.6524   43.7162   -0.3711 H         1 LYS         0.2015
     76 H2          7.2341   43.2970   -1.9068 H         1 LYS         0.2015
     77 H3          8.3431   42.4024   -1.0825 H         1 LYS         0.2015
     78 H4          6.7008   41.7093    0.5240 H         1 LYS         0.1098
     79 H5          4.3232   42.1351    0.0125 H         1 LYS         0.0346
     80 H6          4.8063   43.1837   -1.3636 H         1 LYS         0.0346
     81 H7          5.8124   44.7761    0.1961 H         1 LYS         0.0270
     82 H8          5.3470   43.7246    1.5761 H         1 LYS         0.0270
     83 H9          2.9747   43.9359    0.9574 H         1 LYS         0.0317
     84 H10         3.4221   44.9489   -0.4569 H         1 LYS         0.0317
     85 H11         4.3534   46.6577    1.0438 H         1 LYS         0.0813
     86 H12         3.9541   45.6391    2.4684 H         1 LYS         0.0813
     87 H13         2.2843   47.3215    2.0709 H         1 LYS         0.1994
     88 H14         1.6336   45.8249    1.8561 H         1 LYS         0.1994
     89 H15         1.9996   46.7583    0.5507 H         1 LYS         0.1994
     90 H16         6.7951   39.6139   -0.0009 H         1 DCY         0.1885
     91 H17         5.5748   38.8490   -2.5845 H         1 DCY         0.0808
     92 H18         4.7825   36.9017   -1.6573 H         1 DCY         0.0422
     93 H19         4.6176   38.0979   -0.3274 H         1 DCY         0.0422
     94 H20         5.5637   35.7962    0.6471 H         1 DCY         0.1019
     95 H21         8.4018   39.6356   -1.9921 H         1 ILE         0.1883
     96 H22         9.6287   38.2981   -4.0698 H         1 ILE         0.0803
     97 H23        11.0369   39.4388   -1.5982 H         1 ILE         0.0345
     98 H24         9.3158   40.9681   -2.5308 H         1 ILE         0.0267
     99 H25        10.0715   40.8161   -4.1534 H         1 ILE         0.0267
    100 H26        12.4917   38.1462   -3.1115 H         1 ILE         0.0235
    101 H27        12.8680   39.9016   -3.1716 H         1 ILE         0.0235
    102 H28        11.9302   39.1381   -4.4998 H         1 ILE         0.0235
    103 H29        10.7299   42.9099   -3.0485 H         1 ILE         0.0230
    104 H30        12.1441   41.8274   -3.2828 H         1 ILE         0.0230
    105 H31        11.3884   41.9793   -1.6603 H         1 ILE         0.0230
    106 H32         9.6201   37.3812   -0.6556 H         1 LEU         0.1883
    107 H33        11.5813   35.3472   -0.9320 H         1 LEU         0.0800
    108 H34         9.3411   35.5872    1.1025 H         1 LEU         0.0315
    109 H35        10.9590   36.3610    1.2043 H         1 LEU         0.0315
    110 H36        10.4674   33.3549    1.2040 H         1 LEU         0.0298
    111 H37        12.8096   33.2723    1.9984 H         1 LEU         0.0232
    112 H38        12.9230   35.0579    1.8401 H         1 LEU         0.0232
    113 H39        12.6869   34.0399    0.3791 H         1 LEU         0.0232
    114 H40         9.5301   34.4404    3.2234 H         1 LEU         0.0232
    115 H41        11.1069   35.2509    3.5121 H         1 LEU         0.0232
    116 H42        10.9863   33.4612    3.6069 H         1 LEU         0.0232
    117 H43         7.9922   35.0737   -1.0246 H         1 CYS         0.1884
    118 H44         7.9896   32.2306   -1.2022 H         1 CYS         0.0808
    119 H45         5.7673   32.4581   -2.1802 H         1 CYS         0.0422
    120 H46         6.0807   34.1890   -2.5443 H         1 CYS         0.0422
    121 H47         6.0477   34.6707    0.0868 H         1 CYS         0.1019
    122 H48         8.7498   34.6815   -3.6040 H         1 ARG         0.1883
    123 H49         8.3589   32.8849   -5.8914 H         1 ARG         0.0800
    124 H50         8.8438   34.7077   -7.2519 H         1 ARG         0.0313
    125 H51         9.9240   35.4674   -6.0343 H         1 ARG         0.0313
    126 H52         8.2455   36.5227   -5.0098 H         1 ARG         0.0301
    127 H53         7.1390   35.1150   -5.1542 H         1 ARG         0.0301
    128 H54         6.7186   35.7372   -7.5035 H         1 ARG         0.0689
    129 H55         7.7441   37.1934   -7.2700 H         1 ARG         0.0689
    130 H56         5.8339   37.1382   -5.1543 H         1 ARG         0.2642
    131 H57         4.5127   38.4387   -8.7736 H         1 ARG         0.2615
    132 H58         5.9808   37.4302   -8.6724 H         1 ARG         0.2615
    133 H59         3.9574   38.4304   -5.2699 H         1 ARG         0.2615
    134 H60         3.3756   39.0052   -6.8555 H         1 ARG         0.2615
    135 H61        11.1098   34.2870   -4.0839 H         1 LEU         0.1883
    136 H62        13.1278   33.0774   -5.6891 H         1 LEU         0.0800
    137 H63        14.4606   33.2559   -3.4236 H         1 LEU         0.0315
    138 H64        13.0021   34.1392   -2.8584 H         1 LEU         0.0315
    139 H65        13.2243   35.6842   -4.8084 H         1 LEU         0.0298
    140 H66        15.2111   36.8779   -3.9914 H         1 LEU         0.0232
    141 H67        15.7263   35.4087   -3.0956 H         1 LEU         0.0232
    142 H68        14.2117   36.2571   -2.6341 H         1 LEU         0.0232
    143 H69        14.4114   34.1103   -6.3023 H         1 LEU         0.0232
    144 H70        15.8487   34.1789   -5.2272 H         1 LEU         0.0232
    145 H71        15.3172   35.6496   -6.1111 H         1 LEU         0.0232
    146 H72        11.2036   31.8263   -2.9839 H         1 LEU         0.1883
    147 H73        12.7989   29.3907   -2.7431 H         1 LEU         0.0800
    148 H74        10.7661   28.6483   -1.3638 H         1 LEU         0.0315
    149 H75        10.1081   30.2959   -1.6451 H         1 LEU         0.0315
    150 H76        12.1485   31.2415   -0.5518 H         1 LEU         0.0298
    151 H77        11.4890   30.6026    1.7371 H         1 LEU         0.0232
    152 H78        10.5674   29.2078    1.0800 H         1 LEU         0.0232
    153 H79        10.0562   30.8854    0.6913 H         1 LEU         0.0232
    154 H80        13.6581   29.3267   -0.9615 H         1 LEU         0.0232
    155 H81        12.6706   28.3155    0.1471 H         1 LEU         0.0232
    156 H82        13.5662   29.7360    0.7851 H         1 LEU         0.0232
    157 H83        10.4911   30.5941   -4.8770 H         1 GLN         0.1875
    158 H84         9.1013   28.1421   -5.5554 H         1 GLN         0.0727
    159 H85         9.4441   30.7673   -7.0841 H         1 GLN         0.0330
    160 H86         8.1180   30.3781   -5.9366 H         1 GLN         0.0330
    161 H87         8.6483   29.0499   -8.6270 H         1 GLN         0.0504
    162 H88         7.3495   30.2304   -8.2442 H         1 GLN         0.0504
    163 H89         5.1082   27.7098   -7.4258 H         1 GLN         0.1814
    164 H90         5.4285   29.2663   -8.1148 H         1 GLN         0.1814
@<TRIPOS>BOND
     1    1    2 1  
     2    2    3 1  
     3    2    5 1  
     4    3    4 2  
     5    3   10 am 
     6    5    6 1  
     7    6    7 1  
     8    7    8 1  
     9    8    9 1  
    10   10   11 1  
    11   11   12 1  
    12   11   14 1  
    13   12   13 2  
    14   12   16 am 
    15   14   15 1  
    16   16   17 1  
    17   17   18 1  
    18   17   20 1  
    19   18   19 2  
    20   18   24 am 
    21   20   21 1  
    22   20   22 1  
    23   21   23 1  
    24   24   25 1  
    25   25   26 1  
    26   25   28 1  
    27   26   27 2  
    28   26   32 am 
    29   28   29 1  
    30   29   30 1  
    31   29   31 1  
    32   32   33 1  
    33   33   34 1  
    34   33   36 1  
    35   34   35 2  
    36   34   38 am 
    37   36   37 1  
    38   38   39 1  
    39   39   40 1  
    40   39   42 1  
    41   40   41 2  
    42   40   49 am 
    43   42   43 1  
    44   43   44 1  
    45   44   45 1  
    46   45   46 ar 
    47   46   47 ar 
    48   46   48 ar 
    49   49   50 1  
    50   50   51 1  
    51   50   53 1  
    52   51   52 2  
    53   51   57 am 
    54   53   54 1  
    55   54   55 1  
    56   54   56 1  
    57   57   58 1  
    58   58   59 1  
    59   58   61 1  
    60   59   60 2  
    61   59   65 am 
    62   61   62 1  
    63   62   63 1  
    64   62   64 1  
    65   65   66 1  
    66   66   67 1  
    67   66   69 1  
    68   67   68 ar 
    69   67   74 ar 
    70   69   70 1  
    71   70   71 1  
    72   71   72 2  
    73   71   73 am 
    74    1   75 1  
    75    1   76 1  
    76    1   77 1  
    77    2   78 1  
    78    5   79 1  
    79    5   80 1  
    80    6   81 1  
    81    6   82 1  
    82    7   83 1  
    83    7   84 1  
    84    8   85 1  
    85    8   86 1  
    86    9   87 1  
    87    9   88 1  
    88    9   89 1  
    89   10   90 1  
    90   11   91 1  
    91   14   92 1  
    92   14   93 1  
    93   15   94 1  
    94   16   95 1  
    95   17   96 1  
    96   20   97 1  
    97   21   98 1  
    98   21   99 1  
    99   22  100 1  
   100   22  101 1  
   101   22  102 1  
   102   23  103 1  
   103   23  104 1  
   104   23  105 1  
   105   24  106 1  
   106   25  107 1  
   107   28  108 1  
   108   28  109 1  
   109   29  110 1  
   110   30  111 1  
   111   30  112 1  
   112   30  113 1  
   113   31  114 1  
   114   31  115 1  
   115   31  116 1  
   116   32  117 1  
   117   33  118 1  
   118   36  119 1  
   119   36  120 1  
   120   37  121 1  
   121   38  122 1  
   122   39  123 1  
   123   42  124 1  
   124   42  125 1  
   125   43  126 1  
   126   43  127 1  
   127   44  128 1  
   128   44  129 1  
   129   45  130 1  
   130   47  131 1  
   131   47  132 1  
   132   48  133 1  
   133   48  134 1  
   134   49  135 1  
   135   50  136 1  
   136   53  137 1  
   137   53  138 1  
   138   54  139 1  
   139   55  140 1  
   140   55  141 1  
   141   55  142 1  
   142   56  143 1  
   143   56  144 1  
   144   56  145 1  
   145   57  146 1  
   146   58  147 1  
   147   61  148 1  
   148   61  149 1  
   149   62  150 1  
   150   63  151 1  
   151   63  152 1  
   152   63  153 1  
   153   64  154 1  
   154   64  155 1  
   155   64  156 1  
   156   65  157 1  
   157   66  158 1  
   158   69  159 1  
   159   69  160 1  
   160   70  161 1  
   161   70  162 1  
   162   73  163 1  
   163   73  164 1  
@<TRIPOS>SUBSTRUCTURE
     1 LYS         1

