1pcg_ligand
  -I-interpret- 

164163  0  0  0  0  0  0  0  0999 V2000
    7.4970   42.9440   -1.0000 N   0  3  0  0  0
    6.4070   42.0830   -0.4680 C   0  0  0  0  0
    6.1670   40.9230   -1.4040 C   0  0  0  0  0
    5.7520   41.1200   -2.5420 O   0  0  0  0  0
    5.0830   42.8400   -0.3560 C   0  0  0  0  0
    5.0790   44.0400    0.5570 C   0  0  0  0  0
    3.6970   44.6700    0.5710 C   0  0  0  0  0
    3.6530   45.9110    1.4460 C   0  0  0  0  0
    2.2810   46.5020    1.4840 N   0  3  0  0  0
    6.4280   39.7110   -0.9260 N   0  0  0  0  0
    6.1870   38.5250   -1.7300 C   0  0  0  0  0
    7.4410   37.9080   -2.3340 C   0  0  0  0  0
    7.4460   36.7680   -2.7770 O   0  0  0  0  0
    5.3320   37.5210   -0.9330 C   0  0  0  0  0
    6.2230   36.4020    0.1840 S   0  0  0  0  0
    8.4920   38.7200   -2.3840 N   0  0  0  0  0
    9.7700   38.3470   -2.9800 C   0  0  0  0  0
   10.2660   36.9870   -2.5210 C   0  0  0  0  0
   10.7850   36.1960   -3.3040 O   0  0  0  0  0
   10.8270   39.4370   -2.6780 C   0  0  0  0  0
   10.2620   40.8130   -3.0700 C   0  0  0  0  0
   12.1180   39.1350   -3.4160 C   0  0  0  0  0
   11.1950   41.9610   -2.7430 C   0  0  0  0  0
   10.0750   36.7110   -1.2420 N   0  0  0  0  0
   10.5160   35.4500   -0.6780 C   0  0  0  0  0
    9.8150   34.2200   -1.2320 C   0  0  0  0  0
   10.4620   33.2140   -1.5750 O   0  0  0  0  0
   10.4060   35.4790    0.8490 C   0  0  0  0  0
   10.9410   34.2600    1.6120 C   0  0  0  0  0
   12.4430   34.1500    1.4460 C   0  0  0  0  0
   10.6190   34.3600    3.0900 C   0  0  0  0  0
    8.4930   34.2590   -1.3170 N   0  0  0  0  0
    7.7730   33.0980   -1.8430 C   0  0  0  0  0
    8.1850   32.7710   -3.2850 C   0  0  0  0  0
    8.0550   31.6310   -3.7220 O   0  0  0  0  0
    6.2810   33.3690   -1.8390 C   0  0  0  0  0
    5.5990   33.8290   -0.2390 S   0  0  0  0  0
    8.6610   33.7760   -4.0190 N   0  0  0  0  0
    9.0590   33.5910   -5.4210 C   0  0  0  0  0
   10.4440   33.0010   -5.4890 C   0  0  0  0  0
   10.6810   32.0710   -6.2480 O   0  0  0  0  0
    8.9830   34.9170   -6.1810 C   0  0  0  0  0
    7.8410   35.7650   -5.6970 C   0  0  0  0  0
    7.0840   36.4700   -6.7690 C   0  0  0  0  0
    5.9510   37.1730   -6.1770 N   0  0  0  0  0
    5.0650   37.8540   -6.8890 C   0  0  0  0  0
    5.1960   37.9120   -8.2110 N   0  0  0  0  0
    4.0580   38.4760   -6.2940 N   0  0  0  0  0
   11.3570   33.5270   -4.6850 N   0  0  0  0  0
   12.7200   33.0060   -4.6700 C   0  0  0  0  0
   12.7470   31.5320   -4.2480 C   0  0  0  0  0
   13.5590   30.7490   -4.7390 O   0  0  0  0  0
   13.5930   33.8530   -3.7410 C   0  0  0  0  0
   14.0890   35.1160   -4.4350 C   0  0  0  0  0
   14.8610   35.9720   -3.4750 C   0  0  0  0  0
   14.9770   34.7380   -5.5980 C   0  0  0  0  0
   11.8460   31.1530   -3.3500 N   0  0  0  0  0
   11.7770   29.7710   -2.8880 C   0  0  0  0  0
   11.0740   28.9140   -3.9360 C   0  0  0  0  0
   11.1010   27.6830   -3.8730 O   0  0  0  0  0
   11.0280   29.7000   -1.5520 C   0  0  0  0  0
   11.8060   30.2170   -0.3440 C   0  0  0  0  0
   10.9200   30.2290    0.8730 C   0  0  0  0  0
   13.0070   29.3390   -0.0750 C   0  0  0  0  0
   10.4530   29.5950   -4.8970 N   0  0  0  0  0
    9.7220   28.9480   -5.9740 C   0  0  0  0  0
   10.7090   28.3560   -6.9540 C   0  0  0  0  0
   11.5390   29.1360   -7.5030 O   0  0  0  0  0
    8.8080   29.9630   -6.6860 C   0  0  0  0  0
    7.9680   29.4140   -7.8430 C   0  0  0  0  0
    7.0520   28.2720   -7.4290 C   0  0  0  0  0
    7.5100   27.2580   -6.8990 O   0  0  0  0  0
    5.7560   28.4290   -7.6770 N   0  0  0  0  0
   10.6370   27.1240   -7.1320 O   0  0  0  0  0
    8.3591   42.4019   -1.0583 H   0  0  0  0  0
    7.2412   43.2792   -1.9288 H   0  0  0  0  0
    7.6355   43.7392   -0.3764 H   0  0  0  0  0
    6.7258   41.7494    0.5195 H   0  0  0  0  0
    4.3638   42.1360    0.0626 H   0  0  0  0  0
    4.8614   43.2161   -1.3548 H   0  0  0  0  0
    5.8044   44.7696    0.1970 H   0  0  0  0  0
    5.3425   43.7258    1.5669 H   0  0  0  0  0
    2.9921   43.9420    0.9725 H   0  0  0  0  0
    3.4417   44.9597   -0.4483 H   0  0  0  0  0
    4.3377   46.6512    1.0321 H   0  0  0  0  0
    3.9375   45.6302    2.4601 H   0  0  0  0  0
    2.2856   47.3311    2.0781 H   0  0  0  0  0
    1.9973   46.7609    0.5391 H   0  0  0  0  0
    1.6269   45.8160    1.8607 H   0  0  0  0  0
    6.8024   39.6119    0.0176 H   0  0  0  0  0
    5.6211   38.8382   -2.6074 H   0  0  0  0  0
    4.8472   36.8844   -1.6731 H   0  0  0  0  0
    4.6769   38.1195   -0.3000 H   0  0  0  0  0
    5.3531   35.6027    0.7950 H   0  0  0  0  0
    8.4000   39.6539   -1.9842 H   0  0  0  0  0
    9.6118   38.2707   -4.0558 H   0  0  0  0  0
   11.0539   39.4468   -1.6119 H   0  0  0  0  0
    9.3430   40.9646   -2.5038 H   0  0  0  0  0
   10.1094   40.8105   -4.1493 H   0  0  0  0  0
   12.5013   38.1668   -3.0937 H   0  0  0  0  0
   11.9251   39.1121   -4.4885 H   0  0  0  0  0
   12.8517   39.9099   -3.1940 H   0  0  0  0  0
   11.3859   41.9780   -1.6700 H   0  0  0  0  0
   12.1350   41.8274   -3.2785 H   0  0  0  0  0
   10.7331   42.9006   -3.0461 H   0  0  0  0  0
    9.6110   37.3946   -0.6438 H   0  0  0  0  0
   11.5582   35.3510   -0.9816 H   0  0  0  0  0
    9.3392   35.5217    1.0688 H   0  0  0  0  0
   11.0144   36.3229    1.1742 H   0  0  0  0  0
   10.4576   33.3749    1.1984 H   0  0  0  0  0
   12.6834   34.0410    0.3884 H   0  0  0  0  0
   12.9173   35.0502    1.8368 H   0  0  0  0  0
   12.8050   33.2800    1.9938 H   0  0  0  0  0
   11.0782   35.2593    3.5006 H   0  0  0  0  0
    9.5382   34.4094    3.2226 H   0  0  0  0  0
   11.0099   33.4830    3.6059 H   0  0  0  0  0
    7.9821   35.0900   -1.0188 H   0  0  0  0  0
    8.0219   32.2536   -1.2003 H   0  0  0  0  0
    5.7911   32.4417   -2.1361 H   0  0  0  0  0
    6.1117   34.2124   -2.5085 H   0  0  0  0  0
    4.2915   34.0402   -0.3603 H   0  0  0  0  0
    8.7516   34.6996   -3.5957 H   0  0  0  0  0
    8.3673   32.8965   -5.8978 H   0  0  0  0  0
    8.8283   34.7005   -7.2380 H   0  0  0  0  0
    9.9120   35.4628   -6.0164 H   0  0  0  0  0
    8.2698   36.5348   -5.0554 H   0  0  0  0  0
    7.1377   35.0945   -5.2031 H   0  0  0  0  0
    6.7227   35.7445   -7.4979 H   0  0  0  0  0
    7.7379   37.1860   -7.2668 H   0  0  0  0  0
    5.8351   37.1386   -5.1642 H   0  0  0  0  0
    4.5208   38.4358   -8.7679 H   0  0  0  0  0
    5.9717   37.4327   -8.6681 H   0  0  0  0  0
    3.9599   38.4331   -5.2796 H   0  0  0  0  0
   11.1049   34.3022   -4.0718 H   0  0  0  0  0
   13.1215   33.0649   -5.6816 H   0  0  0  0  0
   14.4584   33.2597   -3.4457 H   0  0  0  0  0
   12.9946   34.1462   -2.8784 H   0  0  0  0  0
   13.2283   35.6791   -4.7960 H   0  0  0  0  0
   14.2166   36.2538   -2.6423 H   0  0  0  0  0
   15.7180   35.4127   -3.0998 H   0  0  0  0  0
   15.2073   36.8693   -3.9879 H   0  0  0  0  0
   15.8295   34.1660   -5.2317 H   0  0  0  0  0
   14.4093   34.1336   -6.3055 H   0  0  0  0  0
   15.3304   35.6427   -6.0927 H   0  0  0  0  0
   11.1907   31.8397   -2.9766 H   0  0  0  0  0
   12.7877   29.3909   -2.7397 H   0  0  0  0  0
   10.8211   28.6464   -1.3642 H   0  0  0  0  0
   10.1471   30.3341   -1.6523 H   0  0  0  0  0
   12.1436   31.2304   -0.5611 H   0  0  0  0  0
   10.0645   30.8797    0.6916 H   0  0  0  0  0
   10.5713   29.2166    1.0770 H   0  0  0  0  0
   11.4849   30.5994    1.7285 H   0  0  0  0  0
   12.6735   28.3210    0.1262 H   0  0  0  0  0
   13.6609   29.3428   -0.9471 H   0  0  0  0  0
   13.5495   29.7224    0.7892 H   0  0  0  0  0
   10.4919   30.6141   -4.8766 H   0  0  0  0  0
    9.0965   28.1557   -5.5629 H   0  0  0  0  0
   11.3836   30.0329   -7.1981 H   0  0  0  0  0
    9.4659   30.7178   -7.1167 H   0  0  0  0  0
    8.1011   30.3172   -5.9357 H   0  0  0  0  0
    8.6551   29.0298   -8.5969 H   0  0  0  0  0
    7.3394   30.2257   -8.2091 H   0  0  0  0  0
    5.0960   27.6927   -7.4266 H   0  0  0  0  0
    5.4212   29.2858   -8.1177 H   0  0  0  0  0
  1  2  1  0  0  0
  2  3  1  0  0  0
  2  5  1  0  0  0
  3  4  2  0  0  0
  3 10  1  0  0  0
  5  6  1  0  0  0
  6  7  1  0  0  0
  7  8  1  0  0  0
  8  9  1  0  0  0
 10 11  1  0  0  0
 11 12  1  0  0  0
 11 14  1  0  0  0
 12 13  2  0  0  0
 12 16  1  0  0  0
 14 15  1  0  0  0
 16 17  1  0  0  0
 17 18  1  0  0  0
 17 20  1  0  0  0
 18 19  2  0  0  0
 18 24  1  0  0  0
 20 21  1  0  0  0
 20 22  1  0  0  0
 21 23  1  0  0  0
 24 25  1  0  0  0
 25 26  1  0  0  0
 25 28  1  0  0  0
 26 27  2  0  0  0
 26 32  1  0  0  0
 28 29  1  0  0  0
 29 30  1  0  0  0
 29 31  1  0  0  0
 32 33  1  0  0  0
 33 34  1  0  0  0
 33 36  1  0  0  0
 34 35  2  0  0  0
 34 38  1  0  0  0
 36 37  1  0  0  0
 38 39  1  0  0  0
 39 40  1  0  0  0
 39 42  1  0  0  0
 40 41  2  0  0  0
 40 49  1  0  0  0
 42 43  1  0  0  0
 43 44  1  0  0  0
 44 45  1  0  0  0
 45 46  1  0  0  0
 46 47  1  0  0  0
 46 48  2  0  0  0
 49 50  1  0  0  0
 50 51  1  0  0  0
 50 53  1  0  0  0
 51 52  2  0  0  0
 51 57  1  0  0  0
 53 54  1  0  0  0
 54 55  1  0  0  0
 54 56  1  0  0  0
 57 58  1  0  0  0
 58 59  1  0  0  0
 58 61  1  0  0  0
 59 60  2  0  0  0
 59 65  1  0  0  0
 61 62  1  0  0  0
 62 63  1  0  0  0
 62 64  1  0  0  0
 65 66  1  0  0  0
 66 67  1  0  0  0
 66 69  1  0  0  0
 67 68  1  0  0  0
 67 74  2  0  0  0
 69 70  1  0  0  0
 70 71  1  0  0  0
 71 72  2  0  0  0
 71 73  1  0  0  0
  1 75  1  0  0  0
  1 76  1  0  0  0
  1 77  1  0  0  0
  2 78  1  0  0  0
  5 79  1  0  0  0
  5 80  1  0  0  0
  6 81  1  0  0  0
  6 82  1  0  0  0
  7 83  1  0  0  0
  7 84  1  0  0  0
  8 85  1  0  0  0
  8 86  1  0  0  0
  9 87  1  0  0  0
  9 88  1  0  0  0
  9 89  1  0  0  0
 10 90  1  0  0  0
 11 91  1  0  0  0
 14 92  1  0  0  0
 14 93  1  0  0  0
 15 94  1  0  0  0
 16 95  1  0  0  0
 17 96  1  0  0  0
 20 97  1  0  0  0
 21 98  1  0  0  0
 21 99  1  0  0  0
 22100  1  0  0  0
 22101  1  0  0  0
 22102  1  0  0  0
 23103  1  0  0  0
 23104  1  0  0  0
 23105  1  0  0  0
 24106  1  0  0  0
 25107  1  0  0  0
 28108  1  0  0  0
 28109  1  0  0  0
 29110  1  0  0  0
 30111  1  0  0  0
 30112  1  0  0  0
 30113  1  0  0  0
 31114  1  0  0  0
 31115  1  0  0  0
 31116  1  0  0  0
 32117  1  0  0  0
 33118  1  0  0  0
 36119  1  0  0  0
 36120  1  0  0  0
 37121  1  0  0  0
 38122  1  0  0  0
 39123  1  0  0  0
 42124  1  0  0  0
 42125  1  0  0  0
 43126  1  0  0  0
 43127  1  0  0  0
 44128  1  0  0  0
 44129  1  0  0  0
 45130  1  0  0  0
 47131  1  0  0  0
 47132  1  0  0  0
 48133  1  0  0  0
 49134  1  0  0  0
 50135  1  0  0  0
 53136  1  0  0  0
 53137  1  0  0  0
 54138  1  0  0  0
 55139  1  0  0  0
 55140  1  0  0  0
 55141  1  0  0  0
 56142  1  0  0  0
 56143  1  0  0  0
 56144  1  0  0  0
 57145  1  0  0  0
 58146  1  0  0  0
 61147  1  0  0  0
 61148  1  0  0  0
 62149  1  0  0  0
 63150  1  0  0  0
 63151  1  0  0  0
 63152  1  0  0  0
 64153  1  0  0  0
 64154  1  0  0  0
 64155  1  0  0  0
 65156  1  0  0  0
 66157  1  0  0  0
 68158  1  0  0  0
 69159  1  0  0  0
 69160  1  0  0  0
 70161  1  0  0  0
 70162  1  0  0  0
 73163  1  0  0  0
 73164  1  0  0  0
M  END
$$$$
