1zyr_ligand
  -I-interpret- 

 87 91  0  0  0  0  0  0  0  0999 V2000
  -27.5940  -44.5340  -22.3290 C   0  0  0  0  0
  -26.9140  -43.2920  -22.5510 C   0  0  0  0  0
  -26.1770  -43.3940  -23.7590 N   0  0  0  0  0
  -27.1590  -45.3710  -23.4350 C   0  0  0  0  0
  -25.8500  -42.2340  -24.5140 C   0  0  0  0  0
  -27.7450  -46.4310  -23.7950 O   0  0  0  0  0
  -26.9950  -42.2470  -21.9000 O   0  0  0  0  0
  -28.5160  -44.8350  -21.3610 C   0  0  0  0  0
  -28.9440  -43.9240  -20.3420 C   0  0  0  0  0
  -29.8400  -44.2350  -19.4240 C   0  0  0  0  0
  -30.2250  -43.3700  -18.3640 C   0  0  0  0  0
  -31.0620  -43.8740  -17.4890 C   0  0  0  0  0
  -31.4910  -43.2090  -16.2530 C   0  0  0  0  0
  -29.6210  -41.9630  -18.2810 C   0  0  0  0  0
  -29.0890  -46.0960  -21.3310 O   0  0  0  0  0
  -27.0850  -41.4950  -24.6820 O   0  0  0  0  0
  -24.7090  -41.4380  -23.7910 C   0  0  0  0  0
  -30.3440  -43.2170  -15.1720 C   0  0  0  0  0
  -32.7910  -43.9040  -15.7650 C   0  0  0  0  0
  -24.4970  -40.1300  -24.5560 C   0  0  0  0  0
  -29.9930  -44.6270  -14.4790 C   0  0  0  0  0
  -30.8210  -42.3230  -14.1470 O   0  0  0  0  0
  -29.0660  -44.3820  -13.2310 C   0  0  0  0  0
  -29.2870  -45.6450  -15.4220 C   0  0  0  0  0
  -30.0030  -42.1710  -12.9400 C   0  0  0  0  0
  -25.9120  -44.8100  -24.1170 C   0  0  0  0  0
  -24.5390  -45.0300  -23.4010 C   0  0  0  0  0
  -24.3530  -46.2000  -22.4740 C   0  0  0  0  0
  -23.3360  -44.9510  -24.3920 C   0  0  0  0  0
  -24.1720  -45.8040  -21.1470 N   0  0  0  0  0
  -24.3580  -47.3960  -22.8080 O   0  0  0  0  0
  -23.9430  -46.7620  -20.0600 C   0  0  0  0  0
  -26.9270  -40.2400  -25.3890 C   0  0  0  0  0
  -25.8520  -39.3410  -24.6100 C   0  0  0  0  0
  -26.2890  -39.0940  -23.2390 O   0  0  0  0  0
  -28.3180  -39.5450  -25.5390 C   0  0  0  0  0
  -29.7840  -43.4810  -12.3260 O   0  0  0  0  0
  -28.6110  -41.4560  -13.2000 C   0  0  0  0  0
  -30.8310  -41.3040  -11.9790 C   0  0  0  0  0
  -27.6970  -43.7750  -13.5720 C   0  0  0  0  0
  -28.7680  -40.2050  -14.0150 C   0  0  0  0  0
  -27.4900  -42.4450  -13.5430 C   0  0  0  0  0
  -28.1620  -40.2370  -12.7290 O   0  0  0  0  0
  -25.4502  -42.4619  -25.5021 H   0  0  0  0  0
  -28.5085  -42.9250  -20.3237 H   0  0  0  0  0
  -30.3136  -45.2150  -19.4824 H   0  0  0  0  0
  -31.4706  -44.8632  -17.6958 H   0  0  0  0  0
  -31.7036  -42.1558  -16.4367 H   0  0  0  0  0
  -30.4219  -41.2238  -18.2952 H   0  0  0  0  0
  -29.0526  -41.8670  -17.3559 H   0  0  0  0  0
  -28.9607  -41.8016  -19.1331 H   0  0  0  0  0
  -29.7089  -46.1473  -20.5998 H   0  0  0  0  0
  -23.7891  -42.0225  -23.7771 H   0  0  0  0  0
  -24.9867  -41.2319  -22.7573 H   0  0  0  0  0
  -29.4171  -42.9408  -15.6746 H   0  0  0  0  0
  -33.5607  -43.8113  -16.5312 H   0  0  0  0  0
  -32.5891  -44.9585  -15.5768 H   0  0  0  0  0
  -33.1326  -43.4284  -14.8456 H   0  0  0  0  0
  -24.1595  -40.3485  -25.5691 H   0  0  0  0  0
  -23.7421  -39.5279  -24.0503 H   0  0  0  0  0
  -30.9501  -45.0655  -14.1967 H   0  0  0  0  0
  -28.8530  -45.3514  -12.7803 H   0  0  0  0  0
  -29.9337  -45.8589  -16.2730 H   0  0  0  0  0
  -28.3478  -45.2197  -15.7757 H   0  0  0  0  0
  -29.0870  -46.5665  -14.8753 H   0  0  0  0  0
  -25.8089  -45.2039  -25.1281 H   0  0  0  0  0
  -24.5630  -44.1843  -22.7138 H   0  0  0  0  0
  -23.4459  -45.7197  -25.1569 H   0  0  0  0  0
  -23.3187  -43.9681  -24.8628 H   0  0  0  0  0
  -22.4061  -45.1102  -23.8461 H   0  0  0  0  0
  -24.2002  -44.8089  -20.9248 H   0  0  0  0  0
  -24.7924  -47.4417  -19.9915 H   0  0  0  0  0
  -23.0361  -47.3311  -20.2641 H   0  0  0  0  0
  -23.8310  -46.2225  -19.1195 H   0  0  0  0  0
  -26.5486  -40.4005  -26.3985 H   0  0  0  0  0
  -25.7390  -38.3891  -25.1289 H   0  0  0  0  0
  -27.1186  -38.6111  -23.2509 H   0  0  0  0  0
  -28.9892  -40.1955  -26.0997 H   0  0  0  0  0
  -28.7361  -39.3547  -24.5505 H   0  0  0  0  0
  -28.1958  -38.6015  -26.0710 H   0  0  0  0  0
  -31.0328  -40.3393  -12.4444 H   0  0  0  0  0
  -31.7727  -41.8065  -11.7582 H   0  0  0  0  0
  -30.2727  -41.1534  -11.0550 H   0  0  0  0  0
  -26.8741  -44.4362  -13.8437 H   0  0  0  0  0
  -29.5156  -39.6540  -14.5857 H   0  0  0  0  0
  -28.5989  -39.8232  -15.0218 H   0  0  0  0  0
  -26.4960  -42.0596  -13.7701 H   0  0  0  0  0
  1  2  1  0  0  0
  1  4  1  0  0  0
  1  8  2  0  0  0
  2  3  1  0  0  0
  2  7  2  0  0  0
  3  5  1  0  0  0
  3 26  1  0  0  0
  4  6  2  0  0  0
  4 26  1  0  0  0
  5 16  1  0  0  0
  5 17  1  0  0  0
  8  9  1  0  0  0
  8 15  1  0  0  0
  9 10  2  0  0  0
 10 11  1  0  0  0
 11 12  2  0  0  0
 11 14  1  0  0  0
 12 13  1  0  0  0
 13 18  1  0  0  0
 13 19  1  0  0  0
 16 33  1  0  0  0
 17 20  1  0  0  0
 18 21  1  0  0  0
 18 22  1  0  0  0
 20 34  1  0  0  0
 21 23  1  0  0  0
 21 24  1  0  0  0
 22 25  1  0  0  0
 23 37  1  0  0  0
 23 40  1  0  0  0
 25 37  1  0  0  0
 25 38  1  0  0  0
 25 39  1  0  0  0
 26 27  1  0  0  0
 27 28  1  0  0  0
 27 29  1  0  0  0
 28 30  1  0  0  0
 28 31  2  0  0  0
 30 32  1  0  0  0
 33 34  1  0  0  0
 33 36  1  0  0  0
 34 35  1  0  0  0
 38 41  1  0  0  0
 38 42  1  0  0  0
 38 43  1  0  0  0
 40 42  2  0  0  0
 41 43  1  0  0  0
  5 44  1  0  0  0
  9 45  1  0  0  0
 10 46  1  0  0  0
 12 47  1  0  0  0
 13 48  1  0  0  0
 14 49  1  0  0  0
 14 50  1  0  0  0
 14 51  1  0  0  0
 15 52  1  0  0  0
 17 53  1  0  0  0
 17 54  1  0  0  0
 18 55  1  0  0  0
 19 56  1  0  0  0
 19 57  1  0  0  0
 19 58  1  0  0  0
 20 59  1  0  0  0
 20 60  1  0  0  0
 21 61  1  0  0  0
 23 62  1  0  0  0
 24 63  1  0  0  0
 24 64  1  0  0  0
 24 65  1  0  0  0
 26 66  1  0  0  0
 27 67  1  0  0  0
 29 68  1  0  0  0
 29 69  1  0  0  0
 29 70  1  0  0  0
 30 71  1  0  0  0
 32 72  1  0  0  0
 32 73  1  0  0  0
 32 74  1  0  0  0
 33 75  1  0  0  0
 34 76  1  0  0  0
 35 77  1  0  0  0
 36 78  1  0  0  0
 36 79  1  0  0  0
 36 80  1  0  0  0
 39 81  1  0  0  0
 39 82  1  0  0  0
 39 83  1  0  0  0
 40 84  1  0  0  0
 41 85  1  0  0  0
 41 86  1  0  0  0
 42 87  1  0  0  0
M  END
$$$$
