6ghj_ligand
  -I-interpret- 

 51 51  0  0  0  0  0  0  0  0999 V2000
   19.9010   17.0190   -2.5830 N   0  3  0  0  0
   21.0880   17.8800   -2.5680 C   0  0  0  0  0
   21.2390   18.5690   -3.9050 C   0  0  0  0  0
   20.8750   18.0030   -4.9390 O   0  0  0  0  0
   22.3700   17.0820   -2.2690 C   0  0  0  0  0
   22.4120   16.4800   -0.8860 C   0  0  0  0  0
   22.2300   17.2790    0.2400 C   0  0  0  0  0
   22.6320   15.1060   -0.7100 C   0  0  0  0  0
   22.2600   16.7100    1.5210 C   0  0  0  0  0
   22.6790   14.5370    0.5630 C   0  0  0  0  0
   22.4840   15.3390    1.6780 C   0  0  0  0  0
   21.8070   19.7760   -3.8780 N   0  0  0  0  0
   22.0620   20.5130   -5.1120 C   0  0  0  0  0
   22.8890   19.6910   -6.0940 C   0  0  0  0  0
   22.5210   19.5520   -7.2650 O   0  0  0  0  0
   22.7550   21.8430   -4.8000 C   0  0  0  0  0
   24.0010   19.1240   -5.6420 N   0  0  0  0  0
   24.7190   18.2150   -6.5350 C   0  0  0  0  0
   25.1740   16.9080   -5.8620 C   0  0  0  0  0
   24.8290   16.5860   -4.7160 O   0  0  0  0  0
   25.9120   18.9430   -7.1630 C   0  0  0  0  0
   26.9710   19.3990   -6.1810 C   0  0  0  0  0
   28.1670   20.0040   -6.8910 C   0  0  0  0  0
   28.0230   20.5750   -7.9870 O   0  0  0  0  0
   29.3570   19.8830   -6.2810 N   0  0  0  0  0
   25.8840   16.1040   -6.4770 O   0  0  0  0  0
   19.0755   17.5835   -2.7838 H   0  0  0  0  0
   20.0095   16.3049   -3.3032 H   0  0  0  0  0
   19.7953   16.5718   -1.6724 H   0  0  0  0  0
   20.9485   18.6152   -1.7754 H   0  0  0  0  0
   23.2070   17.7761   -2.3443 H   0  0  0  0  0
   22.4104   16.2577   -2.9810 H   0  0  0  0  0
   22.0637   18.3501    0.1250 H   0  0  0  0  0
   22.7689   14.4704   -1.5848 H   0  0  0  0  0
   22.1081   17.3391    2.3981 H   0  0  0  0  0
   22.8676   13.4699    0.6806 H   0  0  0  0  0
   22.5054   14.9006    2.6757 H   0  0  0  0  0
   22.0667   20.1896   -2.9825 H   0  0  0  0  0
   21.1022   20.7188   -5.5858 H   0  0  0  0  0
   22.1148   22.4415   -4.1519 H   0  0  0  0  0
   23.7025   21.6484   -4.2975 H   0  0  0  0  0
   22.9391   22.3821   -5.7293 H   0  0  0  0  0
   24.3441   19.3163   -4.7009 H   0  0  0  0  0
   24.0118   17.9152   -7.3084 H   0  0  0  0  0
   24.2850   17.2816   -4.3395 H   0  0  0  0  0
   25.5179   19.8400   -7.6406 H   0  0  0  0  0
   26.3926   18.2357   -7.8389 H   0  0  0  0  0
   27.3097   18.5327   -5.6127 H   0  0  0  0  0
   26.5350   20.1587   -5.5323 H   0  0  0  0  0
   30.1949   20.2686   -6.7165 H   0  0  0  0  0
   29.4231   19.4055   -5.3821 H   0  0  0  0  0
  1  2  1  0  0  0
  2  3  1  0  0  0
  2  5  1  0  0  0
  3  4  2  0  0  0
  3 12  1  0  0  0
  5  6  1  0  0  0
  6  7  4  0  0  0
  6  8  4  0  0  0
  7  9  4  0  0  0
  8 10  4  0  0  0
  9 11  4  0  0  0
 10 11  4  0  0  0
 12 13  1  0  0  0
 13 14  1  0  0  0
 13 16  1  0  0  0
 14 15  2  0  0  0
 14 17  1  0  0  0
 17 18  1  0  0  0
 18 19  1  0  0  0
 18 21  1  0  0  0
 19 20  1  0  0  0
 19 26  2  0  0  0
 21 22  1  0  0  0
 22 23  1  0  0  0
 23 24  2  0  0  0
 23 25  1  0  0  0
  1 27  1  0  0  0
  1 28  1  0  0  0
  1 29  1  0  0  0
  2 30  1  0  0  0
  5 31  1  0  0  0
  5 32  1  0  0  0
  7 33  1  0  0  0
  8 34  1  0  0  0
  9 35  1  0  0  0
 10 36  1  0  0  0
 11 37  1  0  0  0
 12 38  1  0  0  0
 13 39  1  0  0  0
 16 40  1  0  0  0
 16 41  1  0  0  0
 16 42  1  0  0  0
 17 43  1  0  0  0
 18 44  1  0  0  0
 20 45  1  0  0  0
 21 46  1  0  0  0
 21 47  1  0  0  0
 22 48  1  0  0  0
 22 49  1  0  0  0
 25 50  1  0  0  0
 25 51  1  0  0  0
M  END
$$$$
