5c4k_ligand
  -I-interpret- 

 78 80  0  0  0  0  0  0  0  0999 V2000
    0.9030    7.3810   29.1350 C   0  0  0  0  0
    1.9240    7.1310   30.1000 O   0  0  0  0  0
    1.5180    7.3120   27.7340 C   0  0  0  0  0
    2.4390    6.1780   27.6490 N   0  3  0  0  0
    2.2330    8.6110   27.3520 C   0  0  0  0  0
    2.5790    8.5520   25.9600 O   0  0  0  0  0
    1.4380    9.8920   27.6750 C   0  0  0  0  0
    2.2720   11.0650   27.5000 O   0  0  0  0  0
    0.8880    9.8830   29.1110 C   0  0  0  0  0
    0.2320    8.6370   29.4190 O   0  0  0  0  0
   -0.1130   11.0360   29.3190 C   0  0  0  0  0
    0.5910   12.2840   29.2250 O   0  0  0  0  0
   -0.8680   10.9680   30.6520 C   0  0  0  0  0
    1.7380    6.3010   34.0580 C   0  0  0  0  0
    1.6940    6.2660   35.5120 N   0  3  0  0  0
    2.6230    7.5060   33.7360 C   0  0  0  0  0
    2.8930    7.6250   32.2430 C   0  0  0  0  0
    3.6300    8.8740   32.0150 N   0  3  0  0  0
    1.5800    7.5350   31.4280 C   0  0  0  0  0
    0.5150    6.5110   31.8610 C   0  0  0  0  0
   -0.7560    6.8720   31.2990 O   0  0  0  0  0
    0.3420    6.3710   33.3730 C   0  0  0  0  0
   -0.5390    5.2270   33.5980 O   0  0  0  0  0
   -1.9710    5.4820   33.6950 C   0  0  0  0  0
   -2.6990    4.5770   34.7220 C   0  0  0  0  0
   -1.8310    4.3730   35.8320 O   0  0  0  0  0
   -3.1560    3.1700   34.3020 C   0  0  0  0  0
   -4.2500    2.7100   35.1680 N   0  3  0  0  0
   -4.4800    1.3080   35.5250 C   0  0  0  0  0
   -3.5980    3.1150   32.8470 C   0  0  0  0  0
   -4.9690    3.5670   32.8480 O   0  0  0  0  0
   -3.4700    1.6850   32.2980 C   0  0  0  0  0
   -2.7040    4.0050   31.9600 C   0  0  0  0  0
   -2.6110    5.3610   32.4210 O   0  0  0  0  0
    0.1271    6.6172   29.1858 H   0  0  0  0  0
    0.7039    7.1732   27.0226 H   0  0  0  0  0
    1.9473    5.3222   27.9063 H   0  0  0  0  0
    2.7890    6.0966   26.6944 H   0  0  0  0  0
    3.2204    6.3276   28.2873 H   0  0  0  0  0
    3.1288    8.6818   27.9689 H   0  0  0  0  0
    3.0720    7.7464   25.7878 H   0  0  0  0  0
    0.5969    9.9237   26.9825 H   0  0  0  0  0
    2.6198   11.0784   26.6053 H   0  0  0  0  0
    1.7403   10.0089   29.7787 H   0  0  0  0  0
   -0.8686   10.9467   28.5385 H   0  0  0  0  0
   -0.0257   13.0084   29.3535 H   0  0  0  0  0
   -1.4319   10.0365   30.7016 H   0  0  0  0  0
   -0.1541   11.0063   31.4748 H   0  0  0  0  0
   -1.5528   11.8130   30.7238 H   0  0  0  0  0
    2.1389    5.3702   33.6568 H   0  0  0  0  0
    1.1167    5.4815   35.8147 H   0  0  0  0  0
    2.6399    6.1543   35.8770 H   0  0  0  0  0
    1.2947    7.1377   35.8600 H   0  0  0  0  0
    3.5768    7.3775   34.2478 H   0  0  0  0  0
    2.1066    8.4081   34.0641 H   0  0  0  0  0
    3.5034    6.7921   31.8941 H   0  0  0  0  0
    3.8232    8.9764   31.0187 H   0  0  0  0  0
    3.0682    9.6624   32.3364 H   0  0  0  0  0
    4.5089    8.8480   32.5320 H   0  0  0  0  0
    1.1391    8.5228   31.5622 H   0  0  0  0  0
    0.8724    5.5496   31.4919 H   0  0  0  0  0
   -1.4181    6.2320   31.5705 H   0  0  0  0  0
   -0.1355    7.2343   33.8365 H   0  0  0  0  0
   -2.0507    6.5083   34.0535 H   0  0  0  0  0
   -3.6176    5.1344   34.9051 H   0  0  0  0  0
   -2.2668    3.8135   36.4790 H   0  0  0  0  0
   -2.2953    2.5102   34.4112 H   0  0  0  0  0
   -5.0803    2.9417   34.6227 H   0  0  0  0  0
   -4.0191    3.1351   36.0660 H   0  0  0  0  0
   -4.6537    0.7275   34.6189 H   0  0  0  0  0
   -3.6049    0.9186   36.0454 H   0  0  0  0  0
   -5.3519    1.2384   36.1754 H   0  0  0  0  0
   -5.3093    3.5553   31.9504 H   0  0  0  0  0
   -2.4308    1.3631   32.3650 H   0  0  0  0  0
   -4.0979    1.0144   32.8846 H   0  0  0  0  0
   -3.7909    1.6670   31.2565 H   0  0  0  0  0
   -3.1474    4.0266   30.9645 H   0  0  0  0  0
   -1.6993    3.5826   31.9784 H   0  0  0  0  0
  2  1  1  0  0  0
  1  3  1  0  0  0
  1 10  1  0  0  0
 19  2  1  0  0  0
  3  4  1  0  0  0
  3  5  1  0  0  0
  5  6  1  0  0  0
  5  7  1  0  0  0
  7  8  1  0  0  0
  9  7  1  0  0  0
 10  9  1  0  0  0
  9 11  1  0  0  0
 11 12  1  0  0  0
 11 13  1  0  0  0
 14 15  1  0  0  0
 16 14  1  0  0  0
 14 22  1  0  0  0
 17 16  1  0  0  0
 17 18  1  0  0  0
 17 19  1  0  0  0
 19 20  1  0  0  0
 20 21  1  0  0  0
 20 22  1  0  0  0
 22 23  1  0  0  0
 23 24  1  0  0  0
 24 25  1  0  0  0
 24 34  1  0  0  0
 25 26  1  0  0  0
 25 27  1  0  0  0
 27 28  1  0  0  0
 27 30  1  0  0  0
 28 29  1  0  0  0
 30 31  1  0  0  0
 30 32  1  0  0  0
 30 33  1  0  0  0
 33 34  1  0  0  0
  1 35  1  0  0  0
  3 36  1  0  0  0
  4 37  1  0  0  0
  4 38  1  0  0  0
  4 39  1  0  0  0
  5 40  1  0  0  0
  6 41  1  0  0  0
  7 42  1  0  0  0
  8 43  1  0  0  0
  9 44  1  0  0  0
 11 45  1  0  0  0
 12 46  1  0  0  0
 13 47  1  0  0  0
 13 48  1  0  0  0
 13 49  1  0  0  0
 14 50  1  0  0  0
 15 51  1  0  0  0
 15 52  1  0  0  0
 15 53  1  0  0  0
 16 54  1  0  0  0
 16 55  1  0  0  0
 17 56  1  0  0  0
 18 57  1  0  0  0
 18 58  1  0  0  0
 18 59  1  0  0  0
 19 60  1  0  0  0
 20 61  1  0  0  0
 21 62  1  0  0  0
 22 63  1  0  0  0
 24 64  1  0  0  0
 25 65  1  0  0  0
 26 66  1  0  0  0
 27 67  1  0  0  0
 28 68  1  0  0  0
 28 69  1  0  0  0
 29 70  1  0  0  0
 29 71  1  0  0  0
 29 72  1  0  0  0
 31 73  1  0  0  0
 32 74  1  0  0  0
 32 75  1  0  0  0
 32 76  1  0  0  0
 33 77  1  0  0  0
 33 78  1  0  0  0
M  END
$$$$
