3cp9_ligand
  -I-interpret- 

 53 57  0  0  0  0  0  0  0  0999 V2000
   12.3550   27.5790   32.7550 N   0  0  0  0  0
   13.2260   28.5910   33.0590 C   0  0  0  0  0
   13.6290   29.5030   32.0330 C   0  0  0  0  0
   13.1290   29.3300   30.6840 C   0  0  0  0  0
   12.2480   28.2840   30.4470 N   0  0  0  0  0
   11.9150   27.4660   31.4700 C   0  0  0  0  0
   14.5370   30.5560   32.3280 C   0  0  0  0  0
   14.9360   31.4590   31.2950 C   0  0  0  0  0
   14.4310   31.2940   29.9710 C   0  0  0  0  0
   13.5300   30.2420   29.6740 C   0  0  0  0  0
   11.0730   26.4780   31.1930 N   0  0  0  0  0
   15.8810   32.5530   31.6070 C   0  0  0  0  0
   15.3390   33.9320   31.9330 C   0  0  0  0  0
   16.2550   34.9470   32.2460 N   0  0  0  0  0
   17.7360   34.6680   32.2460 C   0  0  0  0  0
   18.1970   33.4230   31.9420 C   0  0  0  0  0
   17.2500   32.3210   31.6190 C   0  0  0  0  0
   17.9500   30.9990   31.3580 C   0  0  0  0  0
   14.1150   34.1020   31.9160 O   0  0  0  0  0
   15.7960   36.2170   32.5800 C   0  0  0  0  0
   16.1750   37.3900   31.8430 C   0  0  0  0  0
   15.6850   38.6820   32.2290 C   0  0  0  0  0
   14.8110   38.7730   33.3570 C   0  0  0  0  0
   14.4510   37.6180   34.0630 C   0  0  0  0  0
   14.9210   36.3490   33.7090 C   0  0  0  0  0
   14.1530   39.9990   33.9670 C   0  0  0  0  0
   13.5170   39.3940   35.2440 C   0  0  0  0  0
   13.6280   37.9400   35.0730 N   0  0  0  0  0
   13.0660   40.5320   33.0250 C   0  0  0  0  0
   15.1780   41.0810   34.3190 C   0  0  0  0  0
   13.6089   28.7007   34.0736 H   0  0  0  0  0
   14.9276   30.6743   33.3387 H   0  0  0  0  0
   14.7402   31.9813   29.1835 H   0  0  0  0  0
   13.1417   30.1324   28.6614 H   0  0  0  0  0
   10.7784   25.8373   31.9300 H   0  0  0  0  0
   10.7206   26.3594   30.2432 H   0  0  0  0  0
   18.4395   35.4641   32.4897 H   0  0  0  0  0
   19.2701   33.2317   31.9352 H   0  0  0  0  0
   17.6210   30.2639   32.0925 H   0  0  0  0  0
   17.7016   30.6494   30.3559 H   0  0  0  0  0
   19.0281   31.1380   31.4389 H   0  0  0  0  0
   16.8398   37.2980   30.9841 H   0  0  0  0  0
   15.9728   39.5751   31.6743 H   0  0  0  0  0
   14.6260   35.4712   34.2840 H   0  0  0  0  0
   12.4804   39.7080   35.3661 H   0  0  0  0  0
   14.0239   39.7339   36.1471 H   0  0  0  0  0
   13.1388   37.2573   35.6518 H   0  0  0  0  0
   13.5157   40.8026   32.0697 H   0  0  0  0  0
   12.3128   39.7600   32.8678 H   0  0  0  0  0
   12.5999   41.4108   33.4706 H   0  0  0  0  0
   15.8926   40.6823   35.0390 H   0  0  0  0  0
   15.7042   41.3890   33.4154 H   0  0  0  0  0
   14.6642   41.9392   34.7522 H   0  0  0  0  0
  1  2  4  0  0  0
  1  6  4  0  0  0
  2  3  4  0  0  0
  3  4  4  0  0  0
  3  7  4  0  0  0
  4  5  4  0  0  0
  4 10  4  0  0  0
  5  6  4  0  0  0
  6 11  1  0  0  0
  7  8  4  0  0  0
  8  9  4  0  0  0
  8 12  1  0  0  0
  9 10  4  0  0  0
 12 13  1  0  0  0
 12 17  2  0  0  0
 13 14  1  0  0  0
 13 19  2  0  0  0
 14 15  1  0  0  0
 14 20  1  0  0  0
 15 16  2  0  0  0
 16 17  1  0  0  0
 17 18  1  0  0  0
 20 21  4  0  0  0
 20 25  4  0  0  0
 21 22  4  0  0  0
 22 23  4  0  0  0
 23 24  4  0  0  0
 23 26  1  0  0  0
 24 25  4  0  0  0
 24 28  1  0  0  0
 26 27  1  0  0  0
 26 29  1  0  0  0
 26 30  1  0  0  0
 27 28  1  0  0  0
  2 31  1  0  0  0
  7 32  1  0  0  0
  9 33  1  0  0  0
 10 34  1  0  0  0
 11 35  1  0  0  0
 11 36  1  0  0  0
 15 37  1  0  0  0
 16 38  1  0  0  0
 18 39  1  0  0  0
 18 40  1  0  0  0
 18 41  1  0  0  0
 21 42  1  0  0  0
 22 43  1  0  0  0
 25 44  1  0  0  0
 27 45  1  0  0  0
 27 46  1  0  0  0
 28 47  1  0  0  0
 29 48  1  0  0  0
 29 49  1  0  0  0
 29 50  1  0  0  0
 30 51  1  0  0  0
 30 52  1  0  0  0
 30 53  1  0  0  0
M  END
$$$$
