4bnv_ligand
  -I-interpret- 

 34 36  0  0  0  0  0  0  0  0999 V2000
    7.2870   -1.5550  -33.9830 Cl  0  0  0  0  0
    5.8320   -1.2700  -34.7410 C   0  0  0  0  0
    5.1850   -2.3520  -35.3040 C   0  0  0  0  0
    3.9770   -2.1640  -35.9480 C   0  0  0  0  0
    3.4160   -0.8960  -36.0290 C   0  0  0  0  0
    4.0610    0.1980  -35.4630 C   0  0  0  0  0
    5.2760    0.0020  -34.8110 C   0  0  0  0  0
    5.9640    1.0030  -34.2460 N   0  0  0  0  0
    5.2630    2.0920  -33.9050 C   0  0  0  0  0
    4.0550    2.1250  -34.1010 O   0  0  0  0  0
    5.8890    3.1530  -33.3630 N   0  0  0  0  0
    7.1940    3.0860  -33.1150 C   0  0  0  0  0
    7.9430    1.9920  -33.1190 N   0  0  0  0  0
    9.1710    2.3870  -32.7710 C   0  0  0  0  0
   10.3010    1.7040  -32.6260 C   0  0  0  0  0
   11.4790    2.3460  -32.2640 C   0  0  0  0  0
   11.4440    3.7110  -32.0470 C   0  0  0  0  0
   10.2460    4.3760  -32.2080 C   0  0  0  0  0
    9.1630    3.7030  -32.5580 C   0  0  0  0  0
    7.9320    4.1340  -32.7570 N   0  0  0  0  0
    7.5830    5.5710  -32.5910 C   0  0  0  0  0
    5.6241   -3.3476  -35.2409 H   0  0  0  0  0
    3.4620   -3.0146  -36.3945 H   0  0  0  0  0
    2.4632   -0.7575  -36.5400 H   0  0  0  0  0
    3.6225    1.1937  -35.5286 H   0  0  0  0  0
    6.9690    0.9391  -34.0840 H   0  0  0  0  0
    5.3669    4.0015  -33.1442 H   0  0  0  0  0
   10.3043    0.6269  -32.7930 H   0  0  0  0  0
   12.4082    1.7870  -32.1538 H   0  0  0  0  0
   12.3447    4.2508  -31.7546 H   0  0  0  0  0
   10.1924    5.4527  -32.0472 H   0  0  0  0  0
    7.2163    5.9663  -33.5383 H   0  0  0  0  0
    6.8086    5.6700  -31.8304 H   0  0  0  0  0
    8.4694    6.1256  -32.2832 H   0  0  0  0  0
  1  2  1  0  0  0
  2  3  4  0  0  0
  2  7  4  0  0  0
  3  4  4  0  0  0
  4  5  4  0  0  0
  5  6  4  0  0  0
  6  7  4  0  0  0
  7  8  1  0  0  0
  8  9  1  0  0  0
  9 10  2  0  0  0
  9 11  1  0  0  0
 11 12  1  0  0  0
 12 13  4  0  0  0
 12 20  4  0  0  0
 13 14  4  0  0  0
 14 15  4  0  0  0
 14 19  4  0  0  0
 15 16  4  0  0  0
 16 17  4  0  0  0
 17 18  4  0  0  0
 18 19  4  0  0  0
 19 20  4  0  0  0
 20 21  1  0  0  0
  3 22  1  0  0  0
  4 23  1  0  0  0
  5 24  1  0  0  0
  6 25  1  0  0  0
  8 26  1  0  0  0
 11 27  1  0  0  0
 15 28  1  0  0  0
 16 29  1  0  0  0
 17 30  1  0  0  0
 18 31  1  0  0  0
 21 32  1  0  0  0
 21 33  1  0  0  0
 21 34  1  0  0  0
M  END
$$$$
