4abe_ligand
  -I-interpret- 

 25 26  0  0  0  0  0  0  0  0999 V2000
   -1.8170   16.0610   18.2590 C   0  0  0  0  0
   -3.0940   15.9260   19.0130 N   0  3  0  0  0
   -1.7230   15.1360   17.0450 C   0  0  0  0  0
   -3.0610   11.9550   15.3360 N   0  0  0  0  0
   -0.9570   15.5620   15.9930 C   0  0  0  0  0
   -0.8960   14.8470   14.8230 C   0  0  0  0  0
   -1.5620   13.6560   14.6280 C   0  0  0  0  0
   -2.3440   13.2010   15.6380 C   0  0  0  0  0
   -2.6060   10.9080   14.5570 C   0  0  0  0  0
   -3.5600    9.9270   14.6450 C   0  0  0  0  0
   -4.5490   10.5020   15.4970 C   0  0  0  0  0
   -2.4120   13.9490   16.7980 C   0  0  0  0  0
   -4.2930   11.7620   15.8630 N   0  0  0  0  0
   -1.0068   15.7937   18.9374 H   0  0  0  0  0
   -1.7595   17.0865   17.8941 H   0  0  0  0  0
   -3.0891   16.5683   19.8054 H   0  0  0  0  0
   -3.8761   16.1494   18.3975 H   0  0  0  0  0
   -3.1884   14.9682   19.3508 H   0  0  0  0  0
   -0.3855   16.4854   16.0864 H   0  0  0  0  0
   -0.2903   15.2409   14.0068 H   0  0  0  0  0
   -1.4636   13.1001   13.6956 H   0  0  0  0  0
   -1.6771   10.8698   13.9880 H   0  0  0  0  0
   -3.5621    8.9431   14.1760 H   0  0  0  0  0
   -5.4374    9.9604   15.8218 H   0  0  0  0  0
   -3.0621   13.5782   17.5905 H   0  0  0  0  0
  1  2  1  0  0  0
  3  1  1  0  0  0
  5  3  4  0  0  0
  3 12  4  0  0  0
  8  4  1  0  0  0
  4  9  4  0  0  0
  4 13  4  0  0  0
  6  5  4  0  0  0
  7  6  4  0  0  0
  7  8  4  0  0  0
  8 12  4  0  0  0
  9 10  4  0  0  0
 10 11  4  0  0  0
 11 13  4  0  0  0
  1 14  1  0  0  0
  1 15  1  0  0  0
  2 16  1  0  0  0
  2 17  1  0  0  0
  2 18  1  0  0  0
  5 19  1  0  0  0
  6 20  1  0  0  0
  7 21  1  0  0  0
  9 22  1  0  0  0
 10 23  1  0  0  0
 11 24  1  0  0  0
 12 25  1  0  0  0
M  END
$$$$
