6mjq_ligand
  -I-interpret- 

175176  0  0  0  0  0  0  0  0999 V2000
  -56.4460  -31.9960  208.8570 C   0  0  0  0  0
  -58.1080  -30.3650  207.9640 C   0  0  0  0  0
  -58.1180  -29.6540  209.3210 C   0  0  0  0  0
  -56.7930  -29.9490  210.0590 C   0  0  0  0  0
  -56.7690  -29.3770  211.4840 C   0  0  0  0  0
  -57.7600  -31.8430  208.1160 C   0  0  0  0  0
  -59.2740  -30.0950  210.0780 O   0  0  0  0  0
  -55.3980  -31.4090  208.0640 O   0  0  0  0  0
  -59.3980  -30.2620  207.3590 O   0  0  0  0  0
  -44.0620  -36.0050  196.5680 C   0  0  0  0  0
  -45.2330  -35.0360  196.7620 C   0  0  0  0  0
  -44.7190  -33.5910  196.7530 C   0  0  0  0  0
  -45.8850  -32.6180  196.9830 C   0  0  0  0  0
  -45.4200  -31.4410  197.8490 C   0  0  0  0  0
  -46.5760  -30.4540  198.0690 C   0  0  0  0  0
  -46.6240  -30.0380  199.5440 C   0  0  0  0  0
  -47.5620  -28.8410  199.7160 C   0  0  0  0  0
  -47.5790  -28.3950  201.1850 C   0  0  0  0  0
  -48.6940  -29.1150  201.9560 C   0  0  0  0  0
  -48.7730  -28.5550  203.3830 C   0  0  0  0  0
  -49.9930  -29.1320  204.1190 C   0  0  0  0  0
  -49.7110  -30.5660  204.5970 C   0  0  0  0  0
  -50.6720  -30.9610  205.7340 C   0  0  0  0  0
  -52.1420  -30.8900  205.2790 C   0  0  0  0  0
  -52.2890  -31.5220  204.0030 O   0  0  0  0  0
  -53.0850  -31.5990  206.2720 C   0  0  0  0  0
  -52.7200  -32.9800  206.3660 O   0  0  0  0  0
  -53.0590  -30.9610  207.6760 C   0  0  0  0  0
  -54.0860  -31.6570  208.5800 C   0  0  0  0  0
  -57.6370  -32.4320  206.8160 O   0  0  0  0  0
  -56.5720  -31.3730  210.1490 O   0  0  0  0  0
  -56.6540  -27.9530  211.4320 O   0  0  0  0  0
  -59.9830  -29.0290  210.7460 C   0  0  0  0  0
  -61.0100  -28.4950  209.9520 C   0  0  0  0  0
  -61.1380  -27.1120  209.8010 C   0  0  0  0  0
  -62.1630  -26.5740  209.0230 C   0  0  0  0  0
  -63.0830  -27.4100  208.3810 C   0  0  0  0  0
  -64.1230  -26.8670  207.5980 C   0  0  0  0  0
  -63.7220  -25.6860  207.0240 F   0  0  0  0  0
  -65.2070  -26.6300  208.3920 F   0  0  0  0  0
  -64.4880  -27.7410  206.5910 F   0  0  0  0  0
  -62.9580  -28.7950  208.5430 C   0  0  0  0  0
  -61.9310  -29.3310  209.3220 C   0  0  0  0  0
  -53.4050  -29.5300  207.5950 N   0  0  0  0  0
  -53.1110  -28.6730  208.5890 C   0  0  0  0  0
  -52.5470  -28.9970  209.6340 O   0  0  0  0  0
  -53.5600  -27.2230  208.3550 C   0  0  0  0  0
  -52.4350  -26.2320  208.6840 C   0  0  0  0  0
  -51.5440  -25.9910  207.4600 C   0  0  0  0  0
  -50.6680  -24.7640  207.7360 C   0  0  0  0  0
  -49.4790  -24.7010  206.7710 C   0  0  0  0  0
  -48.3230  -23.9810  207.4680 C   0  0  0  0  0
  -47.2320  -23.6300  206.4500 C   0  0  0  0  0
  -45.9950  -23.0650  207.1650 C   0  0  0  0  0
  -45.3020  -24.1680  207.9790 C   0  0  0  0  0
  -43.7920  -23.9270  208.0880 C   0  0  0  0  0
  -43.4900  -22.8200  209.1000 C   0  0  0  0  0
  -43.4410  -23.3940  210.5200 C   0  0  0  0  0
  -43.0360  -22.2830  211.4920 C   0  0  0  0  0
  -43.5260  -22.6110  212.9050 C   0  0  0  0  0
  -43.2530  -21.4140  213.8210 C   0  0  0  0  0
  -44.4520  -20.4600  213.8000 C   0  0  0  0  0
  -43.9890  -19.0340  214.1190 C   0  0  0  0  0
  -45.2030  -18.1380  214.3880 C   0  0  0  0  0
  -45.7970  -17.6240  213.0660 C   0  0  0  0  0
  -47.3290  -17.7120  213.1100 C   0  0  0  0  0
  -47.9900  -16.6820  212.1750 C   0  0  0  0  0
  -47.4740  -16.7720  210.7290 C   0  0  0  0  0
  -47.7280  -18.1580  210.1380 C   0  0  0  0  0
  -47.5850  -18.0860  208.6170 C   0  0  0  0  0
  -47.5850  -19.5020  208.0320 C   0  0  0  0  0
  -56.1943  -33.0446  209.0156 H   0  0  0  0  0
  -57.3526  -29.8858  207.3412 H   0  0  0  0  0
  -58.1935  -28.5742  209.1929 H   0  0  0  0  0
  -56.0085  -29.4674  209.4752 H   0  0  0  0  0
  -55.9156  -29.7882  212.0232 H   0  0  0  0  0
  -57.6931  -29.6456  211.9959 H   0  0  0  0  0
  -58.5489  -32.3401  208.6805 H   0  0  0  0  0
  -59.6295  -29.3359  207.2574 H   0  0  0  0  0
  -43.5771  -35.8004  195.6135 H   0  0  0  0  0
  -43.3442  -35.8722  197.3775 H   0  0  0  0  0
  -44.4346  -37.0293  196.5755 H   0  0  0  0  0
  -45.7156  -35.2408  197.7177 H   0  0  0  0  0
  -45.9487  -35.1688  195.9507 H   0  0  0  0  0
  -44.2602  -33.3793  195.7872 H   0  0  0  0  0
  -43.9851  -33.4662  197.5492 H   0  0  0  0  0
  -46.6945  -33.1411  197.4922 H   0  0  0  0  0
  -46.2335  -32.2411  196.0215 H   0  0  0  0  0
  -44.6035  -30.9265  197.3425 H   0  0  0  0  0
  -45.0856  -31.8194  198.8150 H   0  0  0  0  0
  -47.5170  -30.9321  197.7969 H   0  0  0  0  0
  -46.4213  -29.5712  197.4487 H   0  0  0  0  0
  -45.6224  -29.7606  199.8726 H   0  0  0  0  0
  -46.9917  -30.8722  200.1415 H   0  0  0  0  0
  -48.5698  -29.1289  199.4167 H   0  0  0  0  0
  -47.2102  -28.0172  199.0949 H   0  0  0  0  0
  -47.7587  -27.3207  201.2256 H   0  0  0  0  0
  -46.6195  -28.6414  201.6398 H   0  0  0  0  0
  -48.4773  -30.1825  201.9960 H   0  0  0  0  0
  -49.6464  -28.9565  201.4502 H   0  0  0  0  0
  -48.8687  -27.4703  203.3337 H   0  0  0  0  0
  -47.8683  -28.8329  203.9238 H   0  0  0  0  0
  -50.8416  -29.1489  203.4351 H   0  0  0  0  0
  -50.2094  -28.5077  204.9859 H   0  0  0  0  0
  -48.6872  -30.6186  204.9673 H   0  0  0  0  0
  -49.8548  -31.2504  203.7609 H   0  0  0  0  0
  -50.5323  -30.2659  206.5619 H   0  0  0  0  0
  -50.4516  -31.9859  206.0327 H   0  0  0  0  0
  -52.4094  -29.8347  205.2256 H   0  0  0  0  0
  -53.2072  -31.4734  203.7270 H   0  0  0  0  0
  -54.1006  -31.4940  205.8903 H   0  0  0  0  0
  -53.3059  -33.4234  206.9838 H   0  0  0  0  0
  -52.0555  -31.0738  208.0862 H   0  0  0  0  0
  -53.8936  -32.7297  208.5998 H   0  0  0  0  0
  -54.0086  -31.2674  209.5950 H   0  0  0  0  0
  -57.4180  -33.3623  206.9068 H   0  0  0  0  0
  -56.6395  -27.6014  212.3252 H   0  0  0  0  0
  -59.2716  -28.2316  210.9610 H   0  0  0  0  0
  -60.4321  -29.4364  211.6518 H   0  0  0  0  0
  -60.4301  -26.4471  210.2959 H   0  0  0  0  0
  -62.2480  -25.4928  208.9142 H   0  0  0  0  0
  -63.6698  -29.4615  208.0560 H   0  0  0  0  0
  -61.8485  -30.4116  209.4386 H   0  0  0  0  0
  -53.8801  -29.1806  206.7628 H   0  0  0  0  0
  -54.4091  -27.0130  209.0054 H   0  0  0  0  0
  -53.8285  -27.1077  207.3049 H   0  0  0  0  0
  -51.8247  -26.6477  209.4858 H   0  0  0  0  0
  -52.8799  -25.2839  208.9862 H   0  0  0  0  0
  -52.1600  -25.8195  206.5773 H   0  0  0  0  0
  -50.9175  -26.8638  207.2762 H   0  0  0  0  0
  -50.2854  -24.8325  208.7543 H   0  0  0  0  0
  -51.2732  -23.8677  207.6002 H   0  0  0  0  0
  -49.7622  -24.1608  205.8676 H   0  0  0  0  0
  -49.1738  -25.7094  206.4915 H   0  0  0  0  0
  -47.9027  -24.6348  208.2322 H   0  0  0  0  0
  -48.6955  -23.0638  207.9242 H   0  0  0  0  0
  -47.6178  -22.8790  205.7606 H   0  0  0  0  0
  -46.9480  -24.5322  205.9083 H   0  0  0  0  0
  -46.3062  -22.2667  207.8388 H   0  0  0  0  0
  -45.2980  -22.6797  206.4208 H   0  0  0  0  0
  -45.4626  -25.1204  207.4738 H   0  0  0  0  0
  -45.7233  -24.1696  208.9843 H   0  0  0  0  0
  -43.4132  -23.6238  207.1120 H   0  0  0  0  0
  -43.3123  -24.8476  208.4206 H   0  0  0  0  0
  -44.2765  -22.0671  209.0481 H   0  0  0  0  0
  -42.5232  -22.3760  208.8628 H   0  0  0  0  0
  -42.7137  -24.2047  210.5642 H   0  0  0  0  0
  -44.4218  -23.7827  210.7937 H   0  0  0  0  0
  -43.4853  -21.3443  211.1678 H   0  0  0  0  0
  -41.9494  -22.1970  211.5024 H   0  0  0  0  0
  -42.9994  -23.4881  213.2812 H   0  0  0  0  0
  -44.5957  -22.8192  212.8829 H   0  0  0  0  0
  -42.3664  -20.8862  213.4696 H   0  0  0  0  0
  -43.0925  -21.7686  214.8391 H   0  0  0  0  0
  -45.1781  -20.7783  214.5481 H   0  0  0  0  0
  -44.9080  -20.4772  212.8101 H   0  0  0  0  0
  -43.4322  -18.6387  213.2694 H   0  0  0  0  0
  -43.3532  -19.0525  215.0041 H   0  0  0  0  0
  -44.8874  -17.2855  214.9894 H   0  0  0  0  0
  -45.9609  -18.7176  214.9149 H   0  0  0  0  0
  -45.4259  -18.2361  212.2440 H   0  0  0  0  0
  -45.5014  -16.5851  212.9197 H   0  0  0  0  0
  -47.6542  -17.5063  214.1298 H   0  0  0  0  0
  -47.6238  -18.7092  212.7832 H   0  0  0  0  0
  -47.7524  -15.6876  212.5528 H   0  0  0  0  0
  -49.0611  -16.8837  212.1603 H   0  0  0  0  0
  -46.4001  -16.5854  210.7302 H   0  0  0  0  0
  -48.0010  -16.0337  210.1246 H   0  0  0  0  0
  -48.7338  -18.4888  210.3969 H   0  0  0  0  0
  -47.0053  -18.8672  210.5415 H   0  0  0  0  0
  -46.6475  -17.5904  208.3648 H   0  0  0  0  0
  -48.4206  -17.5229  208.2013 H   0  0  0  0  0
  -46.7501  -20.0657  208.4482 H   0  0  0  0  0
  -48.5220  -19.9982  208.2848 H   0  0  0  0  0
  -47.4829  -19.4460  206.9482 H   0  0  0  0  0
  1  6  1  0  0  0
  8  1  1  0  0  0
  1 31  1  0  0  0
  2  3  1  0  0  0
  6  2  1  0  0  0
  2  9  1  0  0  0
  4  3  1  0  0  0
  3  7  1  0  0  0
  4  5  1  0  0  0
 31  4  1  0  0  0
  5 32  1  0  0  0
  6 30  1  0  0  0
  7 33  1  0  0  0
 29  8  1  0  0  0
 11 10  1  0  0  0
 12 11  1  0  0  0
 13 12  1  0  0  0
 14 13  1  0  0  0
 15 14  1  0  0  0
 16 15  1  0  0  0
 17 16  1  0  0  0
 18 17  1  0  0  0
 19 18  1  0  0  0
 20 19  1  0  0  0
 21 20  1  0  0  0
 22 21  1  0  0  0
 23 22  1  0  0  0
 24 23  1  0  0  0
 24 25  1  0  0  0
 26 24  1  0  0  0
 26 27  1  0  0  0
 28 26  1  0  0  0
 28 29  1  0  0  0
 28 44  1  0  0  0
 33 34  1  0  0  0
 34 35  4  0  0  0
 34 43  4  0  0  0
 35 36  4  0  0  0
 36 37  4  0  0  0
 37 38  1  0  0  0
 37 42  4  0  0  0
 38 39  1  0  0  0
 38 40  1  0  0  0
 38 41  1  0  0  0
 42 43  4  0  0  0
 44 45  1  0  0  0
 45 46  2  0  0  0
 45 47  1  0  0  0
 47 48  1  0  0  0
 48 49  1  0  0  0
 49 50  1  0  0  0
 50 51  1  0  0  0
 51 52  1  0  0  0
 52 53  1  0  0  0
 53 54  1  0  0  0
 54 55  1  0  0  0
 55 56  1  0  0  0
 56 57  1  0  0  0
 57 58  1  0  0  0
 58 59  1  0  0  0
 59 60  1  0  0  0
 60 61  1  0  0  0
 61 62  1  0  0  0
 62 63  1  0  0  0
 63 64  1  0  0  0
 64 65  1  0  0  0
 65 66  1  0  0  0
 66 67  1  0  0  0
 67 68  1  0  0  0
 68 69  1  0  0  0
 69 70  1  0  0  0
 70 71  1  0  0  0
  1 72  1  0  0  0
  2 73  1  0  0  0
  3 74  1  0  0  0
  4 75  1  0  0  0
  5 76  1  0  0  0
  5 77  1  0  0  0
  6 78  1  0  0  0
  9 79  1  0  0  0
 10 80  1  0  0  0
 10 81  1  0  0  0
 10 82  1  0  0  0
 11 83  1  0  0  0
 11 84  1  0  0  0
 12 85  1  0  0  0
 12 86  1  0  0  0
 13 87  1  0  0  0
 13 88  1  0  0  0
 14 89  1  0  0  0
 14 90  1  0  0  0
 15 91  1  0  0  0
 15 92  1  0  0  0
 16 93  1  0  0  0
 16 94  1  0  0  0
 17 95  1  0  0  0
 17 96  1  0  0  0
 18 97  1  0  0  0
 18 98  1  0  0  0
 19 99  1  0  0  0
 19100  1  0  0  0
 20101  1  0  0  0
 20102  1  0  0  0
 21103  1  0  0  0
 21104  1  0  0  0
 22105  1  0  0  0
 22106  1  0  0  0
 23107  1  0  0  0
 23108  1  0  0  0
 24109  1  0  0  0
 25110  1  0  0  0
 26111  1  0  0  0
 27112  1  0  0  0
 28113  1  0  0  0
 29114  1  0  0  0
 29115  1  0  0  0
 30116  1  0  0  0
 32117  1  0  0  0
 33118  1  0  0  0
 33119  1  0  0  0
 35120  1  0  0  0
 36121  1  0  0  0
 42122  1  0  0  0
 43123  1  0  0  0
 44124  1  0  0  0
 47125  1  0  0  0
 47126  1  0  0  0
 48127  1  0  0  0
 48128  1  0  0  0
 49129  1  0  0  0
 49130  1  0  0  0
 50131  1  0  0  0
 50132  1  0  0  0
 51133  1  0  0  0
 51134  1  0  0  0
 52135  1  0  0  0
 52136  1  0  0  0
 53137  1  0  0  0
 53138  1  0  0  0
 54139  1  0  0  0
 54140  1  0  0  0
 55141  1  0  0  0
 55142  1  0  0  0
 56143  1  0  0  0
 56144  1  0  0  0
 57145  1  0  0  0
 57146  1  0  0  0
 58147  1  0  0  0
 58148  1  0  0  0
 59149  1  0  0  0
 59150  1  0  0  0
 60151  1  0  0  0
 60152  1  0  0  0
 61153  1  0  0  0
 61154  1  0  0  0
 62155  1  0  0  0
 62156  1  0  0  0
 63157  1  0  0  0
 63158  1  0  0  0
 64159  1  0  0  0
 64160  1  0  0  0
 65161  1  0  0  0
 65162  1  0  0  0
 66163  1  0  0  0
 66164  1  0  0  0
 67165  1  0  0  0
 67166  1  0  0  0
 68167  1  0  0  0
 68168  1  0  0  0
 69169  1  0  0  0
 69170  1  0  0  0
 70171  1  0  0  0
 70172  1  0  0  0
 71173  1  0  0  0
 71174  1  0  0  0
 71175  1  0  0  0
M  END
$$$$
