### 
### Created by X-TOOL on Mon Aug  2 16:14:54 2021
### 

@<TRIPOS>MOLECULE
6mjq_ligand
  175   176     1     0     0
SMALL
GAST_HUCK


@<TRIPOS>ATOM
      1 C1        -56.4460  -31.9960  208.8570 C.3       1 JUD         0.1880
      2 C5        -58.1080  -30.3650  207.9640 C.3       1 JUD         0.1146
      3 C4        -58.1180  -29.6540  209.3210 C.3       1 JUD         0.1190
      4 C3        -56.7930  -29.9490  210.0590 C.3       1 JUD         0.1136
      5 C2        -56.7690  -29.3770  211.4840 C.3       1 JUD         0.0730
      6 C6        -57.7600  -31.8430  208.1160 C.3       1 JUD         0.1341
      7 O4        -59.2740  -30.0950  210.0780 O.3       1 JUD        -0.3529
      8 O1        -55.3980  -31.4090  208.0640 O.3       1 JUD        -0.3463
      9 O3        -59.3980  -30.2620  207.3590 O.3       1 JUD        -0.3864
     10 CBT       -44.0620  -36.0050  196.5680 C.3       1 JUD        -0.0653
     11 CBS       -45.2330  -35.0360  196.7620 C.3       1 JUD        -0.0559
     12 CBR       -44.7190  -33.5910  196.7530 C.3       1 JUD        -0.0533
     13 CBQ       -45.8850  -32.6180  196.9830 C.3       1 JUD        -0.0531
     14 CBP       -45.4200  -31.4410  197.8490 C.3       1 JUD        -0.0531
     15 CBO       -46.5760  -30.4540  198.0690 C.3       1 JUD        -0.0531
     16 CBN       -46.6240  -30.0380  199.5440 C.3       1 JUD        -0.0531
     17 CBM       -47.5620  -28.8410  199.7160 C.3       1 JUD        -0.0531
     18 CBL       -47.5790  -28.3950  201.1850 C.3       1 JUD        -0.0531
     19 CBK       -48.6940  -29.1150  201.9560 C.3       1 JUD        -0.0531
     20 CBJ       -48.7730  -28.5550  203.3830 C.3       1 JUD        -0.0531
     21 CBI       -49.9930  -29.1320  204.1190 C.3       1 JUD        -0.0530
     22 CBH       -49.7110  -30.5660  204.5970 C.3       1 JUD        -0.0506
     23 CBG       -50.6720  -30.9610  205.7340 C.3       1 JUD        -0.0243
     24 CAQ       -52.1420  -30.8900  205.2790 C.3       1 JUD         0.0833
     25 OAR       -52.2890  -31.5220  204.0030 O.3       1 JUD        -0.3892
     26 CAP       -53.0850  -31.5990  206.2720 C.3       1 JUD         0.1059
     27 OAS       -52.7200  -32.9800  206.3660 O.3       1 JUD        -0.3869
     28 CAN       -53.0590  -30.9610  207.6760 C.3       1 JUD         0.0936
     29 CAM       -54.0860  -31.6570  208.5800 C.3       1 JUD         0.0762
     30 O5        -57.6370  -32.4320  206.8160 O.3       1 JUD        -0.3841
     31 O2        -56.5720  -31.3730  210.1490 O.3       1 JUD        -0.3405
     32 O6        -56.6540  -27.9530  211.4320 O.3       1 JUD        -0.3924
     33 CAT       -59.9830  -29.0290  210.7460 C.3       1 JUD         0.0971
     34 CAU       -61.0100  -28.4950  209.9520 C.ar      1 JUD         0.0144
     35 CAV       -61.1380  -27.1120  209.8010 C.ar      1 JUD        -0.0260
     36 CAW       -62.1630  -26.5740  209.0230 C.ar      1 JUD        -0.0371
     37 CAX       -63.0830  -27.4100  208.3810 C.ar      1 JUD         0.0385
     38 CBA       -64.1230  -26.8670  207.5980 C.3       1 JUD         0.3684
     39 FBS       -63.7220  -25.6860  207.0240 F         1 JUD        -0.2274
     40 FBT       -65.2070  -26.6300  208.3920 F         1 JUD        -0.2274
     41 FBR       -64.4880  -27.7410  206.5910 F         1 JUD        -0.2274
     42 CAY       -62.9580  -28.7950  208.5430 C.ar      1 JUD        -0.0371
     43 CAZ       -61.9310  -29.3310  209.3220 C.ar      1 JUD        -0.0260
     44 NAO       -53.4050  -29.5300  207.5950 N.am      1 JUD        -0.2791
     45 CBE       -53.1110  -28.6730  208.5890 C.2       1 JUD         0.1764
     46 OBF       -52.5470  -28.9970  209.6340 O.2       1 JUD        -0.3971
     47 CBU       -53.5600  -27.2230  208.3550 C.3       1 JUD         0.0372
     48 CBV       -52.4350  -26.2320  208.6840 C.3       1 JUD        -0.0361
     49 CBW       -51.5440  -25.9910  207.4600 C.3       1 JUD        -0.0510
     50 CBX       -50.6680  -24.7640  207.7360 C.3       1 JUD        -0.0529
     51 CBY       -49.4790  -24.7010  206.7710 C.3       1 JUD        -0.0531
     52 CBZ       -48.3230  -23.9810  207.4680 C.3       1 JUD        -0.0531
     53 CCA       -47.2320  -23.6300  206.4500 C.3       1 JUD        -0.0531
     54 CCB       -45.9950  -23.0650  207.1650 C.3       1 JUD        -0.0531
     55 CCC       -45.3020  -24.1680  207.9790 C.3       1 JUD        -0.0531
     56 CCD       -43.7920  -23.9270  208.0880 C.3       1 JUD        -0.0531
     57 CCE       -43.4900  -22.8200  209.1000 C.3       1 JUD        -0.0531
     58 CCF       -43.4410  -23.3940  210.5200 C.3       1 JUD        -0.0531
     59 CCG       -43.0360  -22.2830  211.4920 C.3       1 JUD        -0.0531
     60 CCH       -43.5260  -22.6110  212.9050 C.3       1 JUD        -0.0531
     61 CCI       -43.2530  -21.4140  213.8210 C.3       1 JUD        -0.0531
     62 CCJ       -44.4520  -20.4600  213.8000 C.3       1 JUD        -0.0531
     63 CCK       -43.9890  -19.0340  214.1190 C.3       1 JUD        -0.0531
     64 CCL       -45.2030  -18.1380  214.3880 C.3       1 JUD        -0.0531
     65 CCM       -45.7970  -17.6240  213.0660 C.3       1 JUD        -0.0531
     66 CCN       -47.3290  -17.7120  213.1100 C.3       1 JUD        -0.0531
     67 CCO       -47.9900  -16.6820  212.1750 C.3       1 JUD        -0.0531
     68 CCP       -47.4740  -16.7720  210.7290 C.3       1 JUD        -0.0531
     69 CCQ       -47.7280  -18.1580  210.1380 C.3       1 JUD        -0.0533
     70 CCR       -47.5850  -18.0860  208.6170 C.3       1 JUD        -0.0559
     71 CCS       -47.5850  -19.5020  208.0320 C.3       1 JUD        -0.0653
     72 H1        -56.2261  -33.0644  208.9990 H         1 JUD         0.0937
     73 H2        -57.3606  -29.8842  207.3158 H         1 JUD         0.0648
     74 H3        -58.1962  -28.5686  209.1605 H         1 JUD         0.0653
     75 H4        -55.9729  -29.4939  209.4843 H         1 JUD         0.0647
     76 H5        -55.9096  -29.7931  212.0302 H         1 JUD         0.0584
     77 H6        -57.7000  -29.6495  212.0027 H         1 JUD         0.0584
     78 H7        -58.5579  -32.3508  208.6776 H         1 JUD         0.0671
     79 H8        -59.3810  -30.6807  206.5064 H         1 JUD         0.2100
     80 H9        -44.4368  -37.0392  196.5754 H         1 JUD         0.0230
     81 H10       -43.3369  -35.8720  197.3844 H         1 JUD         0.0230
     82 H11       -43.5717  -35.7996  195.6050 H         1 JUD         0.0230
     83 H12       -45.7228  -35.2433  197.7249 H         1 JUD         0.0263
     84 H13       -45.9576  -35.1708  195.9455 H         1 JUD         0.0263
     85 H14       -44.2518  -33.3764  195.7805 H         1 JUD         0.0265
     86 H15       -43.9751  -33.4638  197.5532 H         1 JUD         0.0265
     87 H16       -46.7044  -33.1450  197.4936 H         1 JUD         0.0265
     88 H17       -46.2405  -32.2392  196.0134 H         1 JUD         0.0265
     89 H18       -44.5916  -30.9231  197.3435 H         1 JUD         0.0265
     90 H19       -45.0759  -31.8201  198.8226 H         1 JUD         0.0265
     91 H20       -47.5259  -30.9355  197.7935 H         1 JUD         0.0265
     92 H21       -46.4211  -29.5633  197.4424 H         1 JUD         0.0265
     93 H22       -45.6133  -29.7606  199.8781 H         1 JUD         0.0265
     94 H23       -46.9920  -30.8798  200.1489 H         1 JUD         0.0265
     95 H24       -48.5790  -29.1281  199.4106 H         1 JUD         0.0265
     96 H25       -47.2111  -28.0097  199.0869 H         1 JUD         0.0265
     97 H26       -47.7506  -27.3095  201.2312 H         1 JUD         0.0265
     98 H27       -46.6091  -28.6329  201.6462 H         1 JUD         0.0265
     99 H28       -48.4752  -30.1923  201.9965 H         1 JUD         0.0265
    100 H29       -49.6552  -28.9549  201.4456 H         1 JUD         0.0265
    101 H30       -48.8618  -27.4595  203.3380 H         1 JUD         0.0265
    102 H31       -47.8581  -28.8266  203.9300 H         1 JUD         0.0265
    103 H32       -50.8553  -29.1420  203.4361 H         1 JUD         0.0265
    104 H33       -50.2220  -28.4997  204.9895 H         1 JUD         0.0265
    105 H34       -48.6752  -30.6276  204.9622 H         1 JUD         0.0266
    106 H35       -49.8445  -31.2602  203.7542 H         1 JUD         0.0266
    107 H36       -50.5261  -30.2740  206.5806 H         1 JUD         0.0291
    108 H37       -50.4455  -31.9891  206.0528 H         1 JUD         0.0291
    109 H38       -52.4346  -29.8327  205.1992 H         1 JUD         0.0620
    110 H39       -52.0249  -32.4321  204.0693 H         1 JUD         0.2099
    111 H40       -54.1112  -31.5284  205.8822 H         1 JUD         0.0643
    112 H41       -52.7952  -33.3852  205.5101 H         1 JUD         0.2100
    113 H42       -52.0527  -31.0718  208.1061 H         1 JUD         0.0605
    114 H43       -53.8927  -32.7398  208.5936 H         1 JUD         0.0585
    115 H44       -54.0092  -31.2579  209.6022 H         1 JUD         0.0585
    116 H45       -56.9492  -31.9893  206.3328 H         1 JUD         0.2101
    117 H46       -56.6397  -27.6051  212.3159 H         1 JUD         0.2095
    118 H47       -59.2700  -28.2273  210.9888 H         1 JUD         0.0799
    119 H48       -60.4219  -29.4231  211.6745 H         1 JUD         0.0799
    120 H49       -60.4340  -26.4508  210.2932 H         1 JUD         0.0653
    121 H50       -62.2476  -25.4987  208.9148 H         1 JUD         0.0836
    122 H51       -63.6658  -29.4579  208.0586 H         1 JUD         0.0836
    123 H52       -61.8489  -30.4056  209.4380 H         1 JUD         0.0653
    124 H53       -53.8708  -29.1875  206.7791 H         1 JUD         0.1856
    125 H54       -54.4265  -27.0079  208.9975 H         1 JUD         0.0502
    126 H55       -53.8469  -27.1023  207.3000 H         1 JUD         0.0502
    127 H56       -51.8221  -26.6409  209.5008 H         1 JUD         0.0290
    128 H57       -52.8779  -25.2763  209.0009 H         1 JUD         0.0290
    129 H58       -52.1702  -25.8091  206.5742 H         1 JUD         0.0267
    130 H59       -50.9072  -26.8706  207.2846 H         1 JUD         0.0267
    131 H60       -50.2899  -24.8182  208.7675 H         1 JUD         0.0265
    132 H61       -51.2759  -23.8552  207.6156 H         1 JUD         0.0265
    133 H62       -49.7665  -24.1489  205.8641 H         1 JUD         0.0265
    134 H63       -49.1694  -25.7204  206.4971 H         1 JUD         0.0265
    135 H64       -47.9001  -24.6369  208.2431 H         1 JUD         0.0265
    136 H65       -48.6972  -23.0573  207.9335 H         1 JUD         0.0265
    137 H66       -47.6200  -22.8776  205.7477 H         1 JUD         0.0265
    138 H67       -46.9478  -24.5368  205.8959 H         1 JUD         0.0265
    139 H68       -46.3048  -22.2548  207.8414 H         1 JUD         0.0265
    140 H69       -45.2921  -22.6696  206.4170 H         1 JUD         0.0265
    141 H70       -45.4739  -25.1363  207.4863 H         1 JUD         0.0265
    142 H71       -45.7336  -24.1894  208.9905 H         1 JUD         0.0265
    143 H72       -43.4020  -23.6312  207.1029 H         1 JUD         0.0265
    144 H73       -43.3010  -24.8562  208.4128 H         1 JUD         0.0265
    145 H74       -44.2778  -22.0542  209.0455 H         1 JUD         0.0265
    146 H75       -42.5182  -22.3642  208.8595 H         1 JUD         0.0265
    147 H76       -42.7035  -24.2090  210.5633 H         1 JUD         0.0265
    148 H77       -44.4328  -23.7819  210.7956 H         1 JUD         0.0265
    149 H78       -43.4828  -21.3328  211.1641 H         1 JUD         0.0265
    150 H79       -41.9400  -22.1893  211.5003 H         1 JUD         0.0265
    151 H80       -42.9916  -23.4944  213.2844 H         1 JUD         0.0265
    152 H81       -44.6061  -22.8179  212.8815 H         1 JUD         0.0265
    153 H82       -42.3568  -20.8819  213.4692 H         1 JUD         0.0265
    154 H83       -43.0881  -21.7706  214.8484 H         1 JUD         0.0265
    155 H84       -45.1874  -20.7816  214.5522 H         1 JUD         0.0265
    156 H85       -44.9155  -20.4785  212.8026 H         1 JUD         0.0265
    157 H86       -43.4235  -18.6346  213.2643 H         1 JUD         0.0265
    158 H87       -43.3439  -19.0509  215.0098 H         1 JUD         0.0265
    159 H88       -44.8909  -17.2804  215.0021 H         1 JUD         0.0265
    160 H89       -45.9674  -18.7165  214.9274 H         1 JUD         0.0265
    161 H90       -45.4206  -18.2377  212.2344 H         1 JUD         0.0265
    162 H91       -45.4964  -16.5768  212.9143 H         1 JUD         0.0265
    163 H92       -47.6666  -17.5254  214.1401 H         1 JUD         0.0265
    164 H93       -47.6363  -18.7219  212.8007 H         1 JUD         0.0265
    165 H94       -47.7816  -15.6730  212.5603 H         1 JUD         0.0265
    166 H95       -49.0761  -16.8563  212.1720 H         1 JUD         0.0265
    167 H96       -46.3926  -16.5709  210.7205 H         1 JUD         0.0265
    168 H97       -47.9917  -16.0199  210.1156 H         1 JUD         0.0265
    169 H98       -48.7446  -18.4886  210.3973 H         1 JUD         0.0265
    170 H99       -46.9957  -18.8715  210.5436 H         1 JUD         0.0265
    171 H100      -46.6397  -17.5847  208.3617 H         1 JUD         0.0263
    172 H101      -48.4272  -17.5166  208.1969 H         1 JUD         0.0263
    173 H102      -47.4820  -19.4468  206.9382 H         1 JUD         0.0230
    174 H103      -48.5302  -20.0039  208.2864 H         1 JUD         0.0230
    175 H104      -46.7428  -20.0720  208.4512 H         1 JUD         0.0230
@<TRIPOS>BOND
     1    1    6 1  
     2    8    1 1  
     3    1   31 1  
     4    2    3 1  
     5    6    2 1  
     6    2    9 1  
     7    4    3 1  
     8    3    7 1  
     9    4    5 1  
    10   31    4 1  
    11    5   32 1  
    12    6   30 1  
    13    7   33 1  
    14   29    8 1  
    15   11   10 1  
    16   12   11 1  
    17   13   12 1  
    18   14   13 1  
    19   15   14 1  
    20   16   15 1  
    21   17   16 1  
    22   18   17 1  
    23   19   18 1  
    24   20   19 1  
    25   21   20 1  
    26   22   21 1  
    27   23   22 1  
    28   24   23 1  
    29   24   25 1  
    30   26   24 1  
    31   26   27 1  
    32   28   26 1  
    33   28   29 1  
    34   28   44 1  
    35   33   34 1  
    36   34   35 ar 
    37   34   43 ar 
    38   35   36 ar 
    39   36   37 ar 
    40   37   38 1  
    41   37   42 ar 
    42   38   39 1  
    43   38   40 1  
    44   38   41 1  
    45   42   43 ar 
    46   44   45 am 
    47   45   46 2  
    48   45   47 1  
    49   47   48 1  
    50   48   49 1  
    51   49   50 1  
    52   50   51 1  
    53   51   52 1  
    54   52   53 1  
    55   53   54 1  
    56   54   55 1  
    57   55   56 1  
    58   56   57 1  
    59   57   58 1  
    60   58   59 1  
    61   59   60 1  
    62   60   61 1  
    63   61   62 1  
    64   62   63 1  
    65   63   64 1  
    66   64   65 1  
    67   65   66 1  
    68   66   67 1  
    69   67   68 1  
    70   68   69 1  
    71   69   70 1  
    72   70   71 1  
    73    1   72 1  
    74    2   73 1  
    75    3   74 1  
    76    4   75 1  
    77    5   76 1  
    78    5   77 1  
    79    6   78 1  
    80    9   79 1  
    81   10   80 1  
    82   10   81 1  
    83   10   82 1  
    84   11   83 1  
    85   11   84 1  
    86   12   85 1  
    87   12   86 1  
    88   13   87 1  
    89   13   88 1  
    90   14   89 1  
    91   14   90 1  
    92   15   91 1  
    93   15   92 1  
    94   16   93 1  
    95   16   94 1  
    96   17   95 1  
    97   17   96 1  
    98   18   97 1  
    99   18   98 1  
   100   19   99 1  
   101   19  100 1  
   102   20  101 1  
   103   20  102 1  
   104   21  103 1  
   105   21  104 1  
   106   22  105 1  
   107   22  106 1  
   108   23  107 1  
   109   23  108 1  
   110   24  109 1  
   111   25  110 1  
   112   26  111 1  
   113   27  112 1  
   114   28  113 1  
   115   29  114 1  
   116   29  115 1  
   117   30  116 1  
   118   32  117 1  
   119   33  118 1  
   120   33  119 1  
   121   35  120 1  
   122   36  121 1  
   123   42  122 1  
   124   43  123 1  
   125   44  124 1  
   126   47  125 1  
   127   47  126 1  
   128   48  127 1  
   129   48  128 1  
   130   49  129 1  
   131   49  130 1  
   132   50  131 1  
   133   50  132 1  
   134   51  133 1  
   135   51  134 1  
   136   52  135 1  
   137   52  136 1  
   138   53  137 1  
   139   53  138 1  
   140   54  139 1  
   141   54  140 1  
   142   55  141 1  
   143   55  142 1  
   144   56  143 1  
   145   56  144 1  
   146   57  145 1  
   147   57  146 1  
   148   58  147 1  
   149   58  148 1  
   150   59  149 1  
   151   59  150 1  
   152   60  151 1  
   153   60  152 1  
   154   61  153 1  
   155   61  154 1  
   156   62  155 1  
   157   62  156 1  
   158   63  157 1  
   159   63  158 1  
   160   64  159 1  
   161   64  160 1  
   162   65  161 1  
   163   65  162 1  
   164   66  163 1  
   165   66  164 1  
   166   67  165 1  
   167   67  166 1  
   168   68  167 1  
   169   68  168 1  
   170   69  169 1  
   171   69  170 1  
   172   70  171 1  
   173   70  172 1  
   174   71  173 1  
   175   71  174 1  
   176   71  175 1  
@<TRIPOS>SUBSTRUCTURE
     1 JUD         1

