1jii_ligand
  -I-interpret- 

 54 56  0  0  0  0  0  0  0  0999 V2000
   -8.2370   11.1440   83.7430 C   0  0  0  0  0
   -7.5690   10.0480   84.2730 C   0  0  0  0  0
   -8.1630    9.3200   85.3100 C   0  0  0  0  0
   -9.5020    9.5290   85.6680 C   0  0  0  0  0
  -10.1830   10.6230   85.1410 C   0  0  0  0  0
   -9.5630   11.4750   84.1800 C   0  0  0  0  0
  -10.3000   12.7700   83.6340 C   0  0  0  0  0
  -11.8710   12.7700   83.5970 C   0  0  0  0  0
  -12.5570   14.1710   83.8600 C   0  0  0  0  0
  -11.8740   14.9880   84.5510 N   0  0  0  0  0
  -11.9830   16.4140   84.5410 C   0  0  0  0  0
  -10.8510   16.9580   83.6990 C   0  0  0  0  0
  -10.0500   15.9500   83.1750 O   0  0  0  0  0
  -13.6530   14.4560   83.4130 O   0  0  0  0  0
  -12.3440   12.2140   82.3220 N   0  3  0  0  0
  -10.6750   18.1840   83.5070 O   0  0  0  0  0
  -12.1060   16.8910   85.9650 C   0  0  0  0  0
  -12.6940   15.8360   86.8350 N   0  3  0  0  0
  -13.1140   16.3260   88.1540 C   0  0  0  0  0
  -14.1890   17.3780   87.9840 C   0  0  0  0  0
  -13.3080   18.4880   87.4200 C   0  0  0  0  0
  -13.0650   18.0740   85.9240 C   0  0  0  0  0
  -11.7680   14.7860   87.0380 O   0  0  0  0  0
  -13.9100   19.7580   87.5770 O   0  0  0  0  0
  -11.9550   18.3940   88.1520 C   0  0  0  0  0
  -11.9730   17.0540   88.6700 O   0  0  0  0  0
  -15.2360   17.0240   87.0840 O   0  0  0  0  0
  -12.5480   19.1360   85.1410 O   0  0  0  0  0
   -7.4360    8.4320   85.9690 O   0  0  0  0  0
   -7.7489   11.7593   82.9871 H   0  0  0  0  0
   -6.5924    9.7579   83.8854 H   0  0  0  0  0
  -10.0040    8.8434   86.3507 H   0  0  0  0  0
  -11.2022   10.8308   85.4668 H   0  0  0  0  0
   -9.9879   12.8614   82.5936 H   0  0  0  0  0
  -10.0286   13.5681   84.3250 H   0  0  0  0  0
  -12.1730   12.1427   84.4357 H   0  0  0  0  0
  -11.1762   14.5865   85.1773 H   0  0  0  0  0
  -12.8823   16.8021   84.0628 H   0  0  0  0  0
  -10.3837   15.0965   83.4609 H   0  0  0  0  0
  -13.3639   12.2184   82.3080 H   0  0  0  0  0
  -11.9898   12.7821   81.5525 H   0  0  0  0  0
  -12.0056   11.2568   82.2234 H   0  0  0  0  0
  -11.1266   17.1494   86.3675 H   0  0  0  0  0
  -13.5232   15.5100   86.3384 H   0  0  0  0  0
  -13.4607   15.5022   88.7779 H   0  0  0  0  0
  -14.7531   17.5978   88.8904 H   0  0  0  0  0
  -14.0076   17.8087   85.4452 H   0  0  0  0  0
  -12.1638   14.1161   87.6003 H   0  0  0  0  0
  -13.3317   20.4322   87.2129 H   0  0  0  0  0
  -11.8364   19.1500   88.9283 H   0  0  0  0  0
  -11.1030   18.5882   87.5005 H   0  0  0  0  0
  -15.8710   17.7423   87.0352 H   0  0  0  0  0
  -13.1749   19.8631   85.1361 H   0  0  0  0  0
   -7.9761    8.0163   86.6450 H   0  0  0  0  0
  1  2  4  0  0  0
  1  6  4  0  0  0
  2  3  4  0  0  0
  3  4  4  0  0  0
  3 29  1  0  0  0
  4  5  4  0  0  0
  5  6  4  0  0  0
  6  7  1  0  0  0
  7  8  1  0  0  0
  8  9  1  0  0  0
  8 15  1  0  0  0
  9 10  1  0  0  0
  9 14  2  0  0  0
 10 11  1  0  0  0
 11 12  1  0  0  0
 11 17  1  0  0  0
 12 13  1  0  0  0
 12 16  2  0  0  0
 17 18  1  0  0  0
 17 22  1  0  0  0
 18 19  1  0  0  0
 18 23  1  0  0  0
 19 20  1  0  0  0
 19 26  1  0  0  0
 20 21  1  0  0  0
 20 27  1  0  0  0
 21 22  1  0  0  0
 21 24  1  0  0  0
 21 25  1  0  0  0
 22 28  1  0  0  0
 25 26  1  0  0  0
  1 30  1  0  0  0
  2 31  1  0  0  0
  4 32  1  0  0  0
  5 33  1  0  0  0
  7 34  1  0  0  0
  7 35  1  0  0  0
  8 36  1  0  0  0
 10 37  1  0  0  0
 11 38  1  0  0  0
 13 39  1  0  0  0
 15 40  1  0  0  0
 15 41  1  0  0  0
 15 42  1  0  0  0
 17 43  1  0  0  0
 18 44  1  0  0  0
 19 45  1  0  0  0
 20 46  1  0  0  0
 22 47  1  0  0  0
 23 48  1  0  0  0
 24 49  1  0  0  0
 25 50  1  0  0  0
 25 51  1  0  0  0
 27 52  1  0  0  0
 28 53  1  0  0  0
 29 54  1  0  0  0
M  END
$$$$
