### 
### Created by X-TOOL on Mon Sep 10 21:12:45 2018
### 

@<TRIPOS>MOLECULE
1tsv_ligand
   31    32     1     0     0
SMALL
GAST_HUCK


@<TRIPOS>ATOM
      1 N1         14.4780   48.7240  -54.1800 N.am      1 UMP        -0.1618
      2 C2         13.8840   47.5730  -53.6230 C.2       1 UMP         0.3327
      3 N3         13.0460   47.7830  -52.5440 N.am      1 UMP        -0.1865
      4 C4         12.7710   49.0380  -52.0070 C.2       1 UMP         0.1822
      5 C5         13.4240   50.1590  -52.6500 C.2       1 UMP         0.0062
      6 C6         14.2650   49.9320  -53.7330 C.2       1 UMP         0.0590
      7 O2         14.0320   46.4210  -54.0160 O.2       1 UMP        -0.3815
      8 O4         12.0050   49.1630  -51.0540 O.2       1 UMP        -0.4124
      9 C1         15.4790   48.6790  -55.2520 C.3       1 UMP         0.1800
     10 C2         14.9760   48.2180  -56.6210 C.3       1 UMP         0.0316
     11 C3         16.2260   48.4520  -57.4530 C.3       1 UMP         0.0890
     12 C4         16.7110   49.8670  -57.0920 C.3       1 UMP         0.1156
     13 O3         17.1700   47.4470  -57.0150 O.3       1 UMP        -0.3890
     14 O4         16.3050   49.8920  -55.6460 O.3       1 UMP        -0.3387
     15 C5         15.9090   50.9220  -57.8610 C.3       1 UMP         0.1071
     16 O5         16.3650   50.8260  -59.2460 O.3       1 UMP        -0.2734
     17 P          15.8210   51.6810  -60.4910 P.3       1 UMP         0.2008
     18 O1P        16.7450   51.6980  -61.6670 O.co2     1 UMP        -0.5537
     19 O2P        14.6320   50.9900  -61.0030 O.co2     1 UMP        -0.5537
     20 O3P        15.4760   53.0790  -60.0670 O.co2     1 UMP        -0.5537
     21 H1         12.6114   46.9863  -52.1241 H         1 UMP         0.2259
     22 H2         13.2574   51.1724  -52.2878 H         1 UMP         0.0258
     23 H3         14.7545   50.7759  -54.2168 H         1 UMP         0.1178
     24 H4         16.1967   47.9257  -54.8950 H         1 UMP         0.0970
     25 H5         14.1313   48.8286  -56.9725 H         1 UMP         0.0345
     26 H6         14.6836   47.1576  -56.6128 H         1 UMP         0.0345
     27 H7         16.0292   48.3664  -58.5319 H         1 UMP         0.0622
     28 H8         17.7918   50.0043  -57.2439 H         1 UMP         0.0649
     29 H9         16.8458   46.5856  -57.2504 H         1 UMP         0.2099
     30 H10        16.1097   51.9260  -57.4589 H         1 UMP         0.0639
     31 H11        14.8318   50.7093  -57.7954 H         1 UMP         0.0639
@<TRIPOS>BOND
     1    1    2 am 
     2    1    6 1  
     3    1    9 1  
     4    2    3 am 
     5    2    7 2  
     6    3    4 am 
     7    4    5 1  
     8    4    8 2  
     9    5    6 2  
    10    9   10 1  
    11    9   14 1  
    12   10   11 1  
    13   11   12 1  
    14   11   13 1  
    15   12   14 1  
    16   12   15 1  
    17   15   16 1  
    18   16   17 1  
    19   17   18 ar 
    20   17   19 ar 
    21   17   20 ar 
    22    3   21 1  
    23    5   22 1  
    24    6   23 1  
    25    9   24 1  
    26   10   25 1  
    27   10   26 1  
    28   11   27 1  
    29   12   28 1  
    30   13   29 1  
    31   15   30 1  
    32   15   31 1  
@<TRIPOS>SUBSTRUCTURE
     1 UMP         1

