1tsv_ligand
  -I-interpret- 

 33 34  0  0  0  0  0  0  0  0999 V2000
   14.4780   48.7240  -54.1800 N   0  0  0  0  0
   13.8840   47.5730  -53.6230 C   0  0  0  0  0
   13.0460   47.7830  -52.5440 N   0  0  0  0  0
   12.7710   49.0380  -52.0070 C   0  0  0  0  0
   13.4240   50.1590  -52.6500 C   0  0  0  0  0
   14.2650   49.9320  -53.7330 C   0  0  0  0  0
   14.0320   46.4210  -54.0160 O   0  0  0  0  0
   12.0050   49.1630  -51.0540 O   0  0  0  0  0
   15.4790   48.6790  -55.2520 C   0  0  0  0  0
   14.9760   48.2180  -56.6210 C   0  0  0  0  0
   16.2260   48.4520  -57.4530 C   0  0  0  0  0
   16.7110   49.8670  -57.0920 C   0  0  0  0  0
   17.1700   47.4470  -57.0150 O   0  0  0  0  0
   16.3050   49.8920  -55.6460 O   0  0  0  0  0
   15.9090   50.9220  -57.8610 C   0  0  0  0  0
   16.3650   50.8260  -59.2460 O   0  0  0  0  0
   15.8210   51.6810  -60.4910 P   0  0  0  0  0
   16.7450   51.6980  -61.6670 O   0  0  0  0  0
   14.6320   50.9900  -61.0030 O   0  0  0  0  0
   15.4760   53.0790  -60.0670 O   0  0  0  0  0
   12.6027   46.9704  -52.1157 H   0  0  0  0  0
   13.2573   51.1733  -52.2874 H   0  0  0  0  0
   14.7549   50.7767  -54.2173 H   0  0  0  0  0
   16.0985   47.9798  -54.6904 H   0  0  0  0  0
   14.0918   48.7464  -56.9776 H   0  0  0  0  0
   14.6052   47.1933  -56.6432 H   0  0  0  0  0
   16.0817   48.3815  -58.5311 H   0  0  0  0  0
   17.7604   50.0699  -57.3060 H   0  0  0  0  0
   17.9885   47.5422  -57.5075 H   0  0  0  0  0
   16.0709   51.9207  -57.4555 H   0  0  0  0  0
   14.8364   50.7454  -57.7805 H   0  0  0  0  0
   17.5630   52.1375  -61.4235 H   0  0  0  0  0
   16.2642   53.5153  -59.7354 H   0  0  0  0  0
  1  2  1  0  0  0
  1  6  1  0  0  0
  1  9  1  0  0  0
  2  3  1  0  0  0
  2  7  2  0  0  0
  3  4  1  0  0  0
  4  5  1  0  0  0
  4  8  2  0  0  0
  5  6  2  0  0  0
  9 10  1  0  0  0
  9 14  1  0  0  0
 10 11  1  0  0  0
 11 12  1  0  0  0
 11 13  1  0  0  0
 12 14  1  0  0  0
 12 15  1  0  0  0
 15 16  1  0  0  0
 16 17  1  0  0  0
 17 18  1  0  0  0
 17 19  2  0  0  0
 17 20  1  0  0  0
  3 21  1  0  0  0
  5 22  1  0  0  0
  6 23  1  0  0  0
  9 24  1  0  0  0
 10 25  1  0  0  0
 10 26  1  0  0  0
 11 27  1  0  0  0
 12 28  1  0  0  0
 13 29  1  0  0  0
 15 30  1  0  0  0
 15 31  1  0  0  0
 18 32  1  0  0  0
 20 33  1  0  0  0
M  END
$$$$
