5vm6_ligand
  -I-interpret- 

 28 29  0  0  0  0  0  0  0  0999 V2000
   37.9660  -14.2910   -0.6940 C   0  0  0  0  0
   36.7530  -13.7020   -0.3620 C   0  0  0  0  0
   39.6330  -15.8970   -2.1640 Cl  0  0  0  0  0
   40.1310   -6.4510    4.3150 Cl  0  0  0  0  0
   37.5310  -12.1140    1.3170 C   0  0  0  0  0
   36.5660  -12.7920    0.6410 N   0  0  0  0  0
   37.9380   -9.9210    2.3510 C   0  0  0  0  0
   37.2450   -8.8180    2.8690 C   0  0  0  0  0
   37.9040   -7.7530    3.4720 C   0  0  0  0  0
   39.2720   -7.8030    3.5800 C   0  0  0  0  0
   39.9800   -8.8830    3.0940 C   0  0  0  0  0
   39.3200   -9.9440    2.4800 C   0  0  0  0  0
   37.1830  -10.9000    1.7810 N   0  0  0  0  0
   38.6630  -12.5420    1.4310 O   0  0  0  0  0
   38.0370  -15.1880   -1.7600 C   0  0  0  0  0
   36.9360  -15.4970   -2.5260 C   0  0  0  0  0
   35.7130  -14.9200   -2.1980 C   0  0  0  0  0
   35.6430  -14.0300   -1.1280 C   0  0  0  0  0
   37.0230  -16.6170   -3.9320 Cl  0  0  0  0  0
   38.8625  -14.0525   -0.1217 H   0  0  0  0  0
   35.6008  -12.6018    0.9104 H   0  0  0  0  0
   36.1576   -8.7948    2.7968 H   0  0  0  0  0
   37.3467   -6.8964    3.8511 H   0  0  0  0  0
   41.0654   -8.9057    3.1916 H   0  0  0  0  0
   39.8886  -10.7930    2.1005 H   0  0  0  0  0
   36.1918  -10.6767    1.6910 H   0  0  0  0  0
   34.8187  -15.1618   -2.7723 H   0  0  0  0  0
   34.6828  -13.5755   -0.8840 H   0  0  0  0  0
  2  1  4  0  0  0
  1 15  4  0  0  0
  6  2  1  0  0  0
  2 18  4  0  0  0
 15  3  1  0  0  0
 10  4  1  0  0  0
  5  6  1  0  0  0
 13  5  1  0  0  0
  5 14  2  0  0  0
  8  7  4  0  0  0
  7 12  4  0  0  0
  7 13  1  0  0  0
  9  8  4  0  0  0
  9 10  4  0  0  0
 10 11  4  0  0  0
 11 12  4  0  0  0
 15 16  4  0  0  0
 16 17  4  0  0  0
 16 19  1  0  0  0
 17 18  4  0  0  0
  1 20  1  0  0  0
  6 21  1  0  0  0
  8 22  1  0  0  0
  9 23  1  0  0  0
 11 24  1  0  0  0
 12 25  1  0  0  0
 13 26  1  0  0  0
 17 27  1  0  0  0
 18 28  1  0  0  0
M  END
$$$$
