2sfp_ligand
  -I-interpret- 

 11 10  0  0  0  0  0  0  0  0999 V2000
   25.5010   17.6990   67.8470 C   0  0  0  0  0
   24.0070   17.7560   67.8440 C   0  0  0  0  0
   23.4120   16.6270   67.0180 C   0  0  0  0  0
   26.0490   16.6080   68.1040 O   0  0  0  0  0
   26.1340   18.7400   67.5890 O   0  0  0  0  0
   23.6972   18.7055   67.4074 H   0  0  0  0  0
   23.6543   17.6576   68.8706 H   0  0  0  0  0
   23.7644   16.7062   65.9896 H   0  0  0  0  0
   23.7220   15.6696   67.4369 H   0  0  0  0  0
   22.3245   16.6985   67.0373 H   0  0  0  0  0
   25.3756   15.9446   68.2714 H   0  0  0  0  0
  1  2  1  0  0  0
  1  4  1  0  0  0
  1  5  2  0  0  0
  2  3  1  0  0  0
  2  6  1  0  0  0
  2  7  1  0  0  0
  3  8  1  0  0  0
  3  9  1  0  0  0
  3 10  1  0  0  0
  4 11  1  0  0  0
M  END
$$$$
