4eh5_ligand
  -I-interpret- 

 27 28  0  0  0  0  0  0  0  0999 V2000
   -4.0120   -1.3510  -17.5390 C   0  0  0  0  0
   -4.4750   -1.1260  -16.2460 C   0  0  0  0  0
   -5.7260   -0.5470  -16.0400 C   0  0  0  0  0
   -6.5260   -0.1930  -17.1280 C   0  0  0  0  0
   -6.0650   -0.4210  -18.4230 C   0  0  0  0  0
   -4.8100   -0.9990  -18.6240 C   0  0  0  0  0
   -4.3460   -1.2160  -19.9150 C   0  0  0  0  0
   -4.9490   -0.5080  -21.0230 O   0  0  0  0  0
   -4.1190   -0.3170  -22.0930 C   0  0  0  0  0
   -3.8890   -1.2210  -22.8970 O   0  0  0  0  0
   -3.5140    1.0640  -22.2980 C   0  0  0  0  0
   -2.5570    1.5410  -21.4040 C   0  0  0  0  0
   -2.0270    2.8040  -21.6190 C   0  0  0  0  0
   -2.4860    3.5230  -22.7180 C   0  0  0  0  0
   -3.4070    3.0520  -23.5500 N   0  0  0  0  0
   -3.9320    1.8480  -23.3750 C   0  0  0  0  0
   -3.0318   -1.7995  -17.7009 H   0  0  0  0  0
   -3.8574   -1.4034  -15.3918 H   0  0  0  0  0
   -6.0813   -0.3698  -15.0249 H   0  0  0  0  0
   -7.5046    0.2587  -16.9655 H   0  0  0  0  0
   -6.6834   -0.1484  -19.2782 H   0  0  0  0  0
   -4.5607   -2.2665  -20.1110 H   0  0  0  0  0
   -3.3128   -0.8693  -19.8973 H   0  0  0  0  0
   -2.2333    0.9362  -20.5569 H   0  0  0  0  0
   -1.2750    3.2202  -20.9486 H   0  0  0  0  0
   -2.0722    4.5142  -22.9036 H   0  0  0  0  0
   -4.6853    1.4721  -24.0674 H   0  0  0  0  0
  1  2  4  0  0  0
  1  6  4  0  0  0
  2  3  4  0  0  0
  3  4  4  0  0  0
  4  5  4  0  0  0
  5  6  4  0  0  0
  6  7  1  0  0  0
  7  8  1  0  0  0
  8  9  1  0  0  0
  9 10  2  0  0  0
  9 11  1  0  0  0
 11 12  4  0  0  0
 11 16  4  0  0  0
 12 13  4  0  0  0
 13 14  4  0  0  0
 14 15  4  0  0  0
 15 16  4  0  0  0
  1 17  1  0  0  0
  2 18  1  0  0  0
  3 19  1  0  0  0
  4 20  1  0  0  0
  5 21  1  0  0  0
  7 22  1  0  0  0
  7 23  1  0  0  0
 12 24  1  0  0  0
 13 25  1  0  0  0
 14 26  1  0  0  0
 16 27  1  0  0  0
M  END
$$$$
