1cwb_ligand
  -I-interpret- 

199199  0  0  0  0  0  0  0  0999 V2000
    5.1220   34.7980   19.3920 N   0  0  0  0  0
    4.5670   36.1740   19.5970 C   0  0  0  0  0
    6.3890   34.5780   18.6660 C   0  0  0  0  0
    7.6090   35.3420   19.2210 C   0  0  0  0  0
    6.2830   34.8920   17.0760 C   0  0  0  0  0
    5.2970   33.9650   16.2690 C   0  0  0  0  0
    5.3840   34.3510   14.7650 C   0  0  0  0  0
    5.5840   32.4630   16.4790 C   0  0  0  0  0
    3.7970   34.0850   16.5770 C   0  0  0  0  0
    6.6800   34.0100   14.0310 C   0  0  0  0  0
    7.4800   34.8280   13.3570 C   0  0  0  0  0
    8.7530   34.2790   12.6830 C   0  0  0  0  0
    7.5270   36.1600   20.1580 O   0  0  0  0  0
    5.9690   36.2780   16.9830 O   0  0  0  0  0
    8.8050   35.0230   18.7020 N   0  0  0  0  0
   10.0290   35.6790   19.1480 C   0  0  0  0  0
   10.6180   36.5380   18.0180 C   0  0  0  0  0
   11.3300   35.9750   17.1700 O   0  0  0  0  0
   11.0480   34.6130   19.5880 C   0  0  0  0  0
   10.4520   33.6590   20.6320 C   0  0  0  0  0
   10.3570   37.8560   17.9070 N   0  0  0  0  0
   10.9450   38.6290   16.8180 C   0  0  0  0  0
    9.8990   39.3560   15.9620 C   0  0  0  0  0
    9.8890   40.5980   15.9950 O   0  0  0  0  0
    9.3140   38.5210   18.7380 C   0  0  0  0  0
    9.0480   38.6990   15.1470 N   0  0  0  0  0
    9.2840   37.2430   14.9500 C   0  0  0  0  0
    7.9430   39.3650   14.4400 C   0  0  0  0  0
    7.7970   38.8620   12.9820 C   0  0  0  0  0
    8.3050   39.6570   11.7800 C   0  0  0  0  0
    7.6760   41.0640   11.7620 C   0  0  0  0  0
    9.8190   39.7750   11.8650 C   0  0  0  0  0
    6.6350   39.0450   15.1830 C   0  0  0  0  0
    6.0350   37.9850   14.9380 O   0  0  0  0  0
    6.1250   39.8570   16.1140 N   0  0  0  0  0
    4.9110   39.4640   16.8520 C   0  0  0  0  0
    3.6460   39.7060   16.0230 C   0  0  0  0  0
    3.4890   40.7710   15.4020 O   0  0  0  0  0
    4.7720   40.2170   18.2310 C   0  0  0  0  0
    5.9450   39.7970   19.0860 C   0  0  0  0  0
    4.7870   41.7320   18.1040 C   0  0  0  0  0
    2.7360   38.7170   15.9500 N   0  0  0  0  0
    2.7830   37.4770   16.8040 C   0  0  0  0  0
    1.5560   38.9350   15.1190 C   0  0  0  0  0
    1.2230   37.6360   14.3730 C   0  0  0  0  0
    1.9630   37.2460   13.0910 C   0  0  0  0  0
    1.3360   38.0840   12.0000 C   0  0  0  0  0
    3.4760   37.4950   13.1290 C   0  0  0  0  0
    0.3350   39.4240   15.8880 C   0  0  0  0  0
    0.2200   39.2860   17.1160 O   0  0  0  0  0
   -0.5740   40.0900   15.1860 N   0  0  0  0  0
   -1.8250   40.5080   15.7910 C   0  0  0  0  0
   -2.6680   39.3180   16.2690 C   0  0  0  0  0
   -2.5370   38.1820   15.7890 O   0  0  0  0  0
   -2.6460   41.3040   14.7800 C   0  0  0  0  0
   -3.5690   39.5590   17.2180 N   0  0  0  0  0
   -4.4460   38.5050   17.7190 C   0  0  0  0  0
   -5.8120   39.0730   18.1450 C   0  0  0  0  0
   -3.8000   37.8730   18.9370 C   0  0  0  0  0
   -3.2710   38.6380   19.7550 O   0  0  0  0  0
   -3.8110   36.5470   19.1700 N   0  0  0  0  0
   -4.3980   35.5120   18.2580 C   0  0  0  0  0
   -3.1910   36.1030   20.4090 C   0  0  0  0  0
   -4.2840   35.5500   21.3130 C   0  0  0  0  0
   -5.4510   36.4450   21.6810 C   0  0  0  0  0
   -6.5030   35.6110   22.3590 C   0  0  0  0  0
   -4.9630   37.5990   22.5390 C   0  0  0  0  0
   -2.1020   35.0710   20.1390 C   0  0  0  0  0
   -2.2910   33.8660   20.4050 O   0  0  0  0  0
   -0.9610   35.4930   19.5690 N   0  0  0  0  0
   -0.6260   36.9310   19.2540 C   0  0  0  0  0
    0.0480   34.4830   19.2720 C   0  0  0  0  0
    0.3930   34.6090   17.7870 C   0  0  0  0  0
   -0.7290   34.3730   16.7560 C   0  0  0  0  0
   -0.1150   34.3710   15.3690 C   0  0  0  0  0
   -1.4340   33.0360   16.9980 C   0  0  0  0  0
    1.2840   34.6000   20.1570 C   0  0  0  0  0
    1.4080   35.5920   20.8890 O   0  0  0  0  0
    2.2190   33.6340   20.2180 N   0  0  0  0  0
    2.0620   32.3180   19.5260 C   0  0  0  0  0
    3.4080   33.9200   21.0250 C   0  0  0  0  0
    3.3850   32.9630   22.2600 C   0  0  0  0  0
    4.5190   33.3710   23.1960 C   0  0  0  0  0
    2.0770   33.0830   23.0770 C   0  0  0  0  0
    4.7060   33.8020   20.1950 C   0  0  0  0  0
    5.3570   32.7320   20.1980 O   0  0  0  0  0
    3.4849   36.1509   19.4679 H   0  0  0  0  0
    4.8069   36.5148   20.6042 H   0  0  0  0  0
    5.0067   36.8542   18.8675 H   0  0  0  0  0
    6.5574   33.5134   18.8282 H   0  0  0  0  0
    7.2301   34.6597   16.5891 H   0  0  0  0  0
    5.3026   35.4375   14.7329 H   0  0  0  0  0
    4.6019   33.7783   14.2666 H   0  0  0  0  0
    4.8525   31.8738   15.9259 H   0  0  0  0  0
    6.5862   32.2320   16.1181 H   0  0  0  0  0
    5.5152   32.2262   17.5407 H   0  0  0  0  0
    3.4694   35.1074   16.3888 H   0  0  0  0  0
    3.2401   33.4002   15.9374 H   0  0  0  0  0
    3.6207   33.8322   17.6225 H   0  0  0  0  0
    6.9862   32.9644   14.0649 H   0  0  0  0  0
    7.2365   35.8877   13.2803 H   0  0  0  0  0
    9.4023   33.8388   13.4398 H   0  0  0  0  0
    8.4767   33.5186   11.9526 H   0  0  0  0  0
    9.2770   35.0928   12.1817 H   0  0  0  0  0
    6.6047   36.7840   17.4943 H   0  0  0  0  0
    8.8592   34.3054   17.9791 H   0  0  0  0  0
    9.7988   36.3304   19.9911 H   0  0  0  0  0
   11.9050   35.1186   20.0329 H   0  0  0  0  0
   11.3360   34.0299   18.7132 H   0  0  0  0  0
   10.1474   34.2281   21.5103 H   0  0  0  0  0
    9.5853   33.1528   20.2069 H   0  0  0  0  0
   11.2015   32.9209   20.9177 H   0  0  0  0  0
   11.4787   37.9343   16.1694 H   0  0  0  0  0
   11.5935   39.3848   17.2611 H   0  0  0  0  0
    8.3460   38.0602   18.5411 H   0  0  0  0  0
    9.5643   38.4069   19.7927 H   0  0  0  0  0
    9.2715   39.5806   18.4859 H   0  0  0  0  0
   10.2746   37.0915   14.5213 H   0  0  0  0  0
    9.2207   36.7327   15.9111 H   0  0  0  0  0
    8.5289   36.8421   14.2738 H   0  0  0  0  0
    8.1531   40.4343   14.4155 H   0  0  0  0  0
    6.7177   38.8413   12.8309 H   0  0  0  0  0
    8.4112   37.9617   12.9648 H   0  0  0  0  0
    8.0238   39.1383   10.8635 H   0  0  0  0  0
    6.5916   40.9750   11.6970 H   0  0  0  0  0
    7.9443   41.5923   12.6769 H   0  0  0  0  0
    8.0489   41.6163   10.8994 H   0  0  0  0  0
   10.0909   40.2892   12.7868 H   0  0  0  0  0
   10.2607   38.7785   11.8594 H   0  0  0  0  0
   10.1866   40.3415   11.0094 H   0  0  0  0  0
    6.5763   40.7496   16.3141 H   0  0  0  0  0
    5.0179   38.3975   17.0502 H   0  0  0  0  0
    3.8075   39.9510   18.6634 H   0  0  0  0  0
    5.9181   38.7172   19.2324 H   0  0  0  0  0
    6.8739   40.0743   18.5877 H   0  0  0  0  0
    5.8862   40.2976   20.0525 H   0  0  0  0  0
    5.7281   42.0483   17.6541 H   0  0  0  0  0
    3.9565   42.0508   17.4742 H   0  0  0  0  0
    4.6872   42.1792   19.0930 H   0  0  0  0  0
    3.7150   36.9436   16.6169 H   0  0  0  0  0
    2.7292   37.7593   17.8554 H   0  0  0  0  0
    1.9387   36.8340   16.5554 H   0  0  0  0  0
    1.8049   39.7352   14.4220 H   0  0  0  0  0
    0.1918   37.7761   14.0489 H   0  0  0  0  0
    1.4908   36.8509   15.0801 H   0  0  0  0  0
    1.8654   36.1716   12.9355 H   0  0  0  0  0
    0.2722   37.8556   11.9342 H   0  0  0  0  0
    1.4683   39.1404   12.2337 H   0  0  0  0  0
    1.8170   37.8581   11.0483 H   0  0  0  0  0
    3.6643   38.5558   13.2942 H   0  0  0  0  0
    3.9180   36.9157   13.9396 H   0  0  0  0  0
    3.9171   37.1898   12.1801 H   0  0  0  0  0
   -0.3904   40.3110   14.2073 H   0  0  0  0  0
   -1.5711   41.1193   16.6570 H   0  0  0  0  0
   -2.0830   42.1840   14.4690 H   0  0  0  0  0
   -2.8553   40.6794   13.9116 H   0  0  0  0  0
   -3.5840   41.6150   15.2400 H   0  0  0  0  0
   -3.6486   40.5000   17.6035 H   0  0  0  0  0
   -4.5967   37.7761   16.9227 H   0  0  0  0  0
   -5.6672   39.8103   18.9346 H   0  0  0  0  0
   -6.2907   39.5462   17.2876 H   0  0  0  0  0
   -6.4419   38.2632   18.5133 H   0  0  0  0  0
   -5.4611   35.7105   18.1219 H   0  0  0  0  0
   -3.8932   35.5518   17.2928 H   0  0  0  0  0
   -4.2650   34.5239   18.6986 H   0  0  0  0  0
   -2.7011   36.9410   20.9048 H   0  0  0  0  0
   -3.7858   35.3333   22.2579 H   0  0  0  0  0
   -4.7258   34.7273   20.7507 H   0  0  0  0  0
   -5.9012   36.8875   20.7924 H   0  0  0  0  0
   -6.8368   34.8268   21.6795 H   0  0  0  0  0
   -6.0835   35.1600   23.2583 H   0  0  0  0  0
   -7.3484   36.2439   22.6289 H   0  0  0  0  0
   -4.5078   37.2068   23.4484 H   0  0  0  0  0
   -4.2257   38.1775   21.9824 H   0  0  0  0  0
   -5.8065   38.2382   22.7999 H   0  0  0  0  0
   -1.3683   37.3330   18.5644 H   0  0  0  0  0
   -0.6306   37.5139   20.1750 H   0  0  0  0  0
    0.3619   36.9807   18.7960 H   0  0  0  0  0
   -0.3523   33.4927   19.4890 H   0  0  0  0  0
    1.1286   33.8278   17.5954 H   0  0  0  0  0
    0.6964   35.6468   17.6493 H   0  0  0  0  0
   -1.4688   35.1676   16.8525 H   0  0  0  0  0
    0.3650   35.3320   15.1841 H   0  0  0  0  0
    0.6261   33.5745   15.3023 H   0  0  0  0  0
   -0.8964   34.2051   14.6274 H   0  0  0  0  0
   -0.7103   32.2250   16.9158 H   0  0  0  0  0
   -1.8728   33.0334   17.9958 H   0  0  0  0  0
   -2.2191   32.9008   16.2541 H   0  0  0  0  0
    1.1729   31.8137   19.9045 H   0  0  0  0  0
    1.9589   32.4829   18.4535 H   0  0  0  0  0
    2.9402   31.7013   19.7173 H   0  0  0  0  0
    3.3919   34.9529   21.3727 H   0  0  0  0  0
    3.4784   31.9434   21.8860 H   0  0  0  0  0
    5.4704   33.2853   22.6710 H   0  0  0  0  0
    4.3709   34.4023   23.5161 H   0  0  0  0  0
    4.5229   32.7158   24.0671 H   0  0  0  0  0
    1.9699   34.1048   23.4410 H   0  0  0  0  0
    1.2284   32.8318   22.4407 H   0  0  0  0  0
    2.1142   32.3966   23.9229 H   0  0  0  0  0
  1  2  1  0  0  0
  1  3  1  0  0  0
  1 85  1  0  0  0
  3  4  1  0  0  0
  3  5  1  0  0  0
  4 13  2  0  0  0
  4 15  1  0  0  0
  5  6  1  0  0  0
  5 14  1  0  0  0
  6  7  1  0  0  0
  6  8  1  0  0  0
  6  9  1  0  0  0
  7 10  1  0  0  0
 10 11  2  0  0  0
 11 12  1  0  0  0
 15 16  1  0  0  0
 16 17  1  0  0  0
 16 19  1  0  0  0
 17 18  2  0  0  0
 17 21  1  0  0  0
 19 20  1  0  0  0
 21 22  1  0  0  0
 21 25  1  0  0  0
 22 23  1  0  0  0
 23 24  2  0  0  0
 23 26  1  0  0  0
 26 27  1  0  0  0
 26 28  1  0  0  0
 28 29  1  0  0  0
 28 33  1  0  0  0
 29 30  1  0  0  0
 30 31  1  0  0  0
 30 32  1  0  0  0
 33 34  2  0  0  0
 33 35  1  0  0  0
 35 36  1  0  0  0
 36 37  1  0  0  0
 36 39  1  0  0  0
 37 38  2  0  0  0
 37 42  1  0  0  0
 39 40  1  0  0  0
 39 41  1  0  0  0
 42 43  1  0  0  0
 42 44  1  0  0  0
 44 45  1  0  0  0
 44 49  1  0  0  0
 45 46  1  0  0  0
 46 47  1  0  0  0
 46 48  1  0  0  0
 49 50  2  0  0  0
 49 51  1  0  0  0
 51 52  1  0  0  0
 52 53  1  0  0  0
 52 55  1  0  0  0
 53 54  2  0  0  0
 53 56  1  0  0  0
 56 57  1  0  0  0
 57 58  1  0  0  0
 57 59  1  0  0  0
 59 60  2  0  0  0
 59 61  1  0  0  0
 61 62  1  0  0  0
 61 63  1  0  0  0
 63 64  1  0  0  0
 63 68  1  0  0  0
 64 65  1  0  0  0
 65 66  1  0  0  0
 65 67  1  0  0  0
 68 69  2  0  0  0
 68 70  1  0  0  0
 70 71  1  0  0  0
 70 72  1  0  0  0
 72 73  1  0  0  0
 72 77  1  0  0  0
 73 74  1  0  0  0
 74 75  1  0  0  0
 74 76  1  0  0  0
 77 78  2  0  0  0
 77 79  1  0  0  0
 79 80  1  0  0  0
 79 81  1  0  0  0
 81 82  1  0  0  0
 81 85  1  0  0  0
 82 83  1  0  0  0
 82 84  1  0  0  0
 85 86  2  0  0  0
  2 87  1  0  0  0
  2 88  1  0  0  0
  2 89  1  0  0  0
  3 90  1  0  0  0
  5 91  1  0  0  0
  7 92  1  0  0  0
  7 93  1  0  0  0
  8 94  1  0  0  0
  8 95  1  0  0  0
  8 96  1  0  0  0
  9 97  1  0  0  0
  9 98  1  0  0  0
  9 99  1  0  0  0
 10100  1  0  0  0
 11101  1  0  0  0
 12102  1  0  0  0
 12103  1  0  0  0
 12104  1  0  0  0
 14105  1  0  0  0
 15106  1  0  0  0
 16107  1  0  0  0
 19108  1  0  0  0
 19109  1  0  0  0
 20110  1  0  0  0
 20111  1  0  0  0
 20112  1  0  0  0
 22113  1  0  0  0
 22114  1  0  0  0
 25115  1  0  0  0
 25116  1  0  0  0
 25117  1  0  0  0
 27118  1  0  0  0
 27119  1  0  0  0
 27120  1  0  0  0
 28121  1  0  0  0
 29122  1  0  0  0
 29123  1  0  0  0
 30124  1  0  0  0
 31125  1  0  0  0
 31126  1  0  0  0
 31127  1  0  0  0
 32128  1  0  0  0
 32129  1  0  0  0
 32130  1  0  0  0
 35131  1  0  0  0
 36132  1  0  0  0
 39133  1  0  0  0
 40134  1  0  0  0
 40135  1  0  0  0
 40136  1  0  0  0
 41137  1  0  0  0
 41138  1  0  0  0
 41139  1  0  0  0
 43140  1  0  0  0
 43141  1  0  0  0
 43142  1  0  0  0
 44143  1  0  0  0
 45144  1  0  0  0
 45145  1  0  0  0
 46146  1  0  0  0
 47147  1  0  0  0
 47148  1  0  0  0
 47149  1  0  0  0
 48150  1  0  0  0
 48151  1  0  0  0
 48152  1  0  0  0
 51153  1  0  0  0
 52154  1  0  0  0
 55155  1  0  0  0
 55156  1  0  0  0
 55157  1  0  0  0
 56158  1  0  0  0
 57159  1  0  0  0
 58160  1  0  0  0
 58161  1  0  0  0
 58162  1  0  0  0
 62163  1  0  0  0
 62164  1  0  0  0
 62165  1  0  0  0
 63166  1  0  0  0
 64167  1  0  0  0
 64168  1  0  0  0
 65169  1  0  0  0
 66170  1  0  0  0
 66171  1  0  0  0
 66172  1  0  0  0
 67173  1  0  0  0
 67174  1  0  0  0
 67175  1  0  0  0
 71176  1  0  0  0
 71177  1  0  0  0
 71178  1  0  0  0
 72179  1  0  0  0
 73180  1  0  0  0
 73181  1  0  0  0
 74182  1  0  0  0
 75183  1  0  0  0
 75184  1  0  0  0
 75185  1  0  0  0
 76186  1  0  0  0
 76187  1  0  0  0
 76188  1  0  0  0
 80189  1  0  0  0
 80190  1  0  0  0
 80191  1  0  0  0
 81192  1  0  0  0
 82193  1  0  0  0
 83194  1  0  0  0
 83195  1  0  0  0
 83196  1  0  0  0
 84197  1  0  0  0
 84198  1  0  0  0
 84199  1  0  0  0
M  END
$$$$
