### 
### Created by X-TOOL on Mon Sep 10 21:12:45 2018
### 

@<TRIPOS>MOLECULE
1cwb_ligand
  199   199     1     0     0
SMALL
GAST_HUCK


@<TRIPOS>ATOM
      1 N           5.1220   34.7980   19.3920 N.am      1 DMT        -0.2503
      2 CN          4.5670   36.1740   19.5970 C.3       1 DMT         0.0255
      3 CA          6.3890   34.5780   18.6660 C.3       1 DMT         0.1596
      4 C           7.6090   35.3420   19.2210 C.2       1 DMT         0.2067
      5 CB          6.2830   34.8920   17.0760 C.3       1 DMT         0.1020
      6 CG2         5.2970   33.9650   16.2690 C.3       1 DMT         0.0019
      7 CD1         5.3840   34.3510   14.7650 C.3       1 DMT        -0.0287
      8 CD2         5.5840   32.4630   16.4790 C.3       1 DMT        -0.0557
      9 CD3         3.7970   34.0850   16.5770 C.3       1 DMT        -0.0557
     10 CE          6.6800   34.0100   14.0310 C.2       1 DMT        -0.0983
     11 CZ          7.4800   34.8280   13.3570 C.2       1 DMT        -0.1017
     12 CH          8.7530   34.2790   12.6830 C.3       1 DMT        -0.0486
     13 O           7.5270   36.1600   20.1580 O.2       1 DMT        -0.3943
     14 OG1         5.9690   36.2780   16.9830 O.3       1 DMT        -0.3864
     15 N           8.8050   35.0230   18.7020 N.am      1 ABA        -0.2636
     16 CA         10.0290   35.6790   19.1480 C.3       1 ABA         0.1309
     17 C          10.6180   36.5380   18.0180 C.2       1 ABA         0.2059
     18 O          11.3300   35.9750   17.1700 O.2       1 ABA        -0.3942
     19 CB         11.0480   34.6130   19.5880 C.3       1 ABA        -0.0152
     20 CG         10.4520   33.6590   20.6320 C.3       1 ABA        -0.0610
     21 N          10.3570   37.8560   17.9070 N.am      1 SAR        -0.2556
     22 CA         10.9450   38.6290   16.8180 C.3       1 SAR         0.1227
     23 C           9.8990   39.3560   15.9620 C.2       1 SAR         0.2032
     24 O           9.8890   40.5980   15.9950 O.2       1 SAR        -0.3945
     25 CN          9.3140   38.5210   18.7380 C.3       1 SAR         0.0252
     26 N           9.0480   38.6990   15.1470 N.am      1 MLE        -0.2531
     27 CN          9.2840   37.2430   14.9500 C.3       1 MLE         0.0254
     28 CA          7.9430   39.3650   14.4400 C.3       1 MLE         0.1336
     29 CB          7.7970   38.8620   12.9820 C.3       1 MLE        -0.0099
     30 CG          8.3050   39.6570   11.7800 C.3       1 MLE        -0.0425
     31 CD1         7.6760   41.0640   11.7620 C.3       1 MLE        -0.0625
     32 CD2         9.8190   39.7750   11.8650 C.3       1 MLE        -0.0625
     33 C           6.6350   39.0450   15.1830 C.2       1 MLE         0.2041
     34 O           6.0350   37.9850   14.9380 O.2       1 MLE        -0.3944
     35 N           6.1250   39.8570   16.1140 N.am      1 VAL        -0.2635
     36 CA          4.9110   39.4640   16.8520 C.3       1 VAL         0.1334
     37 C           3.6460   39.7060   16.0230 C.2       1 VAL         0.2064
     38 O           3.4890   40.7710   15.4020 O.2       1 VAL        -0.3942
     39 CB          4.7720   40.2170   18.2310 C.3       1 VAL        -0.0062
     40 CG1         5.9450   39.7970   19.0860 C.3       1 VAL        -0.0584
     41 CG2         4.7870   41.7320   18.1040 C.3       1 VAL        -0.0584
     42 N           2.7360   38.7170   15.9500 N.am      1 MLE        -0.2529
     43 CN          2.7830   37.4770   16.8040 C.3       1 MLE         0.0254
     44 CA          1.5560   38.9350   15.1190 C.3       1 MLE         0.1336
     45 CB          1.2230   37.6360   14.3730 C.3       1 MLE        -0.0099
     46 CG          1.9630   37.2460   13.0910 C.3       1 MLE        -0.0425
     47 CD1         1.3360   38.0840   12.0000 C.3       1 MLE        -0.0625
     48 CD2         3.4760   37.4950   13.1290 C.3       1 MLE        -0.0625
     49 C           0.3350   39.4240   15.8880 C.2       1 MLE         0.2041
     50 O           0.2200   39.2860   17.1160 O.2       1 MLE        -0.3944
     51 N          -0.5740   40.0900   15.1860 N.am      1 ALA        -0.2640
     52 CA         -1.8250   40.5080   15.7910 C.3       1 ALA         0.1282
     53 C          -2.6680   39.3180   16.2690 C.2       1 ALA         0.2036
     54 O          -2.5370   38.1820   15.7890 O.2       1 ALA        -0.3944
     55 CB         -2.6460   41.3040   14.7800 C.3       1 ALA        -0.0244
     56 N          -3.5690   39.5590   17.2180 N.am      1 DAL        -0.2640
     57 CA         -4.4460   38.5050   17.7190 C.3       1 DAL         0.1284
     58 CB         -5.8120   39.0730   18.1450 C.3       1 DAL        -0.0244
     59 C          -3.8000   37.8730   18.9370 C.2       1 DAL         0.2059
     60 O          -3.2710   38.6380   19.7550 O.2       1 DAL        -0.3942
     61 N          -3.8110   36.5470   19.1700 N.am      1 MLE        -0.2529
     62 CN         -4.3980   35.5120   18.2580 C.3       1 MLE         0.0254
     63 CA         -3.1910   36.1030   20.4090 C.3       1 MLE         0.1338
     64 CB         -4.2840   35.5500   21.3130 C.3       1 MLE        -0.0099
     65 CG         -5.4510   36.4450   21.6810 C.3       1 MLE        -0.0425
     66 CD1        -6.5030   35.6110   22.3590 C.3       1 MLE        -0.0625
     67 CD2        -4.9630   37.5990   22.5390 C.3       1 MLE        -0.0625
     68 C          -2.1020   35.0710   20.1390 C.2       1 MLE         0.2064
     69 O          -2.2910   33.8660   20.4050 O.2       1 MLE        -0.3942
     70 N          -0.9610   35.4930   19.5690 N.am      1 MLE        -0.2529
     71 CN         -0.6260   36.9310   19.2540 C.3       1 MLE         0.0254
     72 CA          0.0480   34.4830   19.2720 C.3       1 MLE         0.1338
     73 CB          0.3930   34.6090   17.7870 C.3       1 MLE        -0.0099
     74 CG         -0.7290   34.3730   16.7560 C.3       1 MLE        -0.0425
     75 CD1        -0.1150   34.3710   15.3690 C.3       1 MLE        -0.0625
     76 CD2        -1.4340   33.0360   16.9980 C.3       1 MLE        -0.0625
     77 C           1.2840   34.6000   20.1570 C.2       1 MLE         0.2064
     78 O           1.4080   35.5920   20.8890 O.2       1 MLE        -0.3942
     79 N           2.2190   33.6340   20.2180 N.am      1 MVA        -0.2526
     80 CN          2.0620   32.3180   19.5260 C.3       1 MVA         0.0254
     81 CA          3.4080   33.9200   21.0250 C.3       1 MVA         0.1359
     82 CB          3.3850   32.9630   22.2600 C.3       1 MVA        -0.0061
     83 CG1         4.5190   33.3710   23.1960 C.3       1 MVA        -0.0584
     84 CG2         2.0770   33.0830   23.0770 C.3       1 MVA        -0.0584
     85 C           4.7060   33.8020   20.1950 C.2       1 MVA         0.2067
     86 O           5.3570   32.7320   20.1980 O.2       1 MVA        -0.3942
     87 H1          5.0101   36.8614   18.8614 H         1 DMT         0.0488
     88 H2          4.8084   36.5192   20.6131 H         1 DMT         0.0488
     89 H3          3.4749   36.1521   19.4670 H         1 DMT         0.0488
     90 H4          6.6110   33.5058   18.7713 H         1 DMT         0.0829
     91 H5          7.2792   34.7368   16.6361 H         1 DMT         0.0649
     92 H6          5.2397   35.4391   14.6936 H         1 DMT         0.0394
     93 H7          4.5631   33.8372   14.2433 H         1 DMT         0.0394
     94 H8          5.5149   32.2228   17.5502 H         1 DMT         0.0237
     95 H9          6.5953   32.2285   16.1152 H         1 DMT         0.0237
     96 H10         4.8464   31.8673   15.9213 H         1 DMT         0.0237
     97 H11         3.4805   35.1315   16.4563 H         1 DMT         0.0237
     98 H12         3.6080   33.7618   17.6113 H         1 DMT         0.0237
     99 H13         3.2282   33.4477   15.8839 H         1 DMT         0.0237
    100 H14         6.9859   32.9654   14.0648 H         1 DMT         0.0450
    101 H15         7.2367   35.8867   13.2804 H         1 DMT         0.0447
    102 H16         9.2827   35.0994   12.1767 H         1 DMT         0.0353
    103 H17         8.4756   33.5114   11.9455 H         1 DMT         0.0353
    104 H18         9.4092   33.8345   13.4458 H         1 DMT         0.0353
    105 H19         6.0049   36.5493   16.0733 H         1 DMT         0.2101
    106 H20         8.8581   34.3195   17.9933 H         1 ABA         0.1883
    107 H21         9.7960   36.3287   20.0045 H         1 ABA         0.0800
    108 H22        11.9248   35.1152   20.0227 H         1 ABA         0.0310
    109 H23        11.3579   34.0305   18.7079 H         1 ABA         0.0310
    110 H24        11.2075   32.9136   20.9211 H         1 ABA         0.0232
    111 H25         9.5772   33.1474   20.2042 H         1 ABA         0.0232
    112 H26        10.1442   34.2321   21.5190 H         1 ABA         0.0232
    113 H27        11.5132   37.9451   16.1703 H         1 SAR         0.0765
    114 H28        11.6266   39.3775   17.2483 H         1 SAR         0.0765
    115 H29         8.9642   37.8242   19.5140 H         1 SAR         0.0488
    116 H30         8.4676   38.8134   18.0992 H         1 SAR         0.0488
    117 H31         9.7403   39.4162   19.2143 H         1 SAR         0.0488
    118 H32        10.1461   36.9261   15.5553 H         1 MLE         0.0488
    119 H33         9.4894   37.0453   13.8876 H         1 MLE         0.0488
    120 H34         8.3910   36.6813   15.2616 H         1 MLE         0.0488
    121 H35         8.1184   40.4509   14.4343 H         1 MLE         0.0802
    122 H36         6.7194   38.7155   12.8168 H         1 MLE         0.0315
    123 H37         8.3096   37.8895   12.9425 H         1 MLE         0.0315
    124 H38         8.0318   39.1285   10.8548 H         1 MLE         0.0298
    125 H39         8.0516   41.6224   10.8919 H         1 MLE         0.0232
    126 H40         7.9460   41.5982   12.6848 H         1 MLE         0.0232
    127 H41         6.5815   40.9756   11.6964 H         1 MLE         0.0232
    128 H42        10.2650   38.7695   11.8777 H         1 MLE         0.0232
    129 H43        10.0940   40.3097   12.7861 H         1 MLE         0.0232
    130 H44        10.1930   40.3310   10.9927 H         1 MLE         0.0232
    131 H45         6.5674   40.7321   16.3102 H         1 VAL         0.1883
    132 H46         4.9846   38.3863   17.0594 H         1 VAL         0.0803
    133 H47         3.8295   39.9133   18.7100 H         1 VAL         0.0343
    134 H48         5.8868   40.3015   20.0617 H         1 VAL         0.0234
    135 H49         6.8832   40.0764   18.5842 H         1 VAL         0.0234
    136 H50         5.9190   38.7074   19.2346 H         1 VAL         0.0234
    137 H51         3.9385   42.0563   17.4837 H         1 VAL         0.0234
    138 H52         5.7285   42.0512   17.6332 H         1 VAL         0.0234
    139 H53         4.7048   42.1846   19.1032 H         1 VAL         0.0234
    140 H54         3.7276   37.4554   17.3673 H         1 MLE         0.0488
    141 H55         2.7189   36.5865   16.1614 H         1 MLE         0.0488
    142 H56         1.9370   37.4836   17.5070 H         1 MLE         0.0488
    143 H57         1.8089   39.7070   14.3774 H         1 MLE         0.0802
    144 H58         0.1557   37.6908   14.1125 H         1 MLE         0.0315
    145 H59         1.3843   36.8157   15.0879 H         1 MLE         0.0315
    146 H60         1.7953   36.1776   12.8899 H         1 MLE         0.0298
    147 H61         1.8206   37.8569   11.0390 H         1 MLE         0.0232
    148 H62         1.4689   39.1504   12.2346 H         1 MLE         0.0232
    149 H63         0.2624   37.8544   11.9325 H         1 MLE         0.0232
    150 H64         3.9283   36.8837   13.9238 H         1 MLE         0.0232
    151 H65         3.6675   38.5592   13.3311 H         1 MLE         0.0232
    152 H66         3.9172   37.2206   12.1595 H         1 MLE         0.0232
    153 H67        -0.3940   40.3067   14.2265 H         1 ALA         0.1883
    154 H68        -1.5963   41.1481   16.6558 H         1 ALA         0.0797
    155 H69        -3.5929   41.6185   15.2431 H         1 ALA         0.0277
    156 H70        -2.8580   40.6747   13.9030 H         1 ALA         0.0277
    157 H71        -2.0789   42.1925   14.4654 H         1 ALA         0.0277
    158 H72        -3.6470   40.4815   17.5960 H         1 DAL         0.1883
    159 H73        -4.5915   37.7477   16.9345 H         1 DAL         0.0797
    160 H74        -6.4487   38.2567   18.5169 H         1 DAL         0.0277
    161 H75        -6.2962   39.5508   17.2806 H         1 DAL         0.0277
    162 H76        -5.6673   39.8172   18.9420 H         1 DAL         0.0277
    163 H77        -4.8248   36.0041   17.3716 H         1 MLE         0.0488
    164 H78        -5.1892   34.9620   18.7886 H         1 MLE         0.0488
    165 H79        -3.6108   34.8106   17.9445 H         1 MLE         0.0488
    166 H80        -2.7270   36.9684   20.9047 H         1 MLE         0.0802
    167 H81        -3.8019   35.2448   22.2534 H         1 MLE         0.0315
    168 H82        -4.7015   34.6648   20.8109 H         1 MLE         0.0315
    169 H83        -5.8835   36.8638   20.7604 H         1 MLE         0.0298
    170 H84        -7.3568   36.2486   22.6319 H         1 MLE         0.0232
    171 H85        -6.0809   35.1553   23.2668 H         1 MLE         0.0232
    172 H86        -6.8408   34.8192   21.6742 H         1 MLE         0.0232
    173 H87        -4.1986   38.1673   21.9888 H         1 MLE         0.0232
    174 H88        -4.5282   37.2057   23.4697 H         1 MLE         0.0232
    175 H89        -5.8086   38.2600   22.7799 H         1 MLE         0.0232
    176 H90        -1.4750   37.5740   19.5292 H         1 MLE         0.0488
    177 H91        -0.4226   37.0329   18.1778 H         1 MLE         0.0488
    178 H92         0.2637   37.2339   19.8256 H         1 MLE         0.0488
    179 H93        -0.3917   33.4901   19.4474 H         1 MLE         0.0802
    180 H94         1.1898   33.8811   17.5743 H         1 MLE         0.0315
    181 H95         0.7747   35.6280   17.6261 H         1 MLE         0.0315
    182 H96        -1.4662   35.1859   16.8318 H         1 MLE         0.0298
    183 H97        -0.9027   34.2036   14.6196 H         1 MLE         0.0232
    184 H98         0.6331   33.5675   15.3003 H         1 MLE         0.0232
    185 H99         0.3697   35.3404   15.1812 H         1 MLE         0.0232
    186 H100       -1.8807   33.0337   18.0032 H         1 MLE         0.0232
    187 H101       -0.7039   32.2170   16.9193 H         1 MLE         0.0232
    188 H102       -2.2241   32.8965   16.2454 H         1 MLE         0.0232
    189 H103        1.1087   32.3037   18.9774 H         1 MVA         0.0488
    190 H104        2.0684   31.5088   20.2711 H         1 MVA         0.0488
    191 H105        2.8933   32.1733   18.8203 H         1 MVA         0.0488
    192 H106        3.3420   34.9557   21.3897 H         1 MVA         0.0804
    193 H107        3.5169   31.9250   21.9208 H         1 MVA         0.0343
    194 H108        4.5240   32.7105   24.0756 H         1 MVA         0.0234
    195 H109        4.3707   34.4117   23.5199 H         1 MVA         0.0234
    196 H110        5.4798   33.2849   22.6674 H         1 MVA         0.0234
    197 H111        1.2227   32.7985   22.4452 H         1 MVA         0.0234
    198 H112        1.9513   34.1214   23.4176 H         1 MVA         0.0234
    199 H113        2.1267   32.4145   23.9491 H         1 MVA         0.0234
@<TRIPOS>BOND
     1    1    2 1  
     2    1    3 1  
     3    1   85 am 
     4    3    4 1  
     5    3    5 1  
     6    4   13 2  
     7    4   15 am 
     8    5    6 1  
     9    5   14 1  
    10    6    7 1  
    11    6    8 1  
    12    6    9 1  
    13    7   10 1  
    14   10   11 2  
    15   11   12 1  
    16   15   16 1  
    17   16   17 1  
    18   16   19 1  
    19   17   18 2  
    20   17   21 am 
    21   19   20 1  
    22   21   22 1  
    23   21   25 1  
    24   22   23 1  
    25   23   24 2  
    26   23   26 am 
    27   26   27 1  
    28   26   28 1  
    29   28   29 1  
    30   28   33 1  
    31   29   30 1  
    32   30   31 1  
    33   30   32 1  
    34   33   34 2  
    35   33   35 am 
    36   35   36 1  
    37   36   37 1  
    38   36   39 1  
    39   37   38 2  
    40   37   42 am 
    41   39   40 1  
    42   39   41 1  
    43   42   43 1  
    44   42   44 1  
    45   44   45 1  
    46   44   49 1  
    47   45   46 1  
    48   46   47 1  
    49   46   48 1  
    50   49   50 2  
    51   49   51 am 
    52   51   52 1  
    53   52   53 1  
    54   52   55 1  
    55   53   54 2  
    56   53   56 am 
    57   56   57 1  
    58   57   58 1  
    59   57   59 1  
    60   59   60 2  
    61   59   61 am 
    62   61   62 1  
    63   61   63 1  
    64   63   64 1  
    65   63   68 1  
    66   64   65 1  
    67   65   66 1  
    68   65   67 1  
    69   68   69 2  
    70   68   70 am 
    71   70   71 1  
    72   70   72 1  
    73   72   73 1  
    74   72   77 1  
    75   73   74 1  
    76   74   75 1  
    77   74   76 1  
    78   77   78 2  
    79   77   79 am 
    80   79   80 1  
    81   79   81 1  
    82   81   82 1  
    83   81   85 1  
    84   82   83 1  
    85   82   84 1  
    86   85   86 2  
    87    2   87 1  
    88    2   88 1  
    89    2   89 1  
    90    3   90 1  
    91    5   91 1  
    92    7   92 1  
    93    7   93 1  
    94    8   94 1  
    95    8   95 1  
    96    8   96 1  
    97    9   97 1  
    98    9   98 1  
    99    9   99 1  
   100   10  100 1  
   101   11  101 1  
   102   12  102 1  
   103   12  103 1  
   104   12  104 1  
   105   14  105 1  
   106   15  106 1  
   107   16  107 1  
   108   19  108 1  
   109   19  109 1  
   110   20  110 1  
   111   20  111 1  
   112   20  112 1  
   113   22  113 1  
   114   22  114 1  
   115   25  115 1  
   116   25  116 1  
   117   25  117 1  
   118   27  118 1  
   119   27  119 1  
   120   27  120 1  
   121   28  121 1  
   122   29  122 1  
   123   29  123 1  
   124   30  124 1  
   125   31  125 1  
   126   31  126 1  
   127   31  127 1  
   128   32  128 1  
   129   32  129 1  
   130   32  130 1  
   131   35  131 1  
   132   36  132 1  
   133   39  133 1  
   134   40  134 1  
   135   40  135 1  
   136   40  136 1  
   137   41  137 1  
   138   41  138 1  
   139   41  139 1  
   140   43  140 1  
   141   43  141 1  
   142   43  142 1  
   143   44  143 1  
   144   45  144 1  
   145   45  145 1  
   146   46  146 1  
   147   47  147 1  
   148   47  148 1  
   149   47  149 1  
   150   48  150 1  
   151   48  151 1  
   152   48  152 1  
   153   51  153 1  
   154   52  154 1  
   155   55  155 1  
   156   55  156 1  
   157   55  157 1  
   158   56  158 1  
   159   57  159 1  
   160   58  160 1  
   161   58  161 1  
   162   58  162 1  
   163   62  163 1  
   164   62  164 1  
   165   62  165 1  
   166   63  166 1  
   167   64  167 1  
   168   64  168 1  
   169   65  169 1  
   170   66  170 1  
   171   66  171 1  
   172   66  172 1  
   173   67  173 1  
   174   67  174 1  
   175   67  175 1  
   176   71  176 1  
   177   71  177 1  
   178   71  178 1  
   179   72  179 1  
   180   73  180 1  
   181   73  181 1  
   182   74  182 1  
   183   75  183 1  
   184   75  184 1  
   185   75  185 1  
   186   76  186 1  
   187   76  187 1  
   188   76  188 1  
   189   80  189 1  
   190   80  190 1  
   191   80  191 1  
   192   81  192 1  
   193   82  193 1  
   194   83  194 1  
   195   83  195 1  
   196   83  196 1  
   197   84  197 1  
   198   84  198 1  
   199   84  199 1  
@<TRIPOS>SUBSTRUCTURE
     1 DMT         1

