3bwk_ligand
  -I-interpret- 

 76 78  0  0  0  0  0  0  0  0999 V2000
    8.7230  -20.2820   52.2150 N   0  0  0  0  0
    8.8950  -21.4270   52.8710 C   0  0  0  0  0
    8.0060  -22.2820   52.8880 O   0  0  0  0  0
   10.0410  -21.6910   53.5470 N   0  0  0  0  0
   11.1710  -20.7480   53.6540 C   0  0  0  0  0
   12.4860  -21.5070   53.4910 C   0  0  0  0  0
   12.4500  -22.6370   54.2870 O   0  0  0  0  0
   11.4860  -23.5950   53.9330 C   0  0  0  0  0
   10.1790  -22.9470   54.2930 C   0  0  0  0  0
    7.5140  -20.0320   51.4130 C   0  0  0  0  0
    7.7340  -21.0070   50.2160 C   0  0  0  0  0
    8.8470  -21.1150   49.6600 O   0  0  0  0  0
    6.6900  -21.7460   49.8830 N   0  0  0  0  0
    6.7380  -22.7370   48.7710 C   0  0  0  0  0
    5.8250  -22.3050   47.6310 C   0  0  0  0  0
    4.3300  -22.3660   47.9880 C   0  0  0  0  0
    3.3210  -23.6420   47.1550 S   0  0  0  0  0
    2.9470  -23.1890   45.8420 O   0  0  0  0  0
    4.1160  -24.8720   46.9760 O   0  0  0  0  0
    1.8450  -23.9340   48.0120 C   0  0  0  0  0
    1.6450  -23.4550   49.3100 C   0  0  0  0  0
    0.4610  -23.7020   50.0060 C   0  0  0  0  0
   -0.5660  -24.4220   49.3780 C   0  0  0  0  0
   -0.3960  -24.9230   48.0690 C   0  0  0  0  0
    0.8200  -24.6640   47.3840 C   0  0  0  0  0
    6.3830  -24.1390   49.2640 C   0  0  0  0  0
    7.4740  -24.6640   50.1760 C   0  0  0  0  0
    7.1390  -26.0240   50.7290 C   0  0  0  0  0
    7.6630  -27.1680   50.1290 C   0  0  0  0  0
    7.3540  -28.4360   50.6240 C   0  0  0  0  0
    6.5050  -28.5600   51.7310 C   0  0  0  0  0
    5.9840  -27.4020   52.3590 C   0  0  0  0  0
    6.3090  -26.1240   51.8560 C   0  0  0  0  0
    7.5040  -18.6130   50.8350 C   0  0  0  0  0
    7.4270  -17.4990   51.8490 C   0  0  0  0  0
    6.2710  -17.6320   52.8270 C   0  0  0  0  0
    7.4170  -16.1680   51.1070 C   0  0  0  0  0
    9.4440  -19.5625   52.2690 H   0  0  0  0  0
   11.1494  -20.2650   54.6309 H   0  0  0  0  0
   11.0886  -19.9927   52.8725 H   0  0  0  0  0
   13.3191  -20.8709   53.7901 H   0  0  0  0  0
   12.6199  -21.7940   52.4480 H   0  0  0  0  0
   11.6344  -24.5416   54.4526 H   0  0  0  0  0
   11.5375  -23.8620   52.8775 H   0  0  0  0  0
    9.3569  -23.6158   54.0382 H   0  0  0  0  0
   10.1555  -22.7411   55.3631 H   0  0  0  0  0
    6.5970  -20.1577   51.9887 H   0  0  0  0  0
    5.8211  -21.6341   50.4054 H   0  0  0  0  0
    7.7594  -22.7737   48.3923 H   0  0  0  0  0
    5.9921  -22.9894   46.7992 H   0  0  0  0  0
    6.0639  -21.2683   47.3940 H   0  0  0  0  0
    3.9126  -21.4089   47.6751 H   0  0  0  0  0
    4.2899  -22.6053   49.0507 H   0  0  0  0  0
    2.4329  -22.8746   49.7900 H   0  0  0  0  0
    0.3356  -23.3395   51.0263 H   0  0  0  0  0
   -1.5039  -24.5963   49.9054 H   0  0  0  0  0
   -1.1873  -25.5005   47.5912 H   0  0  0  0  0
    0.9598  -25.0322   46.3676 H   0  0  0  0  0
    6.2833  -24.8045   48.4065 H   0  0  0  0  0
    5.4449  -24.0961   49.8174 H   0  0  0  0  0
    7.5822  -23.9728   51.0118 H   0  0  0  0  0
    8.3928  -24.7483   49.5957 H   0  0  0  0  0
    8.3204  -27.0714   49.2649 H   0  0  0  0  0
    7.7713  -29.3252   50.1514 H   0  0  0  0  0
    6.2449  -29.5485   52.1097 H   0  0  0  0  0
    5.3337  -27.4978   53.2285 H   0  0  0  0  0
    5.9203  -25.2263   52.3367 H   0  0  0  0  0
    6.6077  -18.5349   50.2197 H   0  0  0  0  0
    8.4488  -18.4866   50.3064 H   0  0  0  0  0
    8.3102  -17.5574   52.4852 H   0  0  0  0  0
    5.3299  -17.6330   52.2771 H   0  0  0  0  0
    6.3708  -18.5656   53.3807 H   0  0  0  0  0
    6.2863  -16.7925   53.5220 H   0  0  0  0  0
    8.3303  -16.0741   50.5195 H   0  0  0  0  0
    6.5520  -16.1291   50.4449 H   0  0  0  0  0
    7.3615  -15.3521   51.8277 H   0  0  0  0  0
  1  2  1  0  0  0
  1 10  1  0  0  0
  2  3  2  0  0  0
  2  4  1  0  0  0
  4  5  1  0  0  0
  4  9  1  0  0  0
  5  6  1  0  0  0
  6  7  1  0  0  0
  7  8  1  0  0  0
  8  9  1  0  0  0
 10 11  1  0  0  0
 10 34  1  0  0  0
 11 12  2  0  0  0
 11 13  1  0  0  0
 13 14  1  0  0  0
 14 15  1  0  0  0
 14 26  1  0  0  0
 15 16  1  0  0  0
 16 17  1  0  0  0
 17 18  2  0  0  0
 17 19  2  0  0  0
 17 20  1  0  0  0
 20 21  4  0  0  0
 20 25  4  0  0  0
 21 22  4  0  0  0
 22 23  4  0  0  0
 23 24  4  0  0  0
 24 25  4  0  0  0
 26 27  1  0  0  0
 27 28  1  0  0  0
 28 29  4  0  0  0
 28 33  4  0  0  0
 29 30  4  0  0  0
 30 31  4  0  0  0
 31 32  4  0  0  0
 32 33  4  0  0  0
 34 35  1  0  0  0
 35 36  1  0  0  0
 35 37  1  0  0  0
  1 38  1  0  0  0
  5 39  1  0  0  0
  5 40  1  0  0  0
  6 41  1  0  0  0
  6 42  1  0  0  0
  8 43  1  0  0  0
  8 44  1  0  0  0
  9 45  1  0  0  0
  9 46  1  0  0  0
 10 47  1  0  0  0
 13 48  1  0  0  0
 14 49  1  0  0  0
 15 50  1  0  0  0
 15 51  1  0  0  0
 16 52  1  0  0  0
 16 53  1  0  0  0
 21 54  1  0  0  0
 22 55  1  0  0  0
 23 56  1  0  0  0
 24 57  1  0  0  0
 25 58  1  0  0  0
 26 59  1  0  0  0
 26 60  1  0  0  0
 27 61  1  0  0  0
 27 62  1  0  0  0
 29 63  1  0  0  0
 30 64  1  0  0  0
 31 65  1  0  0  0
 32 66  1  0  0  0
 33 67  1  0  0  0
 34 68  1  0  0  0
 34 69  1  0  0  0
 35 70  1  0  0  0
 36 71  1  0  0  0
 36 72  1  0  0  0
 36 73  1  0  0  0
 37 74  1  0  0  0
 37 75  1  0  0  0
 37 76  1  0  0  0
M  END
$$$$
