6g0v_ligand
  -I-interpret- 

 60 63  0  0  0  0  0  0  0  0999 V2000
  -23.9740   12.2490   -4.6830 C   0  0  0  0  0
  -23.0890   11.8070   -5.9040 C   0  0  0  0  0
  -20.9880   12.7260   -4.6460 C   0  0  0  0  0
  -21.7480   12.6040   -3.3580 C   0  0  0  0  0
  -23.2760   12.3260   -3.3970 C   0  0  0  0  0
  -23.4170   12.2660   -0.6740 C   0  0  0  0  0
  -22.0670   11.8520   -0.7530 C   0  0  0  0  0
  -21.8030   10.3020   -1.1490 C   0  0  0  0  0
  -22.7760    9.4130   -0.5490 C   0  0  0  0  0
  -24.0920    9.8760   -0.8550 C   0  0  0  0  0
  -25.1270    8.9100   -0.3730 C   0  0  0  0  0
  -19.8830    8.9430   -1.3980 C   0  0  0  0  0
  -18.3690    9.1510   -1.3740 C   0  0  0  0  0
  -17.6250    7.8930   -1.6900 C   0  0  0  0  0
  -18.0920    6.7440   -0.8880 C   0  0  0  0  0
  -19.5820    6.5330   -1.0770 C   0  0  0  0  0
  -20.0920    5.4280   -0.2280 C   0  0  0  0  0
  -23.8200   12.2840   -7.1580 C   0  0  0  0  0
  -21.6250   12.3330   -5.9770 N   0  0  0  0  0
  -19.8740   13.1330   -4.6310 O   0  0  0  0  0
  -24.3620   11.2690   -0.1800 O   0  0  0  0  0
  -26.3890    9.5010   -0.5440 O   0  0  0  0  0
  -22.5920    9.3670    0.9490 O   0  0  0  0  0
  -20.4630   10.0190   -0.7550 O   0  0  0  0  0
  -20.2830    7.7610   -0.6510 O   0  0  0  0  0
  -21.4730    5.3030   -0.4430 O   0  0  0  0  0
  -17.8310    7.0200    0.4960 O   0  0  0  0  0
  -16.1950    8.0940   -1.4420 O   0  0  0  0  0
  -18.0190   10.1870   -2.3060 O   0  0  0  0  0
  -23.3440   13.2270   -7.8450 O   0  0  0  0  0
  -24.9000   11.7350   -7.5090 O   0  0  0  0  0
  -21.1380   12.7990   -1.9600 S   0  0  0  0  0
  -24.0830   12.7940   -2.1160 O   0  0  0  0  0
  -24.7506   11.4924   -4.5711 H   0  0  0  0  0
  -24.3305   13.2549   -4.9046 H   0  0  0  0  0
  -22.9714   10.7285   -5.7990 H   0  0  0  0  0
  -20.7667   12.2476   -3.6713 H   0  0  0  0  0
  -23.2706   11.2420   -3.2834 H   0  0  0  0  0
  -23.3051   13.0812    0.0408 H   0  0  0  0  0
  -21.7405   12.0133    0.2744 H   0  0  0  0  0
  -21.9239   10.1377   -2.2197 H   0  0  0  0  0
  -22.6349    8.4097   -0.9508 H   0  0  0  0  0
  -24.1566    9.9698   -1.9390 H   0  0  0  0  0
  -24.9614    8.6758    0.6786 H   0  0  0  0  0
  -25.0672    7.9813   -0.9405 H   0  0  0  0  0
  -20.1919    8.8360   -2.4378 H   0  0  0  0  0
  -18.0816    9.4464   -0.3649 H   0  0  0  0  0
  -17.8094    7.6650   -2.7398 H   0  0  0  0  0
  -17.5676    5.8441   -1.2093 H   0  0  0  0  0
  -19.7566    6.2924   -2.1257 H   0  0  0  0  0
  -19.8969    5.6449    0.8222 H   0  0  0  0  0
  -19.5890    4.4965   -0.4876 H   0  0  0  0  0
  -21.1218   12.4104   -6.8609 H   0  0  0  0  0
  -27.0687    8.8952   -0.2397 H   0  0  0  0  0
  -23.2430    8.7746    1.3322 H   0  0  0  0  0
  -21.8172    4.5906    0.1007 H   0  0  0  0  0
  -18.1298    6.2806    1.0305 H   0  0  0  0  0
  -15.7193    7.2853   -1.6455 H   0  0  0  0  0
  -17.0683   10.3198   -2.2930 H   0  0  0  0  0
  -25.1227   11.0411   -6.8842 H   0  0  0  0  0
  1  2  1  0  0  0
  5  1  1  0  0  0
  2 18  1  0  0  0
 19  2  1  0  0  0
  4  3  1  0  0  0
  3 19  1  0  0  0
  3 20  2  0  0  0
  4  5  1  0  0  0
 32  4  1  0  0  0
 33  5  1  0  0  0
  7  6  1  0  0  0
  6 21  1  0  0  0
  6 33  1  0  0  0
  8  7  1  0  0  0
  7 32  1  0  0  0
  8  9  1  0  0  0
 24  8  1  0  0  0
  9 10  1  0  0  0
  9 23  1  0  0  0
 10 11  1  0  0  0
 10 21  1  0  0  0
 11 22  1  0  0  0
 12 13  1  0  0  0
 12 24  1  0  0  0
 12 25  1  0  0  0
 13 14  1  0  0  0
 13 29  1  0  0  0
 14 15  1  0  0  0
 14 28  1  0  0  0
 15 16  1  0  0  0
 15 27  1  0  0  0
 16 17  1  0  0  0
 16 25  1  0  0  0
 17 26  1  0  0  0
 18 30  2  0  0  0
 18 31  1  0  0  0
  1 34  1  0  0  0
  1 35  1  0  0  0
  2 36  1  0  0  0
  4 37  1  0  0  0
  5 38  1  0  0  0
  6 39  1  0  0  0
  7 40  1  0  0  0
  8 41  1  0  0  0
  9 42  1  0  0  0
 10 43  1  0  0  0
 11 44  1  0  0  0
 11 45  1  0  0  0
 12 46  1  0  0  0
 13 47  1  0  0  0
 14 48  1  0  0  0
 15 49  1  0  0  0
 16 50  1  0  0  0
 17 51  1  0  0  0
 17 52  1  0  0  0
 19 53  1  0  0  0
 22 54  1  0  0  0
 23 55  1  0  0  0
 26 56  1  0  0  0
 27 57  1  0  0  0
 28 58  1  0  0  0
 29 59  1  0  0  0
 31 60  1  0  0  0
M  END
$$$$
