### 
### Created by X-TOOL on Wed Jan  1 15:39:35 2020
### 

@<TRIPOS>MOLECULE
6g0v_ligand
   58    61     1     0     0
SMALL
GAST_HUCK


@<TRIPOS>ATOM
      1 C01       -23.9740   12.2490   -4.6830 C.3       1 EGZ         0.0202
      2 C02       -23.0890   11.8070   -5.9040 C.3       1 EGZ         0.0960
      3 C04       -20.9880   12.7260   -4.6460 C.2       1 EGZ         0.1891
      4 C06       -21.7480   12.6040   -3.3580 C.2       1 EGZ         0.0948
      5 C07       -23.2760   12.3260   -3.3970 C.3       1 EGZ         0.1132
      6 C09       -23.4170   12.2660   -0.6740 C.3       1 EGZ         0.1803
      7 C10       -22.0670   11.8520   -0.7530 C.3       1 EGZ         0.1013
      8 C12       -21.8030   10.3020   -1.1490 C.3       1 EGZ         0.1095
      9 C13       -22.7760    9.4130   -0.5490 C.3       1 EGZ         0.1111
     10 C14       -24.0920    9.8760   -0.8550 C.3       1 EGZ         0.1129
     11 C16       -25.1270    8.9100   -0.3730 C.3       1 EGZ         0.0730
     12 C20       -19.8830    8.9430   -1.3980 C.3       1 EGZ         0.1884
     13 C21       -18.3690    9.1510   -1.3740 C.3       1 EGZ         0.1341
     14 C22       -17.6250    7.8930   -1.6900 C.3       1 EGZ         0.1141
     15 C23       -18.0920    6.7440   -0.8880 C.3       1 EGZ         0.1119
     16 C24       -19.5820    6.5330   -1.0770 C.3       1 EGZ         0.1130
     17 C26       -20.0920    5.4280   -0.2280 C.3       1 EGZ         0.0730
     18 C31       -23.8200   12.2840   -7.1580 C.2       1 EGZ         0.0599
     19 N03       -21.6250   12.3330   -5.9770 N.am      1 EGZ        -0.2800
     20 O05       -19.8740   13.1330   -4.6310 O.2       1 EGZ        -0.4151
     21 O15       -24.3620   11.2690   -0.1800 O.3       1 EGZ        -0.3414
     22 O17       -26.3890    9.5010   -0.5440 O.3       1 EGZ        -0.3924
     23 O18       -22.5920    9.3670    0.9490 O.3       1 EGZ        -0.3865
     24 O19       -20.4630   10.0190   -0.7550 O.3       1 EGZ        -0.3413
     25 O25       -20.2830    7.7610   -0.6510 O.3       1 EGZ        -0.3405
     26 O27       -21.4730    5.3030   -0.4430 O.3       1 EGZ        -0.3924
     27 O28       -17.8310    7.0200    0.4960 O.3       1 EGZ        -0.3865
     28 O29       -16.1950    8.0940   -1.4420 O.3       1 EGZ        -0.3864
     29 O30       -18.0190   10.1870   -2.3060 O.3       1 EGZ        -0.3841
     30 O32       -23.3440   13.2270   -7.8450 O.co2     1 EGZ        -0.5666
     31 O33       -24.9000   11.7350   -7.5090 O.co2     1 EGZ        -0.5666
     32 S11       -21.1380   12.7990   -1.9600 S.3       1 EGZ        -0.0800
     33 O08       -24.0830   12.7940   -2.1160 O.3       1 EGZ        -0.3302
     34 H1        -24.7963   11.5256   -4.5802 H         1 EGZ         0.0362
     35 H2        -24.3867   13.2441   -4.9054 H         1 EGZ         0.0362
     36 H3        -23.0413   10.7081   -5.8988 H         1 EGZ         0.0723
     37 H4        -23.2455   11.2473   -3.1839 H         1 EGZ         0.0813
     38 H5        -23.4263   13.1112    0.0299 H         1 EGZ         0.0927
     39 H6        -21.6307   12.0237    0.2421 H         1 EGZ         0.0525
     40 H7        -21.8816   10.1925   -2.2407 H         1 EGZ         0.0639
     41 H8        -22.6418    8.4013   -0.9594 H         1 EGZ         0.0646
     42 H9        -24.1810    9.9818   -1.9463 H         1 EGZ         0.0647
     43 H10       -24.9613    8.6863    0.6912 H         1 EGZ         0.0584
     44 H11       -25.0690    7.9795   -0.9567 H         1 EGZ         0.0584
     45 H12       -20.2331    8.8695   -2.4382 H         1 EGZ         0.0938
     46 H13       -18.0800    9.4745   -0.3631 H         1 EGZ         0.0671
     47 H14       -17.7758    7.6596   -2.7543 H         1 EGZ         0.0648
     48 H15       -17.5520    5.8366   -1.1961 H         1 EGZ         0.0647
     49 H16       -19.7916    6.3173   -2.1351 H         1 EGZ         0.0647
     50 H17       -19.9004    5.6549    0.8311 H         1 EGZ         0.0584
     51 H18       -19.5877    4.4887   -0.4989 H         1 EGZ         0.0584
     52 H19       -21.1317   12.4088   -6.8435 H         1 EGZ         0.1822
     53 H20       -26.4316   10.3053   -0.0404 H         1 EGZ         0.2095
     54 H21       -23.2317    8.7754    1.3275 H         1 EGZ         0.2100
     55 H22       -21.9036    6.1171   -0.2100 H         1 EGZ         0.2095
     56 H23       -16.8987    7.1532    0.6208 H         1 EGZ         0.2100
     57 H24       -16.0564    8.2685   -0.5185 H         1 EGZ         0.2100
     58 H25       -18.2417    9.9079   -3.1864 H         1 EGZ         0.2101
@<TRIPOS>BOND
     1    1    2 1  
     2    5    1 1  
     3    2   18 1  
     4   19    2 1  
     5    4    3 1  
     6    3   19 am 
     7    3   20 2  
     8    4    5 1  
     9   32    4 1  
    10   33    5 1  
    11    7    6 1  
    12    6   21 1  
    13    6   33 1  
    14    8    7 1  
    15    7   32 1  
    16    8    9 1  
    17   24    8 1  
    18    9   10 1  
    19    9   23 1  
    20   10   11 1  
    21   10   21 1  
    22   11   22 1  
    23   12   13 1  
    24   12   24 1  
    25   12   25 1  
    26   13   14 1  
    27   13   29 1  
    28   14   15 1  
    29   14   28 1  
    30   15   16 1  
    31   15   27 1  
    32   16   17 1  
    33   16   25 1  
    34   17   26 1  
    35   18   30 ar 
    36   18   31 ar 
    37    1   34 1  
    38    1   35 1  
    39    2   36 1  
    40    5   37 1  
    41    6   38 1  
    42    7   39 1  
    43    8   40 1  
    44    9   41 1  
    45   10   42 1  
    46   11   43 1  
    47   11   44 1  
    48   12   45 1  
    49   13   46 1  
    50   14   47 1  
    51   15   48 1  
    52   16   49 1  
    53   17   50 1  
    54   17   51 1  
    55   19   52 1  
    56   22   53 1  
    57   23   54 1  
    58   26   55 1  
    59   27   56 1  
    60   28   57 1  
    61   29   58 1  
@<TRIPOS>SUBSTRUCTURE
     1 EGZ         1

