1gj8_ligand
  -I-interpret- 

 43 45  0  0  0  0  0  0  0  0999 V2000
    8.7020    1.9060   24.7210 C   0  0  0  0  0
    9.5020    1.7010   23.5460 C   0  0  0  0  0
   10.0890    2.7460   22.8090 C   0  0  0  0  0
    9.8940    3.9850   23.3270 C   0  0  0  0  0
    9.1430    4.2220   24.4360 C   0  0  0  0  0
    8.5610    3.2360   25.1760 C   0  0  0  0  0
    8.0960    0.8660   25.4440 C   0  0  0  0  0
    7.6220    1.1290   26.6300 N   0  0  0  0  0
    7.9690   -0.3410   24.9550 N   0  0  0  0  0
   10.2800    5.1330   22.9050 N   0  0  0  0  0
    9.0730    5.4870   24.7590 N   0  0  0  0  0
    9.7890    5.9750   23.7630 C   0  0  0  0  0
   10.0240    7.3300   23.6610 C   0  0  0  0  0
    9.6070    8.1950   24.6730 C   0  0  0  0  0
    9.8420    9.5420   24.5870 C   0  0  0  0  0
   10.4300   10.0580   23.4430 C   0  0  0  0  0
   10.8560    9.2200   22.4070 C   0  0  0  0  0
   10.6190    7.8690   22.5090 C   0  0  0  0  0
   11.0360    7.0530   21.4740 O   0  0  0  0  0
   11.4570    9.7000   21.2550 O   0  0  0  0  0
   12.2690   10.8580   21.4780 C   0  0  0  0  0
   12.8550   11.3540   20.1570 C   0  0  0  0  0
   14.1520   10.6070   19.8240 C   0  0  0  0  0
   11.8260   11.2150   19.0470 C   0  0  0  0  0
    9.7230    0.4740   23.0740 F   0  0  0  0  0
   10.6558    2.5739   21.8940 H   0  0  0  0  0
    8.0068    3.4656   26.0861 H   0  0  0  0  0
    7.1574    0.3970   27.1674 H   0  0  0  0  0
    7.5027   -1.0658   25.5005 H   0  0  0  0  0
    8.3363   -0.5571   24.0283 H   0  0  0  0  0
    9.0875    7.7940   25.5433 H   0  0  0  0  0
    9.5691   10.2017   25.4107 H   0  0  0  0  0
   10.5629   11.1358   23.3488 H   0  0  0  0  0
   11.4156    7.5920   20.7761 H   0  0  0  0  0
   13.0834   10.5979   22.1542 H   0  0  0  0  0
   11.6548   11.6459   21.9140 H   0  0  0  0  0
   13.1060   12.4103   20.2539 H   0  0  0  0  0
   14.8802   10.7743   20.6176 H   0  0  0  0  0
   13.9439    9.5404   19.7390 H   0  0  0  0  0
   14.5507   10.9771   18.8794 H   0  0  0  0  0
   11.5439   10.1672   18.9439 H   0  0  0  0  0
   10.9448   11.8072   19.2939 H   0  0  0  0  0
   12.2539   11.5713   18.1099 H   0  0  0  0  0
  2 25  1  0  0  0
  1  7  1  0  0  0
  1  6  4  0  0  0
  1  2  4  0  0  0
  2  3  4  0  0  0
  3  4  4  0  0  0
  4 10  4  0  0  0
  4  5  4  0  0  0
  5 11  4  0  0  0
  6  5  4  0  0  0
 11 12  4  0  0  0
 12 13  1  0  0  0
 10 12  4  0  0  0
 13 18  4  0  0  0
 13 14  4  0  0  0
 14 15  4  0  0  0
 15 16  4  0  0  0
 16 17  4  0  0  0
 17 20  1  0  0  0
 18 17  4  0  0  0
 18 19  1  0  0  0
 20 21  1  0  0  0
 21 22  1  0  0  0
 22 24  1  0  0  0
 22 23  1  0  0  0
  7  9  1  0  0  0
  7  8  2  0  0  0
  3 26  1  0  0  0
  6 27  1  0  0  0
  8 28  1  0  0  0
  9 29  1  0  0  0
  9 30  1  0  0  0
 14 31  1  0  0  0
 15 32  1  0  0  0
 16 33  1  0  0  0
 19 34  1  0  0  0
 21 35  1  0  0  0
 21 36  1  0  0  0
 22 37  1  0  0  0
 23 38  1  0  0  0
 23 39  1  0  0  0
 23 40  1  0  0  0
 24 41  1  0  0  0
 24 42  1  0  0  0
 24 43  1  0  0  0
M  END
$$$$
