1hge_ligand
  -I-interpret- 

 43 43  0  0  0  0  0  0  0  0999 V2000
   -7.4970   71.9520   28.2680 C   0  0  0  0  0
   -8.1760   73.2210   27.7170 C   0  0  0  0  0
   -8.1230   74.3800   28.7340 C   0  0  0  0  0
   -6.7000   74.9400   28.8760 C   0  0  0  0  0
   -6.1830   75.4010   27.5000 C   0  0  0  0  0
   -6.2720   74.1980   26.5390 C   0  0  0  0  0
   -5.9650   74.4730   25.0950 C   0  0  0  0  0
   -6.0990   73.2090   24.2180 C   0  0  0  0  0
   -5.6300   73.4890   22.7960 C   0  0  0  0  0
   -4.2570   76.7850   26.9460 C   0  0  0  0  0
   -2.8270   77.2330   27.2400 C   0  0  0  0  0
   -9.7480   71.8280   26.4860 C   0  0  0  0  0
   -4.8190   75.8610   27.7130 N   0  0  0  0  0
   -7.8210   71.5230   29.3760 O   0  0  0  0  0
   -6.6600   71.3620   27.5950 O   0  0  0  0  0
   -9.5390   72.8880   27.4540 O   0  0  0  0  0
   -6.6260   76.0340   29.8050 O   0  0  0  0  0
   -7.5800   73.6700   26.5030 O   0  0  0  0  0
   -6.9210   75.4230   24.6800 O   0  0  0  0  0
   -5.3260   72.1510   24.7320 O   0  0  0  0  0
   -5.4080   72.2420   22.1810 O   0  0  0  0  0
   -4.8700   77.2420   25.9810 O   0  0  0  0  0
   -8.4437   74.0022   29.7048 H   0  0  0  0  0
   -8.7748   75.1791   28.3809 H   0  0  0  0  0
   -6.0768   74.1362   29.2679 H   0  0  0  0  0
   -6.7612   76.2121   27.0574 H   0  0  0  0  0
   -5.5170   73.5292   26.9524 H   0  0  0  0  0
   -4.9374   74.8208   24.9896 H   0  0  0  0  0
   -7.1525   72.9292   24.2185 H   0  0  0  0  0
   -4.7164   74.0835   22.8019 H   0  0  0  0  0
   -6.3798   74.0602   22.2487 H   0  0  0  0  0
   -2.1895   76.9901   26.3899 H   0  0  0  0  0
   -2.8127   78.3095   27.4106 H   0  0  0  0  0
   -2.4617   76.7181   28.1286 H   0  0  0  0  0
   -9.3124   72.1194   25.5303 H   0  0  0  0  0
   -9.2709   70.9145   26.8408 H   0  0  0  0  0
  -10.8173   71.6565   26.3621 H   0  0  0  0  0
   -4.2771   75.4591   28.4780 H   0  0  0  0  0
   -8.4822   72.1025   29.7614 H   0  0  0  0  0
   -6.9482   75.7466   30.6624 H   0  0  0  0  0
   -6.8428   76.2117   25.2217 H   0  0  0  0  0
   -5.4271   71.3796   24.1695 H   0  0  0  0  0
   -5.1099   72.3799   21.2789 H   0  0  0  0  0
  2  1  1  0  0  0
  1 14  1  0  0  0
  1 15  2  0  0  0
  3  2  1  0  0  0
  2 16  1  0  0  0
 18  2  1  0  0  0
  4  3  1  0  0  0
  5  4  1  0  0  0
  4 17  1  0  0  0
  5  6  1  0  0  0
 13  5  1  0  0  0
  6  7  1  0  0  0
  6 18  1  0  0  0
  7  8  1  0  0  0
  7 19  1  0  0  0
  8  9  1  0  0  0
  8 20  1  0  0  0
  9 21  1  0  0  0
 10 11  1  0  0  0
 10 13  1  0  0  0
 10 22  2  0  0  0
 16 12  1  0  0  0
  3 23  1  0  0  0
  3 24  1  0  0  0
  4 25  1  0  0  0
  5 26  1  0  0  0
  6 27  1  0  0  0
  7 28  1  0  0  0
  8 29  1  0  0  0
  9 30  1  0  0  0
  9 31  1  0  0  0
 11 32  1  0  0  0
 11 33  1  0  0  0
 11 34  1  0  0  0
 12 35  1  0  0  0
 12 36  1  0  0  0
 12 37  1  0  0  0
 13 38  1  0  0  0
 14 39  1  0  0  0
 17 40  1  0  0  0
 19 41  1  0  0  0
 20 42  1  0  0  0
 21 43  1  0  0  0
M  END
$$$$
