1p0y_ligand
  -I-interpret- 

 29 28  0  0  0  0  0  0  0  0999 V2000
   68.8050  129.6650   64.1060 N   0  3  0  0  0
   69.2530  130.9650   63.6600 C   0  0  0  0  0
   69.4750  131.0500   62.1650 C   0  0  0  0  0
   68.2830  130.7680   61.2850 C   0  0  0  0  0
   68.6880  130.9460   59.8110 C   0  0  0  0  0
   67.5750  131.6170   59.0190 C   0  0  0  0  0
   66.9330  130.7390   58.0080 N   0  3  0  0  0
   67.2750  131.2090   56.6500 C   0  0  0  0  0
   68.4160  132.1790   64.1160 C   0  0  0  0  0
   67.4200  131.9690   64.8770 O   0  0  0  0  0
   68.7960  133.2510   63.7200 O   0  0  0  0  0
   69.4331  128.9476   63.7438 H   0  0  0  0  0
   68.8073  129.6373   65.1256 H   0  0  0  0  0
   67.8597  129.4961   63.7622 H   0  0  0  0  0
   70.2082  131.0417   64.1794 H   0  0  0  0  0
   70.2116  130.2825   61.9271 H   0  0  0  0  0
   69.7597  132.0825   61.9624 H   0  0  0  0  0
   67.4768  131.4599   61.5287 H   0  0  0  0  0
   67.9409  129.7462   61.4493 H   0  0  0  0  0
   68.8820  129.9639   59.3798 H   0  0  0  0  0
   69.5780  131.5736   59.7654 H   0  0  0  0  0
   68.0219  132.4533   58.4814 H   0  0  0  0  0
   66.8022  131.9057   59.7314 H   0  0  0  0  0
   65.9207  130.7671   58.1302 H   0  0  0  0  0
   67.2681  129.7833   58.1290 H   0  0  0  0  0
   66.9186  132.2308   56.5201 H   0  0  0  0  0
   68.3567  131.1807   56.5188 H   0  0  0  0  0
   66.8012  130.5610   55.9126 H   0  0  0  0  0
   67.3361  131.0266   65.0396 H   0  0  0  0  0
  1  2  1  0  0  0
  2  3  1  0  0  0
  2  9  1  0  0  0
  3  4  1  0  0  0
  4  5  1  0  0  0
  5  6  1  0  0  0
  6  7  1  0  0  0
  7  8  1  0  0  0
  9 10  1  0  0  0
  9 11  2  0  0  0
  1 12  1  0  0  0
  1 13  1  0  0  0
  1 14  1  0  0  0
  2 15  1  0  0  0
  3 16  1  0  0  0
  3 17  1  0  0  0
  4 18  1  0  0  0
  4 19  1  0  0  0
  5 20  1  0  0  0
  5 21  1  0  0  0
  6 22  1  0  0  0
  6 23  1  0  0  0
  7 24  1  0  0  0
  7 25  1  0  0  0
  8 26  1  0  0  0
  8 27  1  0  0  0
  8 28  1  0  0  0
 10 29  1  0  0  0
M  END
$$$$
