2e92_ligand
  -I-interpret- 

 32 33  0  0  0  0  0  0  0  0999 V2000
   29.1470   47.3490    5.5090 O   0  0  0  0  0
   28.8910   45.9840    5.8550 C   0  0  0  0  0
   29.4250   45.6760    7.2530 C   0  0  0  0  0
   28.9430   46.6950    8.2960 C   0  0  0  0  0
   28.4220   47.8990    8.1110 C   0  0  0  0  0
   28.1220   48.4370    9.2960 N   0  0  0  0  0
   28.4510   47.5920   10.2700 C   0  0  0  0  0
   28.3720   47.6690   11.6540 C   0  0  0  0  0
   28.8280   46.6130   12.4360 C   0  0  0  0  0
   29.3630   45.4740   11.8370 C   0  0  0  0  0
   29.4500   45.3820   10.4560 C   0  0  0  0  0
   28.9910   46.4490    9.6680 N   0  0  0  0  0
   29.8040   44.9070    4.6450 P   0  0  0  0  0
   29.4080   45.1920    3.2500 O   0  0  0  0  0
   31.3750   45.1480    4.9070 O   0  0  0  0  0
   29.5030   43.4110    5.1490 O   0  0  0  0  0
   27.0700   45.6020    5.7100 P   0  0  0  0  0
   26.9010   44.0580    6.1380 O   0  0  0  0  0
   26.7440   45.6520    4.1380 O   0  0  0  0  0
   26.2220   46.5380    6.4800 O   0  0  0  0  0
   30.0869   47.5274    5.5891 H   0  0  0  0  0
   30.5136   45.7171    7.2167 H   0  0  0  0  0
   29.0594   44.6919    7.5463 H   0  0  0  0  0
   28.2632   48.3756    7.1437 H   0  0  0  0  0
   27.9528   48.5567   12.1276 H   0  0  0  0  0
   28.7666   46.6766   13.5224 H   0  0  0  0  0
   29.7153   44.6503   12.4579 H   0  0  0  0  0
   29.8699   44.4916    9.9880 H   0  0  0  0  0
   31.5795   44.9497    5.8238 H   0  0  0  0  0
   29.7911   43.3174    6.0600 H   0  0  0  0  0
   27.4786   43.5126    5.5989 H   0  0  0  0  0
   27.3128   45.0329    3.6745 H   0  0  0  0  0
  1  2  1  0  0  0
  2  3  1  0  0  0
  2 13  1  0  0  0
  2 17  1  0  0  0
  3  4  1  0  0  0
  4  5  4  0  0  0
  4 12  4  0  0  0
  5  6  4  0  0  0
  6  7  4  0  0  0
  7  8  4  0  0  0
  7 12  4  0  0  0
  8  9  4  0  0  0
  9 10  4  0  0  0
 10 11  4  0  0  0
 11 12  4  0  0  0
 13 14  2  0  0  0
 13 15  1  0  0  0
 13 16  1  0  0  0
 17 18  1  0  0  0
 17 19  1  0  0  0
 17 20  2  0  0  0
  1 21  1  0  0  0
  3 22  1  0  0  0
  3 23  1  0  0  0
  5 24  1  0  0  0
  8 25  1  0  0  0
  9 26  1  0  0  0
 10 27  1  0  0  0
 11 28  1  0  0  0
 15 29  1  0  0  0
 16 30  1  0  0  0
 18 31  1  0  0  0
 19 32  1  0  0  0
M  END
$$$$
