2j2i_ligand
  -I-interpret- 

 64 69  0  0  0  0  0  0  0  0999 V2000
   39.4820   -1.7760   -2.1850 C   0  0  0  0  0
   39.8820   -0.5500   -1.3140 C   0  0  0  0  0
   40.2160   -1.0350    0.0250 N   0  0  0  0  0
   41.4520   -0.8920    0.4710 C   0  0  0  0  0
   39.4810   -1.6790    0.9410 C   0  0  0  0  0
   38.1440   -2.0850    0.9720 C   0  0  0  0  0
   37.6190   -2.7500    2.0880 C   0  0  0  0  0
   38.4470   -3.0050    3.1720 C   0  0  0  0  0
   39.7830   -2.6070    3.1360 C   0  0  0  0  0
   40.3040   -1.9490    2.0160 C   0  0  0  0  0
   41.5540   -1.4300    1.6900 C   0  0  0  0  0
   42.7680   -1.4370    2.3840 C   0  0  0  0  0
   43.0160   -1.4260    3.7620 C   0  0  0  0  0
   42.1820   -1.3600    4.6650 O   0  0  0  0  0
   44.3000   -1.4830    4.0100 N   0  0  0  0  0
   44.9270   -1.5300    2.8610 C   0  0  0  0  0
   46.1480   -1.5960    2.8010 O   0  0  0  0  0
   44.0380   -1.5220    1.7820 C   0  0  0  0  0
   44.3450   -1.6070    0.4060 C   0  0  0  0  0
   43.6980   -2.4510   -0.4230 C   0  0  0  0  0
   45.3420   -1.0090   -0.3660 C   0  0  0  0  0
   46.3380   -0.0810   -0.0800 C   0  0  0  0  0
   47.1950    0.3710   -1.0810 C   0  0  0  0  0
   47.0720   -0.1240   -2.3750 C   0  0  0  0  0
   46.0880   -1.0600   -2.6600 C   0  0  0  0  0
   45.2170   -1.5040   -1.6590 C   0  0  0  0  0
   44.2090   -2.3790   -1.6710 N   0  0  0  0  0
   43.6440   -3.2130   -2.7510 C   0  0  0  0  0
   42.8350   -2.4430   -3.7930 C   0  0  0  0  0
   41.6180   -1.7990   -3.3130 O   0  0  0  0  0
   40.6500   -2.6440   -2.7140 C   0  0  0  0  0
   40.1710   -3.7160   -3.7590 C   0  0  0  0  0
   38.7390   -4.0420   -3.5440 N   0  3  0  0  0
   38.5660   -4.9020   -2.3450 C   0  0  0  0  0
   38.1140   -4.6790   -4.7250 C   0  0  0  0  0
   38.9767   -1.3750   -3.0636 H   0  0  0  0  0
   38.8849   -2.4247   -1.5440 H   0  0  0  0  0
   39.0564    0.1598   -1.2619 H   0  0  0  0  0
   40.7389   -0.0397   -1.7538 H   0  0  0  0  0
   42.2641   -0.4090   -0.0725 H   0  0  0  0  0
   37.5006   -1.8815    0.1160 H   0  0  0  0  0
   36.5749   -3.0626    2.1045 H   0  0  0  0  0
   38.0535   -3.5159    4.0508 H   0  0  0  0  0
   40.4290   -2.8107    3.9900 H   0  0  0  0  0
   44.7345   -1.4896    4.9328 H   0  0  0  0  0
   42.8755   -3.1020   -0.1266 H   0  0  0  0  0
   46.4489    0.2960    0.9367 H   0  0  0  0  0
   47.9609    1.1115   -0.8505 H   0  0  0  0  0
   47.7444    0.2212   -3.1604 H   0  0  0  0  0
   45.9928   -1.4527   -3.6723 H   0  0  0  0  0
   42.9633   -3.9230   -2.2813 H   0  0  0  0  0
   44.4850   -3.6680   -3.2743 H   0  0  0  0  0
   42.5199   -3.1750   -4.5366 H   0  0  0  0  0
   43.4825   -1.6429   -4.1518 H   0  0  0  0  0
   41.0769   -3.1825   -1.8679 H   0  0  0  0  0
   40.7643   -4.6221   -3.6363 H   0  0  0  0  0
   40.2971   -3.3139   -4.7642 H   0  0  0  0  0
   38.2600   -3.1545   -3.3915 H   0  0  0  0  0
   39.1208   -5.8302   -2.4821 H   0  0  0  0  0
   38.9428   -4.3783   -1.4664 H   0  0  0  0  0
   37.5079   -5.1263   -2.2099 H   0  0  0  0  0
   38.1786   -4.0030   -5.5776 H   0  0  0  0  0
   38.6372   -5.6071   -4.9551 H   0  0  0  0  0
   37.0676   -4.8943   -4.5089 H   0  0  0  0  0
  1  2  1  0  0  0
  1 31  1  0  0  0
  2  3  1  0  0  0
  3  4  4  0  0  0
  3  5  4  0  0  0
  4 11  4  0  0  0
  5  6  4  0  0  0
  5 10  4  0  0  0
  6  7  4  0  0  0
  7  8  4  0  0  0
  8  9  4  0  0  0
  9 10  4  0  0  0
 10 11  4  0  0  0
 11 12  1  0  0  0
 12 13  1  0  0  0
 12 18  2  0  0  0
 13 14  2  0  0  0
 13 15  1  0  0  0
 15 16  1  0  0  0
 16 17  2  0  0  0
 16 18  1  0  0  0
 18 19  1  0  0  0
 19 20  4  0  0  0
 19 21  4  0  0  0
 20 27  4  0  0  0
 21 22  4  0  0  0
 21 26  4  0  0  0
 22 23  4  0  0  0
 23 24  4  0  0  0
 24 25  4  0  0  0
 25 26  4  0  0  0
 26 27  4  0  0  0
 27 28  1  0  0  0
 28 29  1  0  0  0
 29 30  1  0  0  0
 30 31  1  0  0  0
 31 32  1  0  0  0
 32 33  1  0  0  0
 33 34  1  0  0  0
 33 35  1  0  0  0
  1 36  1  0  0  0
  1 37  1  0  0  0
  2 38  1  0  0  0
  2 39  1  0  0  0
  4 40  1  0  0  0
  6 41  1  0  0  0
  7 42  1  0  0  0
  8 43  1  0  0  0
  9 44  1  0  0  0
 15 45  1  0  0  0
 20 46  1  0  0  0
 22 47  1  0  0  0
 23 48  1  0  0  0
 24 49  1  0  0  0
 25 50  1  0  0  0
 28 51  1  0  0  0
 28 52  1  0  0  0
 29 53  1  0  0  0
 29 54  1  0  0  0
 31 55  1  0  0  0
 32 56  1  0  0  0
 32 57  1  0  0  0
 33 58  1  0  0  0
 34 59  1  0  0  0
 34 60  1  0  0  0
 34 61  1  0  0  0
 35 62  1  0  0  0
 35 63  1  0  0  0
 35 64  1  0  0  0
M  END
$$$$
