5n9k_ligand
  -I-interpret- 

 40 43  0  0  0  0  0  0  0  0999 V2000
  -16.9480   25.4840   46.0870 C   0  0  0  0  0
  -16.9200   18.3640   46.6320 C   0  0  0  0  0
  -17.0930   15.7350   49.2700 C   0  0  0  0  0
  -17.0300   21.7860   47.5960 C   0  0  0  0  0
  -16.8170   20.7990   45.4060 C   0  0  0  0  0
  -16.9910   23.0530   47.0350 C   0  0  0  0  0
  -16.7650   22.0720   44.8430 C   0  0  0  0  0
  -16.9540   14.6540   48.4100 C   0  0  0  0  0
  -16.4650   14.1320   43.7460 C   0  0  0  0  0
  -17.0910   17.0030   48.7010 C   0  0  0  0  0
  -16.3930   12.7560   43.6270 C   0  0  0  0  0
  -16.9350   20.6630   46.7840 C   0  0  0  0  0
  -16.4720   12.0160   44.7910 C   0  0  0  0  0
  -16.8520   23.1990   45.6580 C   0  0  0  0  0
  -16.6290   12.6140   46.0160 C   0  0  0  0  0
  -16.9780   17.1440   47.3170 C   0  0  0  0  0
  -16.6200   14.6870   44.9460 C   0  0  0  0  0
  -16.8350   14.8240   47.0910 C   0  0  0  0  0
  -16.8420   16.0550   46.5760 C   0  0  0  0  0
  -16.6990   13.9550   46.0770 C   0  0  0  0  0
  -16.9850   19.4740   47.3670 N   0  0  0  0  0
  -17.2270   18.1180   49.4690 O   0  0  0  0  0
  -16.3930   10.6590   44.7340 O   0  0  0  0  0
  -16.8210   24.4450   45.1040 O   0  0  0  0  0
  -16.7120   15.9510   45.2680 O   0  0  0  0  0
  -16.1950   12.0250   42.1100 Cl  0  0  0  0  0
  -16.6910   11.5590   47.4290 Cl  0  0  0  0  0
  -17.8966   25.3717   46.6120 H   0  0  0  0  0
  -16.1262   25.4109   46.7993 H   0  0  0  0  0
  -16.9173   26.4553   45.5932 H   0  0  0  0  0
  -16.8260   18.4041   45.5468 H   0  0  0  0  0
  -17.1992   15.5952   50.3458 H   0  0  0  0  0
  -17.1353   21.6709   48.6748 H   0  0  0  0  0
  -16.7655   19.9153   44.7699 H   0  0  0  0  0
  -17.0691   23.9342   47.6718 H   0  0  0  0  0
  -16.6562   22.1867   43.7645 H   0  0  0  0  0
  -16.9417   13.6444   48.8206 H   0  0  0  0  0
  -16.3949   14.7610   42.8586 H   0  0  0  0  0
  -17.2028   18.8966   48.9079 H   0  0  0  0  0
  -16.4641   10.2979   45.6207 H   0  0  0  0  0
 24  1  1  0  0  0
 16  2  1  0  0  0
  2 21  2  0  0  0
  8  3  4  0  0  0
  3 10  4  0  0  0
  4  6  4  0  0  0
 12  4  4  0  0  0
  5  7  4  0  0  0
 12  5  4  0  0  0
  6 14  4  0  0  0
  7 14  4  0  0  0
 18  8  4  0  0  0
  9 11  4  0  0  0
 17  9  4  0  0  0
 16 10  4  0  0  0
 10 22  1  0  0  0
 13 11  4  0  0  0
 11 26  1  0  0  0
 21 12  1  0  0  0
 15 13  4  0  0  0
 13 23  1  0  0  0
 14 24  1  0  0  0
 20 15  4  0  0  0
 15 27  1  0  0  0
 19 16  4  0  0  0
 20 17  4  0  0  0
 17 25  4  0  0  0
 18 19  4  0  0  0
 18 20  4  0  0  0
 19 25  4  0  0  0
  1 28  1  0  0  0
  1 29  1  0  0  0
  1 30  1  0  0  0
  2 31  1  0  0  0
  3 32  1  0  0  0
  4 33  1  0  0  0
  5 34  1  0  0  0
  6 35  1  0  0  0
  7 36  1  0  0  0
  8 37  1  0  0  0
  9 38  1  0  0  0
 22 39  1  0  0  0
 23 40  1  0  0  0
M  END
$$$$
