5u7m_ligand
  -I-interpret- 

 51 54  0  0  0  0  0  0  0  0999 V2000
  147.1990  306.8660  -18.0030 C   0  0  0  0  0
  144.7110  305.9260  -17.8380 C   0  0  0  0  0
  143.8450  305.2990  -17.0840 C   0  0  0  0  0
  145.9250  306.6050  -17.2040 C   0  0  0  0  0
  146.2940  307.4350  -21.8970 C   0  0  0  0  0
  144.8250  306.3100  -20.4240 C   0  0  0  0  0
  144.0780  305.9800  -21.5410 C   0  0  0  0  0
  142.9070  305.2360  -21.4080 C   0  0  0  0  0
  143.1730  305.1330  -19.1870 C   0  0  0  0  0
  144.4060  305.8990  -19.1790 C   0  0  0  0  0
  148.9070  308.4290  -18.9580 C   0  0  0  0  0
  149.8320  309.4200  -18.2280 C   0  0  0  0  0
  147.9230  310.2460  -16.8410 C   0  0  0  0  0
  146.9760  309.3390  -17.6140 C   0  0  0  0  0
  146.3190  310.1220  -18.7580 C   0  0  0  0  0
  149.2270  311.8930  -18.2510 C   0  0  0  0  0
  150.3610  312.1620  -19.2560 C   0  0  0  0  0
  150.1500  311.9120  -20.6110 C   0  0  0  0  0
  151.1590  312.1480  -21.5270 C   0  0  0  0  0
  152.3740  312.6350  -21.0950 C   0  0  0  0  0
  152.5870  312.8850  -19.7570 C   0  0  0  0  0
  151.5880  312.6520  -18.8300 C   0  0  0  0  0
  142.4370  304.8020  -20.2370 N   0  0  0  0  0
  142.9440  304.8340  -17.8700 N   0  0  0  0  0
  147.6970  308.2190  -18.1820 N   0  0  0  0  0
  149.0000  310.5290  -17.7670 N   0  0  0  0  0
  145.9980  307.0600  -20.5800 O   0  0  0  0  0
  145.8780  306.9080  -16.0600 O   0  0  0  0  0
  147.7910  305.9580  -18.4770 O   0  0  0  0  0
  148.5390  312.7830  -17.8780 O   0  0  0  0  0
  143.8818  305.1925  -15.9998 H   0  0  0  0  0
  146.4117  306.5415  -22.5101 H   0  0  0  0  0
  145.4804  308.0435  -22.2917 H   0  0  0  0  0
  147.2194  308.0107  -21.9102 H   0  0  0  0  0
  144.4066  306.3032  -22.5288 H   0  0  0  0  0
  142.3443  304.9955  -22.3100 H   0  0  0  0  0
  149.4248  307.4778  -19.0812 H   0  0  0  0  0
  148.6423  308.8362  -19.9338 H   0  0  0  0  0
  150.6138  309.7793  -18.8972 H   0  0  0  0  0
  150.3257  308.9349  -17.3860 H   0  0  0  0  0
  148.2854  309.7721  -15.9288 H   0  0  0  0  0
  147.4281  311.1564  -16.5028 H   0  0  0  0  0
  146.2168  308.9737  -16.9224 H   0  0  0  0  0
  145.7579  310.9612  -18.3469 H   0  0  0  0  0
  147.0906  310.4944  -19.4318 H   0  0  0  0  0
  145.6433  309.4648  -19.3053 H   0  0  0  0  0
  149.1871  311.5295  -20.9496 H   0  0  0  0  0
  150.9941  311.9497  -22.5861 H   0  0  0  0  0
  153.1701  312.8232  -21.8154 H   0  0  0  0  0
  153.5517  313.2699  -19.4263 H   0  0  0  0  0
  151.7625  312.8515  -17.7727 H   0  0  0  0  0
  1  4  1  0  0  0
 25  1  1  0  0  0
  1 29  2  0  0  0
  2  3  4  0  0  0
  4  2  1  0  0  0
  2 10  4  0  0  0
  3 24  4  0  0  0
  4 28  2  0  0  0
 27  5  1  0  0  0
  6  7  4  0  0  0
 10  6  4  0  0  0
  6 27  1  0  0  0
  7  8  4  0  0  0
 23  8  4  0  0  0
 10  9  4  0  0  0
  9 23  4  0  0  0
  9 24  4  0  0  0
 12 11  1  0  0  0
 11 25  1  0  0  0
 26 12  1  0  0  0
 13 14  1  0  0  0
 26 13  1  0  0  0
 14 15  1  0  0  0
 14 25  1  0  0  0
 16 17  1  0  0  0
 16 26  1  0  0  0
 16 30  2  0  0  0
 17 18  4  0  0  0
 17 22  4  0  0  0
 18 19  4  0  0  0
 19 20  4  0  0  0
 20 21  4  0  0  0
 21 22  4  0  0  0
  3 31  1  0  0  0
  5 32  1  0  0  0
  5 33  1  0  0  0
  5 34  1  0  0  0
  7 35  1  0  0  0
  8 36  1  0  0  0
 11 37  1  0  0  0
 11 38  1  0  0  0
 12 39  1  0  0  0
 12 40  1  0  0  0
 13 41  1  0  0  0
 13 42  1  0  0  0
 14 43  1  0  0  0
 15 44  1  0  0  0
 15 45  1  0  0  0
 15 46  1  0  0  0
 18 47  1  0  0  0
 19 48  1  0  0  0
 20 49  1  0  0  0
 21 50  1  0  0  0
 22 51  1  0  0  0
M  END
$$$$
