6o5g_ligand
  -I-interpret- 

 50 55  0  0  0  0  0  0  0  0999 V2000
    2.6050   59.3420  114.8880 C   0  0  0  0  0
    1.7100   58.1670  114.3920 C   0  0  0  0  0
    1.6940   60.2410  115.7990 C   0  0  0  0  0
    3.7190   58.6670  115.8000 C   0  0  0  0  0
    3.2430   58.6070  117.2460 C   0  0  0  0  0
    5.1600   59.2720  115.7220 C   0  0  0  0  0
    5.5710   59.1460  114.2720 C   0  0  0  0  0
    6.0170   58.4390  116.5720 N   0  0  0  0  0
    5.6120   58.3920  117.9470 C   0  0  0  0  0
    4.2960   59.1920  118.1280 C   0  0  0  0  0
    3.8970   59.2520  119.5870 C   0  0  0  0  0
    5.3080   61.1730  118.8970 C   0  0  0  0  0
    5.0560   62.3700  110.0500 C   0  0  0  0  0
    3.8620   62.1650  110.6870 C   0  0  0  0  0
    3.8380   61.3270  111.8220 C   0  0  0  0  0
    5.0510   60.7190  112.2840 C   0  0  0  0  0
    6.2470   60.9690  111.5830 C   0  0  0  0  0
    6.2400   61.7830  110.4850 C   0  0  0  0  0
    4.6710   59.9500  113.4350 C   0  0  0  0  0
    3.3350   60.0480  113.7030 C   0  0  0  0  0
    4.6700   60.4690  120.1220 C   0  0  0  0  0
    5.3640   60.6630  116.4540 C   0  0  0  0  0
    4.5840   60.6160  117.7330 N   0  3  0  0  0
    2.7960   60.9020  112.7040 N   0  0  0  0  0
    6.2270   57.8120  118.7640 O   0  0  0  0  0
    5.1590   63.4970  108.5060 Br  0  0  0  0  0
    7.6860   62.1260  109.5960 Cl  0  0  0  0  0
    0.9575   58.5509  113.7032 H   0  0  0  0  0
    2.3300   57.4303  113.8811 H   0  0  0  0  0
    1.2186   57.7007  115.2459 H   0  0  0  0  0
    2.2982   61.0272  116.2518 H   0  0  0  0  0
    0.9066   60.6895  115.1933 H   0  0  0  0  0
    1.2474   59.6279  116.5818 H   0  0  0  0  0
    3.8382   57.6688  115.3787 H   0  0  0  0  0
    3.0590   57.5709  117.5301 H   0  0  0  0  0
    2.3176   59.1731  117.3525 H   0  0  0  0  0
    5.5124   58.1010  113.9678 H   0  0  0  0  0
    6.5937   59.5035  114.1524 H   0  0  0  0  0
    6.8304   57.9367  116.2162 H   0  0  0  0  0
    4.1390   58.3348  120.1239 H   0  0  0  0  0
    2.8197   59.3498  119.7214 H   0  0  0  0  0
    6.3814   60.9937  118.8352 H   0  0  0  0  0
    5.2166   62.2576  118.9549 H   0  0  0  0  0
    2.9494   62.6388  110.3253 H   0  0  0  0  0
    7.1791   60.5128  111.9166 H   0  0  0  0  0
    5.4369   60.1581  120.8315 H   0  0  0  0  0
    4.0025   61.1476  120.6531 H   0  0  0  0  0
    5.0148   61.4809  115.8237 H   0  0  0  0  0
    6.4208   60.8359  116.6575 H   0  0  0  0  0
    3.7482   61.1654  117.5331 H   0  0  0  0  0
  1  2  1  0  0  0
  1  3  1  0  0  0
  4  1  1  0  0  0
  1 20  1  0  0  0
  4  5  1  0  0  0
  6  4  1  0  0  0
  5 10  1  0  0  0
  7  6  1  0  0  0
  6  8  1  0  0  0
  6 22  1  0  0  0
 19  7  1  0  0  0
  8  9  1  0  0  0
  9 10  1  0  0  0
  9 25  2  0  0  0
 10 11  1  0  0  0
 10 23  1  0  0  0
 11 21  1  0  0  0
 12 21  1  0  0  0
 23 12  1  0  0  0
 14 13  4  0  0  0
 13 18  4  0  0  0
 13 26  1  0  0  0
 15 14  4  0  0  0
 16 15  4  0  0  0
 15 24  4  0  0  0
 16 17  4  0  0  0
 16 19  4  0  0  0
 17 18  4  0  0  0
 18 27  1  0  0  0
 19 20  4  0  0  0
 20 24  4  0  0  0
 22 23  1  0  0  0
  2 28  1  0  0  0
  2 29  1  0  0  0
  2 30  1  0  0  0
  3 31  1  0  0  0
  3 32  1  0  0  0
  3 33  1  0  0  0
  4 34  1  0  0  0
  5 35  1  0  0  0
  5 36  1  0  0  0
  7 37  1  0  0  0
  7 38  1  0  0  0
  8 39  1  0  0  0
 11 40  1  0  0  0
 11 41  1  0  0  0
 12 42  1  0  0  0
 12 43  1  0  0  0
 14 44  1  0  0  0
 17 45  1  0  0  0
 21 46  1  0  0  0
 21 47  1  0  0  0
 22 48  1  0  0  0
 22 49  1  0  0  0
 23 50  1  0  0  0
M  END
$$$$
