3fj7_ligand
  -I-interpret- 

 17 16  0  0  0  0  0  0  0  0999 V2000
  -31.8680    7.1470  -26.9730 C   0  0  0  0  0
  -32.7460    7.9040  -26.4990 O   0  0  0  0  0
  -32.1170    6.2950  -27.8520 O   0  0  0  0  0
  -30.4430    7.2450  -26.4940 C   0  0  0  0  0
  -30.2450    8.3320  -25.4450 C   0  0  0  0  0
  -30.0080    5.9960  -25.9610 O   0  0  0  0  0
  -28.4270    5.7000  -25.9010 P   0  0  0  0  0
  -27.9990    6.2120  -24.5470 O   0  0  0  0  0
  -27.8650    6.4850  -27.0640 O   0  0  0  0  0
  -28.3340    4.2030  -26.0710 O   0  0  0  0  0
  -32.3493    8.4798  -25.8412 H   0  0  0  0  0
  -29.8449    7.5113  -27.3655 H   0  0  0  0  0
  -30.8285    8.0888  -24.5570 H   0  0  0  0  0
  -29.1890    8.3932  -25.1819 H   0  0  0  0  0
  -30.5763    9.2889  -25.8482 H   0  0  0  0  0
  -28.0889    7.1675  -24.5244 H   0  0  0  0  0
  -27.9568    7.4244  -26.8887 H   0  0  0  0  0
  1  2  1  0  0  0
  1  3  2  0  0  0
  1  4  1  0  0  0
  4  5  1  0  0  0
  4  6  1  0  0  0
  6  7  1  0  0  0
  7  8  1  0  0  0
  7  9  1  0  0  0
  7 10  2  0  0  0
  2 11  1  0  0  0
  4 12  1  0  0  0
  5 13  1  0  0  0
  5 14  1  0  0  0
  5 15  1  0  0  0
  8 16  1  0  0  0
  9 17  1  0  0  0
M  END
$$$$
