3me9_ligand
  -I-interpret- 

 82 81  0  0  0  0  0  0  0  0999 V2000
   53.8440    9.1890   48.9200 N   0  3  0  0  0
   53.6340   10.1620   47.7920 C   0  0  0  0  0
   54.0910   11.5320   48.1870 C   0  0  0  0  0
   54.1320   11.8640   49.3680 O   0  0  0  0  0
   52.1430   10.2370   47.3860 C   0  0  0  0  0
   54.4460   12.3340   47.1930 N   0  0  0  0  0
   54.7910   13.7520   47.4040 C   0  0  0  0  0
   53.5920   14.5670   46.9120 C   0  0  0  0  0
   53.2350   14.4880   45.7350 O   0  0  0  0  0
   56.0660   14.1080   46.6380 C   0  0  0  0  0
   56.6580   15.5060   46.9660 C   0  0  0  0  0
   58.0620   15.6750   46.4090 C   0  0  0  0  0
   58.9500   14.6110   46.8800 N   0  0  0  0  0
   60.1910   14.3730   46.4420 C   0  0  0  0  0
   60.7620   15.1280   45.5090 N   0  0  0  0  0
   60.8700   13.3540   46.9610 N   0  0  0  0  0
   52.9290   15.2930   47.8090 N   0  0  0  0  0
   51.7430   16.0670   47.4530 C   0  0  0  0  0
   52.1110   17.4800   47.0940 C   0  0  0  0  0
   53.1900   17.9440   47.4190 O   0  0  0  0  0
   50.7160   16.1250   48.6030 C   0  0  0  0  0
   51.3110   16.7570   49.7520 O   0  0  0  0  0
   50.2550   14.7490   48.9670 C   0  0  0  0  0
   51.1910   18.1580   46.4350 N   0  0  0  0  0
   51.2580   19.6010   46.2750 C   0  0  0  0  0
   50.0650   19.9800   45.3890 C   0  0  0  0  0
   49.9190   21.4720   45.1620 C   0  0  0  0  0
   48.9320   21.6530   44.0230 C   0  0  0  0  0
   47.4960   21.3900   44.4720 C   0  0  0  0  0
   46.5160   21.8260   43.4580 N   0  3  0  0  0
   51.3010   20.2900   47.6150 C   0  0  0  0  0
   52.0970   21.2400   47.7450 O   0  0  0  0  0
   46.5960   23.2780   43.2730 C   0  0  0  0  0
   45.1840   21.4580   43.9140 C   0  0  0  0  0
   46.7460   21.1830   42.1560 C   0  0  0  0  0
   50.5615   19.9201   48.5658 O   0  0  0  0  0
   54.8340    9.1620   49.1642 H   0  0  0  0  0
   53.3007    9.4871   49.7302 H   0  0  0  0  0
   53.5392    8.2605   48.6277 H   0  0  0  0  0
   54.2193    9.8048   46.9447 H   0  0  0  0  0
   51.5553   10.5956   48.2310 H   0  0  0  0  0
   52.0305   10.9228   46.5463 H   0  0  0  0  0
   51.7965    9.2452   47.0956 H   0  0  0  0  0
   54.4819   11.9559   46.2463 H   0  0  0  0  0
   54.9906   13.9658   48.4540 H   0  0  0  0  0
   55.8060   14.1162   45.5795 H   0  0  0  0  0
   56.8192   13.3725   46.9204 H   0  0  0  0  0
   56.7067   15.6096   48.0500 H   0  0  0  0  0
   56.0179   16.2622   46.5117 H   0  0  0  0  0
   58.4573   16.6330   46.7468 H   0  0  0  0  0
   58.0123   15.6305   45.3210 H   0  0  0  0  0
   58.5895   13.9950   47.6086 H   0  0  0  0  0
   60.2519   15.9143   45.1065 H   0  0  0  0  0
   61.8191   13.1585   46.6425 H   0  0  0  0  0
   60.4417   12.7680   47.6776 H   0  0  0  0  0
   53.2592   15.3093   48.7740 H   0  0  0  0  0
   51.2974   15.5577   46.5985 H   0  0  0  0  0
   49.8542   16.7047   48.2722 H   0  0  0  0  0
   50.6692   16.7912   50.4651 H   0  0  0  0  0
   49.7887   14.2821   48.0995 H   0  0  0  0  0
   51.1102   14.1532   49.2861 H   0  0  0  0  0
   49.5314   14.8127   49.7797 H   0  0  0  0  0
   50.4062   17.6525   46.0239 H   0  0  0  0  0
   52.1752   19.9338   45.7892 H   0  0  0  0  0
   49.1626   19.6392   45.8966 H   0  0  0  0  0
   50.2244   19.5176   44.4149 H   0  0  0  0  0
   50.8810   21.9203   44.9137 H   0  0  0  0  0
   49.5608   21.9663   46.0650 H   0  0  0  0  0
   49.1815   20.9411   43.2362 H   0  0  0  0  0
   48.9986   22.6826   43.6715 H   0  0  0  0  0
   47.3149   21.9528   45.3877 H   0  0  0  0  0
   47.3760   20.3176   44.6255 H   0  0  0  0  0
   46.3797   23.7759   44.2182 H   0  0  0  0  0
   47.5990   23.5460   42.9409 H   0  0  0  0  0
   45.8686   23.5880   42.5228 H   0  0  0  0  0
   45.1311   20.3769   44.0423 H   0  0  0  0  0
   44.9786   21.9486   44.8654 H   0  0  0  0  0
   44.4481   21.7739   43.1746 H   0  0  0  0  0
   47.7433   21.4378   41.7975 H   0  0  0  0  0
   46.6635   20.1018   42.2666 H   0  0  0  0  0
   46.0011   21.5344   41.4420 H   0  0  0  0  0
   50.0207   19.1802   48.2799 H   0  0  0  0  0
  1  2  1  0  0  0
  2  3  1  0  0  0
  2  5  1  0  0  0
  3  4  2  0  0  0
  3  6  1  0  0  0
  6  7  1  0  0  0
  7  8  1  0  0  0
  7 10  1  0  0  0
  8  9  2  0  0  0
  8 17  1  0  0  0
 10 11  1  0  0  0
 11 12  1  0  0  0
 12 13  1  0  0  0
 13 14  1  0  0  0
 14 15  2  0  0  0
 14 16  1  0  0  0
 17 18  1  0  0  0
 18 19  1  0  0  0
 18 21  1  0  0  0
 19 20  2  0  0  0
 19 24  1  0  0  0
 21 22  1  0  0  0
 21 23  1  0  0  0
 24 25  1  0  0  0
 25 26  1  0  0  0
 25 31  1  0  0  0
 26 27  1  0  0  0
 27 28  1  0  0  0
 28 29  1  0  0  0
 29 30  1  0  0  0
 30 33  1  0  0  0
 30 34  1  0  0  0
 30 35  1  0  0  0
 31 32  2  0  0  0
 31 36  1  0  0  0
  1 37  1  0  0  0
  1 38  1  0  0  0
  1 39  1  0  0  0
  2 40  1  0  0  0
  5 41  1  0  0  0
  5 42  1  0  0  0
  5 43  1  0  0  0
  6 44  1  0  0  0
  7 45  1  0  0  0
 10 46  1  0  0  0
 10 47  1  0  0  0
 11 48  1  0  0  0
 11 49  1  0  0  0
 12 50  1  0  0  0
 12 51  1  0  0  0
 13 52  1  0  0  0
 15 53  1  0  0  0
 16 54  1  0  0  0
 16 55  1  0  0  0
 17 56  1  0  0  0
 18 57  1  0  0  0
 21 58  1  0  0  0
 22 59  1  0  0  0
 23 60  1  0  0  0
 23 61  1  0  0  0
 23 62  1  0  0  0
 24 63  1  0  0  0
 25 64  1  0  0  0
 26 65  1  0  0  0
 26 66  1  0  0  0
 27 67  1  0  0  0
 27 68  1  0  0  0
 28 69  1  0  0  0
 28 70  1  0  0  0
 29 71  1  0  0  0
 29 72  1  0  0  0
 33 73  1  0  0  0
 33 74  1  0  0  0
 33 75  1  0  0  0
 34 76  1  0  0  0
 34 77  1  0  0  0
 34 78  1  0  0  0
 35 79  1  0  0  0
 35 80  1  0  0  0
 35 81  1  0  0  0
 36 82  1  0  0  0
M  END
$$$$
