4l31_ligand
  -I-interpret- 

 33 35  0  0  0  0  0  0  0  0999 V2000
   -5.9410  -11.7920   -4.7240 C   0  0  0  0  0
   -5.2190  -11.3490   -5.9010 O   0  0  0  0  0
   -5.9410  -10.4360   -6.6100 C   0  0  0  0  0
   -6.2770   -9.3570   -6.1020 O   0  0  0  0  0
   -6.1680  -10.7270   -7.9860 C   0  0  0  0  0
   -7.1150  -10.0280   -8.7650 C   0  0  0  0  0
   -7.3240  -10.3220  -10.1240 C   0  0  0  0  0
   -5.4560  -11.7440   -8.6280 C   0  0  0  0  0
   -5.6180  -12.0380   -9.9880 C   0  0  0  0  0
   -6.5580  -11.3410  -10.7790 C   0  0  0  0  0
   -6.6710  -11.6820  -12.1680 C   0  0  0  0  0
   -5.9160  -12.7940  -12.5820 O   0  0  0  0  0
   -5.7660  -13.0210  -13.9340 C   0  0  0  0  0
   -4.8690  -14.0190  -14.3520 C   0  0  0  0  0
   -4.6780  -14.2450  -15.7260 C   0  0  0  0  0
   -5.4050  -13.4490  -16.6290 C   0  0  0  0  0
   -6.3190  -12.4770  -16.1990 C   0  0  0  0  0
   -6.5370  -12.2660  -14.8630 C   0  0  0  0  0
   -7.4070  -11.2580  -14.4580 C   0  0  0  0  0
   -8.1290  -10.6530  -15.2660 O   0  0  0  0  0
   -7.3670  -10.8980  -13.1110 C   0  0  0  0  0
   -6.1456  -10.9358   -4.0812 H   0  0  0  0  0
   -6.8810  -12.2526   -5.0279 H   0  0  0  0  0
   -5.3372  -12.5194   -4.1813 H   0  0  0  0  0
   -7.7019   -9.2365   -8.2990 H   0  0  0  0  0
   -8.0769   -9.7689  -10.6856 H   0  0  0  0  0
   -4.7458  -12.3323   -8.0469 H   0  0  0  0  0
   -5.0082  -12.8181  -10.4437 H   0  0  0  0  0
   -4.3260  -14.6128  -13.6167 H   0  0  0  0  0
   -3.9891  -15.0120  -16.0800 H   0  0  0  0  0
   -5.2528  -13.5926  -17.6987 H   0  0  0  0  0
   -6.8615  -11.8833  -16.9347 H   0  0  0  0  0
   -7.8823   -9.9957  -12.7819 H   0  0  0  0  0
  1  2  1  0  0  0
  2  3  1  0  0  0
  3  4  2  0  0  0
  3  5  1  0  0  0
  5  6  4  0  0  0
  5  8  4  0  0  0
  6  7  4  0  0  0
  7 10  4  0  0  0
  8  9  4  0  0  0
  9 10  4  0  0  0
 10 11  1  0  0  0
 11 12  1  0  0  0
 11 21  2  0  0  0
 12 13  1  0  0  0
 13 14  4  0  0  0
 13 18  4  0  0  0
 14 15  4  0  0  0
 15 16  4  0  0  0
 16 17  4  0  0  0
 17 18  4  0  0  0
 18 19  1  0  0  0
 19 20  2  0  0  0
 19 21  1  0  0  0
  1 22  1  0  0  0
  1 23  1  0  0  0
  1 24  1  0  0  0
  6 25  1  0  0  0
  7 26  1  0  0  0
  8 27  1  0  0  0
  9 28  1  0  0  0
 14 29  1  0  0  0
 15 30  1  0  0  0
 16 31  1  0  0  0
 17 32  1  0  0  0
 21 33  1  0  0  0
M  END
$$$$
