5nqe_ligand
  -I-interpret- 

 52 54  0  0  0  0  0  0  0  0999 V2000
    4.2190   11.4270   24.7510 C   0  0  0  0  0
    4.6670   10.4700   25.6940 C   0  0  0  0  0
    3.8240   10.0580   26.7470 C   0  0  0  0  0
    4.1730    9.2500   27.5750 F   0  0  0  0  0
    2.5460   10.6150   26.8610 C   0  0  0  0  0
    2.1200   11.5710   25.9260 C   0  0  0  0  0
    2.9220   11.9990   24.8440 C   0  0  0  0  0
    2.4590   12.9250   23.9350 N   0  0  0  0  0
    0.9740   13.2050   23.8600 C   0  0  0  0  0
    0.5740   14.2190   22.7350 C   0  0  0  0  0
    3.4100   13.6310   23.0210 C   0  0  0  0  0
    2.8790   14.9900   22.6080 C   0  0  0  0  0
    1.6670   14.6000   21.8680 N   0  0  0  0  0
    1.7360   14.6120   20.5210 C   0  0  0  0  0
    2.7360   14.9420   19.9000 O   0  0  0  0  0
    0.8910   14.0930   19.4970 C   0  0  0  0  0
    0.9050   12.7910   18.9010 C   0  0  0  0  0
    0.1140   11.7690   19.4420 C   0  0  0  0  0
   -0.3870   11.8560   20.5030 O   0  0  0  0  0
    0.0100   10.8440   18.5830 N   0  0  0  0  0
   -0.6520    9.7400   18.7000 C   0  0  0  0  0
   -0.9150    9.3370   17.4410 C   0  0  0  0  0
   -1.0290    8.9870   19.8480 C   0  0  0  0  0
   -1.7080    7.8010   19.6270 C   0  0  0  0  0
   -1.9580    7.3830   18.3100 C   0  0  0  0  0
   -1.5480    8.1630   17.2110 C   0  0  0  0  0
   -1.7430    7.7980   15.9430 C   0  0  0  0  0
   -2.7170    7.2430   15.7310 O   0  0  0  0  0
   -0.8460    8.0270   15.0220 N   0  0  0  0  0
    4.8809   11.7299   23.9397 H   0  0  0  0  0
    5.6688   10.0496   25.6055 H   0  0  0  0  0
    1.8847   10.3083   27.6714 H   0  0  0  0  0
    1.1257   12.0029   26.0395 H   0  0  0  0  0
    0.6791   13.6453   24.8125 H   0  0  0  0  0
    0.4774   12.2608   23.6363 H   0  0  0  0  0
    0.2222   15.1253   23.2278 H   0  0  0  0  0
   -0.1763   13.7311   22.1128 H   0  0  0  0  0
    3.5415   13.0249   22.1247 H   0  0  0  0  0
    4.3531   13.7746   23.5483 H   0  0  0  0  0
    3.5835   15.5816   22.0233 H   0  0  0  0  0
    2.6899   15.6640   23.4435 H   0  0  0  0  0
    1.1933   14.7091   18.6502 H   0  0  0  0  0
   -0.0681   14.0711   20.0145 H   0  0  0  0  0
    1.9295   12.4418   19.0293 H   0  0  0  0  0
    0.5065   12.9443   17.8981 H   0  0  0  0  0
    0.5032   10.9860   17.7015 H   0  0  0  0  0
   -0.6151    9.9624   16.6002 H   0  0  0  0  0
   -0.7935    9.3290   20.8558 H   0  0  0  0  0
   -2.0459    7.1964   20.4687 H   0  0  0  0  0
   -2.4772    6.4406   18.1354 H   0  0  0  0  0
   -1.0022    7.7052   14.0668 H   0  0  0  0  0
    0.0108    8.5277   15.2578 H   0  0  0  0  0
  1  2  4  0  0  0
  1  7  4  0  0  0
  2  3  4  0  0  0
  3  4  1  0  0  0
  3  5  4  0  0  0
  5  6  4  0  0  0
  6  7  4  0  0  0
  7  8  1  0  0  0
  8  9  1  0  0  0
  8 11  1  0  0  0
  9 10  1  0  0  0
 10 13  1  0  0  0
 11 12  1  0  0  0
 12 13  1  0  0  0
 13 14  1  0  0  0
 14 15  2  0  0  0
 14 16  1  0  0  0
 16 17  1  0  0  0
 17 18  1  0  0  0
 18 19  2  0  0  0
 18 20  1  0  0  0
 20 21  1  0  0  0
 21 22  4  0  0  0
 21 23  4  0  0  0
 22 26  4  0  0  0
 23 24  4  0  0  0
 24 25  4  0  0  0
 25 26  4  0  0  0
 26 27  1  0  0  0
 27 28  2  0  0  0
 27 29  1  0  0  0
  1 30  1  0  0  0
  2 31  1  0  0  0
  5 32  1  0  0  0
  6 33  1  0  0  0
  9 34  1  0  0  0
  9 35  1  0  0  0
 10 36  1  0  0  0
 10 37  1  0  0  0
 11 38  1  0  0  0
 11 39  1  0  0  0
 12 40  1  0  0  0
 12 41  1  0  0  0
 16 42  1  0  0  0
 16 43  1  0  0  0
 17 44  1  0  0  0
 17 45  1  0  0  0
 20 46  1  0  0  0
 22 47  1  0  0  0
 23 48  1  0  0  0
 24 49  1  0  0  0
 25 50  1  0  0  0
 29 51  1  0  0  0
 29 52  1  0  0  0
M  END
$$$$
