4a4q_ligand
  -I-interpret- 

103108  0  0  0  0  0  0  0  0999 V2000
   10.6130   23.5350    5.3730 C   0  0  0  0  0
   10.0230   22.4790    5.6440 O   0  0  0  0  0
   11.6470   23.6270    4.2650 C   0  0  0  0  0
   11.8940   25.1580    4.0750 C   0  0  0  0  0
   11.3360   25.7710    5.3690 C   0  0  0  0  0
   10.4660   24.7330    5.9620 N   0  0  0  0  0
    9.4650   24.9270    7.0840 C   0  0  0  0  0
    9.7440   25.8940    8.1950 C   0  0  0  0  0
    8.5630   26.5730    8.5690 C   0  0  0  0  0
    7.3600   26.1420    7.7870 C   0  0  0  0  0
    8.0410   25.4660    6.5870 C   0  0  0  0  0
    8.2090   26.4410    5.5250 O   0  0  0  0  0
    8.5920   27.6300    9.6860 C   0  0  0  0  0
    9.8210   27.8870   10.3050 C   0  0  0  0  0
   11.0810   27.1060    9.8480 C   0  0  0  0  0
   10.9910   26.1510    8.8210 C   0  0  0  0  0
   13.2670   25.5900    3.9230 O   0  0  0  0  0
   12.9650   22.8140    4.5720 C   0  0  0  0  0
   13.8700   23.2600    5.7870 C   0  0  0  0  0
   10.9420   23.0770    2.8870 C   0  0  0  0  0
    9.4790   23.6580    2.5600 C   0  0  0  0  0
    8.2530   22.9760    3.0370 C   0  0  0  0  0
    6.9260   23.5110    2.7490 C   0  0  0  0  0
    6.7910   24.7480    1.9740 C   0  0  0  0  0
    7.9830   25.4380    1.4920 C   0  0  0  0  0
    9.3050   24.9020    1.7810 C   0  0  0  0  0
   16.8980   17.9070   10.9100 C   0  0  0  0  0
   16.5120   19.1460   10.0870 C   0  0  0  0  0
   17.5480   19.9840    9.4320 C   0  0  0  0  0
   17.1670   21.1660    8.6600 C   0  0  0  0  0
   15.7500   21.5330    8.5280 C   0  0  0  0  0
   14.7240   20.7160    9.1630 C   0  0  0  0  0
   15.0960   19.5380    9.9330 C   0  0  0  0  0
   15.3170   22.7640    7.7220 C   0  0  0  0  0
   14.5870   22.2120    6.5130 N   0  3  0  0  0
   15.4550   21.5010    5.6730 N   0  0  0  0  0
   15.1450   20.1790    5.3290 C   0  0  0  0  0
   16.0940   19.3690    4.4250 C   0  0  0  0  0
   16.8530   18.5790    5.4470 N   0  0  0  0  0
   18.2220   18.6670    5.6770 C   0  0  0  0  0
   18.5780   17.8010    6.7020 O   0  0  0  0  0
   19.9790   17.7370    7.1100 C   0  0  0  0  0
   19.0170   19.4190    5.0520 O   0  0  0  0  0
   15.4270   18.3950    3.3110 C   0  0  0  0  0
   14.4980   17.2610    3.8660 C   0  0  0  0  0
   14.6110   19.2500    2.2810 C   0  0  0  0  0
   16.5550   17.6680    2.5090 C   0  0  0  0  0
   14.1080   19.6530    5.7660 O   0  0  0  0  0
   16.1720   16.6190   10.7590 C   0  0  0  0  0
   16.5870   15.4880   11.5770 C   0  0  0  0  0
   17.6570   15.6630   12.4750 N   0  0  0  0  0
   18.3610   16.8840   12.6330 C   0  0  0  0  0
   17.9910   18.0160   11.8560 C   0  0  0  0  0
   11.4281   25.4660    3.1390 H   0  0  0  0  0
   10.7806   26.6869    5.1672 H   0  0  0  0  0
   12.1370   26.0551    6.0514 H   0  0  0  0  0
    9.5162   23.9033    7.4549 H   0  0  0  0  0
    6.6850   26.9550    7.5194 H   0  0  0  0  0
    6.6766   25.4950    8.3370 H   0  0  0  0  0
    7.4424   24.6397    6.2037 H   0  0  0  0  0
    7.3472   26.7531    5.2394 H   0  0  0  0  0
    7.6877   28.1601    9.9850 H   0  0  0  0  0
    9.8919   28.6288   11.1005 H   0  0  0  0  0
   12.0414   27.2990   10.3261 H   0  0  0  0  0
   11.8809   25.6067    8.5048 H   0  0  0  0  0
   13.6319   25.2154    3.1179 H   0  0  0  0  0
   13.5910   22.9482    3.6899 H   0  0  0  0  0
   12.6243   21.8106    4.8275 H   0  0  0  0  0
   13.1897   23.7071    6.5118 H   0  0  0  0  0
   14.6406   23.9017    5.3597 H   0  0  0  0  0
   10.8216   22.0012    3.0143 H   0  0  0  0  0
   11.5865   23.3940    2.0671 H   0  0  0  0  0
    8.3441   22.0562    3.6147 H   0  0  0  0  0
    6.0377   22.9922    3.1092 H   0  0  0  0  0
    5.8018   25.1517    1.7581 H   0  0  0  0  0
    7.8832   26.3569    0.9142 H   0  0  0  0  0
   10.1859   25.4295    1.4150 H   0  0  0  0  0
   18.6003   19.7161    9.5273 H   0  0  0  0  0
   17.9343   21.7752    8.1822 H   0  0  0  0  0
   13.6735   20.9881    9.0610 H   0  0  0  0  0
   14.3182   18.9362   10.4030 H   0  0  0  0  0
   16.1716   23.3748    7.4311 H   0  0  0  0  0
   14.6794   23.4249    8.3092 H   0  0  0  0  0
   13.8865   21.5543    6.8553 H   0  0  0  0  0
   16.3030   21.9414    5.3161 H   0  0  0  0  0
   16.6692   20.0342    3.7810 H   0  0  0  0  0
   16.3227   17.9233    6.0208 H   0  0  0  0  0
   20.5895   17.4284    6.2614 H   0  0  0  0  0
   20.3015   18.7201    7.4528 H   0  0  0  0  0
   20.0878   17.0149    7.9192 H   0  0  0  0  0
   15.0719   16.6161    4.5315 H   0  0  0  0  0
   13.6700   17.7081    4.4161 H   0  0  0  0  0
   14.1084   16.6730    3.0350 H   0  0  0  0  0
   13.8241   19.7932    2.8042 H   0  0  0  0  0
   15.2780   19.9582    1.7894 H   0  0  0  0  0
   14.1656   18.5910    1.5357 H   0  0  0  0  0
   17.1828   18.4092    2.0144 H   0  0  0  0  0
   17.1614   17.0750    3.1937 H   0  0  0  0  0
   16.1045   17.0147    1.7618 H   0  0  0  0  0
   15.3478   16.5231   10.0522 H   0  0  0  0  0
   16.0800   14.5265   11.4958 H   0  0  0  0  0
   19.1818   16.9544   13.3467 H   0  0  0  0  0
   18.5254   18.9590   11.9709 H   0  0  0  0  0
  1  2  2  0  0  0
  3  1  1  0  0  0
  1  6  1  0  0  0
  3  4  1  0  0  0
 18  3  1  0  0  0
  3 20  1  0  0  0
  4  5  1  0  0  0
  4 17  1  0  0  0
  5  6  1  0  0  0
  6  7  1  0  0  0
  7  8  1  0  0  0
  7 11  1  0  0  0
  8  9  4  0  0  0
  8 16  4  0  0  0
 10  9  1  0  0  0
  9 13  4  0  0  0
 11 10  1  0  0  0
 11 12  1  0  0  0
 13 14  4  0  0  0
 15 14  4  0  0  0
 16 15  4  0  0  0
 19 18  1  0  0  0
 35 19  1  0  0  0
 20 21  1  0  0  0
 21 22  4  0  0  0
 21 26  4  0  0  0
 22 23  4  0  0  0
 23 24  4  0  0  0
 25 24  4  0  0  0
 26 25  4  0  0  0
 28 27  1  0  0  0
 27 49  4  0  0  0
 27 53  4  0  0  0
 29 28  4  0  0  0
 33 28  4  0  0  0
 30 29  4  0  0  0
 31 30  4  0  0  0
 31 32  4  0  0  0
 34 31  1  0  0  0
 32 33  4  0  0  0
 34 35  1  0  0  0
 35 36  1  0  0  0
 36 37  1  0  0  0
 37 38  1  0  0  0
 37 48  2  0  0  0
 38 39  1  0  0  0
 38 44  1  0  0  0
 39 40  1  0  0  0
 40 41  1  0  0  0
 40 43  2  0  0  0
 41 42  1  0  0  0
 44 45  1  0  0  0
 44 46  1  0  0  0
 44 47  1  0  0  0
 49 50  4  0  0  0
 50 51  4  0  0  0
 51 52  4  0  0  0
 52 53  4  0  0  0
  4 54  1  0  0  0
  5 55  1  0  0  0
  5 56  1  0  0  0
  7 57  1  0  0  0
 10 58  1  0  0  0
 10 59  1  0  0  0
 11 60  1  0  0  0
 12 61  1  0  0  0
 13 62  1  0  0  0
 14 63  1  0  0  0
 15 64  1  0  0  0
 16 65  1  0  0  0
 17 66  1  0  0  0
 18 67  1  0  0  0
 18 68  1  0  0  0
 19 69  1  0  0  0
 19 70  1  0  0  0
 20 71  1  0  0  0
 20 72  1  0  0  0
 22 73  1  0  0  0
 23 74  1  0  0  0
 24 75  1  0  0  0
 25 76  1  0  0  0
 26 77  1  0  0  0
 29 78  1  0  0  0
 30 79  1  0  0  0
 32 80  1  0  0  0
 33 81  1  0  0  0
 34 82  1  0  0  0
 34 83  1  0  0  0
 35 84  1  0  0  0
 36 85  1  0  0  0
 38 86  1  0  0  0
 39 87  1  0  0  0
 42 88  1  0  0  0
 42 89  1  0  0  0
 42 90  1  0  0  0
 45 91  1  0  0  0
 45 92  1  0  0  0
 45 93  1  0  0  0
 46 94  1  0  0  0
 46 95  1  0  0  0
 46 96  1  0  0  0
 47 97  1  0  0  0
 47 98  1  0  0  0
 47 99  1  0  0  0
 49100  1  0  0  0
 50101  1  0  0  0
 52102  1  0  0  0
 53103  1  0  0  0
M  END
$$$$
