2qta_ligand
  -I-interpret- 

 45 46  0  0  0  0  0  0  0  0999 V2000
   26.9500  -36.5110    7.8880 N   0  0  0  0  0
   27.5920  -37.4090    8.7320 C   0  0  0  0  0
   27.5650  -38.8490    8.3470 C   0  0  0  0  0
   28.2270  -37.0270    9.8540 N   0  0  0  0  0
   28.2540  -35.6670   10.1940 C   0  0  0  0  0
   28.8890  -35.3500   11.3120 N   0  0  0  0  0
   27.5850  -34.6700    9.3250 C   0  0  0  0  0
   26.9510  -35.1460    8.1970 C   0  0  0  0  0
   27.6180  -33.1630    9.5770 C   0  0  0  0  0
   26.8960  -32.7000   10.8440 N   0  3  0  0  0
   27.5280  -32.1770   11.9050 C   0  0  0  0  0
   26.4690  -31.5970   13.0920 S   0  0  0  0  0
   25.0930  -32.0760   12.1330 C   0  0  0  0  0
   25.4850  -32.6600   10.9490 C   0  0  0  0  0
   24.6060  -33.2140    9.8630 C   0  0  0  0  0
   23.7050  -31.9150   12.6510 C   0  0  0  0  0
   23.4860  -32.8290   13.8080 C   0  0  0  0  0
   22.0960  -32.7630   14.1960 O   0  0  0  0  0
   21.5370  -33.6990   15.3700 P   0  0  0  0  0
   22.3630  -33.1580   16.6400 O   0  0  0  0  0
   20.1260  -33.3930   15.5270 O   0  0  0  0  0
   21.9290  -35.1220   15.1090 O   0  0  0  0  0
   22.3020  -31.8550   17.5680 P   0  0  0  0  0
   22.2570  -32.3960   19.0160 O   0  0  0  0  0
   23.5540  -31.0910   17.3600 O   0  0  0  0  0
   21.0550  -31.1370   17.2690 O   0  0  0  0  0
   26.5311  -39.1899    8.2924 H   0  0  0  0  0
   28.0415  -38.9728    7.3745 H   0  0  0  0  0
   28.1027  -39.4335    9.0935 H   0  0  0  0  0
   29.3257  -36.0799   11.8750 H   0  0  0  0  0
   28.9414  -34.3760   11.6101 H   0  0  0  0  0
   26.4415  -34.4467    7.5341 H   0  0  0  0  0
   27.1079  -32.6933    8.7360 H   0  0  0  0  0
   28.6660  -32.8878    9.6951 H   0  0  0  0  0
   28.6133  -32.1301   11.9941 H   0  0  0  0  0
   24.8040  -32.6840    8.9313 H   0  0  0  0  0
   24.8184  -34.2749    9.7312 H   0  0  0  0  0
   23.5603  -33.0834   10.1416 H   0  0  0  0  0
   22.9956  -32.1595   11.8604 H   0  0  0  0  0
   23.5593  -30.8843   12.9745 H   0  0  0  0  0
   24.1176  -32.5260   14.6431 H   0  0  0  0  0
   23.7430  -33.8501   13.5262 H   0  0  0  0  0
   22.8837  -35.1798   15.0270 H   0  0  0  0  0
   23.0731  -32.8641   19.2070 H   0  0  0  0  0
   24.3061  -31.6449   17.5817 H   0  0  0  0  0
  1  2  4  0  0  0
  1  8  4  0  0  0
  2  3  1  0  0  0
  2  4  4  0  0  0
  4  5  4  0  0  0
  5  6  1  0  0  0
  5  7  4  0  0  0
  7  8  4  0  0  0
  7  9  1  0  0  0
  9 10  1  0  0  0
 10 11  4  0  0  0
 10 14  4  0  0  0
 11 12  4  0  0  0
 12 13  4  0  0  0
 13 14  4  0  0  0
 13 16  1  0  0  0
 14 15  1  0  0  0
 16 17  1  0  0  0
 17 18  1  0  0  0
 18 19  1  0  0  0
 19 20  1  0  0  0
 19 21  2  0  0  0
 19 22  1  0  0  0
 20 23  1  0  0  0
 23 24  1  0  0  0
 23 25  1  0  0  0
 23 26  2  0  0  0
  3 27  1  0  0  0
  3 28  1  0  0  0
  3 29  1  0  0  0
  6 30  1  0  0  0
  6 31  1  0  0  0
  8 32  1  0  0  0
  9 33  1  0  0  0
  9 34  1  0  0  0
 11 35  1  0  0  0
 15 36  1  0  0  0
 15 37  1  0  0  0
 15 38  1  0  0  0
 16 39  1  0  0  0
 16 40  1  0  0  0
 17 41  1  0  0  0
 17 42  1  0  0  0
 22 43  1  0  0  0
 24 44  1  0  0  0
 25 45  1  0  0  0
M  END
$$$$
