6qz7_ligand
  -I-interpret- 

 53 57  0  0  0  0  0  0  0  0999 V2000
  -13.5560   11.7700   -3.9250 C   0  0  0  0  0
  -13.4970   12.8200   -3.0170 C   0  0  0  0  0
  -14.6960   11.6620   -4.7080 C   0  0  0  0  0
  -15.5560   13.5490   -3.6610 C   0  0  0  0  0
  -11.5080   11.4730   -2.9220 C   0  0  0  0  0
  -14.4740   13.6950   -2.8990 N   0  0  0  0  0
  -15.8330    5.9660   -7.4200 C   0  0  0  0  0
  -14.5520    6.4730   -7.5840 C   0  0  0  0  0
  -14.3780    7.8320   -7.7740 C   0  0  0  0  0
  -15.4930    8.6670   -7.7880 C   0  0  0  0  0
  -15.2940   10.1450   -7.9760 C   0  0  0  0  0
  -12.3910   11.0200   -3.8680 C   0  0  0  0  0
  -15.6740   12.5530   -4.5420 N   0  0  0  0  0
  -11.5450    7.3470   -5.7390 C   0  0  0  0  0
  -11.8650    7.4090   -4.3910 C   0  0  0  0  0
  -12.1330    8.6440   -3.8350 C   0  0  0  0  0
  -11.5000    8.5040   -6.5050 C   0  0  0  0  0
  -12.0810    9.8020   -4.6000 C   0  0  0  0  0
  -11.7670    9.7440   -5.9370 C   0  0  0  0  0
  -15.8680   10.8520   -6.7690 C   0  0  0  0  0
  -11.2890    9.9850   -8.0740 C   0  0  0  0  0
  -11.6400   10.6890   -6.9230 C   0  0  0  0  0
  -16.9400    6.8170   -7.4480 C   0  0  0  0  0
  -16.7850    8.1810   -7.6130 C   0  0  0  0  0
  -16.0650   12.2950   -7.2260 C   0  0  0  0  0
  -15.0990   13.0560   -7.3480 O   0  0  0  0  0
  -17.2070   12.6840   -7.4620 O   0  0  0  0  0
  -14.9130   10.6650   -5.6490 N   0  0  0  0  0
  -12.0850   12.8660   -2.1130 S   0  0  0  0  0
  -10.1930   10.8110   -2.6660 C   0  0  0  0  0
   -9.2240   11.8530   -2.1030 C   0  0  0  0  0
  -11.2130    8.6750   -7.7950 N   0  0  0  0  0
  -16.3714   14.2655   -3.5623 H   0  0  0  0  0
  -15.9764    4.8962   -7.2683 H   0  0  0  0  0
  -13.6901    5.8061   -7.5633 H   0  0  0  0  0
  -13.3788    8.2453   -7.9113 H   0  0  0  0  0
  -15.7973   10.4800   -8.8829 H   0  0  0  0  0
  -14.2326   10.3721   -8.0755 H   0  0  0  0  0
  -11.3274    6.3836   -6.2001 H   0  0  0  0  0
  -11.9040    6.5040   -3.7847 H   0  0  0  0  0
  -12.3897    8.7113   -2.7778 H   0  0  0  0  0
  -16.8234   10.4762   -6.4027 H   0  0  0  0  0
  -11.1045   10.4309   -9.0514 H   0  0  0  0  0
  -11.7835   11.7652   -6.8268 H   0  0  0  0  0
  -17.9410    6.3997   -7.3382 H   0  0  0  0  0
  -17.6442    8.8516   -7.6062 H   0  0  0  0  0
  -14.2925   12.5860   -7.1237 H   0  0  0  0  0
  -14.4047    9.7843   -5.5688 H   0  0  0  0  0
   -9.7974   10.3995   -3.5946 H   0  0  0  0  0
  -10.3196    9.9974   -1.9517 H   0  0  0  0  0
   -9.0999   12.6597   -2.8255 H   0  0  0  0  0
   -9.6252   12.2552   -1.1728 H   0  0  0  0  0
   -8.2591   11.3837   -1.9111 H   0  0  0  0  0
  1  2  4  0  0  0
  3  1  4  0  0  0
  1 12  4  0  0  0
  2  6  4  0  0  0
  2 29  4  0  0  0
  3 13  4  0  0  0
 28  3  1  0  0  0
  4  6  4  0  0  0
 13  4  4  0  0  0
 12  5  4  0  0  0
  5 29  4  0  0  0
  5 30  1  0  0  0
  8  7  4  0  0  0
  7 23  4  0  0  0
  9  8  4  0  0  0
 10  9  4  0  0  0
 11 10  1  0  0  0
 10 24  4  0  0  0
 20 11  1  0  0  0
 12 18  1  0  0  0
 15 14  4  0  0  0
 17 14  4  0  0  0
 16 15  4  0  0  0
 18 16  4  0  0  0
 19 17  4  0  0  0
 17 32  4  0  0  0
 18 19  4  0  0  0
 19 22  4  0  0  0
 20 25  1  0  0  0
 20 28  1  0  0  0
 22 21  4  0  0  0
 21 32  4  0  0  0
 23 24  4  0  0  0
 25 26  1  0  0  0
 25 27  2  0  0  0
 30 31  1  0  0  0
  4 33  1  0  0  0
  7 34  1  0  0  0
  8 35  1  0  0  0
  9 36  1  0  0  0
 11 37  1  0  0  0
 11 38  1  0  0  0
 14 39  1  0  0  0
 15 40  1  0  0  0
 16 41  1  0  0  0
 20 42  1  0  0  0
 21 43  1  0  0  0
 22 44  1  0  0  0
 23 45  1  0  0  0
 24 46  1  0  0  0
 26 47  1  0  0  0
 28 48  1  0  0  0
 30 49  1  0  0  0
 30 50  1  0  0  0
 31 51  1  0  0  0
 31 52  1  0  0  0
 31 53  1  0  0  0
M  END
$$$$
