4qt2_ligand
  -I-interpret- 

148151  0  0  0  0  0  0  0  0999 V2000
    4.6070   16.7480   15.9780 C   0  0  0  0  0
    3.7830   17.6570   16.6100 O   0  0  0  0  0
    5.6190   17.1370   15.4470 O   0  0  0  0  0
    4.2150   15.3130   16.0030 C   0  0  0  0  0
    4.2150   14.7740   14.5940 C   0  0  0  0  0
    3.0480   15.2820   13.7810 C   0  0  0  0  0
    1.7730   14.9440   14.4230 C   0  0  0  0  0
    1.7070   15.5300   15.8120 C   0  0  0  0  0
    2.8930   15.1180   16.5910 N   0  0  0  0  0
    2.8580   14.5600   17.8850 C   0  0  0  0  0
    3.8650   14.2670   18.4470 O   0  0  0  0  0
    1.5800   14.3500   18.5790 C   0  0  0  0  0
    1.0420   13.3820   18.3730 O   0  0  0  0  0
    0.8560   15.3290   19.2770 C   0  0  0  0  0
    0.1470   16.1380   18.3700 O   0  0  0  0  0
   -0.1610   14.6520   20.0640 O   0  0  0  0  0
    1.5460   16.0130   20.3710 C   0  0  0  0  0
    1.0870   17.3360   20.7970 C   0  0  0  0  0
    0.4230   18.1320   19.7310 C   0  0  0  0  0
   -0.5080   17.3260   18.8760 C   0  0  0  0  0
   -0.9690   18.0640   17.6300 C   0  0  0  0  0
   -2.0590   19.0920   17.9440 C   0  0  0  0  0
   -3.2000   18.4550   18.4510 O   0  0  0  0  0
   -2.4990   19.9150   16.7690 C   0  0  0  0  0
   -1.6320   21.0850   16.5080 C   0  0  0  0  0
   -1.9180   21.8710   15.2800 C   0  0  0  0  0
   -1.3870   23.1180   15.2930 C   0  0  0  0  0
   -1.2940   23.9640   14.0660 C   0  0  0  0  0
   -0.6500   25.1660   14.1560 C   0  0  0  0  0
   -0.4650   25.9820   12.9300 C   0  0  0  0  0
    0.9850   26.4760   12.8890 C   0  0  0  0  0
    2.0740   25.4420   12.6700 C   0  0  0  0  0
    3.4010   25.8470   13.1520 C   0  0  0  0  0
    4.0720   26.4340   12.3370 O   0  0  0  0  0
    4.0340   25.6440   14.4640 C   0  0  0  0  0
    5.0080   26.5540   14.7330 O   0  0  0  0  0
    4.3190   24.2770   14.9200 C   0  0  0  0  0
    5.0960   23.8140   13.8410 O   0  0  0  0  0
    3.0370   23.5350   15.1760 C   0  0  0  0  0
    2.9220   22.3510   14.3170 C   0  0  0  0  0
    1.9870   21.1840   14.4260 C   0  0  0  0  0
    2.5150   19.9750   14.9960 C   0  0  0  0  0
    2.6420   19.0380   14.2690 O   0  0  0  0  0
    2.9480   19.9020   16.4300 C   0  0  0  0  0
    4.1950   19.0240   16.6270 C   0  0  0  0  0
    4.9440   19.3500   17.9430 C   0  0  0  0  0
    5.5970   20.7530   17.9910 C   0  0  0  0  0
    6.6400   21.0770   16.8900 C   0  0  0  0  0
    7.2460   22.4290   17.2000 C   0  0  0  0  0
    8.2870   22.7960   16.1520 C   0  0  0  0  0
    8.9180   24.0040   16.5350 O   0  0  0  0  0
    9.3880   21.8010   16.0660 C   0  0  0  0  0
   10.2740   22.2210   15.0320 O   0  0  0  0  0
    8.7680   20.4600   15.7300 C   0  0  0  0  0
    7.7320   20.0410   16.7860 C   0  0  0  0  0
    2.3450   15.0830   21.3180 C   0  0  0  0  0
   -3.0170   19.1880   15.5890 C   0  0  0  0  0
   -1.3820   27.2000   12.8910 C   0  0  0  0  0
    1.9820   24.5830   11.4730 C   0  0  0  0  0
    2.5140   23.5350   16.5700 C   0  0  0  0  0
    0.9880   21.1250   13.3440 C   0  0  0  0  0
    4.0220   19.1990   19.1480 C   0  0  0  0  0
   -4.1130   19.3510   19.0840 C   0  0  0  0  0
    5.2080   27.0550   16.0530 C   0  0  0  0  0
    8.4820   25.0890   15.7710 C   0  0  0  0  0
    4.9380   14.7796   16.6202 H   0  0  0  0  0
    4.1393   13.6880   14.6492 H   0  0  0  0  0
    5.1330   15.1039   14.1075 H   0  0  0  0  0
    3.0783   14.8152   12.7965 H   0  0  0  0  0
    3.1229   16.3665   13.7018 H   0  0  0  0  0
    1.6888   13.8595   14.4925 H   0  0  0  0  0
    0.9576   15.3541   13.8272 H   0  0  0  0  0
    0.8073   15.1697   16.3109 H   0  0  0  0  0
    1.6841   16.6175   15.7418 H   0  0  0  0  0
   -0.6715   15.3020   20.5523 H   0  0  0  0  0
    2.3821   16.5217   19.8912 H   0  0  0  0  0
    1.9697   17.8944   21.1087 H   0  0  0  0  0
    0.3493   17.1792   21.5840 H   0  0  0  0  0
    1.2045   18.5274   19.0822 H   0  0  0  0  0
   -0.1683   18.9061   20.2200 H   0  0  0  0  0
   -1.3504   17.1042   19.5312 H   0  0  0  0  0
   -1.3796   17.3334   16.9330 H   0  0  0  0  0
   -0.1130   18.5919   17.2098 H   0  0  0  0  0
   -1.6003   19.7622   18.6710 H   0  0  0  0  0
   -3.4366   20.3561   17.1072 H   0  0  0  0  0
   -0.6247   20.6884   16.3813 H   0  0  0  0  0
   -1.7907   21.7670   17.3433 H   0  0  0  0  0
   -2.5010   21.4808   14.4457 H   0  0  0  0  0
   -1.0135   23.5187   16.2353 H   0  0  0  0  0
   -1.7284   23.6315   13.1232 H   0  0  0  0  0
   -0.2767   25.5212   15.1165 H   0  0  0  0  0
   -0.7084   25.3509   12.0753 H   0  0  0  0  0
    1.1777   26.8996   13.8747 H   0  0  0  0  0
    1.0415   27.1465   12.0315 H   0  0  0  0  0
    1.8151   24.6558   13.3791 H   0  0  0  0  0
    3.1994   25.8585   15.1315 H   0  0  0  0  0
    4.8386   24.1635   15.8715 H   0  0  0  0  0
    5.3615   22.9062   14.0056 H   0  0  0  0  0
    2.2083   24.1485   14.8225 H   0  0  0  0  0
    3.8748   21.8628   14.5220 H   0  0  0  0  0
    2.5636   22.8080   13.3947 H   0  0  0  0  0
    1.3383   21.3972   15.2756 H   0  0  0  0  0
    2.1332   19.4613   17.0045 H   0  0  0  0  0
    3.1936   20.9120   16.7581 H   0  0  0  0  0
    4.8973   19.2246   15.8179 H   0  0  0  0  0
    5.7557   18.6233   17.9775 H   0  0  0  0  0
    6.1363   20.7999   18.9371 H   0  0  0  0  0
    4.7844   21.4662   17.8525 H   0  0  0  0  0
    6.1267   21.0797   15.9284 H   0  0  0  0  0
    7.7257   22.3875   18.1779 H   0  0  0  0  0
    6.4572   23.1812   17.1958 H   0  0  0  0  0
    7.7570   22.8563   15.2014 H   0  0  0  0  0
    9.9428   21.7180   17.0005 H   0  0  0  0  0
   10.9961   21.5930   14.9562 H   0  0  0  0  0
    9.5584   19.7099   15.7036 H   0  0  0  0  0
    8.2660   20.5424   14.7660 H   0  0  0  0  0
    7.2912   19.0882   16.4929 H   0  0  0  0  0
    8.2272   19.9484   17.7526 H   0  0  0  0  0
    1.6666   14.3627   21.7753 H   0  0  0  0  0
    3.1078   14.5537   20.7469 H   0  0  0  0  0
    2.8207   15.6805   22.0957 H   0  0  0  0  0
   -2.2435   18.5226   15.2054 H   0  0  0  0  0
   -3.8902   18.6033   15.8785 H   0  0  0  0  0
   -3.2976   19.9043   14.8168 H   0  0  0  0  0
   -2.4210   26.8720   12.9214 H   0  0  0  0  0
   -1.1753   27.8365   13.7513 H   0  0  0  0  0
   -1.2028   27.7589   11.9725 H   0  0  0  0  0
    1.0526   24.0145   11.5059 H   0  0  0  0  0
    1.9971   25.2057   10.5785 H   0  0  0  0  0
    2.8287   23.8968   11.4539 H   0  0  0  0  0
    3.2502   23.0803   17.2329 H   0  0  0  0  0
    2.3238   24.5609   16.8853 H   0  0  0  0  0
    1.5865   22.9638   16.6087 H   0  0  0  0  0
    0.3821   22.0309   13.3609 H   0  0  0  0  0
    1.4982   21.0454   12.3841 H   0  0  0  0  0
    0.3475   20.2552   13.4897 H   0  0  0  0  0
    3.1787   19.8821   19.0465 H   0  0  0  0  0
    3.6564   18.1733   19.1979 H   0  0  0  0  0
    4.5741   19.4340   20.0580 H   0  0  0  0  0
   -3.6151   19.8461   19.9177 H   0  0  0  0  0
   -4.4463   20.0975   18.3630 H   0  0  0  0  0
   -4.9725   18.7913   19.4530 H   0  0  0  0  0
    4.2991   27.5510   16.3936 H   0  0  0  0  0
    5.4446   26.2278   16.7222 H   0  0  0  0  0
    6.0326   27.7678   16.0486 H   0  0  0  0  0
    8.7070   24.9057   14.7203 H   0  0  0  0  0
    7.4064   25.2119   15.8975 H   0  0  0  0  0
    8.9936   25.9931   16.1011 H   0  0  0  0  0
  1  2  1  0  0  0
  1  3  2  0  0  0
  1  4  1  0  0  0
  2 45  1  0  0  0
  4  5  1  0  0  0
  4  9  1  0  0  0
  5  6  1  0  0  0
  6  7  1  0  0  0
  7  8  1  0  0  0
  8  9  1  0  0  0
  9 10  1  0  0  0
 10 11  2  0  0  0
 10 12  1  0  0  0
 12 13  2  0  0  0
 12 14  1  0  0  0
 14 15  1  0  0  0
 14 16  1  0  0  0
 14 17  1  0  0  0
 15 20  1  0  0  0
 17 18  1  0  0  0
 17 56  1  0  0  0
 18 19  1  0  0  0
 19 20  1  0  0  0
 20 21  1  0  0  0
 21 22  1  0  0  0
 22 23  1  0  0  0
 22 24  1  0  0  0
 23 63  1  0  0  0
 24 25  1  0  0  0
 24 57  1  0  0  0
 25 26  1  0  0  0
 26 27  2  0  0  0
 27 28  1  0  0  0
 28 29  2  0  0  0
 29 30  1  0  0  0
 30 31  1  0  0  0
 30 58  1  0  0  0
 31 32  1  0  0  0
 32 33  1  0  0  0
 32 59  1  0  0  0
 33 34  2  0  0  0
 33 35  1  0  0  0
 35 36  1  0  0  0
 35 37  1  0  0  0
 36 64  1  0  0  0
 37 38  1  0  0  0
 37 39  1  0  0  0
 39 40  1  0  0  0
 39 60  1  0  0  0
 40 41  1  0  0  0
 41 42  1  0  0  0
 41 61  1  0  0  0
 42 43  2  0  0  0
 42 44  1  0  0  0
 44 45  1  0  0  0
 45 46  1  0  0  0
 46 47  1  0  0  0
 46 62  1  0  0  0
 47 48  1  0  0  0
 48 49  1  0  0  0
 48 55  1  0  0  0
 49 50  1  0  0  0
 50 51  1  0  0  0
 50 52  1  0  0  0
 51 65  1  0  0  0
 52 53  1  0  0  0
 52 54  1  0  0  0
 54 55  1  0  0  0
  4 66  1  0  0  0
  5 67  1  0  0  0
  5 68  1  0  0  0
  6 69  1  0  0  0
  6 70  1  0  0  0
  7 71  1  0  0  0
  7 72  1  0  0  0
  8 73  1  0  0  0
  8 74  1  0  0  0
 16 75  1  0  0  0
 17 76  1  0  0  0
 18 77  1  0  0  0
 18 78  1  0  0  0
 19 79  1  0  0  0
 19 80  1  0  0  0
 20 81  1  0  0  0
 21 82  1  0  0  0
 21 83  1  0  0  0
 22 84  1  0  0  0
 24 85  1  0  0  0
 25 86  1  0  0  0
 25 87  1  0  0  0
 26 88  1  0  0  0
 27 89  1  0  0  0
 28 90  1  0  0  0
 29 91  1  0  0  0
 30 92  1  0  0  0
 31 93  1  0  0  0
 31 94  1  0  0  0
 32 95  1  0  0  0
 35 96  1  0  0  0
 37 97  1  0  0  0
 38 98  1  0  0  0
 39 99  1  0  0  0
 40100  1  0  0  0
 40101  1  0  0  0
 41102  1  0  0  0
 44103  1  0  0  0
 44104  1  0  0  0
 45105  1  0  0  0
 46106  1  0  0  0
 47107  1  0  0  0
 47108  1  0  0  0
 48109  1  0  0  0
 49110  1  0  0  0
 49111  1  0  0  0
 50112  1  0  0  0
 52113  1  0  0  0
 53114  1  0  0  0
 54115  1  0  0  0
 54116  1  0  0  0
 55117  1  0  0  0
 55118  1  0  0  0
 56119  1  0  0  0
 56120  1  0  0  0
 56121  1  0  0  0
 57122  1  0  0  0
 57123  1  0  0  0
 57124  1  0  0  0
 58125  1  0  0  0
 58126  1  0  0  0
 58127  1  0  0  0
 59128  1  0  0  0
 59129  1  0  0  0
 59130  1  0  0  0
 60131  1  0  0  0
 60132  1  0  0  0
 60133  1  0  0  0
 61134  1  0  0  0
 61135  1  0  0  0
 61136  1  0  0  0
 62137  1  0  0  0
 62138  1  0  0  0
 62139  1  0  0  0
 63140  1  0  0  0
 63141  1  0  0  0
 63142  1  0  0  0
 64143  1  0  0  0
 64144  1  0  0  0
 64145  1  0  0  0
 65146  1  0  0  0
 65147  1  0  0  0
 65148  1  0  0  0
M  END
$$$$
