6emh_ligand
  -I-interpret- 

 45 48  0  0  0  0  0  0  0  0999 V2000
    6.5740    1.9880  -15.6050 C   0  0  0  0  0
    8.4110    0.4460  -15.7970 C   0  0  0  0  0
    9.6800   -1.8100  -15.8760 C   0  0  0  0  0
   10.8620   -2.4750  -16.6020 C   0  0  0  0  0
   10.1260   -1.6270  -18.6260 C   0  0  0  0  0
    4.5800    6.9970  -14.9260 C   0  0  0  0  0
    4.6570    6.5790  -13.6180 C   0  0  0  0  0
    5.2830    5.4720  -13.2880 N   0  0  0  0  0
    5.8600    4.6950  -14.1910 C   0  0  0  0  0
    5.8290    5.0670  -15.5490 C   0  0  0  0  0
    5.1890    6.2550  -15.9310 C   0  0  0  0  0
    5.1050    6.6290  -17.2930 C   0  0  0  0  0
    5.2650    5.7670  -18.3020 N   0  0  0  0  0
    5.1130    6.3930  -19.4440 C   0  0  0  0  0
    4.8760    7.6760  -19.2100 N   0  0  0  0  0
    4.8510    7.8630  -17.9060 C   0  0  0  0  0
    4.5880    9.2380  -17.3110 C   0  0  0  0  0
    6.5000    3.5300  -13.6470 N   0  0  0  0  0
    7.1080    2.4740  -14.4200 C   0  0  0  0  0
    7.2270    0.9810  -16.2990 C   0  0  0  0  0
    8.9410    0.9490  -14.6180 C   0  0  0  0  0
    8.2970    1.9600  -13.9280 C   0  0  0  0  0
    9.1090   -0.6050  -16.5250 N   0  0  0  0  0
   11.2130   -1.8460  -17.7910 O   0  0  0  0  0
    9.1410   -0.6270  -18.0000 C   0  0  0  0  0
    5.6406    2.3982  -15.9904 H   0  0  0  0  0
   10.0612   -1.4835  -14.9084 H   0  0  0  0  0
    8.8810   -2.5510  -15.8521 H   0  0  0  0  0
   10.5618   -3.4935  -16.8484 H   0  0  0  0  0
   11.7245   -2.4209  -15.9378 H   0  0  0  0  0
    9.6097   -2.5741  -18.7825 H   0  0  0  0  0
   10.4873   -1.2171  -19.5692 H   0  0  0  0  0
    4.0408    7.9111  -15.1747 H   0  0  0  0  0
    4.1884    7.1792  -12.8381 H   0  0  0  0  0
    6.3007    4.4338  -16.3004 H   0  0  0  0  0
    5.1722    5.9315  -20.4297 H   0  0  0  0  0
    3.6983    9.1965  -16.6827 H   0  0  0  0  0
    5.4449    9.5424  -16.7100 H   0  0  0  0  0
    4.4330    9.9570  -18.1154 H   0  0  0  0  0
    6.5270    3.4418  -12.6312 H   0  0  0  0  0
    6.8143    0.6083  -17.2365 H   0  0  0  0  0
    9.8756    0.5429  -14.2309 H   0  0  0  0  0
    8.7221    2.3499  -13.0031 H   0  0  0  0  0
    8.1453   -0.9260  -18.3275 H   0  0  0  0  0
    9.4618    0.3649  -18.3182 H   0  0  0  0  0
 19  1  4  0  0  0
  1 20  4  0  0  0
 20  2  4  0  0  0
  2 21  4  0  0  0
  2 23  1  0  0  0
  3  4  1  0  0  0
 23  3  1  0  0  0
  4 24  1  0  0  0
 24  5  1  0  0  0
  5 25  1  0  0  0
  7  6  4  0  0  0
 11  6  4  0  0  0
  8  7  4  0  0  0
  9  8  4  0  0  0
  9 10  4  0  0  0
 18  9  1  0  0  0
 10 11  4  0  0  0
 11 12  1  0  0  0
 12 13  4  0  0  0
 12 16  4  0  0  0
 13 14  4  0  0  0
 15 14  4  0  0  0
 16 15  4  0  0  0
 16 17  1  0  0  0
 18 19  1  0  0  0
 19 22  4  0  0  0
 21 22  4  0  0  0
 23 25  1  0  0  0
  1 26  1  0  0  0
  3 27  1  0  0  0
  3 28  1  0  0  0
  4 29  1  0  0  0
  4 30  1  0  0  0
  5 31  1  0  0  0
  5 32  1  0  0  0
  6 33  1  0  0  0
  7 34  1  0  0  0
 10 35  1  0  0  0
 14 36  1  0  0  0
 17 37  1  0  0  0
 17 38  1  0  0  0
 17 39  1  0  0  0
 18 40  1  0  0  0
 20 41  1  0  0  0
 21 42  1  0  0  0
 22 43  1  0  0  0
 25 44  1  0  0  0
 25 45  1  0  0  0
M  END
$$$$
