2qrl_ligand
  -I-interpret- 

 15 14  0  0  0  0  0  0  0  0999 V2000
   44.4200   54.5490   16.2100 C   0  0  0  0  0
   45.1230   53.8940   17.3170 C   0  0  0  0  0
   46.2560   54.3270   19.4840 C   0  0  0  0  0
   46.6180   55.5610   20.2870 C   0  0  0  0  0
   44.1960   55.7740   16.3160 O   0  0  0  0  0
   44.0210   53.8850   15.2300 O   0  0  0  0  0
   45.2590   52.6740   17.3840 O   0  0  0  0  0
   47.0710   55.3280   21.4390 O   0  0  0  0  0
   45.5520   54.7050   18.2640 N   0  0  0  0  0
   46.4710   56.7320   19.8030 O   0  0  0  0  0
   45.6084   53.6888   20.0852 H   0  0  0  0  0
   47.1695   53.7955   19.2174 H   0  0  0  0  0
   44.5815   56.0991   17.1329 H   0  0  0  0  0
   45.3729   55.7001   18.1293 H   0  0  0  0  0
   46.1120   56.6673   18.9150 H   0  0  0  0  0
  2  1  1  0  0  0
  1  5  1  0  0  0
  1  6  2  0  0  0
  2  7  2  0  0  0
  9  2  1  0  0  0
  3  4  1  0  0  0
  3  9  1  0  0  0
  4  8  2  0  0  0
  4 10  1  0  0  0
  3 11  1  0  0  0
  3 12  1  0  0  0
  5 13  1  0  0  0
  9 14  1  0  0  0
 10 15  1  0  0  0
M  END
$$$$
