5nib_ligand
  -I-interpret- 

 59 62  0  0  0  0  0  0  0  0999 V2000
  -24.1180   10.8850  -17.8780 C   0  0  0  0  0
  -25.0030   12.4360  -14.6600 C   0  0  0  0  0
  -30.0600    7.0900  -18.0870 C   0  0  0  0  0
  -28.0570   -0.1840  -14.4390 C   0  0  0  0  0
  -26.7220   -1.1210  -12.6890 C   0  0  0  0  0
  -27.4730   -1.0470  -15.3500 C   0  0  0  0  0
  -26.1480   -2.0070  -13.5840 C   0  0  0  0  0
  -26.0370   10.5550  -16.4260 C   0  0  0  0  0
  -28.9010    4.7350  -14.6150 C   0  0  0  0  0
  -29.7880    8.4440  -18.0340 C   0  0  0  0  0
  -27.2010    6.2310  -14.2400 C   0  0  0  0  0
  -24.8370   11.1850  -16.6880 C   0  0  0  0  0
  -28.8380    6.8630  -16.0400 C   0  0  0  0  0
  -26.7310   10.8670  -15.2720 C   0  0  0  0  0
  -26.5390   -1.9580  -14.9100 C   0  0  0  0  0
  -28.6270    8.2390  -16.0770 C   0  0  0  0  0
  -28.2110    4.1020  -13.6060 C   0  0  0  0  0
  -24.1630   -0.9580  -16.7280 C   0  0  0  0  0
  -24.1650   -2.4210  -16.3480 C   0  0  0  0  0
  -29.0860    9.0390  -17.0580 N   0  0  0  0  0
  -24.3220   12.1230  -15.8150 C   0  0  0  0  0
  -29.5750    6.3000  -17.0660 C   0  0  0  0  0
  -26.2010   11.8010  -14.4030 C   0  0  0  0  0
  -28.3300    5.9770  -15.0030 C   0  0  0  0  0
  -27.6870   -0.2250  -13.1080 C   0  0  0  0  0
  -27.6790    2.1010  -12.3340 C   0  0  0  0  0
  -28.2780    0.7370  -12.1280 C   0  0  0  0  0
  -28.0350   10.2070  -14.9460 C   0  0  0  0  0
  -23.5350   10.6660  -18.8560 N   0  0  0  0  0
  -28.5580    2.9090  -13.0150 N   0  0  0  0  0
  -26.5630    2.3970  -11.9450 O   0  0  0  0  0
  -26.6020   -3.0280  -17.2830 O   0  0  0  0  0
  -25.5610   -4.3300  -15.3520 O   0  0  0  0  0
  -27.8830    8.7940  -15.0400 O   0  0  0  0  0
  -26.8260    4.9970  -13.0970 S   0  0  0  0  0
  -25.7980   -3.0890  -16.0720 S   0  0  0  0  0
  -24.6034   13.1715  -13.9618 H   0  0  0  0  0
  -30.6372    6.6619  -18.9065 H   0  0  0  0  0
  -28.8105    0.5297  -14.7721 H   0  0  0  0  0
  -26.4102   -1.1300  -11.6446 H   0  0  0  0  0
  -27.7493   -1.0059  -16.4036 H   0  0  0  0  0
  -25.4026   -2.7291  -13.2506 H   0  0  0  0  0
  -26.4341    9.8175  -17.1235 H   0  0  0  0  0
  -29.8001    4.3226  -15.0729 H   0  0  0  0  0
  -30.1698    9.0708  -18.8399 H   0  0  0  0  0
  -26.6015    7.1342  -14.3533 H   0  0  0  0  0
  -24.7297   -0.8224  -17.6492 H   0  0  0  0  0
  -24.6216   -0.3757  -15.9288 H   0  0  0  0  0
  -23.1363   -0.6246  -16.8791 H   0  0  0  0  0
  -23.6120   -2.5157  -15.4135 H   0  0  0  0  0
  -23.7227   -2.9736  -17.1769 H   0  0  0  0  0
  -23.3762   12.6157  -16.0404 H   0  0  0  0  0
  -29.7732    5.2282  -17.0676 H   0  0  0  0  0
  -26.7439   12.0430  -13.4893 H   0  0  0  0  0
  -28.0646    0.3976  -11.1144 H   0  0  0  0  0
  -29.3564    0.7892  -12.2778 H   0  0  0  0  0
  -28.7985   10.5397  -15.6492 H   0  0  0  0  0
  -28.3370   10.4752  -13.9336 H   0  0  0  0  0
  -29.5290    2.6049  -13.0868 H   0  0  0  0  0
 12  1  1  0  0  0
  1 29  3  0  0  0
  2 21  4  0  0  0
 23  2  4  0  0  0
 10  3  4  0  0  0
 22  3  4  0  0  0
  4  6  4  0  0  0
 25  4  4  0  0  0
  5  7  4  0  0  0
 25  5  4  0  0  0
  6 15  4  0  0  0
  7 15  4  0  0  0
  8 12  4  0  0  0
 14  8  4  0  0  0
  9 17  4  0  0  0
 24  9  4  0  0  0
 20 10  4  0  0  0
 24 11  4  0  0  0
 11 35  4  0  0  0
 12 21  4  0  0  0
 16 13  4  0  0  0
 13 22  4  0  0  0
 13 24  1  0  0  0
 14 23  4  0  0  0
 28 14  1  0  0  0
 15 36  1  0  0  0
 16 20  4  0  0  0
 34 16  1  0  0  0
 17 30  1  0  0  0
 35 17  4  0  0  0
 19 18  1  0  0  0
 36 19  1  0  0  0
 27 25  1  0  0  0
 26 27  1  0  0  0
 30 26  1  0  0  0
 26 31  2  0  0  0
 28 34  1  0  0  0
 36 32  2  0  0  0
 36 33  2  0  0  0
  2 37  1  0  0  0
  3 38  1  0  0  0
  4 39  1  0  0  0
  5 40  1  0  0  0
  6 41  1  0  0  0
  7 42  1  0  0  0
  8 43  1  0  0  0
  9 44  1  0  0  0
 10 45  1  0  0  0
 11 46  1  0  0  0
 18 47  1  0  0  0
 18 48  1  0  0  0
 18 49  1  0  0  0
 19 50  1  0  0  0
 19 51  1  0  0  0
 21 52  1  0  0  0
 22 53  1  0  0  0
 23 54  1  0  0  0
 27 55  1  0  0  0
 27 56  1  0  0  0
 28 57  1  0  0  0
 28 58  1  0  0  0
 30 59  1  0  0  0
M  END
$$$$
