5ctc_ligand
  -I-interpret- 

 55 58  0  0  0  0  0  0  0  0999 V2000
    5.9570   29.8650   22.9410 N   0  0  0  0  0
    5.0720   30.3960   25.1810 C   0  0  0  0  0
    2.0270   31.9640   28.2290 N   0  0  0  0  0
    3.9540   32.0840   27.0240 C   0  0  0  0  0
    3.2680   30.9080   26.6280 C   0  0  0  0  0
    5.7170   29.4450   24.2440 C   0  0  0  0  0
    5.8530   28.9190   20.6550 C   0  0  0  0  0
    8.2600   34.6880   16.9350 C   0  0  0  0  0
    6.8870   33.7030   15.0800 C   0  0  0  0  0
    2.0660   30.8850   27.4180 C   0  0  0  0  0
    6.8950   34.0920   16.5560 C   0  0  0  0  0
    4.7840   30.2970   18.7470 C   0  0  0  0  0
    5.7730   35.0770   16.8790 C   0  0  0  0  0
    5.8640   33.6700   26.9740 C   0  0  0  0  0
    5.2120   32.4270   26.5060 C   0  0  0  0  0
    5.7620   31.5610   25.5900 C   0  0  0  0  0
    3.8400   30.0500   25.6890 C   0  0  0  0  0
    3.1610   32.6930   27.9890 N   0  0  0  0  0
    6.0180   28.3080   24.6110 O   0  0  0  0  0
    5.6210   31.2060   22.4560 C   0  0  0  0  0
    4.8130   31.1300   21.1580 C   0  0  0  0  0
    5.5300   30.2960   20.1170 C   0  0  0  0  0
    6.6540   29.0180   21.9580 C   0  0  0  0  0
    6.7250   31.0170   19.4280 C   0  0  0  0  0
    5.9750   30.9650   18.1240 N   0  0  0  0  0
    5.7520   32.1290   17.3560 C   0  0  0  0  0
    4.7570   32.3250   16.6710 O   0  0  0  0  0
    6.8260   32.9530   17.3990 O   0  0  0  0  0
    6.4490   28.3837   19.9158 H   0  0  0  0  0
    4.9201   28.3920   20.8551 H   0  0  0  0  0
    9.0406   33.9490   16.7540 H   0  0  0  0  0
    8.4491   35.5740   16.3289 H   0  0  0  0  0
    8.2550   34.9621   17.9900 H   0  0  0  0  0
    7.7462   33.0664   14.8687 H   0  0  0  0  0
    5.9681   33.1625   14.8530 H   0  0  0  0  0
    6.9411   34.6033   14.4680 H   0  0  0  0  0
    1.3000   30.1111   27.3692 H   0  0  0  0  0
    3.7920   30.7399   18.6578 H   0  0  0  0  0
    4.3898   29.3697   18.3313 H   0  0  0  0  0
    4.8094   34.5891   16.7321 H   0  0  0  0  0
    5.8632   35.4013   17.9157 H   0  0  0  0  0
    5.8486   35.9410   16.2188 H   0  0  0  0  0
    5.2279   34.5233   26.7385 H   0  0  0  0  0
    6.0163   33.6152   28.0519 H   0  0  0  0  0
    6.8264   33.7840   26.4751 H   0  0  0  0  0
    6.7456   31.7759   25.1724 H   0  0  0  0  0
    3.3313   29.1405   25.3696 H   0  0  0  0  0
    6.5450   31.7509   22.2626 H   0  0  0  0  0
    5.0223   31.7130   23.2127 H   0  0  0  0  0
    4.6844   32.1396   20.7678 H   0  0  0  0  0
    3.8502   30.6666   21.3733 H   0  0  0  0  0
    6.7682   28.0178   22.3759 H   0  0  0  0  0
    7.6252   29.4618   21.7393 H   0  0  0  0  0
    7.7337   30.6107   19.5026 H   0  0  0  0  0
    7.0963   31.9659   19.8152 H   0  0  0  0  0
  1  6  1  0  0  0
 20  1  1  0  0  0
 23  1  1  0  0  0
  6  2  1  0  0  0
  2 16  4  0  0  0
  2 17  4  0  0  0
 10  3  4  0  0  0
  3 18  4  0  0  0
  5  4  4  0  0  0
 15  4  4  0  0  0
  4 18  4  0  0  0
  5 10  4  0  0  0
 17  5  4  0  0  0
  6 19  2  0  0  0
 22  7  1  0  0  0
  7 23  1  0  0  0
 11  8  1  0  0  0
 11  9  1  0  0  0
 11 13  1  0  0  0
 28 11  1  0  0  0
 12 22  1  0  0  0
 25 12  1  0  0  0
 15 14  1  0  0  0
 16 15  4  0  0  0
 21 20  1  0  0  0
 22 21  1  0  0  0
 24 22  1  0  0  0
 25 24  1  0  0  0
 26 25  1  0  0  0
 26 27  2  0  0  0
 26 28  1  0  0  0
  7 29  1  0  0  0
  7 30  1  0  0  0
  8 31  1  0  0  0
  8 32  1  0  0  0
  8 33  1  0  0  0
  9 34  1  0  0  0
  9 35  1  0  0  0
  9 36  1  0  0  0
 10 37  1  0  0  0
 12 38  1  0  0  0
 12 39  1  0  0  0
 13 40  1  0  0  0
 13 41  1  0  0  0
 13 42  1  0  0  0
 14 43  1  0  0  0
 14 44  1  0  0  0
 14 45  1  0  0  0
 16 46  1  0  0  0
 17 47  1  0  0  0
 20 48  1  0  0  0
 20 49  1  0  0  0
 21 50  1  0  0  0
 21 51  1  0  0  0
 23 52  1  0  0  0
 23 53  1  0  0  0
 24 54  1  0  0  0
 24 55  1  0  0  0
M  END
$$$$
