4bcw_ligand
  -I-interpret- 

 21 21  0  0  0  0  0  0  0  0999 V2000
   -7.4380    7.1050   12.1310 Br  0  0  0  0  0
   -5.9200    6.2530   12.8710 C   0  0  0  0  0
   -4.6620    6.6880   12.4580 C   0  0  0  0  0
   -3.5150    6.0950   12.9780 C   0  0  0  0  0
   -6.0960    5.2280   13.8060 C   0  0  0  0  0
   -4.9850    4.6090   14.3670 C   0  0  0  0  0
   -3.6500    5.0750   13.9210 C   0  0  0  0  0
   -2.5330    4.5170   14.4180 O   0  0  0  0  0
   -5.0810    3.4810   15.3470 C   0  0  0  0  0
   -6.0920    3.2360   16.1850 C   0  0  0  0  0
   -6.0840    1.9800   17.1730 S   0  0  0  0  0
   -7.0460    0.9840   16.6210 O   0  0  0  0  0
   -6.5400    2.4350   18.5050 O   0  0  0  0  0
   -4.7010    1.4410   17.2720 O   0  0  0  0  0
   -4.5763    7.4926   11.7277 H   0  0  0  0  0
   -2.5271    6.4221   12.6538 H   0  0  0  0  0
   -7.1000    4.9159   14.0936 H   0  0  0  0  0
   -2.7713    3.8353   15.0506 H   0  0  0  0  0
   -4.2397    2.7888   15.3800 H   0  0  0  0  0
   -6.9469    3.9121   16.1952 H   0  0  0  0  0
   -6.7438    0.6935   15.7573 H   0  0  0  0  0
  1  2  1  0  0  0
  2  3  4  0  0  0
  2  5  4  0  0  0
  3  4  4  0  0  0
  4  7  4  0  0  0
  5  6  4  0  0  0
  6  7  4  0  0  0
  6  9  1  0  0  0
  7  8  1  0  0  0
  9 10  2  0  0  0
 10 11  1  0  0  0
 11 12  1  0  0  0
 11 13  2  0  0  0
 11 14  2  0  0  0
  3 15  1  0  0  0
  4 16  1  0  0  0
  5 17  1  0  0  0
  8 18  1  0  0  0
  9 19  1  0  0  0
 10 20  1  0  0  0
 12 21  1  0  0  0
M  END
$$$$
