### 
### Created by X-TOOL on Mon Sep 10 21:13:08 2018
### 

@<TRIPOS>MOLECULE
2lct_ligand
  199   202     1     0     0
SMALL
GAST_HUCK


@<TRIPOS>ATOM
      1 N           8.3760    3.1400   18.0930 N.4       1 ASP         0.2391
      2 CA          7.0130    2.9350   17.5220 C.3       1 ASP         0.0764
      3 C           6.8470    3.8130   16.2790 C.2       1 ASP         0.2285
      4 O           6.6310    3.3090   15.1730 O.2       1 ASP        -0.3906
      5 CB          5.9580    3.3110   18.5770 C.3       1 ASP         0.0607
      6 CG          6.4520    4.4710   19.4360 C.2       1 ASP         0.0425
      7 OD1         7.2660    5.2390   18.9470 O.co2     1 ASP        -0.5686
      8 OD2         6.0210    4.5680   20.5690 O.co2     1 ASP        -0.5686
      9 N           6.9490    5.1250   16.4810 N.am      1 THR        -0.2585
     10 CA          6.8060    6.1010   15.3930 C.3       1 THR         0.1566
     11 C           7.5860    5.7050   14.1340 C.2       1 THR         0.2065
     12 O           7.3320    6.2470   13.0590 O.2       1 THR        -0.3943
     13 CB          7.2730    7.4850   15.8590 C.3       1 THR         0.0924
     14 OG1         7.2890    8.3700   14.7480 O.3       1 THR        -0.3874
     15 CG2         8.6820    7.3960   16.4500 C.3       1 THR        -0.0346
     16 N           8.5350    4.7830   14.2640 N.am      1 GLU        -0.2635
     17 CA          9.3300    4.3510   13.1090 C.3       1 GLU         0.1325
     18 C           8.5900    3.2820   12.2980 C.2       1 GLU         0.2040
     19 O           8.8980    3.0570   11.1250 O.2       1 GLU        -0.3944
     20 CB         10.6810    3.7800   13.5670 C.3       1 GLU        -0.0008
     21 CG         11.1690    4.5060   14.8270 C.3       1 GLU         0.0044
     22 CD         10.5470    3.8770   16.0670 C.2       1 GLU         0.0350
     23 OE1        10.9880    2.8120   16.4610 O.co2     1 GLU        -0.5690
     24 OE2         9.6190    4.4600   16.5980 O.co2     1 GLU        -0.5690
     25 N           7.6240    2.6160   12.9290 N.am      1 VAL        -0.2635
     26 CA          6.8660    1.5580   12.2560 C.3       1 VAL         0.1333
     27 C           5.3940    1.9510   12.0820 C.2       1 VAL         0.2044
     28 O           4.9440    2.9510   12.6380 O.2       1 VAL        -0.3944
     29 CB          6.9860    0.2620   13.0740 C.3       1 VAL        -0.0063
     30 CG1         5.7710    0.0950   13.9930 C.3       1 VAL        -0.0584
     31 CG2         7.0760   -0.9380   12.1270 C.3       1 VAL        -0.0584
     32 N           4.6550    1.1580   11.3040 N.am      1 PTR        -0.2607
     33 CA          3.2280    1.4260   11.0570 C.3       1 PTR         0.1468
     34 C           2.4350    1.3390   12.3610 C.2       1 PTR         0.2074
     35 O           1.8270    0.3080   12.6750 O.2       1 PTR        -0.3941
     36 CB          2.6590    0.4240   10.0360 C.3       1 PTR         0.0400
     37 CG          3.6830   -0.6450    9.7750 C.ar      1 PTR        -0.0004
     38 CD1         3.9580   -1.6010   10.7580 C.ar      1 PTR        -0.0239
     39 CD2         4.3840   -0.6580    8.5670 C.ar      1 PTR        -0.0239
     40 CE1         4.9380   -2.5680   10.5330 C.ar      1 PTR         0.0115
     41 CE2         5.3580   -1.6330    8.3390 C.ar      1 PTR         0.0115
     42 CZ          5.6350   -2.5830    9.3230 C.ar      1 PTR         0.1728
     43 OH          6.6210   -3.5220    9.1110 O.3       1 PTR        -0.2040
     44 P           8.1780   -3.0550    9.2860 P.3       1 PTR         0.1348
     45 O1P         8.4020   -1.5420    9.1930 O.co2     1 PTR        -0.6653
     46 O2P         8.9370   -3.7110    8.1390 O.co2     1 PTR        -0.6653
     47 O3P         8.7490   -3.5760   10.6060 O.co2     1 PTR        -0.6653
     48 N           2.4490    2.4360   13.1010 N.am      1 GLU        -0.2634
     49 CA          1.7470    2.5380   14.3780 C.3       1 GLU         0.1325
     50 C           0.2360    2.3350   14.2120 C.2       1 GLU         0.2041
     51 O          -0.5630    3.0640   14.7990 O.2       1 GLU        -0.3944
     52 CB          2.0250    3.9220   14.9820 C.3       1 GLU        -0.0008
     53 CG          1.5560    5.0240   14.0110 C.3       1 GLU         0.0044
     54 CD          2.5970    5.2690   12.9190 C.2       1 GLU         0.0350
     55 OE1         2.5630    4.5620   11.9240 O.co2     1 GLU        -0.5690
     56 OE2         3.4200    6.1590   13.0910 O.co2     1 GLU        -0.5690
     57 N          -0.1470    1.3390   13.4180 N.am      1 SER        -0.2616
     58 CA         -1.5640    1.0470   13.1850 C.3       1 SER         0.1541
     59 C          -2.3790    2.3390   13.0550 C.2       1 SER         0.2087
     60 O          -3.2610    2.6130   13.8770 O.2       1 SER        -0.3941
     61 CB         -2.1150    0.1980   14.3380 C.3       1 SER         0.0843
     62 OG         -3.5190    0.4010   14.4470 O.3       1 SER        -0.3903
     63 N          -2.1050    3.1320   12.0500 N.am      1 PRO        -0.2498
     64 CA         -2.8330    4.4160   11.8250 C.3       1 PRO         0.1338
     65 C          -4.3500    4.2240   11.7750 C.2       1 PRO         0.2043
     66 O          -5.0880    4.8210   12.5620 O.2       1 PRO        -0.3944
     67 CB         -2.2970    4.9140   10.4750 C.3       1 PRO        -0.0104
     68 CG         -0.9800    4.2370   10.2940 C.3       1 PRO        -0.0281
     69 CD         -1.0750    2.8970   11.0230 C.3       1 PRO         0.0369
     70 N          -4.8040    3.3960   10.8370 N.am      1 PTR        -0.2607
     71 CA         -6.2340    3.1380   10.6690 C.3       1 PTR         0.1468
     72 C          -6.5040    1.6460   10.5140 C.2       1 PTR         0.2074
     73 O          -5.7460    0.9380    9.8510 O.2       1 PTR        -0.3941
     74 CB         -6.7470    3.8750    9.4280 C.3       1 PTR         0.0400
     75 CG         -5.8790    5.0820    9.1670 C.ar      1 PTR        -0.0004
     76 CD1        -5.1830    5.2090    7.9570 C.ar      1 PTR        -0.0239
     77 CD2        -5.7640    6.0720   10.1460 C.ar      1 PTR        -0.0239
     78 CE1        -4.3780    6.3360    7.7320 C.ar      1 PTR         0.0115
     79 CE2        -4.9610    7.1900    9.9210 C.ar      1 PTR         0.0115
     80 CZ         -4.2690    7.3240    8.7170 C.ar      1 PTR         0.1728
     81 OH         -3.4890    8.4470    8.4970 O.3       1 PTR        -0.2040
     82 P          -4.1670    9.9180    8.7380 P.3       1 PTR         0.1348
     83 O1P        -3.6520   10.9990    7.7820 O.co2     1 PTR        -0.6653
     84 O2P        -3.8200   10.3020   10.1840 O.co2     1 PTR        -0.6653
     85 O3P        -5.6890    9.8190    8.6190 O.co2     1 PTR        -0.6653
     86 N          -7.5950    1.1810   11.1170 N.am      1 ALA        -0.2638
     87 CA         -7.9660   -0.2300   11.0310 C.3       1 ALA         0.1282
     88 C          -9.1210   -0.5500   11.9790 C.2       1 ALA         0.2037
     89 O         -10.2930   -0.5390   11.5820 O.2       1 ALA        -0.3944
     90 CB         -6.7570   -1.1100   11.3670 C.3       1 ALA        -0.0244
     91 N          -8.7860   -0.8320   13.2320 N.am      1 ASP        -0.2622
     92 CA         -9.7970   -1.1520   14.2290 C.3       1 ASP         0.1425
     93 C          -9.5500   -0.3730   15.5320 C.2       1 ASP         0.2081
     94 O          -9.5030   -0.9570   16.6170 O.2       1 ASP        -0.3941
     95 CB         -9.7860   -2.6670   14.4880 C.3       1 ASP         0.0406
     96 CG         -9.9490   -3.4270   13.1730 C.2       1 ASP         0.0393
     97 OD1       -11.0850   -3.6290   12.7660 O.co2     1 ASP        -0.5688
     98 OD2        -8.9420   -3.7890   12.5850 O.co2     1 ASP        -0.5688
     99 N          -9.4000    0.9320   15.4420 N.am      1 PRO        -0.2497
    100 CA         -9.1630    1.8040   16.6280 C.3       1 PRO         0.1337
    101 C         -10.4740    2.1620   17.3310 C.2       1 PRO         0.2035
    102 O         -11.4070    2.6440   16.6870 O.2       1 PRO        -0.3944
    103 CB         -8.5140    3.0480   16.0180 C.3       1 PRO        -0.0104
    104 CG         -9.0970    3.1540   14.6490 C.3       1 PRO        -0.0281
    105 CD         -9.4490    1.7290   14.2020 C.3       1 PRO         0.0369
    106 N         -10.5260    1.9240   18.6460 N.am      1 GLU        -0.2694
    107 CA        -11.7200    2.2200   19.4470 C.3       1 GLU         0.0959
    108 C         -12.8700    1.2550   19.1200 C.2       1 GLU         0.0602
    109 O         -13.0200    0.8930   17.9620 O.co2     1 GLU        -0.5666
    110 CB        -12.1770    3.6720   19.2240 C.3       1 GLU        -0.0064
    111 CG        -11.2340    4.6430   19.9510 C.3       1 GLU         0.0038
    112 CD        -10.0590    5.0170   19.0520 C.2       1 GLU         0.0350
    113 OE1       -10.2100    5.9370   18.2650 O.co2     1 GLU        -0.5690
    114 OE2        -9.0230    4.3830   19.1700 O.co2     1 GLU        -0.5690
    115 OXT       -13.5830    0.8870   20.0400 O.co2     1 GLU        -0.5666
    116 H           9.0768    2.8912   17.3948 H         1 ASP         0.2016
    117 H           8.4893    4.1189   18.3563 H         1 ASP         0.2016
    118 H           8.4905    2.5496   18.9168 H         1 ASP         0.2016
    119 H           6.8823    1.8899   17.2415 H         1 ASP         0.1117
    120 H           5.7747    2.4485   19.2178 H         1 ASP         0.0512
    121 H           5.0410    3.6111   18.0698 H         1 ASP         0.0512
    122 H           7.1330    5.4644   17.4251 H         1 THR         0.1885
    123 H           5.7477    6.1245   15.1332 H         1 THR         0.0826
    124 H           6.5884    7.8537   16.6229 H         1 THR         0.0639
    125 H           7.8917    8.0334   14.0808 H         1 THR         0.2101
    126 H           8.6751    6.7156   17.3016 H         1 THR         0.0257
    127 H           9.3700    7.0234   15.6911 H         1 THR         0.0257
    128 H           9.0008    8.3858   16.7767 H         1 THR         0.0257
    129 H           8.7129    4.3702   15.1796 H         1 GLU         0.1883
    130 H           9.4944    5.2264   12.4808 H         1 GLU         0.0801
    131 H          11.4131    3.9187   12.7714 H         1 GLU         0.0330
    132 H          10.5605    2.7203   13.7921 H         1 GLU         0.0330
    133 H          10.8758    5.5544   14.7721 H         1 GLU         0.0433
    134 H          12.2541    4.4236   14.8899 H         1 GLU         0.0433
    135 H           7.4080    2.8469   13.8988 H         1 VAL         0.1883
    136 H           7.2798    1.4044   11.2594 H         1 VAL         0.0802
    137 H           7.8869    0.3170   13.6851 H         1 VAL         0.0343
    138 H           5.7146    0.9425   14.6762 H         1 VAL         0.0234
    139 H           4.8641    0.0518   13.3899 H         1 VAL         0.0234
    140 H           5.8732   -0.8277   14.5643 H         1 VAL         0.0234
    141 H           6.1783   -0.9806   11.5102 H         1 VAL         0.0234
    142 H           7.9526   -0.8301   11.4882 H         1 VAL         0.0234
    143 H           7.1609   -1.8545   12.7109 H         1 VAL         0.0234
    144 H           5.0899    0.3445   10.8687 H         1 PTR         0.1886
    145 H           3.1367    2.4338   10.6520 H         1 PTR         0.0840
    146 H           2.4230    0.9414    9.1061 H         1 PTR         0.0584
    147 H           1.7496   -0.0276   10.4323 H         1 PTR         0.0584
    148 H           3.4074   -1.5906   11.6986 H         1 PTR         0.0703
    149 H           4.1715    0.0909    7.8040 H         1 PTR         0.0703
    150 H           5.1592   -3.3102   11.3000 H         1 PTR         0.0736
    151 H           5.9008   -1.6518    7.3940 H         1 PTR         0.0736
    152 H           2.9722    3.2447   12.7654 H         1 GLU         0.1883
    153 H           2.1108    1.7522   15.0400 H         1 GLU         0.0801
    154 H           3.0956    4.0291   15.1563 H         1 GLU         0.0330
    155 H           1.4833    4.0184   15.9229 H         1 GLU         0.0330
    156 H           1.4129    5.9475   14.5720 H         1 GLU         0.0433
    157 H           0.6251    4.7048   13.5422 H         1 GLU         0.0433
    158 H           0.5618    0.7654   12.9609 H         1 SER         0.1884
    159 H          -1.6503    0.4936   12.2499 H         1 SER         0.0823
    160 H          -1.6317    0.4926   15.2695 H         1 SER         0.0606
    161 H          -1.9141   -0.8553   14.1421 H         1 SER         0.0606
    162 H          -3.6946    1.3289   14.6196 H         1 SER         0.2097
    163 H          -2.6675    5.1225   12.6384 H         1 PRO         0.0802
    164 H          -2.1931    5.9990   10.4625 H         1 PRO         0.0313
    165 H          -2.9827    4.6772    9.6614 H         1 PRO         0.0313
    166 H          -0.1707    4.8445   10.6992 H         1 PRO         0.0287
    167 H          -0.7593    4.0905    9.2367 H         1 PRO         0.0287
    168 H          -1.3339    2.0764   10.3538 H         1 PRO         0.0524
    169 H          -0.1219    2.5881   11.4523 H         1 PRO         0.0524
    170 H          -4.1385    2.9300   10.2203 H         1 PTR         0.1886
    171 H          -6.7532    3.4964   11.5578 H         1 PTR         0.0840
    172 H          -7.7755    4.1954    9.5942 H         1 PTR         0.0584
    173 H          -6.7104    3.2074    8.5672 H         1 PTR         0.0584
    174 H          -5.2668    4.4353    7.1938 H         1 PTR         0.0703
    175 H          -6.3031    5.9705   11.0879 H         1 PTR         0.0703
    176 H          -3.8381    6.4418    6.7910 H         1 PTR         0.0736
    177 H          -4.8740    7.9604   10.6872 H         1 PTR         0.0736
    178 H          -8.1837    1.8215   11.6495 H         1 ALA         0.1883
    179 H          -8.2915   -0.4364   10.0114 H         1 ALA         0.0797
    180 H          -5.9529   -0.9058   10.6600 H         1 ALA         0.0277
    181 H          -6.4179   -0.8883   12.3789 H         1 ALA         0.0277
    182 H          -7.0434   -2.1596   11.3002 H         1 ALA         0.0277
    183 H          -7.8022   -0.8243   13.5011 H         1 ASP         0.1884
    184 H         -10.7768   -0.8573   13.8533 H         1 ASP         0.0819
    185 H         -10.6116   -2.9218   15.1525 H         1 ASP         0.0478
    186 H          -8.8363   -2.9443   14.9455 H         1 ASP         0.0478
    187 H          -8.5491    1.3244   17.3904 H         1 PRO         0.0802
    188 H          -7.4276    2.9647   15.9896 H         1 PRO         0.0313
    189 H          -8.7121    3.9401   16.6121 H         1 PRO         0.0313
    190 H          -8.3859    3.6104   13.9605 H         1 PRO         0.0287
    191 H          -9.9841    3.7874   14.6548 H         1 PRO         0.0287
    192 H         -10.4268    1.6803   13.7227 H         1 PRO         0.0524
    193 H          -8.7575    1.3544   13.4473 H         1 PRO         0.0524
    194 H          -9.7092    1.5237   19.1075 H         1 GLU         0.1875
    195 H         -11.4507    2.0877   20.4949 H         1 GLU         0.0727
    196 H         -13.1861    3.7928   19.6179 H         1 GLU         0.0323
    197 H         -12.1606    3.8911   18.1564 H         1 GLU         0.0323
    198 H         -10.8528    4.1606   20.8510 H         1 GLU         0.0432
    199 H         -11.7855    5.5471   20.2089 H         1 GLU         0.0432
@<TRIPOS>BOND
     1    1    2 1  
     2    2    3 1  
     3    2    5 1  
     4    3    4 2  
     5    3    9 am 
     6    5    6 1  
     7    6    7 ar 
     8    6    8 ar 
     9    9   10 1  
    10   10   11 1  
    11   10   13 1  
    12   11   12 2  
    13   11   16 am 
    14   13   14 1  
    15   13   15 1  
    16   16   17 1  
    17   17   18 1  
    18   17   20 1  
    19   18   19 2  
    20   18   25 am 
    21   20   21 1  
    22   21   22 1  
    23   22   23 ar 
    24   22   24 ar 
    25   25   26 1  
    26   26   27 1  
    27   26   29 1  
    28   27   28 2  
    29   27   32 am 
    30   29   30 1  
    31   29   31 1  
    32   32   33 1  
    33   33   34 1  
    34   33   36 1  
    35   34   35 2  
    36   34   48 am 
    37   36   37 1  
    38   37   38 ar 
    39   37   39 ar 
    40   38   40 ar 
    41   39   41 ar 
    42   40   42 ar 
    43   41   42 ar 
    44   42   43 1  
    45   43   44 1  
    46   44   45 ar 
    47   44   46 ar 
    48   44   47 ar 
    49   48   49 1  
    50   49   50 1  
    51   49   52 1  
    52   50   51 2  
    53   50   57 am 
    54   52   53 1  
    55   53   54 1  
    56   54   55 ar 
    57   54   56 ar 
    58   57   58 1  
    59   58   59 1  
    60   58   61 1  
    61   59   60 2  
    62   59   63 am 
    63   61   62 1  
    64   63   64 1  
    65   63   69 1  
    66   64   65 1  
    67   64   67 1  
    68   65   66 2  
    69   65   70 am 
    70   67   68 1  
    71   68   69 1  
    72   70   71 1  
    73   71   72 1  
    74   71   74 1  
    75   72   73 2  
    76   72   86 am 
    77   74   75 1  
    78   75   76 ar 
    79   75   77 ar 
    80   76   78 ar 
    81   77   79 ar 
    82   78   80 ar 
    83   79   80 ar 
    84   80   81 1  
    85   81   82 1  
    86   82   83 ar 
    87   82   84 ar 
    88   82   85 ar 
    89   86   87 1  
    90   87   88 1  
    91   87   90 1  
    92   88   89 2  
    93   88   91 am 
    94   91   92 1  
    95   92   93 1  
    96   92   95 1  
    97   93   94 2  
    98   93   99 am 
    99   95   96 1  
   100   96   97 ar 
   101   96   98 ar 
   102   99  100 1  
   103   99  105 1  
   104  100  101 1  
   105  100  103 1  
   106  101  102 2  
   107  101  106 am 
   108  103  104 1  
   109  104  105 1  
   110  106  107 1  
   111  107  108 1  
   112  107  110 1  
   113  108  109 ar 
   114  108  115 ar 
   115  110  111 1  
   116  111  112 1  
   117  112  113 ar 
   118  112  114 ar 
   119    1  116 1  
   120    1  117 1  
   121    1  118 1  
   122    2  119 1  
   123    5  120 1  
   124    5  121 1  
   125    9  122 1  
   126   10  123 1  
   127   13  124 1  
   128   14  125 1  
   129   15  126 1  
   130   15  127 1  
   131   15  128 1  
   132   16  129 1  
   133   17  130 1  
   134   20  131 1  
   135   20  132 1  
   136   21  133 1  
   137   21  134 1  
   138   25  135 1  
   139   26  136 1  
   140   29  137 1  
   141   30  138 1  
   142   30  139 1  
   143   30  140 1  
   144   31  141 1  
   145   31  142 1  
   146   31  143 1  
   147   32  144 1  
   148   33  145 1  
   149   36  146 1  
   150   36  147 1  
   151   38  148 1  
   152   39  149 1  
   153   40  150 1  
   154   41  151 1  
   155   48  152 1  
   156   49  153 1  
   157   52  154 1  
   158   52  155 1  
   159   53  156 1  
   160   53  157 1  
   161   57  158 1  
   162   58  159 1  
   163   61  160 1  
   164   61  161 1  
   165   62  162 1  
   166   64  163 1  
   167   67  164 1  
   168   67  165 1  
   169   68  166 1  
   170   68  167 1  
   171   69  168 1  
   172   69  169 1  
   173   70  170 1  
   174   71  171 1  
   175   74  172 1  
   176   74  173 1  
   177   76  174 1  
   178   77  175 1  
   179   78  176 1  
   180   79  177 1  
   181   86  178 1  
   182   87  179 1  
   183   90  180 1  
   184   90  181 1  
   185   90  182 1  
   186   91  183 1  
   187   92  184 1  
   188   95  185 1  
   189   95  186 1  
   190  100  187 1  
   191  103  188 1  
   192  103  189 1  
   193  104  190 1  
   194  104  191 1  
   195  105  192 1  
   196  105  193 1  
   197  106  194 1  
   198  107  195 1  
   199  110  196 1  
   200  110  197 1  
   201  111  198 1  
   202  111  199 1  
@<TRIPOS>SUBSTRUCTURE
     1 ASP         1

