2lct_ligand
  -I-interpret- 

209212  0  0  0  0  0  0  0  0999 V2000
    8.3760    3.1400   18.0930 N   0  3  0  0  0
    7.0130    2.9350   17.5220 C   0  0  0  0  0
    6.8470    3.8130   16.2790 C   0  0  0  0  0
    6.6310    3.3090   15.1730 O   0  0  0  0  0
    5.9580    3.3110   18.5770 C   0  0  0  0  0
    6.4520    4.4710   19.4360 C   0  0  0  0  0
    7.2660    5.2390   18.9470 O   0  0  0  0  0
    6.0210    4.5680   20.5690 O   0  0  0  0  0
    6.9490    5.1250   16.4810 N   0  0  0  0  0
    6.8060    6.1010   15.3930 C   0  0  0  0  0
    7.5860    5.7050   14.1340 C   0  0  0  0  0
    7.3320    6.2470   13.0590 O   0  0  0  0  0
    7.2730    7.4850   15.8590 C   0  0  0  0  0
    7.2890    8.3700   14.7480 O   0  0  0  0  0
    8.6820    7.3960   16.4500 C   0  0  0  0  0
    8.5350    4.7830   14.2640 N   0  0  0  0  0
    9.3300    4.3510   13.1090 C   0  0  0  0  0
    8.5900    3.2820   12.2980 C   0  0  0  0  0
    8.8980    3.0570   11.1250 O   0  0  0  0  0
   10.6810    3.7800   13.5670 C   0  0  0  0  0
   11.1690    4.5060   14.8270 C   0  0  0  0  0
   10.5470    3.8770   16.0670 C   0  0  0  0  0
   10.9880    2.8120   16.4610 O   0  0  0  0  0
    9.6190    4.4600   16.5980 O   0  0  0  0  0
    7.6240    2.6160   12.9290 N   0  0  0  0  0
    6.8660    1.5580   12.2560 C   0  0  0  0  0
    5.3940    1.9510   12.0820 C   0  0  0  0  0
    4.9440    2.9510   12.6380 O   0  0  0  0  0
    6.9860    0.2620   13.0740 C   0  0  0  0  0
    5.7710    0.0950   13.9930 C   0  0  0  0  0
    7.0760   -0.9380   12.1270 C   0  0  0  0  0
    4.6550    1.1580   11.3040 N   0  0  0  0  0
    3.2280    1.4260   11.0570 C   0  0  0  0  0
    2.4350    1.3390   12.3610 C   0  0  0  0  0
    1.8270    0.3080   12.6750 O   0  0  0  0  0
    2.6590    0.4240   10.0360 C   0  0  0  0  0
    3.6830   -0.6450    9.7750 C   0  0  0  0  0
    3.9580   -1.6010   10.7580 C   0  0  0  0  0
    4.3840   -0.6580    8.5670 C   0  0  0  0  0
    4.9380   -2.5680   10.5330 C   0  0  0  0  0
    5.3580   -1.6330    8.3390 C   0  0  0  0  0
    5.6350   -2.5830    9.3230 C   0  0  0  0  0
    6.6210   -3.5220    9.1110 O   0  0  0  0  0
    8.1780   -3.0550    9.2860 P   0  0  0  0  0
    8.4020   -1.5420    9.1930 O   0  0  0  0  0
    8.9370   -3.7110    8.1390 O   0  0  0  0  0
    8.7490   -3.5760   10.6060 O   0  0  0  0  0
    2.4490    2.4360   13.1010 N   0  0  0  0  0
    1.7470    2.5380   14.3780 C   0  0  0  0  0
    0.2360    2.3350   14.2120 C   0  0  0  0  0
   -0.5630    3.0640   14.7990 O   0  0  0  0  0
    2.0250    3.9220   14.9820 C   0  0  0  0  0
    1.5560    5.0240   14.0110 C   0  0  0  0  0
    2.5970    5.2690   12.9190 C   0  0  0  0  0
    2.5630    4.5620   11.9240 O   0  0  0  0  0
    3.4200    6.1590   13.0910 O   0  0  0  0  0
   -0.1470    1.3390   13.4180 N   0  0  0  0  0
   -1.5640    1.0470   13.1850 C   0  0  0  0  0
   -2.3790    2.3390   13.0550 C   0  0  0  0  0
   -3.2610    2.6130   13.8770 O   0  0  0  0  0
   -2.1150    0.1980   14.3380 C   0  0  0  0  0
   -3.5190    0.4010   14.4470 O   0  0  0  0  0
   -2.1050    3.1320   12.0500 N   0  0  0  0  0
   -2.8330    4.4160   11.8250 C   0  0  0  0  0
   -4.3500    4.2240   11.7750 C   0  0  0  0  0
   -5.0880    4.8210   12.5620 O   0  0  0  0  0
   -2.2970    4.9140   10.4750 C   0  0  0  0  0
   -0.9800    4.2370   10.2940 C   0  0  0  0  0
   -1.0750    2.8970   11.0230 C   0  0  0  0  0
   -4.8040    3.3960   10.8370 N   0  0  0  0  0
   -6.2340    3.1380   10.6690 C   0  0  0  0  0
   -6.5040    1.6460   10.5140 C   0  0  0  0  0
   -5.7460    0.9380    9.8510 O   0  0  0  0  0
   -6.7470    3.8750    9.4280 C   0  0  0  0  0
   -5.8790    5.0820    9.1670 C   0  0  0  0  0
   -5.1830    5.2090    7.9570 C   0  0  0  0  0
   -5.7640    6.0720   10.1460 C   0  0  0  0  0
   -4.3780    6.3360    7.7320 C   0  0  0  0  0
   -4.9610    7.1900    9.9210 C   0  0  0  0  0
   -4.2690    7.3240    8.7170 C   0  0  0  0  0
   -3.4890    8.4470    8.4970 O   0  0  0  0  0
   -4.1670    9.9180    8.7380 P   0  0  0  0  0
   -3.6520   10.9990    7.7820 O   0  0  0  0  0
   -3.8200   10.3020   10.1840 O   0  0  0  0  0
   -5.6890    9.8190    8.6190 O   0  0  0  0  0
   -7.5950    1.1810   11.1170 N   0  0  0  0  0
   -7.9660   -0.2300   11.0310 C   0  0  0  0  0
   -9.1210   -0.5500   11.9790 C   0  0  0  0  0
  -10.2930   -0.5390   11.5820 O   0  0  0  0  0
   -6.7570   -1.1100   11.3670 C   0  0  0  0  0
   -8.7860   -0.8320   13.2320 N   0  0  0  0  0
   -9.7970   -1.1520   14.2290 C   0  0  0  0  0
   -9.5500   -0.3730   15.5320 C   0  0  0  0  0
   -9.5030   -0.9570   16.6170 O   0  0  0  0  0
   -9.7860   -2.6670   14.4880 C   0  0  0  0  0
   -9.9490   -3.4270   13.1730 C   0  0  0  0  0
  -11.0850   -3.6290   12.7660 O   0  0  0  0  0
   -8.9420   -3.7890   12.5850 O   0  0  0  0  0
   -9.4000    0.9320   15.4420 N   0  0  0  0  0
   -9.1630    1.8040   16.6280 C   0  0  0  0  0
  -10.4740    2.1620   17.3310 C   0  0  0  0  0
  -11.4070    2.6440   16.6870 O   0  0  0  0  0
   -8.5140    3.0480   16.0180 C   0  0  0  0  0
   -9.0970    3.1540   14.6490 C   0  0  0  0  0
   -9.4490    1.7290   14.2020 C   0  0  0  0  0
  -10.5260    1.9240   18.6460 N   0  0  0  0  0
  -11.7200    2.2200   19.4470 C   0  0  0  0  0
  -12.8700    1.2550   19.1200 C   0  0  0  0  0
  -13.0200    0.8930   17.9620 O   0  0  0  0  0
  -12.1770    3.6720   19.2240 C   0  0  0  0  0
  -11.2340    4.6430   19.9510 C   0  0  0  0  0
  -10.0590    5.0170   19.0520 C   0  0  0  0  0
  -10.2100    5.9370   18.2650 O   0  0  0  0  0
   -9.0230    4.3830   19.1700 O   0  0  0  0  0
  -13.5830    0.8870   20.0400 O   0  0  0  0  0
    9.0768    2.8912   17.3948 H   0  0  0  0  0
    8.4893    4.1189   18.3563 H   0  0  0  0  0
    8.4905    2.5496   18.9168 H   0  0  0  0  0
    6.8823    1.8899   17.2415 H   0  0  0  0  0
    5.7747    2.4485   19.2178 H   0  0  0  0  0
    5.0410    3.6111   18.0698 H   0  0  0  0  0
    7.4586    4.9684   18.0463 H   0  0  0  0  0
    7.1330    5.4644   17.4251 H   0  0  0  0  0
    5.7477    6.1245   15.1332 H   0  0  0  0  0
    6.5884    7.8537   16.6229 H   0  0  0  0  0
    7.5810    9.2380   15.0359 H   0  0  0  0  0
    8.6751    6.7156   17.3016 H   0  0  0  0  0
    9.3700    7.0234   15.6911 H   0  0  0  0  0
    9.0008    8.3858   16.7767 H   0  0  0  0  0
    8.7129    4.3702   15.1796 H   0  0  0  0  0
    9.4944    5.2264   12.4808 H   0  0  0  0  0
   11.4131    3.9187   12.7714 H   0  0  0  0  0
   10.5605    2.7203   13.7921 H   0  0  0  0  0
   10.8758    5.5544   14.7721 H   0  0  0  0  0
   12.2541    4.4236   14.8899 H   0  0  0  0  0
   11.7141    2.5387   15.8955 H   0  0  0  0  0
    7.4080    2.8469   13.8988 H   0  0  0  0  0
    7.2798    1.4044   11.2594 H   0  0  0  0  0
    7.8869    0.3170   13.6851 H   0  0  0  0  0
    5.7146    0.9425   14.6762 H   0  0  0  0  0
    4.8641    0.0518   13.3899 H   0  0  0  0  0
    5.8732   -0.8277   14.5643 H   0  0  0  0  0
    6.1783   -0.9806   11.5102 H   0  0  0  0  0
    7.9526   -0.8301   11.4882 H   0  0  0  0  0
    7.1609   -1.8545   12.7109 H   0  0  0  0  0
    5.0899    0.3445   10.8687 H   0  0  0  0  0
    3.1367    2.4338   10.6520 H   0  0  0  0  0
    2.4230    0.9414    9.1061 H   0  0  0  0  0
    1.7496   -0.0276   10.4323 H   0  0  0  0  0
    3.4074   -1.5906   11.6986 H   0  0  0  0  0
    4.1715    0.0909    7.8040 H   0  0  0  0  0
    5.1592   -3.3102   11.3000 H   0  0  0  0  0
    5.9008   -1.6518    7.3940 H   0  0  0  0  0
    7.9321   -1.1056    9.9074 H   0  0  0  0  0
    8.2795   -3.1705   11.3387 H   0  0  0  0  0
    2.9722    3.2447   12.7654 H   0  0  0  0  0
    2.1108    1.7522   15.0400 H   0  0  0  0  0
    3.0956    4.0291   15.1563 H   0  0  0  0  0
    1.4833    4.0184   15.9229 H   0  0  0  0  0
    1.4129    5.9475   14.5720 H   0  0  0  0  0
    0.6251    4.7048   13.5422 H   0  0  0  0  0
    3.2595    6.5825   13.9375 H   0  0  0  0  0
    0.5618    0.7654   12.9609 H   0  0  0  0  0
   -1.6503    0.4936   12.2499 H   0  0  0  0  0
   -1.6317    0.4926   15.2695 H   0  0  0  0  0
   -1.9141   -0.8553   14.1421 H   0  0  0  0  0
   -3.8630   -0.1305   15.1686 H   0  0  0  0  0
   -2.6675    5.1225   12.6384 H   0  0  0  0  0
   -2.1931    5.9990   10.4625 H   0  0  0  0  0
   -2.9827    4.6772    9.6614 H   0  0  0  0  0
   -0.1707    4.8445   10.6992 H   0  0  0  0  0
   -0.7593    4.0905    9.2367 H   0  0  0  0  0
   -1.3339    2.0764   10.3538 H   0  0  0  0  0
   -0.1219    2.5881   11.4523 H   0  0  0  0  0
   -4.1385    2.9300   10.2203 H   0  0  0  0  0
   -6.7532    3.4964   11.5578 H   0  0  0  0  0
   -7.7755    4.1954    9.5942 H   0  0  0  0  0
   -6.7104    3.2074    8.5672 H   0  0  0  0  0
   -5.2668    4.4353    7.1938 H   0  0  0  0  0
   -6.3031    5.9705   11.0879 H   0  0  0  0  0
   -3.8381    6.4418    6.7910 H   0  0  0  0  0
   -4.8740    7.9604   10.6872 H   0  0  0  0  0
   -2.6969   11.0616    7.8562 H   0  0  0  0  0
   -2.8668   10.3685   10.2763 H   0  0  0  0  0
   -8.1837    1.8215   11.6495 H   0  0  0  0  0
   -8.2915   -0.4364   10.0114 H   0  0  0  0  0
   -5.9529   -0.9058   10.6600 H   0  0  0  0  0
   -6.4179   -0.8883   12.3789 H   0  0  0  0  0
   -7.0434   -2.1596   11.3002 H   0  0  0  0  0
   -7.8022   -0.8243   13.5011 H   0  0  0  0  0
  -10.7768   -0.8573   13.8533 H   0  0  0  0  0
  -10.6116   -2.9218   15.1525 H   0  0  0  0  0
   -8.8363   -2.9443   14.9455 H   0  0  0  0  0
  -11.7167   -3.2583   13.3866 H   0  0  0  0  0
   -8.5491    1.3244   17.3904 H   0  0  0  0  0
   -7.4276    2.9647   15.9896 H   0  0  0  0  0
   -8.7121    3.9401   16.6121 H   0  0  0  0  0
   -8.3859    3.6104   13.9605 H   0  0  0  0  0
   -9.9841    3.7874   14.6548 H   0  0  0  0  0
  -10.4268    1.6803   13.7227 H   0  0  0  0  0
   -8.7575    1.3544   13.4473 H   0  0  0  0  0
   -9.7092    1.5237   19.1075 H   0  0  0  0  0
  -11.4507    2.0877   20.4949 H   0  0  0  0  0
  -12.3507    1.3041   17.4101 H   0  0  0  0  0
  -13.1861    3.7928   19.6179 H   0  0  0  0  0
  -12.1606    3.8911   18.1564 H   0  0  0  0  0
  -10.8528    4.1606   20.8510 H   0  0  0  0  0
  -11.7855    5.5471   20.2089 H   0  0  0  0  0
   -9.1356    3.7111   19.8463 H   0  0  0  0  0
  1  2  1  0  0  0
  2  3  1  0  0  0
  2  5  1  0  0  0
  3  4  2  0  0  0
  3  9  1  0  0  0
  5  6  1  0  0  0
  6  7  1  0  0  0
  6  8  2  0  0  0
  9 10  1  0  0  0
 10 11  1  0  0  0
 10 13  1  0  0  0
 11 12  2  0  0  0
 11 16  1  0  0  0
 13 14  1  0  0  0
 13 15  1  0  0  0
 16 17  1  0  0  0
 17 18  1  0  0  0
 17 20  1  0  0  0
 18 19  2  0  0  0
 18 25  1  0  0  0
 20 21  1  0  0  0
 21 22  1  0  0  0
 22 23  1  0  0  0
 22 24  2  0  0  0
 25 26  1  0  0  0
 26 27  1  0  0  0
 26 29  1  0  0  0
 27 28  2  0  0  0
 27 32  1  0  0  0
 29 30  1  0  0  0
 29 31  1  0  0  0
 32 33  1  0  0  0
 33 34  1  0  0  0
 33 36  1  0  0  0
 34 35  2  0  0  0
 34 48  1  0  0  0
 36 37  1  0  0  0
 37 38  4  0  0  0
 37 39  4  0  0  0
 38 40  4  0  0  0
 39 41  4  0  0  0
 40 42  4  0  0  0
 41 42  4  0  0  0
 42 43  1  0  0  0
 43 44  1  0  0  0
 44 45  1  0  0  0
 44 46  2  0  0  0
 44 47  1  0  0  0
 48 49  1  0  0  0
 49 50  1  0  0  0
 49 52  1  0  0  0
 50 51  2  0  0  0
 50 57  1  0  0  0
 52 53  1  0  0  0
 53 54  1  0  0  0
 54 55  2  0  0  0
 54 56  1  0  0  0
 57 58  1  0  0  0
 58 59  1  0  0  0
 58 61  1  0  0  0
 59 60  2  0  0  0
 59 63  1  0  0  0
 61 62  1  0  0  0
 63 64  1  0  0  0
 63 69  1  0  0  0
 64 65  1  0  0  0
 64 67  1  0  0  0
 65 66  2  0  0  0
 65 70  1  0  0  0
 67 68  1  0  0  0
 68 69  1  0  0  0
 70 71  1  0  0  0
 71 72  1  0  0  0
 71 74  1  0  0  0
 72 73  2  0  0  0
 72 86  1  0  0  0
 74 75  1  0  0  0
 75 76  4  0  0  0
 75 77  4  0  0  0
 76 78  4  0  0  0
 77 79  4  0  0  0
 78 80  4  0  0  0
 79 80  4  0  0  0
 80 81  1  0  0  0
 81 82  1  0  0  0
 82 83  1  0  0  0
 82 84  1  0  0  0
 82 85  2  0  0  0
 86 87  1  0  0  0
 87 88  1  0  0  0
 87 90  1  0  0  0
 88 89  2  0  0  0
 88 91  1  0  0  0
 91 92  1  0  0  0
 92 93  1  0  0  0
 92 95  1  0  0  0
 93 94  2  0  0  0
 93 99  1  0  0  0
 95 96  1  0  0  0
 96 97  1  0  0  0
 96 98  2  0  0  0
 99100  1  0  0  0
 99105  1  0  0  0
100101  1  0  0  0
100103  1  0  0  0
101102  2  0  0  0
101106  1  0  0  0
103104  1  0  0  0
104105  1  0  0  0
106107  1  0  0  0
107108  1  0  0  0
107110  1  0  0  0
108109  1  0  0  0
108115  2  0  0  0
110111  1  0  0  0
111112  1  0  0  0
112113  2  0  0  0
112114  1  0  0  0
  1116  1  0  0  0
  1117  1  0  0  0
  1118  1  0  0  0
  2119  1  0  0  0
  5120  1  0  0  0
  5121  1  0  0  0
  7122  1  0  0  0
  9123  1  0  0  0
 10124  1  0  0  0
 13125  1  0  0  0
 14126  1  0  0  0
 15127  1  0  0  0
 15128  1  0  0  0
 15129  1  0  0  0
 16130  1  0  0  0
 17131  1  0  0  0
 20132  1  0  0  0
 20133  1  0  0  0
 21134  1  0  0  0
 21135  1  0  0  0
 23136  1  0  0  0
 25137  1  0  0  0
 26138  1  0  0  0
 29139  1  0  0  0
 30140  1  0  0  0
 30141  1  0  0  0
 30142  1  0  0  0
 31143  1  0  0  0
 31144  1  0  0  0
 31145  1  0  0  0
 32146  1  0  0  0
 33147  1  0  0  0
 36148  1  0  0  0
 36149  1  0  0  0
 38150  1  0  0  0
 39151  1  0  0  0
 40152  1  0  0  0
 41153  1  0  0  0
 45154  1  0  0  0
 47155  1  0  0  0
 48156  1  0  0  0
 49157  1  0  0  0
 52158  1  0  0  0
 52159  1  0  0  0
 53160  1  0  0  0
 53161  1  0  0  0
 56162  1  0  0  0
 57163  1  0  0  0
 58164  1  0  0  0
 61165  1  0  0  0
 61166  1  0  0  0
 62167  1  0  0  0
 64168  1  0  0  0
 67169  1  0  0  0
 67170  1  0  0  0
 68171  1  0  0  0
 68172  1  0  0  0
 69173  1  0  0  0
 69174  1  0  0  0
 70175  1  0  0  0
 71176  1  0  0  0
 74177  1  0  0  0
 74178  1  0  0  0
 76179  1  0  0  0
 77180  1  0  0  0
 78181  1  0  0  0
 79182  1  0  0  0
 83183  1  0  0  0
 84184  1  0  0  0
 86185  1  0  0  0
 87186  1  0  0  0
 90187  1  0  0  0
 90188  1  0  0  0
 90189  1  0  0  0
 91190  1  0  0  0
 92191  1  0  0  0
 95192  1  0  0  0
 95193  1  0  0  0
 97194  1  0  0  0
100195  1  0  0  0
103196  1  0  0  0
103197  1  0  0  0
104198  1  0  0  0
104199  1  0  0  0
105200  1  0  0  0
105201  1  0  0  0
106202  1  0  0  0
107203  1  0  0  0
109204  1  0  0  0
110205  1  0  0  0
110206  1  0  0  0
111207  1  0  0  0
111208  1  0  0  0
114209  1  0  0  0
M  END
$$$$
