5iql_ligand
  -I-interpret- 

120120  0  0  0  0  0  0  0  0999 V2000
    9.9410  -11.6110   51.2800 N   0  3  0  0  0
   10.0780  -12.0440   49.8850 C   0  0  0  0  0
   10.6550  -10.9130   49.0300 C   0  0  0  0  0
   10.3050   -9.7540   49.2160 O   0  0  0  0  0
    8.7350  -12.4900   49.3440 C   0  0  0  0  0
   11.5590  -11.2330   48.1100 N   0  0  0  0  0
   12.0900  -10.2440   47.1750 C   0  0  0  0  0
   11.3500  -10.4040   45.8450 C   0  0  0  0  0
   11.4900  -11.4240   45.1610 O   0  0  0  0  0
   13.6040  -10.4040   47.0140 C   0  0  0  0  0
   10.5500   -9.4070   45.4870 N   0  0  0  0  0
    9.6790   -9.5210   44.3170 C   0  0  0  0  0
   10.2060   -8.7380   43.1350 C   0  0  0  0  0
   10.8010   -7.6790   43.3130 O   0  0  0  0  0
    8.2660   -9.0380   44.6550 C   0  0  0  0  0
    7.6640   -9.7840   45.8080 C   0  0  0  0  0
    6.2280   -9.3600   46.1500 C   0  0  0  0  0
    5.5880  -10.4430   46.9140 N   0  0  0  0  0
    5.7270  -10.5790   48.2220 C   0  0  0  0  0
    6.4680   -9.6940   48.8710 N   0  0  0  0  0
    5.1510  -11.5870   48.8760 N   0  0  0  0  0
    9.9320   -9.2240   41.9280 N   0  0  0  0  0
   10.3560   -8.5600   40.7290 C   0  0  0  0  0
   11.6990   -9.1280   40.3600 C   0  0  0  0  0
   12.2370   -8.6780   39.0150 C   0  0  0  0  0
   13.6880   -9.1080   38.9000 C   0  0  0  0  0
   14.3270   -8.8380   37.5600 C   0  0  0  0  0
   15.5130   -9.6160   37.4700 N   0  0  0  0  0
   16.3130   -9.5140   36.3210 C   0  0  0  0  0
   15.9600   -8.7450   35.4410 O   0  0  0  0  0
   17.5840  -10.3500   36.2090 C   0  0  0  0  0
   18.3590  -10.2400   35.1010 C   0  0  0  0  0
   19.6310  -11.0660   34.9390 C   0  0  0  0  0
    9.3790   -8.8720   39.6270 C   0  0  0  0  0
    8.9370  -10.0380   39.5380 O   0  0  0  0  0
    9.0460   -7.9100   38.7660 N   0  0  0  0  0
    8.0350   -8.1890   37.7520 C   0  0  0  0  0
    8.2810   -7.4420   36.4440 C   0  0  0  0  0
    8.7730   -6.2840   36.4300 O   0  0  0  0  0
    6.6310   -7.8550   38.2910 C   0  0  0  0  0
    6.4670   -6.4590   38.4720 O   0  0  0  0  0
    7.9230   -8.1080   35.3340 N   0  0  0  0  0
    8.1110   -7.4910   34.0190 C   0  0  0  0  0
    6.9920   -6.4980   33.7610 C   0  0  0  0  0
    5.8140   -6.8440   33.9200 O   0  0  0  0  0
    8.1440   -8.5510   32.9170 C   0  0  0  0  0
    7.3080   -5.2670   33.3810 N   0  0  0  0  0
    6.2450   -4.2880   33.0830 C   0  0  0  0  0
    5.2070   -4.7730   32.0860 C   0  0  0  0  0
    4.0300   -4.3990   32.1860 O   0  0  0  0  0
    7.0160   -3.0950   32.5010 C   0  0  0  0  0
    8.3890   -3.2850   32.8240 C   0  0  0  0  0
    8.6470   -4.7430   33.1100 C   0  0  0  0  0
    5.6040   -5.6010   31.1280 N   0  0  0  0  0
    4.6800   -6.0490   30.1010 C   0  0  0  0  0
    4.5590   -7.5580   30.1490 C   0  0  0  0  0
    4.2740   -8.1560   29.1250 O   0  0  0  0  0
    5.1370   -5.5810   28.7120 C   0  0  0  0  0
    4.7350   -8.2060   31.2020 O   0  0  0  0  0
   10.8504  -11.3133   51.6332 H   0  0  0  0  0
    9.2840  -10.8324   51.3301 H   0  0  0  0  0
    9.5937  -12.3873   51.8432 H   0  0  0  0  0
   10.7662  -12.8883   49.8448 H   0  0  0  0  0
    8.0422  -11.6486   49.3564 H   0  0  0  0  0
    8.8570  -12.8468   48.3213 H   0  0  0  0  0
    8.3429  -13.2943   49.9664 H   0  0  0  0  0
   11.8913  -12.1958   48.0551 H   0  0  0  0  0
   11.9284   -9.2354   47.5555 H   0  0  0  0  0
   13.8233  -11.3963   46.6198 H   0  0  0  0  0
   13.9767   -9.6470   46.3240 H   0  0  0  0  0
   14.0861  -10.2823   47.9840 H   0  0  0  0  0
   10.5424   -8.5477   46.0364 H   0  0  0  0  0
    9.6549  -10.5751   44.0405 H   0  0  0  0  0
    7.6359   -9.2045   43.7813 H   0  0  0  0  0
    8.3277   -7.9854   44.9312 H   0  0  0  0  0
    8.2787   -9.5743   46.6833 H   0  0  0  0  0
    7.6308  -10.8369   45.5281 H   0  0  0  0  0
    5.6685   -9.1714   45.2337 H   0  0  0  0  0
    6.2423   -8.4456   46.7432 H   0  0  0  0  0
    5.0117  -11.1187   46.4123 H   0  0  0  0  0
    6.9146   -8.9314   48.3617 H   0  0  0  0  0
    5.2794  -11.6809   49.8835 H   0  0  0  0  0
    4.5817  -12.2647   48.3691 H   0  0  0  0  0
    9.4051  -10.0941   41.8524 H   0  0  0  0  0
   10.4092   -7.4811   40.8748 H   0  0  0  0  0
   11.5790  -10.2100   40.3052 H   0  0  0  0  0
   12.4056   -8.7810   41.1139 H   0  0  0  0  0
   12.1655   -7.5935   38.9326 H   0  0  0  0  0
   11.6530   -9.1304   38.2135 H   0  0  0  0  0
   13.7095  -10.1877   39.0478 H   0  0  0  0  0
   14.2469   -8.5321   39.6376 H   0  0  0  0  0
   14.5651   -7.7786   37.4646 H   0  0  0  0  0
   13.6409   -9.1057   36.7565 H   0  0  0  0  0
   15.7796  -10.2408   38.2309 H   0  0  0  0  0
   17.8671  -11.0300   37.0124 H   0  0  0  0  0
   18.0670   -9.5479   34.3112 H   0  0  0  0  0
   20.3195  -10.8336   35.7514 H   0  0  0  0  0
   19.3800  -12.1264   34.9659 H   0  0  0  0  0
   20.0993  -10.8262   33.9843 H   0  0  0  0  0
    9.4911   -6.9936   38.8155 H   0  0  0  0  0
    8.1028   -9.2538   37.5290 H   0  0  0  0  0
    6.5036   -8.3470   39.2553 H   0  0  0  0  0
    5.8911   -8.2003   37.5689 H   0  0  0  0  0
    5.5851   -6.2824   38.8077 H   0  0  0  0  0
    7.5206   -9.0425   35.4067 H   0  0  0  0  0
    9.0679   -6.9691   34.0107 H   0  0  0  0  0
    8.9681   -9.2400   33.1020 H   0  0  0  0  0
    7.2027   -9.1006   32.9150 H   0  0  0  0  0
    8.2846   -8.0652   31.9514 H   0  0  0  0  0
    5.6653   -4.0669   33.9792 H   0  0  0  0  0
    6.5916   -2.2592   31.9447 H   0  0  0  0  0
    9.1403   -2.4961   32.8593 H   0  0  0  0  0
    9.1417   -5.2544   32.2843 H   0  0  0  0  0
    9.3363   -4.8951   33.9406 H   0  0  0  0  0
    6.5704   -5.9269   31.1127 H   0  0  0  0  0
    3.7007   -5.6098   30.2912 H   0  0  0  0  0
    5.1818   -4.4921   28.6934 H   0  0  0  0  0
    6.1245   -5.9902   28.4988 H   0  0  0  0  0
    4.4280   -5.9296   27.9611 H   0  0  0  0  0
    4.9511   -7.6017   31.9160 H   0  0  0  0  0
  1  2  1  0  0  0
  2  3  1  0  0  0
  2  5  1  0  0  0
  3  4  2  0  0  0
  3  6  1  0  0  0
  6  7  1  0  0  0
  7  8  1  0  0  0
  7 10  1  0  0  0
  8  9  2  0  0  0
  8 11  1  0  0  0
 11 12  1  0  0  0
 12 13  1  0  0  0
 12 15  1  0  0  0
 13 14  2  0  0  0
 13 22  1  0  0  0
 15 16  1  0  0  0
 16 17  1  0  0  0
 17 18  1  0  0  0
 18 19  1  0  0  0
 19 20  2  0  0  0
 19 21  1  0  0  0
 22 23  1  0  0  0
 23 24  1  0  0  0
 23 34  1  0  0  0
 24 25  1  0  0  0
 25 26  1  0  0  0
 26 27  1  0  0  0
 27 28  1  0  0  0
 28 29  1  0  0  0
 29 30  2  0  0  0
 29 31  1  0  0  0
 31 32  2  0  0  0
 32 33  1  0  0  0
 34 35  2  0  0  0
 34 36  1  0  0  0
 36 37  1  0  0  0
 37 38  1  0  0  0
 37 40  1  0  0  0
 38 39  2  0  0  0
 38 42  1  0  0  0
 40 41  1  0  0  0
 42 43  1  0  0  0
 43 44  1  0  0  0
 43 46  1  0  0  0
 44 45  2  0  0  0
 44 47  1  0  0  0
 47 48  1  0  0  0
 47 53  1  0  0  0
 48 49  1  0  0  0
 48 51  1  0  0  0
 49 50  2  0  0  0
 49 54  1  0  0  0
 51 52  2  0  0  0
 52 53  1  0  0  0
 54 55  1  0  0  0
 55 56  1  0  0  0
 55 58  1  0  0  0
 56 57  2  0  0  0
 56 59  1  0  0  0
  1 60  1  0  0  0
  1 61  1  0  0  0
  1 62  1  0  0  0
  2 63  1  0  0  0
  5 64  1  0  0  0
  5 65  1  0  0  0
  5 66  1  0  0  0
  6 67  1  0  0  0
  7 68  1  0  0  0
 10 69  1  0  0  0
 10 70  1  0  0  0
 10 71  1  0  0  0
 11 72  1  0  0  0
 12 73  1  0  0  0
 15 74  1  0  0  0
 15 75  1  0  0  0
 16 76  1  0  0  0
 16 77  1  0  0  0
 17 78  1  0  0  0
 17 79  1  0  0  0
 18 80  1  0  0  0
 20 81  1  0  0  0
 21 82  1  0  0  0
 21 83  1  0  0  0
 22 84  1  0  0  0
 23 85  1  0  0  0
 24 86  1  0  0  0
 24 87  1  0  0  0
 25 88  1  0  0  0
 25 89  1  0  0  0
 26 90  1  0  0  0
 26 91  1  0  0  0
 27 92  1  0  0  0
 27 93  1  0  0  0
 28 94  1  0  0  0
 31 95  1  0  0  0
 32 96  1  0  0  0
 33 97  1  0  0  0
 33 98  1  0  0  0
 33 99  1  0  0  0
 36100  1  0  0  0
 37101  1  0  0  0
 40102  1  0  0  0
 40103  1  0  0  0
 41104  1  0  0  0
 42105  1  0  0  0
 43106  1  0  0  0
 46107  1  0  0  0
 46108  1  0  0  0
 46109  1  0  0  0
 48110  1  0  0  0
 51111  1  0  0  0
 52112  1  0  0  0
 53113  1  0  0  0
 53114  1  0  0  0
 54115  1  0  0  0
 55116  1  0  0  0
 58117  1  0  0  0
 58118  1  0  0  0
 58119  1  0  0  0
 59120  1  0  0  0
M  END
$$$$
