### 
### Created by X-TOOL on Mon Sep 10 21:13:29 2018
### 

@<TRIPOS>MOLECULE
5iql_ligand
  120   120     1     0     0
SMALL
GAST_HUCK


@<TRIPOS>ATOM
      1 N           9.9410  -11.6110   51.2800 N.4       1 ALA         0.2377
      2 CA         10.0780  -12.0440   49.8850 C.3       1 ALA         0.0621
      3 C          10.6550  -10.9130   49.0300 C.2       1 ALA         0.2264
      4 O          10.3050   -9.7540   49.2160 O.2       1 ALA        -0.3907
      5 CB          8.7350  -12.4900   49.3440 C.3       1 ALA        -0.0040
      6 N          11.5590  -11.2330   48.1100 N.am      1 ALA        -0.2613
      7 CA         12.0900  -10.2440   47.1750 C.3       1 ALA         0.1283
      8 C          11.3500  -10.4040   45.8450 C.2       1 ALA         0.2036
      9 O          11.4900  -11.4240   45.1610 O.2       1 ALA        -0.3944
     10 CB         13.6040  -10.4040   47.0140 C.3       1 ALA        -0.0244
     11 N          10.5500   -9.4070   45.4870 N.am      1 ARG        -0.2637
     12 CA          9.6790   -9.5210   44.3170 C.3       1 ARG         0.1311
     13 C          10.2060   -8.7380   43.1350 C.2       1 ARG         0.2039
     14 O          10.8010   -7.6790   43.3130 O.2       1 ARG        -0.3944
     15 CB          8.2660   -9.0380   44.6550 C.3       1 ARG        -0.0092
     16 CG          7.6640   -9.7840   45.8080 C.3       1 ARG        -0.0156
     17 CD          6.2280   -9.3600   46.1500 C.3       1 ARG         0.0627
     18 NE          5.5880  -10.4430   46.9140 N.pl3     1 ARG        -0.2723
     19 CZ          5.7270  -10.5790   48.2220 C.cat     1 ARG         0.2882
     20 NH1         6.4680   -9.6940   48.8710 N.pl3     1 ARG        -0.2849
     21 NH2         5.1510  -11.5870   48.8760 N.pl3     1 ARG        -0.2849
     22 N           9.9320   -9.2240   41.9280 N.am      1 KCR        -0.2637
     23 CA         10.3560   -8.5600   40.7290 C.3       1 KCR         0.1310
     24 CB         11.6990   -9.1280   40.3600 C.3       1 KCR        -0.0123
     25 CG         12.2370   -8.6780   39.0150 C.3       1 KCR        -0.0470
     26 CD         13.6880   -9.1080   38.9000 C.3       1 KCR        -0.0327
     27 CE         14.3270   -8.8380   37.5600 C.3       1 KCR         0.0295
     28 NZ         15.5130   -9.6160   37.4700 N.am      1 KCR        -0.2917
     29 CH         16.3130   -9.5140   36.3210 C.2       1 KCR         0.1759
     30 OH         15.9600   -8.7450   35.4410 O.2       1 KCR        -0.4012
     31 CX         17.5840  -10.3500   36.2090 C.2       1 KCR        -0.0032
     32 CY         18.3590  -10.2400   35.1010 C.2       1 KCR        -0.0626
     33 CH3        19.6310  -11.0660   34.9390 C.3       1 KCR        -0.0267
     34 C           9.3790   -8.8720   39.6270 C.2       1 KCR         0.2040
     35 O           8.9370  -10.0380   39.5380 O.2       1 KCR        -0.3944
     36 N           9.0460   -7.9100   38.7660 N.am      1 SER        -0.2616
     37 CA          8.0350   -8.1890   37.7520 C.3       1 SER         0.1539
     38 C           8.2810   -7.4420   36.4440 C.2       1 SER         0.2062
     39 O           8.7730   -6.2840   36.4300 O.2       1 SER        -0.3943
     40 CB          6.6310   -7.8550   38.2910 C.3       1 SER         0.0843
     41 OG          6.4670   -6.4590   38.4720 O.3       1 SER        -0.3903
     42 N           7.9230   -8.1080   35.3340 N.am      1 ALA        -0.2639
     43 CA          8.1110   -7.4910   34.0190 C.3       1 ALA         0.1287
     44 C           6.9920   -6.4980   33.7610 C.2       1 ALA         0.2093
     45 O           5.8140   -6.8440   33.9200 O.2       1 ALA        -0.3939
     46 CB          8.1440   -8.5510   32.9170 C.3       1 ALA        -0.0244
     47 N           7.3080   -5.2670   33.3810 N.am      1 PRO        -0.2340
     48 CA          6.2450   -4.2880   33.0830 C.3       1 PRO         0.1522
     49 C           5.2070   -4.7730   32.0860 C.2       1 PRO         0.2118
     50 O           4.0300   -4.3990   32.1860 O.2       1 PRO        -0.3919
     51 CB          7.0160   -3.0950   32.5010 C.2       1 PRO        -0.0526
     52 CG          8.3890   -3.2850   32.8240 C.2       1 PRO        -0.0712
     53 CD          8.6470   -4.7430   33.1100 C.3       1 PRO         0.0563
     54 N           5.6040   -5.6010   31.1280 N.am      1 ALA        -0.2684
     55 CA          4.6800   -6.0490   30.1010 C.3       1 ALA         0.0917
     56 C           4.5590   -7.5580   30.1490 C.2       1 ALA         0.0598
     57 O           4.2740   -8.1560   29.1250 O.co2     1 ALA        -0.5666
     58 CB          5.1370   -5.5810   28.7120 C.3       1 ALA        -0.0299
     59 OXT         4.7350   -8.2060   31.2020 O.co2     1 ALA        -0.5666
     60 H1          9.5604  -12.3651   51.8300 H         1 ALA         0.2015
     61 H2          9.3226  -10.8163   51.3260 H         1 ALA         0.2015
     62 H3         10.8458  -11.3541   51.6425 H         1 ALA         0.2015
     63 H4         10.7710  -12.8975   49.8488 H         1 ALA         0.1095
     64 H5          8.8496  -12.8122   48.2985 H         1 ALA         0.0310
     65 H6          8.0233  -11.6528   49.3938 H         1 ALA         0.0310
     66 H7          8.3571  -13.3289   49.9468 H         1 ALA         0.0310
     67 H8         11.8848  -12.1769   48.0562 H         1 ALA         0.1884
     68 H9         11.8920   -9.2366   47.5699 H         1 ALA         0.0797
     69 H10        13.9792   -9.6497   46.3067 H         1 ALA         0.0277
     70 H11        13.8276  -11.4102   46.6298 H         1 ALA         0.0277
     71 H12        14.0930  -10.2670   47.9897 H         1 ALA         0.0277
     72 H13        10.5426   -8.5645   46.0257 H         1 ARG         0.1883
     73 H14         9.6283  -10.5823   44.0322 H         1 ARG         0.0800
     74 H15         7.6251   -9.1770   43.7719 H         1 ARG         0.0313
     75 H16         8.3105   -7.9692   44.9112 H         1 ARG         0.0313
     76 H17         8.2937   -9.6163   46.6942 H         1 ARG         0.0301
     77 H18         7.6576  -10.8557   45.5602 H         1 ARG         0.0301
     78 H19         5.6647   -9.1776   45.2230 H         1 ARG         0.0689
     79 H20         6.2469   -8.4412   46.7545 H         1 ARG         0.0689
     80 H21         5.0060  -11.1253   46.4074 H         1 ARG         0.2642
     81 H22         6.5934   -9.7757   49.8901 H         1 ARG         0.2615
     82 H23         6.9190   -8.9239   48.3567 H         1 ARG         0.2615
     83 H24         4.5761  -12.2714   48.3641 H         1 ARG         0.2615
     84 H25         5.2807  -11.6818   49.8934 H         1 ARG         0.2615
     85 H26         9.4154  -10.0770   41.8539 H         1 KCR         0.1883
     86 H27        10.4218   -7.4735   40.8874 H         1 KCR         0.0800
     87 H28        11.6131  -10.2245   40.3437 H         1 KCR         0.0312
     88 H29        12.4208   -8.8282   41.1340 H         1 KCR         0.0312
     89 H30        12.1687   -7.5829   38.9371 H         1 KCR         0.0268
     90 H31        11.6494   -9.1404   38.2083 H         1 KCR         0.0268
     91 H32        13.7398  -10.1900   39.0913 H         1 KCR         0.0285
     92 H33        14.2651   -8.5718   39.6678 H         1 KCR         0.0285
     93 H34        14.5748   -7.7698   37.4738 H         1 KCR         0.0518
     94 H35        13.6344   -9.1200   36.7533 H         1 KCR         0.0518
     95 H36        15.7744  -10.2285   38.2160 H         1 KCR         0.1831
     96 H37        17.8669  -11.0294   37.0117 H         1 KCR         0.0472
     97 H38        18.0673   -9.5485   34.3119 H         1 KCR         0.0843
     98 H39        20.1045  -10.8249   33.9759 H         1 KCR         0.0453
     99 H40        19.3791  -12.1364   34.9659 H         1 KCR         0.0453
    100 H41        20.3268  -10.8323   35.7583 H         1 KCR         0.0453
    101 H42         9.4823   -7.0115   38.8145 H         1 SER         0.1884
    102 H43         8.0718   -9.2664   37.5333 H         1 SER         0.0823
    103 H44         6.4887   -8.3606   39.2575 H         1 SER         0.0606
    104 H45         5.8775   -8.2143   37.5747 H         1 SER         0.0606
    105 H46         6.5845   -6.0169   37.6394 H         1 SER         0.2097
    106 H47         7.5285   -9.0241   35.4053 H         1 ALA         0.1883
    107 H48         9.0706   -6.9533   34.0157 H         1 ALA         0.0797
    108 H49         8.2859   -8.0619   31.9420 H         1 ALA         0.0277
    109 H50         7.1945   -9.1064   32.9139 H         1 ALA         0.0277
    110 H51         8.9753   -9.2470   33.1025 H         1 ALA         0.0277
    111 H52         5.7301   -4.0025   34.0122 H         1 PRO         0.0924
    112 H53         6.5920   -2.2600   31.9453 H         1 PRO         0.0494
    113 H54         9.1396   -2.4968   32.8593 H         1 PRO         0.0482
    114 H55         9.0986   -5.2426   32.2403 H         1 PRO         0.0653
    115 H56         9.3035   -4.8642   33.9843 H         1 PRO         0.0653
    116 H57         6.5515   -5.9206   31.1130 H         1 ALA         0.1876
    117 H58         3.6914   -5.6119   30.3048 H         1 ALA         0.0723
    118 H59         4.4222   -5.9322   27.9532 H         1 ALA         0.0270
    119 H60         6.1335   -5.9934   28.4956 H         1 ALA         0.0270
    120 H61         5.1826   -4.4821   28.6919 H         1 ALA         0.0270
@<TRIPOS>BOND
     1    1    2 1  
     2    2    3 1  
     3    2    5 1  
     4    3    4 2  
     5    3    6 am 
     6    6    7 1  
     7    7    8 1  
     8    7   10 1  
     9    8    9 2  
    10    8   11 am 
    11   11   12 1  
    12   12   13 1  
    13   12   15 1  
    14   13   14 2  
    15   13   22 am 
    16   15   16 1  
    17   16   17 1  
    18   17   18 1  
    19   18   19 ar 
    20   19   20 ar 
    21   19   21 ar 
    22   22   23 1  
    23   23   24 1  
    24   23   34 1  
    25   24   25 1  
    26   25   26 1  
    27   26   27 1  
    28   27   28 1  
    29   28   29 am 
    30   29   30 2  
    31   29   31 1  
    32   31   32 2  
    33   32   33 1  
    34   34   35 2  
    35   34   36 am 
    36   36   37 1  
    37   37   38 1  
    38   37   40 1  
    39   38   39 2  
    40   38   42 am 
    41   40   41 1  
    42   42   43 1  
    43   43   44 1  
    44   43   46 1  
    45   44   45 2  
    46   44   47 am 
    47   47   48 1  
    48   47   53 1  
    49   48   49 1  
    50   48   51 1  
    51   49   50 2  
    52   49   54 am 
    53   51   52 2  
    54   52   53 1  
    55   54   55 1  
    56   55   56 1  
    57   55   58 1  
    58   56   57 ar 
    59   56   59 ar 
    60    1   60 1  
    61    1   61 1  
    62    1   62 1  
    63    2   63 1  
    64    5   64 1  
    65    5   65 1  
    66    5   66 1  
    67    6   67 1  
    68    7   68 1  
    69   10   69 1  
    70   10   70 1  
    71   10   71 1  
    72   11   72 1  
    73   12   73 1  
    74   15   74 1  
    75   15   75 1  
    76   16   76 1  
    77   16   77 1  
    78   17   78 1  
    79   17   79 1  
    80   18   80 1  
    81   20   81 1  
    82   20   82 1  
    83   21   83 1  
    84   21   84 1  
    85   22   85 1  
    86   23   86 1  
    87   24   87 1  
    88   24   88 1  
    89   25   89 1  
    90   25   90 1  
    91   26   91 1  
    92   26   92 1  
    93   27   93 1  
    94   27   94 1  
    95   28   95 1  
    96   31   96 1  
    97   32   97 1  
    98   33   98 1  
    99   33   99 1  
   100   33  100 1  
   101   36  101 1  
   102   37  102 1  
   103   40  103 1  
   104   40  104 1  
   105   41  105 1  
   106   42  106 1  
   107   43  107 1  
   108   46  108 1  
   109   46  109 1  
   110   46  110 1  
   111   48  111 1  
   112   51  112 1  
   113   52  113 1  
   114   53  114 1  
   115   53  115 1  
   116   54  116 1  
   117   55  117 1  
   118   58  118 1  
   119   58  119 1  
   120   58  120 1  
@<TRIPOS>SUBSTRUCTURE
     1 ALA         1

