### 
### Created by X-TOOL on Mon Sep 10 21:13:11 2018
### 

@<TRIPOS>MOLECULE
3u0t_ligand
  156   155     1     0     0
SMALL
GAST_HUCK


@<TRIPOS>ATOM
      1 N         -28.6890   -2.1880   13.6260 N.4       1 ALA         0.2377
      2 CA        -27.2210   -2.0250   13.8390 C.3       1 ALA         0.0621
      3 C         -26.8880   -1.8620   15.3460 C.2       1 ALA         0.2264
      4 O         -27.6660   -2.2930   16.2070 O.2       1 ALA        -0.3907
      5 CB        -26.6720   -0.8650   12.9860 C.3       1 ALA        -0.0040
      6 N         -25.7540   -1.2360   15.6690 N.am      1 ILE        -0.2608
      7 CA        -25.0900   -1.4580   16.9820 C.3       1 ILE         0.1336
      8 C         -25.6370   -0.6500   18.1630 C.2       1 ILE         0.2042
      9 O         -25.6420    0.5780   18.1200 O.2       1 ILE        -0.3944
     10 CB        -23.5660   -1.2000   16.8790 C.3       1 ILE        -0.0037
     11 CG1       -22.9500   -2.1010   15.7920 C.3       1 ILE        -0.0491
     12 CG2       -22.8950   -1.4570   18.2150 C.3       1 ILE        -0.0582
     13 CD1       -21.5300   -1.7240   15.3950 C.3       1 ILE        -0.0648
     14 N         -26.0670   -1.3480   19.2200 N.am      1 ILE        -0.2635
     15 CA        -26.5860   -0.6990   20.4370 C.3       1 ILE         0.1335
     16 C         -25.4310   -0.2920   21.3470 C.2       1 ILE         0.2040
     17 O         -24.4590   -1.0290   21.4770 O.2       1 ILE        -0.3944
     18 CB        -27.5460   -1.6330   21.2420 C.3       1 ILE        -0.0037
     19 CG1       -28.8850   -1.7920   20.5140 C.3       1 ILE        -0.0491
     20 CG2       -27.7630   -1.1110   22.6970 C.3       1 ILE        -0.0582
     21 CD1       -29.6970   -2.9690   21.0060 C.3       1 ILE        -0.0648
     22 N         -25.5420    0.8790   21.9720 N.am      1 GLY        -0.2664
     23 CA        -24.5600    1.3300   22.9710 C.3       1 GLY         0.1201
     24 C         -23.1330    1.4570   22.4440 C.2       1 GLY         0.2007
     25 O         -22.1680    1.0810   23.1280 O.2       1 GLY        -0.3947
     26 N         -23.0110    2.0130   21.2400 N.am      1 LEU        -0.2640
     27 CA        -21.7380    2.0820   20.5060 C.3       1 LEU         0.1312
     28 C         -20.8710    3.2600   20.9540 C.2       1 LEU         0.2039
     29 O         -19.6410    3.2220   20.7740 O.2       1 LEU        -0.3944
     30 CB        -22.0170    2.1740   18.9920 C.3       1 LEU        -0.0101
     31 CG        -20.8510    2.2380   17.9970 C.3       1 LEU        -0.0425
     32 CD1       -19.8660    1.0970   18.2090 C.3       1 LEU        -0.0625
     33 CD2       -21.3900    2.2440   16.5410 C.3       1 LEU        -0.0625
     34 N         -21.5170    4.2750   21.5450 N.am      1 MET        -0.2637
     35 CA        -20.8750    5.5480   21.8850 C.3       1 MET         0.1317
     36 C         -21.3470    6.0710   23.2310 C.2       1 MET         0.2039
     37 O         -21.6960    7.2400   23.3500 O.2       1 MET        -0.3944
     38 CB        -21.1850    6.6120   20.8180 C.3       1 MET        -0.0034
     39 CG        -20.5700    6.3660   19.4510 C.3       1 MET        -0.0024
     40 SD        -18.8390    6.8660   19.3810 S.3       1 MET        -0.1639
     41 CE        -18.5630    6.9930   17.6040 C.3       1 MET        -0.0181
     42 N         -21.3630    5.2120   24.2420 N.am      1 VAL        -0.2635
     43 CA        -21.7640    5.6220   25.5870 C.3       1 VAL         0.1332
     44 C         -20.5940    6.1390   26.4410 C.2       1 VAL         0.2039
     45 O         -20.8260    6.7360   27.5000 O.2       1 VAL        -0.3944
     46 CB        -22.4530    4.4640   26.3600 C.3       1 VAL        -0.0063
     47 CG1       -23.5690    3.8370   25.5210 C.3       1 VAL        -0.0584
     48 CG2       -21.4300    3.4310   26.7970 C.3       1 VAL        -0.0584
     49 N         -19.3590    5.8860   25.9990 N.am      1 GLY        -0.2664
     50 CA        -18.1600    6.2790   26.7410 C.3       1 GLY         0.1201
     51 C         -17.5510    7.6130   26.3210 C.2       1 GLY         0.2005
     52 O         -16.6310    8.1130   26.9820 O.2       1 GLY        -0.3947
     53 N         -18.0550    8.1690   25.2140 N.am      1 GLY        -0.2666
     54 CA        -17.5530    9.4410   24.6610 C.3       1 GLY         0.1201
     55 C         -17.9650    9.8160   23.2310 C.2       1 GLY         0.2008
     56 O         -18.5490    9.0200   22.5060 O.2       1 GLY        -0.3947
     57 N         -17.6650   11.0560   22.8480 N.am      1 VAL        -0.2637
     58 CA        -17.9210   11.5570   21.5090 C.3       1 VAL         0.1332
     59 C         -16.6790   12.0680   20.7700 C.2       1 VAL         0.2036
     60 O         -16.7280   12.2450   19.5420 O.2       1 VAL        -0.3944
     61 CB        -18.9690   12.6860   21.5300 C.3       1 VAL        -0.0063
     62 CG1       -20.3740   12.1200   21.8410 C.3       1 VAL        -0.0584
     63 CG2       -18.5620   13.7670   22.5060 C.3       1 VAL        -0.0584
     64 N         -15.5710   12.2850   21.4880 N.am      1 VAL        -0.2692
     65 CA        -14.3860   12.9820   20.9140 C.3       1 VAL         0.0967
     66 C         -13.6350   12.2290   19.7820 C.2       1 VAL         0.0603
     67 O         -13.3410   12.7940   18.7190 O.co2     1 VAL        -0.5666
     68 CB        -13.3350   13.3540   22.0110 C.3       1 VAL        -0.0118
     69 CG1       -12.2030   14.1560   21.3930 C.3       1 VAL        -0.0590
     70 CG2       -13.9700   14.1330   23.1450 C.3       1 VAL        -0.0590
     71 OXT       -13.2610   11.0530   19.8900 O.co2     1 VAL        -0.5666
     72 H1        -28.8761   -2.2915   12.6409 H         1 ALA         0.2015
     73 H2        -29.1716   -1.3752   13.9760 H         1 ALA         0.2015
     74 H3        -29.0109   -3.0073   14.1170 H         1 ALA         0.2015
     75 H4        -26.7302   -2.9469   13.4940 H         1 ALA         0.1095
     76 H5        -25.5904   -0.7631   13.1584 H         1 ALA         0.0310
     77 H6        -27.1780    0.0698   13.2691 H         1 ALA         0.0310
     78 H7        -26.8556   -1.0736   11.9217 H         1 ALA         0.0310
     79 H8        -25.3414   -0.6034   15.0136 H         1 ILE         0.1885
     80 H9        -25.2373   -2.5200   17.2277 H         1 ILE         0.0803
     81 H10       -23.4042   -0.1484   16.6000 H         1 ILE         0.0345
     82 H11       -23.5850   -2.0425   14.8957 H         1 ILE         0.0267
     83 H12       -22.9395   -3.1350   16.1671 H         1 ILE         0.0267
     84 H13       -23.3437   -0.8080   18.9815 H         1 ILE         0.0235
     85 H14       -21.8200   -1.2388   18.1334 H         1 ILE         0.0235
     86 H15       -23.0349   -2.5105   18.4990 H         1 ILE         0.0235
     87 H16       -21.1706   -2.4153   14.6185 H         1 ILE         0.0230
     88 H17       -20.8737   -1.7884   16.2754 H         1 ILE         0.0230
     89 H18       -21.5193   -0.6959   15.0040 H         1 ILE         0.0230
     90 H19       -26.0351   -2.3468   19.1830 H         1 ILE         0.1883
     91 H20       -27.1419    0.2018   20.1378 H         1 ILE         0.0803
     92 H21       -27.0752   -2.6250   21.3070 H         1 ILE         0.0345
     93 H22       -28.6850   -1.9299   19.4412 H         1 ILE         0.0267
     94 H23       -29.4742   -0.8750   20.6623 H         1 ILE         0.0267
     95 H24       -26.7893   -1.0054   23.1977 H         1 ILE         0.0235
     96 H25       -28.3860   -1.8262   23.2541 H         1 ILE         0.0235
     97 H26       -28.2665   -0.1336   22.6646 H         1 ILE         0.0235
     98 H27       -30.6408   -3.0240   20.4436 H         1 ILE         0.0230
     99 H28       -29.9151   -2.8421   22.0767 H         1 ILE         0.0230
    100 H29       -29.1259   -3.8970   20.8555 H         1 ILE         0.0230
    101 H30       -26.3181    1.4711   21.7553 H         1 GLY         0.1881
    102 H31       -24.5568    0.6073   23.8002 H         1 GLY         0.0763
    103 H32       -24.8772    2.3149   23.3442 H         1 GLY         0.0763
    104 H33       -23.8266    2.4036   20.8130 H         1 LEU         0.1883
    105 H34       -21.1796    1.1550   20.7029 H         1 LEU         0.0800
    106 H35       -22.6179    3.0819   18.8350 H         1 LEU         0.0315
    107 H36       -22.6132    1.2889   18.7251 H         1 LEU         0.0315
    108 H37       -20.3127    3.1823   18.1659 H         1 LEU         0.0298
    109 H38       -19.0477    1.1786   17.4784 H         1 LEU         0.0232
    110 H39       -20.3836    0.1359   18.0739 H         1 LEU         0.0232
    111 H40       -19.4548    1.1521   19.2278 H         1 LEU         0.0232
    112 H41       -22.0980    3.0765   16.4156 H         1 LEU         0.0232
    113 H42       -21.9027    1.2927   16.3359 H         1 LEU         0.0232
    114 H43       -20.5513    2.3672   15.8400 H         1 LEU         0.0232
    115 H44       -22.4855    4.1578   21.7649 H         1 MET         0.1883
    116 H45       -19.7875    5.3880   21.9273 H         1 MET         0.0800
    117 H46       -20.8147    7.5799   21.1869 H         1 MET         0.0320
    118 H47       -22.2770    6.6601   20.6946 H         1 MET         0.0320
    119 H48       -21.1345    6.9389   18.7006 H         1 MET         0.0378
    120 H49       -20.6380    5.2926   19.2202 H         1 MET         0.0378
    121 H50       -17.5229    7.2974   17.4153 H         1 MET         0.0340
    122 H51       -19.2471    7.7424   17.1793 H         1 MET         0.0340
    123 H52       -18.7505    6.0167   17.1331 H         1 MET         0.0340
    124 H53       -21.0946    4.2623   24.0804 H         1 VAL         0.1883
    125 H54       -22.4895    6.4412   25.4752 H         1 VAL         0.0802
    126 H55       -22.9119    4.8866   27.2660 H         1 VAL         0.0343
    127 H56       -24.0405    3.0214   26.0889 H         1 VAL         0.0234
    128 H57       -23.1457    3.4371   24.5878 H         1 VAL         0.0234
    129 H58       -24.3230    4.6019   25.2834 H         1 VAL         0.0234
    130 H59       -20.6475    3.9203   27.3955 H         1 VAL         0.0234
    131 H60       -20.9759    2.9663   25.9094 H         1 VAL         0.0234
    132 H61       -21.9253    2.6579   27.4028 H         1 VAL         0.0234
    133 H62       -19.2493    5.4093   25.1268 H         1 GLY         0.1881
    134 H63       -17.3994    5.4970   26.5996 H         1 GLY         0.0763
    135 H64       -18.4244    6.3450   27.8067 H         1 GLY         0.0763
    136 H65       -18.8032    7.7031   24.7416 H         1 GLY         0.1881
    137 H66       -16.4541    9.3970   24.6841 H         1 GLY         0.0763
    138 H67       -17.9018   10.2465   25.3240 H         1 GLY         0.0763
    139 H68       -17.2434   11.6713   23.5141 H         1 VAL         0.1883
    140 H69       -18.3308   10.7189   20.9262 H         1 VAL         0.0802
    141 H70       -19.0044   13.1363   20.5270 H         1 VAL         0.0343
    142 H71       -21.1060   12.9410   21.8513 H         1 VAL         0.0234
    143 H72       -20.3615   11.6276   22.8246 H         1 VAL         0.0234
    144 H73       -20.6540   11.3888   21.0684 H         1 VAL         0.0234
    145 H74       -17.5596   14.1376   22.2455 H         1 VAL         0.0234
    146 H75       -18.5467   13.3539   23.5253 H         1 VAL         0.0234
    147 H76       -19.2835   14.5958   22.4570 H         1 VAL         0.0234
    148 H77       -15.5374   11.9705   22.4367 H         1 VAL         0.1875
    149 H78       -14.7641   13.9194   20.4800 H         1 VAL         0.0729
    150 H79       -12.9201   12.4221   22.4227 H         1 VAL         0.0336
    151 H80       -11.4688   14.4133   22.1707 H         1 VAL         0.0234
    152 H81       -12.6064   15.0785   20.9500 H         1 VAL         0.0234
    153 H82       -11.7138   13.5571   20.6107 H         1 VAL         0.0234
    154 H83       -14.7874   13.5417   23.5834 H         1 VAL         0.0234
    155 H84       -14.3703   15.0820   22.7589 H         1 VAL         0.0234
    156 H85       -13.2134   14.3407   23.9160 H         1 VAL         0.0234
@<TRIPOS>BOND
     1    1    2 1  
     2    2    3 1  
     3    2    5 1  
     4    3    4 2  
     5    3    6 am 
     6    6    7 1  
     7    7    8 1  
     8    7   10 1  
     9    8    9 2  
    10    8   14 am 
    11   10   11 1  
    12   10   12 1  
    13   11   13 1  
    14   14   15 1  
    15   15   16 1  
    16   15   18 1  
    17   16   17 2  
    18   16   22 am 
    19   18   19 1  
    20   18   20 1  
    21   19   21 1  
    22   22   23 1  
    23   23   24 1  
    24   24   25 2  
    25   24   26 am 
    26   26   27 1  
    27   27   28 1  
    28   27   30 1  
    29   28   29 2  
    30   28   34 am 
    31   30   31 1  
    32   31   32 1  
    33   31   33 1  
    34   34   35 1  
    35   35   36 1  
    36   35   38 1  
    37   36   37 2  
    38   36   42 am 
    39   38   39 1  
    40   39   40 1  
    41   40   41 1  
    42   42   43 1  
    43   43   44 1  
    44   43   46 1  
    45   44   45 2  
    46   44   49 am 
    47   46   47 1  
    48   46   48 1  
    49   49   50 1  
    50   50   51 1  
    51   51   52 2  
    52   51   53 am 
    53   53   54 1  
    54   54   55 1  
    55   55   56 2  
    56   55   57 am 
    57   57   58 1  
    58   58   59 1  
    59   58   61 1  
    60   59   60 2  
    61   59   64 am 
    62   61   62 1  
    63   61   63 1  
    64   64   65 1  
    65   65   66 1  
    66   65   68 1  
    67   66   67 ar 
    68   66   71 ar 
    69   68   69 1  
    70   68   70 1  
    71    1   72 1  
    72    1   73 1  
    73    1   74 1  
    74    2   75 1  
    75    5   76 1  
    76    5   77 1  
    77    5   78 1  
    78    6   79 1  
    79    7   80 1  
    80   10   81 1  
    81   11   82 1  
    82   11   83 1  
    83   12   84 1  
    84   12   85 1  
    85   12   86 1  
    86   13   87 1  
    87   13   88 1  
    88   13   89 1  
    89   14   90 1  
    90   15   91 1  
    91   18   92 1  
    92   19   93 1  
    93   19   94 1  
    94   20   95 1  
    95   20   96 1  
    96   20   97 1  
    97   21   98 1  
    98   21   99 1  
    99   21  100 1  
   100   22  101 1  
   101   23  102 1  
   102   23  103 1  
   103   26  104 1  
   104   27  105 1  
   105   30  106 1  
   106   30  107 1  
   107   31  108 1  
   108   32  109 1  
   109   32  110 1  
   110   32  111 1  
   111   33  112 1  
   112   33  113 1  
   113   33  114 1  
   114   34  115 1  
   115   35  116 1  
   116   38  117 1  
   117   38  118 1  
   118   39  119 1  
   119   39  120 1  
   120   41  121 1  
   121   41  122 1  
   122   41  123 1  
   123   42  124 1  
   124   43  125 1  
   125   46  126 1  
   126   47  127 1  
   127   47  128 1  
   128   47  129 1  
   129   48  130 1  
   130   48  131 1  
   131   48  132 1  
   132   49  133 1  
   133   50  134 1  
   134   50  135 1  
   135   53  136 1  
   136   54  137 1  
   137   54  138 1  
   138   57  139 1  
   139   58  140 1  
   140   61  141 1  
   141   62  142 1  
   142   62  143 1  
   143   62  144 1  
   144   63  145 1  
   145   63  146 1  
   146   63  147 1  
   147   64  148 1  
   148   65  149 1  
   149   68  150 1  
   150   69  151 1  
   151   69  152 1  
   152   69  153 1  
   153   70  154 1  
   154   70  155 1  
   155   70  156 1  
@<TRIPOS>SUBSTRUCTURE
     1 ALA         1

