3u0t_ligand
  -I-interpret- 

157156  0  0  0  0  0  0  0  0999 V2000
  -28.6890   -2.1880   13.6260 N   0  3  0  0  0
  -27.2210   -2.0250   13.8390 C   0  0  0  0  0
  -26.8880   -1.8620   15.3460 C   0  0  0  0  0
  -27.6660   -2.2930   16.2070 O   0  0  0  0  0
  -26.6720   -0.8650   12.9860 C   0  0  0  0  0
  -25.7540   -1.2360   15.6690 N   0  0  0  0  0
  -25.0900   -1.4580   16.9820 C   0  0  0  0  0
  -25.6370   -0.6500   18.1630 C   0  0  0  0  0
  -25.6420    0.5780   18.1200 O   0  0  0  0  0
  -23.5660   -1.2000   16.8790 C   0  0  0  0  0
  -22.9500   -2.1010   15.7920 C   0  0  0  0  0
  -22.8950   -1.4570   18.2150 C   0  0  0  0  0
  -21.5300   -1.7240   15.3950 C   0  0  0  0  0
  -26.0670   -1.3480   19.2200 N   0  0  0  0  0
  -26.5860   -0.6990   20.4370 C   0  0  0  0  0
  -25.4310   -0.2920   21.3470 C   0  0  0  0  0
  -24.4590   -1.0290   21.4770 O   0  0  0  0  0
  -27.5460   -1.6330   21.2420 C   0  0  0  0  0
  -28.8850   -1.7920   20.5140 C   0  0  0  0  0
  -27.7630   -1.1110   22.6970 C   0  0  0  0  0
  -29.6970   -2.9690   21.0060 C   0  0  0  0  0
  -25.5420    0.8790   21.9720 N   0  0  0  0  0
  -24.5600    1.3300   22.9710 C   0  0  0  0  0
  -23.1330    1.4570   22.4440 C   0  0  0  0  0
  -22.1680    1.0810   23.1280 O   0  0  0  0  0
  -23.0110    2.0130   21.2400 N   0  0  0  0  0
  -21.7380    2.0820   20.5060 C   0  0  0  0  0
  -20.8710    3.2600   20.9540 C   0  0  0  0  0
  -19.6410    3.2220   20.7740 O   0  0  0  0  0
  -22.0170    2.1740   18.9920 C   0  0  0  0  0
  -20.8510    2.2380   17.9970 C   0  0  0  0  0
  -19.8660    1.0970   18.2090 C   0  0  0  0  0
  -21.3900    2.2440   16.5410 C   0  0  0  0  0
  -21.5170    4.2750   21.5450 N   0  0  0  0  0
  -20.8750    5.5480   21.8850 C   0  0  0  0  0
  -21.3470    6.0710   23.2310 C   0  0  0  0  0
  -21.6960    7.2400   23.3500 O   0  0  0  0  0
  -21.1850    6.6120   20.8180 C   0  0  0  0  0
  -20.5700    6.3660   19.4510 C   0  0  0  0  0
  -18.8390    6.8660   19.3810 S   0  0  0  0  0
  -18.5630    6.9930   17.6040 C   0  0  0  0  0
  -21.3630    5.2120   24.2420 N   0  0  0  0  0
  -21.7640    5.6220   25.5870 C   0  0  0  0  0
  -20.5940    6.1390   26.4410 C   0  0  0  0  0
  -20.8260    6.7360   27.5000 O   0  0  0  0  0
  -22.4530    4.4640   26.3600 C   0  0  0  0  0
  -23.5690    3.8370   25.5210 C   0  0  0  0  0
  -21.4300    3.4310   26.7970 C   0  0  0  0  0
  -19.3590    5.8860   25.9990 N   0  0  0  0  0
  -18.1600    6.2790   26.7410 C   0  0  0  0  0
  -17.5510    7.6130   26.3210 C   0  0  0  0  0
  -16.6310    8.1130   26.9820 O   0  0  0  0  0
  -18.0550    8.1690   25.2140 N   0  0  0  0  0
  -17.5530    9.4410   24.6610 C   0  0  0  0  0
  -17.9650    9.8160   23.2310 C   0  0  0  0  0
  -18.5490    9.0200   22.5060 O   0  0  0  0  0
  -17.6650   11.0560   22.8480 N   0  0  0  0  0
  -17.9210   11.5570   21.5090 C   0  0  0  0  0
  -16.6790   12.0680   20.7700 C   0  0  0  0  0
  -16.7280   12.2450   19.5420 O   0  0  0  0  0
  -18.9690   12.6860   21.5300 C   0  0  0  0  0
  -20.3740   12.1200   21.8410 C   0  0  0  0  0
  -18.5620   13.7670   22.5060 C   0  0  0  0  0
  -15.5710   12.2850   21.4880 N   0  0  0  0  0
  -14.3860   12.9820   20.9140 C   0  0  0  0  0
  -13.6350   12.2290   19.7820 C   0  0  0  0  0
  -13.3410   12.7940   18.7190 O   0  0  0  0  0
  -13.3350   13.3540   22.0110 C   0  0  0  0  0
  -12.2030   14.1560   21.3930 C   0  0  0  0  0
  -13.9700   14.1330   23.1450 C   0  0  0  0  0
  -13.2610   11.0530   19.8900 O   0  0  0  0  0
  -29.0309   -2.9595   14.1989 H   0  0  0  0  0
  -29.1676   -1.3274   13.8920 H   0  0  0  0  0
  -28.8684   -2.3881   12.6420 H   0  0  0  0  0
  -26.7198   -2.9337   13.5055 H   0  0  0  0  0
  -27.1082    0.0737   13.3277 H   0  0  0  0  0
  -25.5877   -0.8218   13.0885 H   0  0  0  0  0
  -26.9331   -1.0292   11.9406 H   0  0  0  0  0
  -25.3331   -0.5908   15.0005 H   0  0  0  0  0
  -25.3134   -2.5019   17.2023 H   0  0  0  0  0
  -23.4057   -0.1571   16.6055 H   0  0  0  0  0
  -23.5697   -1.9977   14.9013 H   0  0  0  0  0
  -22.9114   -3.1119   16.1979 H   0  0  0  0  0
  -23.3185   -0.7911   18.9669 H   0  0  0  0  0
  -23.0612   -2.4930   18.5103 H   0  0  0  0  0
  -21.8248   -1.2709   18.1244 H   0  0  0  0  0
  -21.5207   -0.7051   15.0078 H   0  0  0  0  0
  -20.8808   -1.7882   16.2682 H   0  0  0  0  0
  -21.1750   -2.4096   14.6256 H   0  0  0  0  0
  -26.0345   -2.3668   19.1822 H   0  0  0  0  0
  -27.1479    0.1768   20.1125 H   0  0  0  0  0
  -27.0744   -2.6133   21.3108 H   0  0  0  0  0
  -28.6686   -1.9590   19.4588 H   0  0  0  0  0
  -29.4686   -0.8897   20.6967 H   0  0  0  0  0
  -26.8044   -1.0716   23.2142 H   0  0  0  0  0
  -28.1999   -0.1130   22.6622 H   0  0  0  0  0
  -28.4358   -1.7852   23.2270 H   0  0  0  0  0
  -29.1300   -3.8878   20.8564 H   0  0  0  0  0
  -29.9124   -2.8421   22.0669 H   0  0  0  0  0
  -30.6318   -3.0225   20.4480 H   0  0  0  0  0
  -26.3337    1.4830   21.7509 H   0  0  0  0  0
  -24.5423    0.5801   23.7619 H   0  0  0  0  0
  -24.8693    2.3232   23.2964 H   0  0  0  0  0
  -23.8429    2.4114   20.8045 H   0  0  0  0  0
  -21.1805    1.1718   20.7268 H   0  0  0  0  0
  -22.5323    3.1265   18.8682 H   0  0  0  0  0
  -22.5273    1.2410   18.7527 H   0  0  0  0  0
  -20.3084    3.1667   18.1739 H   0  0  0  0  0
  -19.4593    1.1527   19.2188 H   0  0  0  0  0
  -20.3801    0.1453   18.0749 H   0  0  0  0  0
  -19.0557    1.1789   17.4846 H   0  0  0  0  0
  -21.9626    1.3337   16.3632 H   0  0  0  0  0
  -22.0321    3.1128   16.3962 H   0  0  0  0  0
  -20.5524    2.2896   15.8450 H   0  0  0  0  0
  -22.5048    4.1555   21.7693 H   0  0  0  0  0
  -19.8024    5.3591   21.9297 H   0  0  0  0  0
  -20.7650    7.5492   21.1831 H   0  0  0  0  0
  -22.2659    6.6052   20.6778 H   0  0  0  0  0
  -21.1227    6.9560   18.7199 H   0  0  0  0  0
  -20.6224    5.2972   19.2435 H   0  0  0  0  0
  -18.7491    6.0251   17.1386 H   0  0  0  0  0
  -19.2414    7.7358   17.1844 H   0  0  0  0  0
  -17.5321    7.2946   17.4184 H   0  0  0  0  0
  -21.0893    4.2433   24.0772 H   0  0  0  0  0
  -22.4661    6.4407   25.4291 H   0  0  0  0  0
  -22.9136    4.8730   27.2593 H   0  0  0  0  0
  -24.3154    4.5959   25.2862 H   0  0  0  0  0
  -23.1482    3.4412   24.5967 H   0  0  0  0  0
  -24.0354    3.0290   26.0847 H   0  0  0  0  0
  -20.9303    3.0222   25.9187 H   0  0  0  0  0
  -20.6944    3.9029   27.4484 H   0  0  0  0  0
  -21.9333    2.6287   27.3366 H   0  0  0  0  0
  -19.2471    5.3998   25.1094 H   0  0  0  0  0
  -17.4067    5.5148   26.5496 H   0  0  0  0  0
  -18.4556    6.3826   27.7850 H   0  0  0  0  0
  -18.8181    7.6938   24.7321 H   0  0  0  0  0
  -16.4685    9.3361   24.6318 H   0  0  0  0  0
  -17.9740   10.2195   25.2972 H   0  0  0  0  0
  -17.2350   11.6836   23.5274 H   0  0  0  0  0
  -18.2897   10.6886   20.9630 H   0  0  0  0  0
  -19.0174   13.1419   20.5411 H   0  0  0  0  0
  -20.6503   11.3956   21.0748 H   0  0  0  0  0
  -20.3603   11.6324   22.8158 H   0  0  0  0  0
  -21.0984   12.9344   21.8509 H   0  0  0  0  0
  -18.4799   13.3401   23.5056 H   0  0  0  0  0
  -17.5995   14.1816   22.2064 H   0  0  0  0  0
  -19.3143   14.5558   22.5070 H   0  0  0  0  0
  -15.5367   11.9642   22.4556 H   0  0  0  0  0
  -14.8337   13.8707   20.4691 H   0  0  0  0  0
  -13.6732   13.6946   18.7341 H   0  0  0  0  0
  -12.9370   12.4278   22.4254 H   0  0  0  0  0
  -11.7191   13.5615   20.6181 H   0  0  0  0  0
  -12.6040   15.0697   20.9544 H   0  0  0  0  0
  -11.4762   14.4103   22.1645 H   0  0  0  0  0
  -14.4028   15.0538   22.7539 H   0  0  0  0  0
  -14.7521   13.5294   23.6055 H   0  0  0  0  0
  -13.2103   14.3742   23.8885 H   0  0  0  0  0
  1  2  1  0  0  0
  2  3  1  0  0  0
  2  5  1  0  0  0
  3  4  2  0  0  0
  3  6  1  0  0  0
  6  7  1  0  0  0
  7  8  1  0  0  0
  7 10  1  0  0  0
  8  9  2  0  0  0
  8 14  1  0  0  0
 10 11  1  0  0  0
 10 12  1  0  0  0
 11 13  1  0  0  0
 14 15  1  0  0  0
 15 16  1  0  0  0
 15 18  1  0  0  0
 16 17  2  0  0  0
 16 22  1  0  0  0
 18 19  1  0  0  0
 18 20  1  0  0  0
 19 21  1  0  0  0
 22 23  1  0  0  0
 23 24  1  0  0  0
 24 25  2  0  0  0
 24 26  1  0  0  0
 26 27  1  0  0  0
 27 28  1  0  0  0
 27 30  1  0  0  0
 28 29  2  0  0  0
 28 34  1  0  0  0
 30 31  1  0  0  0
 31 32  1  0  0  0
 31 33  1  0  0  0
 34 35  1  0  0  0
 35 36  1  0  0  0
 35 38  1  0  0  0
 36 37  2  0  0  0
 36 42  1  0  0  0
 38 39  1  0  0  0
 39 40  1  0  0  0
 40 41  1  0  0  0
 42 43  1  0  0  0
 43 44  1  0  0  0
 43 46  1  0  0  0
 44 45  2  0  0  0
 44 49  1  0  0  0
 46 47  1  0  0  0
 46 48  1  0  0  0
 49 50  1  0  0  0
 50 51  1  0  0  0
 51 52  2  0  0  0
 51 53  1  0  0  0
 53 54  1  0  0  0
 54 55  1  0  0  0
 55 56  2  0  0  0
 55 57  1  0  0  0
 57 58  1  0  0  0
 58 59  1  0  0  0
 58 61  1  0  0  0
 59 60  2  0  0  0
 59 64  1  0  0  0
 61 62  1  0  0  0
 61 63  1  0  0  0
 64 65  1  0  0  0
 65 66  1  0  0  0
 65 68  1  0  0  0
 66 67  1  0  0  0
 66 71  2  0  0  0
 68 69  1  0  0  0
 68 70  1  0  0  0
  1 72  1  0  0  0
  1 73  1  0  0  0
  1 74  1  0  0  0
  2 75  1  0  0  0
  5 76  1  0  0  0
  5 77  1  0  0  0
  5 78  1  0  0  0
  6 79  1  0  0  0
  7 80  1  0  0  0
 10 81  1  0  0  0
 11 82  1  0  0  0
 11 83  1  0  0  0
 12 84  1  0  0  0
 12 85  1  0  0  0
 12 86  1  0  0  0
 13 87  1  0  0  0
 13 88  1  0  0  0
 13 89  1  0  0  0
 14 90  1  0  0  0
 15 91  1  0  0  0
 18 92  1  0  0  0
 19 93  1  0  0  0
 19 94  1  0  0  0
 20 95  1  0  0  0
 20 96  1  0  0  0
 20 97  1  0  0  0
 21 98  1  0  0  0
 21 99  1  0  0  0
 21100  1  0  0  0
 22101  1  0  0  0
 23102  1  0  0  0
 23103  1  0  0  0
 26104  1  0  0  0
 27105  1  0  0  0
 30106  1  0  0  0
 30107  1  0  0  0
 31108  1  0  0  0
 32109  1  0  0  0
 32110  1  0  0  0
 32111  1  0  0  0
 33112  1  0  0  0
 33113  1  0  0  0
 33114  1  0  0  0
 34115  1  0  0  0
 35116  1  0  0  0
 38117  1  0  0  0
 38118  1  0  0  0
 39119  1  0  0  0
 39120  1  0  0  0
 41121  1  0  0  0
 41122  1  0  0  0
 41123  1  0  0  0
 42124  1  0  0  0
 43125  1  0  0  0
 46126  1  0  0  0
 47127  1  0  0  0
 47128  1  0  0  0
 47129  1  0  0  0
 48130  1  0  0  0
 48131  1  0  0  0
 48132  1  0  0  0
 49133  1  0  0  0
 50134  1  0  0  0
 50135  1  0  0  0
 53136  1  0  0  0
 54137  1  0  0  0
 54138  1  0  0  0
 57139  1  0  0  0
 58140  1  0  0  0
 61141  1  0  0  0
 62142  1  0  0  0
 62143  1  0  0  0
 62144  1  0  0  0
 63145  1  0  0  0
 63146  1  0  0  0
 63147  1  0  0  0
 64148  1  0  0  0
 65149  1  0  0  0
 67150  1  0  0  0
 68151  1  0  0  0
 69152  1  0  0  0
 69153  1  0  0  0
 69154  1  0  0  0
 70155  1  0  0  0
 70156  1  0  0  0
 70157  1  0  0  0
M  END
$$$$
