5t2b_ligand
  -I-interpret- 

 44 48  0  0  0  0  0  0  0  0999 V2000
   -2.1900  -51.4170   18.6880 C   0  0  0  0  0
   -2.3130  -50.3900   19.5980 C   0  0  0  0  0
   -2.5570  -52.6920   19.0670 C   0  0  0  0  0
   -4.3380  -47.0400   25.8200 C   0  0  0  0  0
   -8.8120  -48.0150   23.8980 C   0  0  0  0  0
   -8.2870  -47.0350   24.7130 C   0  0  0  0  0
   -3.1970  -51.9080   21.2690 C   0  0  0  0  0
   -4.9030  -48.0810   25.1240 C   0  0  0  0  0
   -6.9080  -47.0190   25.1560 C   0  0  0  0  0
   -6.3410  -45.9590   25.8390 C   0  0  0  0  0
   -4.1080  -49.1960   24.6820 C   0  0  0  0  0
   -3.6280  -50.9260   23.5790 C   0  0  0  0  0
   -4.9100  -53.0560   22.7990 C   0  0  0  0  0
   -1.1700  -50.9950   24.2420 C   0  0  0  0  0
   -4.6470  -50.1410   23.8530 N   0  0  0  0  0
  -10.1190  -47.6730   23.6910 N   0  0  0  0  0
   -2.5290  -50.4780   24.2530 N   0  0  0  0  0
   -2.8080  -50.6400   20.8610 C   0  0  0  0  0
   -3.0500  -52.9260   20.3370 C   0  0  0  0  0
   -9.3650  -46.1400   24.9140 C   0  0  0  0  0
   -3.5780  -53.4590   23.3570 C   0  0  0  0  0
   -3.7240  -52.1410   22.6460 C   0  0  0  0  0
   -5.0440  -45.9720   26.1930 N   0  0  0  0  0
  -10.4810  -46.5290   24.2870 N   0  0  0  0  0
   -6.1980  -48.0870   24.7810 N   0  0  0  0  0
   -2.8070  -49.3710   24.9560 N   0  0  0  0  0
   -7.1030  -44.8490   26.2090 N   0  0  0  0  0
   -1.8090  -51.2255   17.6849 H   0  0  0  0  0
   -2.0187  -49.3781   19.3195 H   0  0  0  0  0
   -2.4578  -53.5177   18.3624 H   0  0  0  0  0
   -3.2794  -47.0886   26.0753 H   0  0  0  0  0
   -8.2908  -48.8855   23.4997 H   0  0  0  0  0
   -5.9486  -52.9993   23.1247 H   0  0  0  0  0
   -5.6983  -53.4821   22.1784 H   0  0  0  0  0
   -1.1728  -52.0280   24.5900 H   0  0  0  0  0
   -0.7750  -50.9533   23.2270 H   0  0  0  0  0
   -0.5471  -50.3900   24.9008 H   0  0  0  0  0
   -2.8968  -49.8117   21.5639 H   0  0  0  0  0
   -3.3321  -53.9415   20.6152 H   0  0  0  0  0
   -9.2937  -45.2329   25.5141 H   0  0  0  0  0
   -2.9156  -54.3245   23.3437 H   0  0  0  0  0
   -3.1663  -53.8412   24.2911 H   0  0  0  0  0
   -8.0952  -44.8109   25.9757 H   0  0  0  0  0
   -6.6674  -44.0763   26.7126 H   0  0  0  0  0
  2  1  4  0  0  0
  3  1  4  0  0  0
 18  2  4  0  0  0
 19  3  4  0  0  0
  8  4  4  0  0  0
  4 23  4  0  0  0
  6  5  4  0  0  0
  5 16  4  0  0  0
  9  6  1  0  0  0
  6 20  4  0  0  0
  7 18  4  0  0  0
  7 19  4  0  0  0
 22  7  1  0  0  0
 11  8  1  0  0  0
  8 25  4  0  0  0
  9 10  4  0  0  0
 25  9  4  0  0  0
 23 10  4  0  0  0
 10 27  1  0  0  0
 15 11  4  0  0  0
 11 26  4  0  0  0
 12 15  4  0  0  0
 12 17  4  0  0  0
 22 12  1  0  0  0
 13 21  1  0  0  0
 13 22  1  0  0  0
 17 14  1  0  0  0
 16 24  4  0  0  0
 17 26  4  0  0  0
 20 24  4  0  0  0
 21 22  1  0  0  0
  1 28  1  0  0  0
  2 29  1  0  0  0
  3 30  1  0  0  0
  4 31  1  0  0  0
  5 32  1  0  0  0
 13 33  1  0  0  0
 13 34  1  0  0  0
 14 35  1  0  0  0
 14 36  1  0  0  0
 14 37  1  0  0  0
 18 38  1  0  0  0
 19 39  1  0  0  0
 20 40  1  0  0  0
 21 41  1  0  0  0
 21 42  1  0  0  0
 27 43  1  0  0  0
 27 44  1  0  0  0
M  END
$$$$
