5k8v_ligand
  -I-interpret- 

 41 43  0  0  0  0  0  0  0  0999 V2000
   51.0340   42.1500  126.3190 N   0  0  0  0  0
   50.8430   42.0550  127.6390 C   0  0  0  0  0
   50.6230   40.9640  128.3780 N   0  0  0  0  0
   50.6040   39.8650  127.6160 C   0  0  0  0  0
   50.7890   39.8040  126.2440 C   0  0  0  0  0
   51.0150   41.0220  125.5770 C   0  0  0  0  0
   51.2140   41.1240  124.2600 N   0  0  0  0  0
   50.7060   38.4950  125.7950 N   0  0  0  0  0
   50.4760   37.8060  126.8870 C   0  0  0  0  0
   50.3990   38.5680  128.0230 N   0  0  0  0  0
   50.1390   38.1020  129.3810 C   0  0  0  0  0
   48.8610   37.2750  129.5350 C   0  0  0  0  0
   47.7340   38.1070  129.7890 O   0  0  0  0  0
   49.2290   36.4130  130.7400 C   0  0  0  0  0
   49.0660   37.1070  131.9720 O   0  0  0  0  0
   50.6950   36.1000  130.4680 C   0  0  0  0  0
   51.2090   37.2630  129.7800 O   0  0  0  0  0
   50.9590   34.9020  129.5820 C   0  0  0  0  0
   51.3370   33.6900  130.4080 C   0  0  0  0  0
   51.4980   32.4960  129.5860 N   0  0  0  0  0
   52.6350   31.8600  129.3400 C   0  0  0  0  0
   52.6410   30.7960  128.5580 N   0  0  0  0  0
   53.7700   32.2890  129.8660 N   0  0  0  0  0
   50.8706   42.9967  128.1872 H   0  0  0  0  0
   51.3753   42.0384  123.8379 H   0  0  0  0  0
   51.2046   40.2874  123.6765 H   0  0  0  0  0
   50.3566   36.7226  126.8905 H   0  0  0  0  0
   50.0306   39.0012  129.9875 H   0  0  0  0  0
   48.5712   36.7047  128.6524 H   0  0  0  0  0
   46.9493   37.5617  129.8807 H   0  0  0  0  0
   48.5972   35.5312  130.8466 H   0  0  0  0  0
   49.3081   36.5281  132.6985 H   0  0  0  0  0
   51.1629   35.8638  131.4237 H   0  0  0  0  0
   51.7839   35.1387  128.9099 H   0  0  0  0  0
   50.0523   34.6746  129.0214 H   0  0  0  0  0
   50.5377   33.5042  131.1255 H   0  0  0  0  0
   52.2880   33.8959  130.8993 H   0  0  0  0  0
   50.6543   32.1133  129.1592 H   0  0  0  0  0
   51.7707   30.4632  128.1430 H   0  0  0  0  0
   54.6419   31.7987  129.6667 H   0  0  0  0  0
   53.7735   33.1102  130.4710 H   0  0  0  0  0
  1  2  4  0  0  0
  1  6  4  0  0  0
  2  3  4  0  0  0
  3  4  4  0  0  0
  4  5  4  0  0  0
  4 10  4  0  0  0
  5  6  4  0  0  0
  5  8  4  0  0  0
  6  7  1  0  0  0
  8  9  4  0  0  0
  9 10  4  0  0  0
 10 11  1  0  0  0
 11 12  1  0  0  0
 11 17  1  0  0  0
 12 13  1  0  0  0
 12 14  1  0  0  0
 14 15  1  0  0  0
 14 16  1  0  0  0
 16 17  1  0  0  0
 16 18  1  0  0  0
 18 19  1  0  0  0
 19 20  1  0  0  0
 20 21  1  0  0  0
 21 22  2  0  0  0
 21 23  1  0  0  0
  2 24  1  0  0  0
  7 25  1  0  0  0
  7 26  1  0  0  0
  9 27  1  0  0  0
 11 28  1  0  0  0
 12 29  1  0  0  0
 13 30  1  0  0  0
 14 31  1  0  0  0
 15 32  1  0  0  0
 16 33  1  0  0  0
 18 34  1  0  0  0
 18 35  1  0  0  0
 19 36  1  0  0  0
 19 37  1  0  0  0
 20 38  1  0  0  0
 22 39  1  0  0  0
 23 40  1  0  0  0
 23 41  1  0  0  0
M  END
$$$$
