5lwm_ligand
  -I-interpret- 

 57 61  0  0  0  0  0  0  0  0999 V2000
   40.9140   23.1440   53.7500 C   0  0  0  0  0
   37.1580   22.6460   55.5120 C   0  0  0  0  0
   37.5420   21.5810   56.2560 C   0  0  0  0  0
   38.8690   21.2990   56.0160 N   0  0  0  0  0
   38.9640   25.5610   52.1680 C   0  0  0  0  0
   38.8020   26.5890   51.1690 C   0  0  0  0  0
   38.0080   25.0270   53.0020 N   0  0  0  0  0
   39.5770   27.6450   50.8490 C   0  0  0  0  0
   38.9180   28.3480   49.8160 C   0  0  0  0  0
   37.7880   27.6800   49.5370 C   0  0  0  0  0
   36.7930   28.0610   48.6150 C   0  0  0  0  0
   40.1550   25.0220   52.3210 N   0  0  0  0  0
   36.4250   29.1970   47.9910 C   0  0  0  0  0
   36.6130   30.5330   48.6470 C   0  0  0  0  0
   37.2420   32.8770   48.5990 C   0  0  0  0  0
   37.2210   31.5340   47.9990 N   0  0  0  0  0
   35.3950   28.9940   45.6520 N   0  0  0  0  0
   35.8500   29.1090   46.6900 C   0  0  0  0  0
   36.1240   30.6840   49.7550 O   0  0  0  0  0
   37.9680   31.4520   46.7400 C   0  0  0  0  0
   37.6830   26.5730   50.3500 O   0  0  0  0  0
   39.9830   24.0560   53.2760 C   0  0  0  0  0
   40.6410   22.1770   54.6110 N   0  0  0  0  0
   38.6460   24.0110   53.7600 C   0  0  0  0  0
   38.3120   23.0420   54.7380 C   0  0  0  0  0
   39.3690   22.1690   55.1000 C   0  0  0  0  0
   36.5910   25.4200   53.0870 C   0  0  0  0  0
   36.2290   25.9990   54.4440 C   0  0  0  0  0
   34.7520   26.3950   54.4760 C   0  0  0  0  0
   33.8590   25.2450   54.0910 C   0  0  0  0  0
   34.2100   24.7340   52.7090 C   0  0  0  0  0
   35.6690   24.2930   52.6520 C   0  0  0  0  0
   41.9390   23.2294   53.3893 H   0  0  0  0  0
   36.1728   23.1122   55.4997 H   0  0  0  0  0
   36.8980   21.0301   56.9414 H   0  0  0  0  0
   40.5329   27.9071   51.3024 H   0  0  0  0  0
   39.2632   29.2631   49.3349 H   0  0  0  0  0
   35.9314   27.9664   49.2759 H   0  0  0  0  0
   37.1826   27.5313   47.7457 H   0  0  0  0  0
   36.7034   29.9919   48.6830 H   0  0  0  0  0
   36.2193   33.2276   48.7378 H   0  0  0  0  0
   37.7470   32.8346   49.5640 H   0  0  0  0  0
   37.7752   33.5605   47.9382 H   0  0  0  0  0
   38.8068   30.7665   46.8607 H   0  0  0  0  0
   37.3097   31.0873   45.9515 H   0  0  0  0  0
   38.3408   32.4414   46.4751 H   0  0  0  0  0
   36.4395   26.2321   52.3759 H   0  0  0  0  0
   36.8385   26.8839   54.6271 H   0  0  0  0  0
   36.4124   25.2473   55.2117 H   0  0  0  0  0
   34.5976   27.2039   53.7619 H   0  0  0  0  0
   34.5001   26.7006   55.4915 H   0  0  0  0  0
   32.8244   25.5881   54.0876 H   0  0  0  0  0
   33.9947   24.4374   54.8103 H   0  0  0  0  0
   34.0557   25.5359   51.9870 H   0  0  0  0  0
   33.5742   23.8795   52.4772 H   0  0  0  0  0
   35.8068   23.4467   53.3249 H   0  0  0  0  0
   35.9125   24.0158   51.6263 H   0  0  0  0  0
  1 22  4  0  0  0
 23  1  4  0  0  0
  3  2  4  0  0  0
  2 25  4  0  0  0
  4  3  4  0  0  0
 26  4  4  0  0  0
  5  6  1  0  0  0
  7  5  4  0  0  0
 12  5  4  0  0  0
  6  8  4  0  0  0
  6 21  4  0  0  0
 24  7  4  0  0  0
  7 27  1  0  0  0
  8  9  4  0  0  0
 10  9  4  0  0  0
 10 11  1  0  0  0
 21 10  4  0  0  0
 11 13  1  0  0  0
 22 12  4  0  0  0
 13 14  1  0  0  0
 13 18  1  0  0  0
 14 16  1  0  0  0
 14 19  2  0  0  0
 16 15  1  0  0  0
 16 20  1  0  0  0
 18 17  3  0  0  0
 22 24  4  0  0  0
 23 26  4  0  0  0
 24 25  4  0  0  0
 25 26  4  0  0  0
 27 28  1  0  0  0
 27 32  1  0  0  0
 28 29  1  0  0  0
 29 30  1  0  0  0
 30 31  1  0  0  0
 31 32  1  0  0  0
  1 33  1  0  0  0
  2 34  1  0  0  0
  3 35  1  0  0  0
  8 36  1  0  0  0
  9 37  1  0  0  0
 11 38  1  0  0  0
 11 39  1  0  0  0
 13 40  1  0  0  0
 15 41  1  0  0  0
 15 42  1  0  0  0
 15 43  1  0  0  0
 20 44  1  0  0  0
 20 45  1  0  0  0
 20 46  1  0  0  0
 27 47  1  0  0  0
 28 48  1  0  0  0
 28 49  1  0  0  0
 29 50  1  0  0  0
 29 51  1  0  0  0
 30 52  1  0  0  0
 30 53  1  0  0  0
 31 54  1  0  0  0
 31 55  1  0  0  0
 32 56  1  0  0  0
 32 57  1  0  0  0
M  END
$$$$
