3arx_ligand
  -I-interpret- 

 44 45  0  0  0  0  0  0  0  0999 V2000
   18.6050  -11.0460   19.5070 N   0  0  0  0  0
   17.7710  -10.1930   20.1530 C   0  0  0  0  0
   18.2430   -9.6350   21.3400 C   0  0  0  0  0
   19.4970   -9.8800   21.8250 C   0  0  0  0  0
   20.3340  -10.7510   21.2020 N   0  0  0  0  0
   19.9000  -11.3380   20.0300 C   0  0  0  0  0
   17.7600   -8.7540   22.2020 N   0  0  0  0  0
   18.7130   -8.5680   23.2450 C   0  0  0  0  0
   19.7830   -9.2180   23.0080 N   0  0  0  0  0
   18.1300  -11.7040   18.2110 C   0  0  0  0  0
   17.3990  -13.0380   18.5360 C   0  0  0  0  0
   17.4380  -14.1100   17.3390 C   0  0  0  0  0
   16.8140  -13.2980   16.1610 C   0  0  0  0  0
   16.6410  -14.1580   14.9440 C   0  0  0  0  0
   16.8370  -15.5300   15.0160 C   0  0  0  0  0
   16.1210  -13.6430   13.8760 O   0  0  0  0  0
   16.6050  -10.0590   19.7440 O   0  0  0  0  0
   20.6550  -12.1120   19.4180 O   0  0  0  0  0
   21.6680  -10.9920   21.8710 C   0  0  0  0  0
   16.4580   -8.1840   22.0690 C   0  0  0  0  0
   15.3960   -8.9200   22.8640 C   0  0  0  0  0
   13.9460   -8.3970   22.8470 C   0  0  0  0  0
   18.5484   -7.9513   24.1286 H   0  0  0  0  0
   18.9905  -11.9099   17.5744 H   0  0  0  0  0
   17.4431  -11.0324   17.6960 H   0  0  0  0  0
   16.3523  -12.7973   18.7218 H   0  0  0  0  0
   17.9070  -13.4865   19.3897 H   0  0  0  0  0
   16.8989  -15.0302   17.5641 H   0  0  0  0  0
   18.4393  -14.4838   17.1248 H   0  0  0  0  0
   17.4824  -12.4734   15.9132 H   0  0  0  0  0
   15.8355  -12.9307   16.4704 H   0  0  0  0  0
   15.8786  -16.0386   14.9114 H   0  0  0  0  0
   17.5053  -15.8429   14.2138 H   0  0  0  0  0
   17.2804  -15.7823   15.9792 H   0  0  0  0  0
   21.7605  -12.0481   22.1243 H   0  0  0  0  0
   22.4708  -10.7086   21.1903 H   0  0  0  0  0
   21.7312  -10.3924   22.7791 H   0  0  0  0  0
   16.1798   -8.2406   21.0166 H   0  0  0  0  0
   16.5051   -7.1633   22.4486 H   0  0  0  0  0
   15.7129   -8.8300   23.9030 H   0  0  0  0  0
   15.3414   -9.9086   22.4082 H   0  0  0  0  0
   13.9232   -7.3802   23.2390 H   0  0  0  0  0
   13.5714   -8.4016   21.8234 H   0  0  0  0  0
   13.3217   -9.0407   23.4666 H   0  0  0  0  0
  1  2  1  0  0  0
  1  6  1  0  0  0
  1 10  1  0  0  0
  2  3  1  0  0  0
  2 17  2  0  0  0
  3  4  4  0  0  0
  3  7  4  0  0  0
  4  5  1  0  0  0
  4  9  4  0  0  0
  5  6  1  0  0  0
  5 19  1  0  0  0
  6 18  2  0  0  0
  7  8  4  0  0  0
  7 20  1  0  0  0
  8  9  4  0  0  0
 10 11  1  0  0  0
 11 12  1  0  0  0
 12 13  1  0  0  0
 13 14  1  0  0  0
 14 15  1  0  0  0
 14 16  2  0  0  0
 20 21  1  0  0  0
 21 22  1  0  0  0
  8 23  1  0  0  0
 10 24  1  0  0  0
 10 25  1  0  0  0
 11 26  1  0  0  0
 11 27  1  0  0  0
 12 28  1  0  0  0
 12 29  1  0  0  0
 13 30  1  0  0  0
 13 31  1  0  0  0
 15 32  1  0  0  0
 15 33  1  0  0  0
 15 34  1  0  0  0
 19 35  1  0  0  0
 19 36  1  0  0  0
 19 37  1  0  0  0
 20 38  1  0  0  0
 20 39  1  0  0  0
 21 40  1  0  0  0
 21 41  1  0  0  0
 22 42  1  0  0  0
 22 43  1  0  0  0
 22 44  1  0  0  0
M  END
$$$$
