### 
### Created by X-TOOL on Mon Sep 10 21:13:05 2018
### 

@<TRIPOS>MOLECULE
2l11_ligand
  240   239     1     0     0
SMALL
GAST_HUCK


@<TRIPOS>ATOM
      1 N          14.6370    3.0670  -19.4190 N.4       1 ALA         0.2377
      2 CA         14.9500    4.5180  -19.4260 C.3       1 ALA         0.0621
      3 C          14.4490    5.2030  -18.1410 C.2       1 ALA         0.2264
      4 O          14.9700    6.2520  -17.7450 O.2       1 ALA        -0.3907
      5 CB         14.3680    5.1840  -20.6830 C.3       1 ALA        -0.0040
      6 N          13.4280    4.6070  -17.5020 N.am      1 ARG        -0.2610
      7 CA         12.8390    5.1240  -16.2540 C.3       1 ARG         0.1312
      8 C          13.4360    4.3950  -15.0410 C.2       1 ARG         0.2040
      9 O          13.1150    3.2300  -14.7750 O.2       1 ARG        -0.3944
     10 CB         11.2970    4.9720  -16.3030 C.3       1 ARG        -0.0092
     11 CG         10.6310    5.7240  -17.4790 C.3       1 ARG        -0.0156
     12 CD         10.9610    7.2290  -17.4800 C.3       1 ARG         0.0627
     13 NE         10.3320    7.9380  -18.6070 N.pl3     1 ARG        -0.2723
     14 CZ          9.7420    9.1380  -18.5300 C.cat     1 ARG         0.2882
     15 NH1         9.5890    9.7600  -17.3560 N.pl3     1 ARG        -0.2849
     16 NH2         9.2790    9.6980  -19.6340 N.pl3     1 ARG        -0.2849
     17 N          14.3380    5.0930  -14.3410 N.am      1 THR        -0.2613
     18 CA         15.0320    4.5740  -13.1590 C.3       1 THR         0.1565
     19 C          14.1800    4.8000  -11.8970 C.2       1 THR         0.2065
     20 O          14.2770    5.8400  -11.2330 O.2       1 THR        -0.3943
     21 CB         16.4520    5.2250  -13.0160 C.3       1 THR         0.0924
     22 OG1        16.3440    6.6670  -12.9790 O.3       1 THR        -0.3874
     23 CG2        17.3710    4.8150  -14.1780 C.3       1 THR        -0.0346
     24 N          13.2840    3.8400  -11.6200 N.am      1 LYS        -0.2637
     25 CA         12.4500    3.8430  -10.4130 C.3       1 LYS         0.1310
     26 C          13.0420    2.8990   -9.3660 C.2       1 LYS         0.2039
     27 O          13.3810    1.7470   -9.6710 O.2       1 LYS        -0.3944
     28 CB         10.9950    3.4250  -10.7370 C.3       1 LYS        -0.0122
     29 CG         10.2120    4.4440  -11.5900 C.3       1 LYS        -0.0440
     30 CD          8.7230    4.0550  -11.7330 C.3       1 LYS        -0.0124
     31 CE          7.9070    5.0890  -12.5190 C.3       1 LYS        -0.0354
     32 NZ          6.4730    4.7080  -12.6310 N.4       1 LYS         0.2185
     33 N          13.1670    3.3970   -8.1390 N.am      1 GLN        -0.2636
     34 CA         13.5980    2.6220   -6.9760 C.3       1 GLN         0.1330
     35 C          12.5200    2.7240   -5.8920 C.2       1 GLN         0.2041
     36 O          11.9650    3.8020   -5.6670 O.2       1 GLN        -0.3944
     37 CB         14.9580    3.1540   -6.4660 C.3       1 GLN         0.0045
     38 CG         16.1630    2.8850   -7.3970 C.3       1 GLN         0.0412
     39 CD         16.5450    1.4050   -7.4800 C.2       1 GLN         0.1737
     40 OE1        17.3540    0.9160   -6.6870 O.2       1 GLN        -0.3973
     41 NE2        15.9680    0.6790   -8.4310 N.am      1 GLN        -0.3009
     42 N          12.2170    1.6010   -5.2310 N.am      1 THR        -0.2613
     43 CA         11.1390    1.5140   -4.2360 C.3       1 THR         0.1565
     44 C          11.6890    1.6510   -2.8060 C.2       1 THR         0.2065
     45 O          12.8250    1.2470   -2.5160 O.2       1 THR        -0.3943
     46 CB         10.3590    0.1680   -4.4030 C.3       1 THR         0.0924
     47 OG1        11.2840   -0.9340   -4.4310 O.3       1 THR        -0.3874
     48 CG2         9.5160    0.1470   -5.6930 C.3       1 THR        -0.0346
     49 N          10.8680    2.2510   -1.9260 N.am      1 ALA        -0.2639
     50 CA         11.1730    2.4240   -0.4990 C.3       1 ALA         0.1282
     51 C           9.8730    2.4520    0.3110 C.2       1 ALA         0.2036
     52 O           8.8490    2.9820   -0.1390 O.2       1 ALA        -0.3944
     53 CB         11.9840    3.7040   -0.2590 C.3       1 ALA        -0.0244
     54 N           9.9260    1.8780    1.5120 N.am      1 ARG        -0.2637
     55 CA          8.7800    1.7650    2.4240 C.3       1 ARG         0.1311
     56 C           8.9720    2.7570    3.5810 C.2       1 ARG         0.2039
     57 O          10.0570    2.8120    4.1680 O.2       1 ARG        -0.3944
     58 CB          8.7090    0.3010    2.9400 C.3       1 ARG        -0.0092
     59 CG          8.5400   -0.7580    1.8190 C.3       1 ARG        -0.0156
     60 CD          8.7600   -2.2060    2.3020 C.3       1 ARG         0.0627
     61 NE          7.8820   -2.5670    3.4400 N.pl3     1 ARG        -0.2723
     62 CZ          7.1990   -3.7150    3.5610 C.cat     1 ARG         0.2882
     63 NH1         7.2050   -4.6200    2.5860 N.pl3     1 ARG        -0.2849
     64 NH2         6.5030   -3.9480    4.6600 N.pl3     1 ARG        -0.2849
     65 N           7.9410    3.5620    3.8910 N.am      1 M3L        -0.2637
     66 CA          8.0200    4.5310    4.9920 C.3       1 M3L         0.1310
     67 CB          6.9850    5.6760    4.8280 C.3       1 M3L        -0.0122
     68 CG          7.3240    6.6500    3.6730 C.3       1 M3L        -0.0440
     69 CD          6.4580    7.9330    3.6770 C.3       1 M3L        -0.0123
     70 CE          6.9770    8.9780    2.6560 C.3       1 M3L        -0.0309
     71 NZ          6.2440   10.3320    2.6850 N.4       1 M3L         0.2369
     72 C           7.8780    3.8270    6.3470 C.2       1 M3L         0.2040
     73 O           6.8980    3.1130    6.5960 O.2       1 M3L        -0.3944
     74 CM1         6.9190   11.2850    1.6890 C.3       1 M3L        -0.0418
     75 CM2         4.7800   10.1400    2.2910 C.3       1 M3L        -0.0418
     76 CM3         6.3230   10.9430    4.0830 C.3       1 M3L        -0.0418
     77 N           8.9040    4.0240    7.1910 N.am      1 SER        -0.2616
     78 CA          8.9870    3.4770    8.5420 C.3       1 SER         0.1539
     79 C           8.0010    4.2050    9.4700 C.2       1 SER         0.2063
     80 O           8.3490    5.2030   10.1230 O.2       1 SER        -0.3943
     81 CB         10.4470    3.5880    9.0550 C.3       1 SER         0.0843
     82 OG         10.6150    2.9570   10.3160 O.3       1 SER        -0.3903
     83 N           6.7470    3.7300    9.4560 N.am      1 THR        -0.2613
     84 CA          5.6900    4.2210   10.3310 C.3       1 THR         0.1565
     85 C           5.8730    3.5950   11.7250 C.2       1 THR         0.2063
     86 O           5.3320    2.5240   12.0180 O.2       1 THR        -0.3943
     87 CB          4.2740    3.9120    9.7150 C.3       1 THR         0.0924
     88 OG1         4.1690    2.5210    9.3520 O.3       1 THR        -0.3874
     89 CG2         3.9960    4.7670    8.4660 C.3       1 THR        -0.0346
     90 N           6.7030    4.2540   12.5490 N.am      1 GLY        -0.2663
     91 CA          7.1440    3.7140   13.8370 C.3       1 GLY         0.1201
     92 C           8.5590    3.1530   13.7510 C.2       1 GLY         0.2005
     93 O           9.3200    3.5230   12.8490 O.2       1 GLY        -0.3947
     94 N           8.9000    2.2380   14.6750 N.am      1 GLY        -0.2666
     95 CA         10.2400    1.6530   14.7450 C.3       1 GLY         0.1201
     96 C          10.2720    0.5170   15.7550 C.2       1 GLY         0.2007
     97 O          10.1010    0.7570   16.9570 O.2       1 GLY        -0.3947
     98 N          10.4660   -0.7260   15.2690 N.am      1 LYS        -0.2640
     99 CA         10.4380   -1.9330   16.1170 C.3       1 LYS         0.1309
    100 C          11.7200   -2.0210   16.9760 C.2       1 LYS         0.2033
    101 O          12.7450   -2.5610   16.5420 O.2       1 LYS        -0.3944
    102 CB         10.2540   -3.2090   15.2350 C.3       1 LYS        -0.0122
    103 CG         10.0420   -4.5600   15.9950 C.3       1 LYS        -0.0440
    104 CD          8.6000   -4.7920   16.5480 C.3       1 LYS        -0.0124
    105 CE          8.2510   -3.9660   17.8020 C.3       1 LYS        -0.0354
    106 NZ          6.8880   -4.2620   18.3020 N.4       1 LYS         0.2185
    107 N          11.6630   -1.4070   18.1670 N.am      1 ALA        -0.2698
    108 CA         12.7250   -1.4800   19.1720 C.3       1 ALA         0.0916
    109 C          12.3280   -2.5360   20.2330 C.2       1 ALA         0.0598
    110 O          12.7580   -3.7000   20.1210 O.co2     1 ALA        -0.5666
    111 CB         12.9640   -0.0780   19.7820 C.3       1 ALA        -0.0300
    112 OXT        11.5460   -2.2110   21.1480 O.co2     1 ALA        -0.5666
    113 H          15.0293    2.6398  -18.5799 H         1 ALA         0.2015
    114 H          13.6251    2.9386  -19.4260 H         1 ALA         0.2015
    115 H          15.0423    2.6290  -20.2462 H         1 ALA         0.2015
    116 H          16.0333    4.6357  -19.4513 H         1 ALA         0.1095
    117 H          13.2803    5.1174  -20.6574 H         1 ALA         0.0310
    118 H          14.6686    6.2314  -20.7100 H         1 ALA         0.0310
    119 H          14.7437    4.6739  -21.5700 H         1 ALA         0.0310
    120 H          13.0405    3.7523  -17.9016 H         1 ARG         0.1884
    121 H          13.0756    6.1831  -16.1522 H         1 ARG         0.0800
    122 H          10.8998    5.3955  -15.3805 H         1 ARG         0.0313
    123 H          11.0794    3.9117  -16.4311 H         1 ARG         0.0313
    124 H           9.5510    5.6167  -17.3781 H         1 ARG         0.0301
    125 H          11.0082    5.2965  -18.4080 H         1 ARG         0.0301
    126 H          12.0416    7.3383  -17.5723 H         1 ARG         0.0689
    127 H          10.5795    7.6596  -16.5542 H         1 ARG         0.0689
    128 H          10.3468    7.4792  -19.5179 H         1 ARG         0.2642
    129 H           9.9243    9.3208  -16.4986 H         1 ARG         0.2615
    130 H           9.1370   10.6736  -17.3180 H         1 ARG         0.2615
    131 H           9.3735    9.2167  -20.5283 H         1 ARG         0.2615
    132 H           8.8272   10.6115  -19.5917 H         1 ARG         0.2615
    133 H          14.5551    6.0412  -14.6478 H         1 THR         0.1884
    134 H          15.1747    3.5004  -13.2815 H         1 THR         0.0826
    135 H          16.8861    4.8669  -12.0825 H         1 THR         0.0639
    136 H          15.8032    6.9271  -12.2297 H         1 THR         0.2101
    137 H          17.4839    3.7309  -14.1851 H         1 THR         0.0257
    138 H          16.9312    5.1420  -15.1202 H         1 THR         0.0257
    139 H          18.3473    5.2824  -14.0497 H         1 THR         0.0257
    140 H          13.1776    3.0705  -12.2811 H         1 LYS         0.1883
    141 H          12.4320    4.8582  -10.0167 H         1 LYS         0.0800
    142 H          10.4698    3.3343   -9.7862 H         1 LYS         0.0312
    143 H          11.0491    2.5013  -11.3131 H         1 LYS         0.0312
    144 H          10.6555    4.4680  -12.5854 H         1 LYS         0.0269
    145 H          10.2653    5.4144  -11.0965 H         1 LYS         0.0269
    146 H           8.2990    3.9891  -10.7310 H         1 LYS         0.0317
    147 H           8.6767    3.1118  -12.2773 H         1 LYS         0.0317
    148 H           8.3202    5.1522  -13.5257 H         1 LYS         0.0813
    149 H           7.9644    6.0396  -11.9888 H         1 LYS         0.0813
    150 H           5.9728    5.4228  -13.1595 H         1 LYS         0.1994
    151 H           6.3971    3.8120  -13.1124 H         1 LYS         0.1994
    152 H           6.0695    4.6290  -11.6975 H         1 LYS         0.1994
    153 H          12.9480    4.3835   -8.0001 H         1 GLN         0.1883
    154 H          13.7307    1.5742   -7.2456 H         1 GLN         0.0801
    155 H          15.1649    2.6358   -5.5296 H         1 GLN         0.0337
    156 H          14.8601    4.2367   -6.3867 H         1 GLN         0.0337
    157 H          17.0193    3.4242   -6.9918 H         1 GLN         0.0504
    158 H          15.8841    3.2101   -8.3993 H         1 GLN         0.0504
    159 H          16.1898   -0.3125   -8.5210 H         1 GLN         0.1814
    160 H          15.3031    1.1130   -9.0712 H         1 GLN         0.1814
    161 H          12.7624    0.7618   -5.4278 H         1 THR         0.1884
    162 H          10.4502    2.3416   -4.4055 H         1 THR         0.0826
    163 H           9.6843    0.0762   -3.5519 H         1 THR         0.0639
    164 H          10.7982   -1.7556   -4.5336 H         1 THR         0.2101
    165 H           8.7911    0.9605   -5.6651 H         1 THR         0.0257
    166 H          10.1708    0.2715   -6.5555 H         1 THR         0.0257
    167 H           8.9920   -0.8059   -5.7676 H         1 THR         0.0257
    168 H           9.9772    2.6086   -2.2709 H         1 ALA         0.1883
    169 H          11.7791    1.5797   -0.1705 H         1 ALA         0.0797
    170 H          12.9215    3.6477   -0.8123 H         1 ALA         0.0277
    171 H          11.4102    4.5655   -0.6005 H         1 ALA         0.0277
    172 H          12.1945    3.8050    0.8057 H         1 ALA         0.0277
    173 H          10.8194    1.4923    1.8178 H         1 ARG         0.1883
    174 H           7.8444    2.0039    1.9184 H         1 ARG         0.0800
    175 H           7.8343    0.2289    3.5864 H         1 ARG         0.0313
    176 H           9.6526    0.0902    3.4432 H         1 ARG         0.0313
    177 H           9.2900   -0.5498    1.0560 H         1 ARG         0.0301
    178 H           7.5157   -0.6869    1.4530 H         1 ARG         0.0301
    179 H           9.7941   -2.2950    2.6349 H         1 ARG         0.0689
    180 H           8.5272   -2.8749    1.4735 H         1 ARG         0.0689
    181 H           7.7894   -1.8860    4.1937 H         1 ARG         0.2642
    182 H           7.7340   -4.4456    1.7315 H         1 ARG         0.2615
    183 H           6.6806   -5.4883    2.6929 H         1 ARG         0.2615
    184 H           6.4874   -3.2568    5.4099 H         1 ARG         0.2615
    185 H           5.9814   -4.8190    4.7583 H         1 ARG         0.2615
    186 H           7.0806    3.4982    3.3469 H         1 M3L         0.1883
    187 H           9.0065    4.9933    4.9576 H         1 M3L         0.0800
    188 H           6.9824    6.2518    5.7535 H         1 M3L         0.0312
    189 H           6.0221    5.2186    4.6004 H         1 M3L         0.0312
    190 H           7.1330    6.1275    2.7357 H         1 M3L         0.0269
    191 H           8.3635    6.9547    3.7945 H         1 M3L         0.0269
    192 H           6.5022    8.3742    4.6727 H         1 M3L         0.0317
    193 H           5.4391    7.6606    3.4019 H         1 M3L         0.0317
    194 H           6.8196    8.5551    1.6638 H         1 M3L         0.0815
    195 H           8.0181    9.1772    2.9099 H         1 M3L         0.0815
    196 H           7.9625   11.4244    1.9716 H         1 M3L         0.0778
    197 H           6.8664   10.8585    0.6873 H         1 M3L         0.0778
    198 H           6.4058   12.2465    1.7033 H         1 M3L         0.0778
    199 H           4.7274    9.7237    1.2850 H         1 M3L         0.0778
    200 H           4.3025    9.4571    2.9937 H         1 M3L         0.0778
    201 H           4.2695   11.1028    2.3143 H         1 M3L         0.0778
    202 H           5.8562   10.2678    4.8001 H         1 M3L         0.0778
    203 H           7.3680   11.0958    4.3528 H         1 M3L         0.0778
    204 H           5.8010   11.8999    4.0900 H         1 M3L         0.0778
    205 H           9.6817    4.5975    6.8643 H         1 SER         0.1884
    206 H           8.7088    2.4232    8.5318 H         1 SER         0.0823
    207 H          10.6905    4.6446    9.1666 H         1 SER         0.0606
    208 H          11.1003    3.0938    8.3359 H         1 SER         0.0606
    209 H          10.0371    3.3727   10.9601 H         1 SER         0.2097
    210 H           6.5207    2.9848    8.7973 H         1 THR         0.1884
    211 H           5.7534    5.3047   10.4299 H         1 THR         0.0826
    212 H           3.5380    4.1551   10.4813 H         1 THR         0.0639
    213 H           4.2935    1.9773   10.1333 H         1 THR         0.2101
    214 H           4.0302    5.8227    8.7350 H         1 THR         0.0257
    215 H           4.7523    4.5589    7.7091 H         1 THR         0.0257
    216 H           3.0093    4.5228    8.0724 H         1 THR         0.0257
    217 H           7.0421    5.1731   12.2650 H         1 GLY         0.1881
    218 H           6.4690    2.9074   14.1231 H         1 GLY         0.0763
    219 H           7.1355    4.5198   14.5709 H         1 GLY         0.0763
    220 H           8.1985    1.9401   15.3529 H         1 GLY         0.1881
    221 H          10.9470    2.4226   15.0547 H         1 GLY         0.0763
    222 H          10.5079    1.2622   13.7634 H         1 GLY         0.0763
    223 H          10.6399   -0.8366   14.2700 H         1 LYS         0.1883
    224 H           9.5879   -1.8682   16.7961 H         1 LYS         0.0800
    225 H          11.1803   -3.3222   14.6718 H         1 LYS         0.0312
    226 H           9.3470   -3.0450   14.6532 H         1 LYS         0.0312
    227 H          10.7089   -4.5424   16.8570 H         1 LYS         0.0269
    228 H          10.2338   -5.3569   15.2765 H         1 LYS         0.0269
    229 H           8.5338   -5.8425   16.8312 H         1 LYS         0.0317
    230 H           7.9065   -4.4875   15.7641 H         1 LYS         0.0317
    231 H           8.2941   -2.9097   17.5365 H         1 LYS         0.0813
    232 H           8.9639   -4.2205   18.5863 H         1 LYS         0.0813
    233 H           6.7001   -3.6955   19.1292 H         1 LYS         0.1994
    234 H           6.2058   -4.0427   17.5761 H         1 LYS         0.1994
    235 H           6.8231   -5.2508   18.5437 H         1 LYS         0.1994
    236 H          10.8318   -0.8575   18.3851 H         1 ALA         0.1875
    237 H          13.6684   -1.7924   18.7241 H         1 ALA         0.0723
    238 H          13.2591    0.6144   18.9936 H         1 ALA         0.0270
    239 H          12.0454    0.2740   20.2514 H         1 ALA         0.0270
    240 H          13.7553   -0.1384   20.5292 H         1 ALA         0.0270
@<TRIPOS>BOND
     1    1    2 1  
     2    2    3 1  
     3    2    5 1  
     4    3    4 2  
     5    3    6 am 
     6    6    7 1  
     7    7    8 1  
     8    7   10 1  
     9    8    9 2  
    10    8   17 am 
    11   10   11 1  
    12   11   12 1  
    13   12   13 1  
    14   13   14 ar 
    15   14   15 ar 
    16   14   16 ar 
    17   17   18 1  
    18   18   19 1  
    19   18   21 1  
    20   19   20 2  
    21   19   24 am 
    22   21   22 1  
    23   21   23 1  
    24   24   25 1  
    25   25   26 1  
    26   25   28 1  
    27   26   27 2  
    28   26   33 am 
    29   28   29 1  
    30   29   30 1  
    31   30   31 1  
    32   31   32 1  
    33   33   34 1  
    34   34   35 1  
    35   34   37 1  
    36   35   36 2  
    37   35   42 am 
    38   37   38 1  
    39   38   39 1  
    40   39   40 2  
    41   39   41 am 
    42   42   43 1  
    43   43   44 1  
    44   43   46 1  
    45   44   45 2  
    46   44   49 am 
    47   46   47 1  
    48   46   48 1  
    49   49   50 1  
    50   50   51 1  
    51   50   53 1  
    52   51   52 2  
    53   51   54 am 
    54   54   55 1  
    55   55   56 1  
    56   55   58 1  
    57   56   57 2  
    58   56   65 am 
    59   58   59 1  
    60   59   60 1  
    61   60   61 1  
    62   61   62 ar 
    63   62   63 ar 
    64   62   64 ar 
    65   65   66 1  
    66   66   67 1  
    67   66   72 1  
    68   67   68 1  
    69   68   69 1  
    70   69   70 1  
    71   70   71 1  
    72   71   74 1  
    73   71   75 1  
    74   71   76 1  
    75   72   73 2  
    76   72   77 am 
    77   77   78 1  
    78   78   79 1  
    79   78   81 1  
    80   79   80 2  
    81   79   83 am 
    82   81   82 1  
    83   83   84 1  
    84   84   85 1  
    85   84   87 1  
    86   85   86 2  
    87   85   90 am 
    88   87   88 1  
    89   87   89 1  
    90   90   91 1  
    91   91   92 1  
    92   92   93 2  
    93   92   94 am 
    94   94   95 1  
    95   95   96 1  
    96   96   97 2  
    97   96   98 am 
    98   98   99 1  
    99   99  100 1  
   100   99  102 1  
   101  100  101 2  
   102  100  107 am 
   103  102  103 1  
   104  103  104 1  
   105  104  105 1  
   106  105  106 1  
   107  107  108 1  
   108  108  109 1  
   109  108  111 1  
   110  109  110 ar 
   111  109  112 ar 
   112    1  113 1  
   113    1  114 1  
   114    1  115 1  
   115    2  116 1  
   116    5  117 1  
   117    5  118 1  
   118    5  119 1  
   119    6  120 1  
   120    7  121 1  
   121   10  122 1  
   122   10  123 1  
   123   11  124 1  
   124   11  125 1  
   125   12  126 1  
   126   12  127 1  
   127   13  128 1  
   128   15  129 1  
   129   15  130 1  
   130   16  131 1  
   131   16  132 1  
   132   17  133 1  
   133   18  134 1  
   134   21  135 1  
   135   22  136 1  
   136   23  137 1  
   137   23  138 1  
   138   23  139 1  
   139   24  140 1  
   140   25  141 1  
   141   28  142 1  
   142   28  143 1  
   143   29  144 1  
   144   29  145 1  
   145   30  146 1  
   146   30  147 1  
   147   31  148 1  
   148   31  149 1  
   149   32  150 1  
   150   32  151 1  
   151   32  152 1  
   152   33  153 1  
   153   34  154 1  
   154   37  155 1  
   155   37  156 1  
   156   38  157 1  
   157   38  158 1  
   158   41  159 1  
   159   41  160 1  
   160   42  161 1  
   161   43  162 1  
   162   46  163 1  
   163   47  164 1  
   164   48  165 1  
   165   48  166 1  
   166   48  167 1  
   167   49  168 1  
   168   50  169 1  
   169   53  170 1  
   170   53  171 1  
   171   53  172 1  
   172   54  173 1  
   173   55  174 1  
   174   58  175 1  
   175   58  176 1  
   176   59  177 1  
   177   59  178 1  
   178   60  179 1  
   179   60  180 1  
   180   61  181 1  
   181   63  182 1  
   182   63  183 1  
   183   64  184 1  
   184   64  185 1  
   185   65  186 1  
   186   66  187 1  
   187   67  188 1  
   188   67  189 1  
   189   68  190 1  
   190   68  191 1  
   191   69  192 1  
   192   69  193 1  
   193   70  194 1  
   194   70  195 1  
   195   74  196 1  
   196   74  197 1  
   197   74  198 1  
   198   75  199 1  
   199   75  200 1  
   200   75  201 1  
   201   76  202 1  
   202   76  203 1  
   203   76  204 1  
   204   77  205 1  
   205   78  206 1  
   206   81  207 1  
   207   81  208 1  
   208   82  209 1  
   209   83  210 1  
   210   84  211 1  
   211   87  212 1  
   212   88  213 1  
   213   89  214 1  
   214   89  215 1  
   215   89  216 1  
   216   90  217 1  
   217   91  218 1  
   218   91  219 1  
   219   94  220 1  
   220   95  221 1  
   221   95  222 1  
   222   98  223 1  
   223   99  224 1  
   224  102  225 1  
   225  102  226 1  
   226  103  227 1  
   227  103  228 1  
   228  104  229 1  
   229  104  230 1  
   230  105  231 1  
   231  105  232 1  
   232  106  233 1  
   233  106  234 1  
   234  106  235 1  
   235  107  236 1  
   236  108  237 1  
   237  111  238 1  
   238  111  239 1  
   239  111  240 1  
@<TRIPOS>SUBSTRUCTURE
     1 ALA         1

