2l11_ligand
  -I-interpret- 

239238  0  0  0  0  0  0  0  0999 V2000
   14.6370    3.0670  -19.4190 N   0  3  0  0  0
   14.9500    4.5180  -19.4260 C   0  0  0  0  0
   14.4490    5.2030  -18.1410 C   0  0  0  0  0
   14.9700    6.2520  -17.7450 O   0  0  0  0  0
   14.3680    5.1840  -20.6830 C   0  0  0  0  0
   13.4280    4.6070  -17.5020 N   0  0  0  0  0
   12.8390    5.1240  -16.2540 C   0  0  0  0  0
   13.4360    4.3950  -15.0410 C   0  0  0  0  0
   13.1150    3.2300  -14.7750 O   0  0  0  0  0
   11.2970    4.9720  -16.3030 C   0  0  0  0  0
   10.6310    5.7240  -17.4790 C   0  0  0  0  0
   10.9610    7.2290  -17.4800 C   0  0  0  0  0
   10.3320    7.9380  -18.6070 N   0  0  0  0  0
    9.7420    9.1380  -18.5300 C   0  0  0  0  0
    9.5890    9.7600  -17.3560 N   0  0  0  0  0
    9.2790    9.6980  -19.6340 N   0  0  0  0  0
   14.3380    5.0930  -14.3410 N   0  0  0  0  0
   15.0320    4.5740  -13.1590 C   0  0  0  0  0
   14.1800    4.8000  -11.8970 C   0  0  0  0  0
   14.2770    5.8400  -11.2330 O   0  0  0  0  0
   16.4520    5.2250  -13.0160 C   0  0  0  0  0
   16.3440    6.6670  -12.9790 O   0  0  0  0  0
   17.3710    4.8150  -14.1780 C   0  0  0  0  0
   13.2840    3.8400  -11.6200 N   0  0  0  0  0
   12.4500    3.8430  -10.4130 C   0  0  0  0  0
   13.0420    2.8990   -9.3660 C   0  0  0  0  0
   13.3810    1.7470   -9.6710 O   0  0  0  0  0
   10.9950    3.4250  -10.7370 C   0  0  0  0  0
   10.2120    4.4440  -11.5900 C   0  0  0  0  0
    8.7230    4.0550  -11.7330 C   0  0  0  0  0
    7.9070    5.0890  -12.5190 C   0  0  0  0  0
    6.4730    4.7080  -12.6310 N   0  3  0  0  0
   13.1670    3.3970   -8.1390 N   0  0  0  0  0
   13.5980    2.6220   -6.9760 C   0  0  0  0  0
   12.5200    2.7240   -5.8920 C   0  0  0  0  0
   11.9650    3.8020   -5.6670 O   0  0  0  0  0
   14.9580    3.1540   -6.4660 C   0  0  0  0  0
   16.1630    2.8850   -7.3970 C   0  0  0  0  0
   16.5450    1.4050   -7.4800 C   0  0  0  0  0
   17.3540    0.9160   -6.6870 O   0  0  0  0  0
   15.9680    0.6790   -8.4310 N   0  0  0  0  0
   12.2170    1.6010   -5.2310 N   0  0  0  0  0
   11.1390    1.5140   -4.2360 C   0  0  0  0  0
   11.6890    1.6510   -2.8060 C   0  0  0  0  0
   12.8250    1.2470   -2.5160 O   0  0  0  0  0
   10.3590    0.1680   -4.4030 C   0  0  0  0  0
   11.2840   -0.9340   -4.4310 O   0  0  0  0  0
    9.5160    0.1470   -5.6930 C   0  0  0  0  0
   10.8680    2.2510   -1.9260 N   0  0  0  0  0
   11.1730    2.4240   -0.4990 C   0  0  0  0  0
    9.8730    2.4520    0.3110 C   0  0  0  0  0
    8.8490    2.9820   -0.1390 O   0  0  0  0  0
   11.9840    3.7040   -0.2590 C   0  0  0  0  0
    9.9260    1.8780    1.5120 N   0  0  0  0  0
    8.7800    1.7650    2.4240 C   0  0  0  0  0
    8.9720    2.7570    3.5810 C   0  0  0  0  0
   10.0570    2.8120    4.1680 O   0  0  0  0  0
    8.7090    0.3010    2.9400 C   0  0  0  0  0
    8.5400   -0.7580    1.8190 C   0  0  0  0  0
    8.7600   -2.2060    2.3020 C   0  0  0  0  0
    7.8820   -2.5670    3.4400 N   0  0  0  0  0
    7.1990   -3.7150    3.5610 C   0  0  0  0  0
    7.2050   -4.6200    2.5860 N   0  0  0  0  0
    6.5030   -3.9480    4.6600 N   0  0  0  0  0
    7.9410    3.5620    3.8910 N   0  0  0  0  0
    8.0200    4.5310    4.9920 C   0  0  0  0  0
    6.9850    5.6760    4.8280 C   0  0  0  0  0
    7.3240    6.6500    3.6730 C   0  0  0  0  0
    6.4580    7.9330    3.6770 C   0  0  0  0  0
    6.9770    8.9780    2.6560 C   0  0  0  0  0
    6.2440   10.3320    2.6850 N   0  3  0  0  0
    7.8780    3.8270    6.3470 C   0  0  0  0  0
    6.8980    3.1130    6.5960 O   0  0  0  0  0
    6.9190   11.2850    1.6890 C   0  0  0  0  0
    4.7800   10.1400    2.2910 C   0  0  0  0  0
    6.3230   10.9430    4.0830 C   0  0  0  0  0
    8.9040    4.0240    7.1910 N   0  0  0  0  0
    8.9870    3.4770    8.5420 C   0  0  0  0  0
    8.0010    4.2050    9.4700 C   0  0  0  0  0
    8.3490    5.2030   10.1230 O   0  0  0  0  0
   10.4470    3.5880    9.0550 C   0  0  0  0  0
   10.6150    2.9570   10.3160 O   0  0  0  0  0
    6.7470    3.7300    9.4560 N   0  0  0  0  0
    5.6900    4.2210   10.3310 C   0  0  0  0  0
    5.8730    3.5950   11.7250 C   0  0  0  0  0
    5.3320    2.5240   12.0180 O   0  0  0  0  0
    4.2740    3.9120    9.7150 C   0  0  0  0  0
    4.1690    2.5210    9.3520 O   0  0  0  0  0
    3.9960    4.7670    8.4660 C   0  0  0  0  0
    6.7030    4.2540   12.5490 N   0  0  0  0  0
    7.1440    3.7140   13.8370 C   0  0  0  0  0
    8.5590    3.1530   13.7510 C   0  0  0  0  0
    9.3200    3.5230   12.8490 O   0  0  0  0  0
    8.9000    2.2380   14.6750 N   0  0  0  0  0
   10.2400    1.6530   14.7450 C   0  0  0  0  0
   10.2720    0.5170   15.7550 C   0  0  0  0  0
   10.1010    0.7570   16.9570 O   0  0  0  0  0
   10.4660   -0.7260   15.2690 N   0  0  0  0  0
   10.4380   -1.9330   16.1170 C   0  0  0  0  0
   11.7200   -2.0210   16.9760 C   0  0  0  0  0
   12.7450   -2.5610   16.5420 O   0  0  0  0  0
   10.2540   -3.2090   15.2350 C   0  0  0  0  0
   10.0420   -4.5600   15.9950 C   0  0  0  0  0
    8.6000   -4.7920   16.5480 C   0  0  0  0  0
    8.2510   -3.9660   17.8020 C   0  0  0  0  0
    6.8880   -4.2620   18.3020 N   0  3  0  0  0
   11.6630   -1.4070   18.1670 N   0  0  0  0  0
   12.7250   -1.4800   19.1720 C   0  0  0  0  0
   12.3280   -2.5360   20.2330 C   0  0  0  0  0
   12.7580   -3.7000   20.1210 O   0  0  0  0  0
   12.9640   -0.0780   19.7820 C   0  0  0  0  0
   11.5460   -2.2110   21.1480 O   0  0  0  0  0
   15.0293    2.6398  -18.5799 H   0  0  0  0  0
   13.6251    2.9386  -19.4260 H   0  0  0  0  0
   15.0423    2.6290  -20.2462 H   0  0  0  0  0
   16.0333    4.6357  -19.4513 H   0  0  0  0  0
   13.2803    5.1174  -20.6574 H   0  0  0  0  0
   14.6686    6.2314  -20.7100 H   0  0  0  0  0
   14.7437    4.6739  -21.5700 H   0  0  0  0  0
   13.0405    3.7523  -17.9016 H   0  0  0  0  0
   13.0756    6.1831  -16.1522 H   0  0  0  0  0
   10.8998    5.3955  -15.3805 H   0  0  0  0  0
   11.0794    3.9117  -16.4311 H   0  0  0  0  0
    9.5510    5.6167  -17.3781 H   0  0  0  0  0
   11.0082    5.2965  -18.4080 H   0  0  0  0  0
   12.0416    7.3383  -17.5723 H   0  0  0  0  0
   10.5795    7.6596  -16.5542 H   0  0  0  0  0
   10.3468    7.4792  -19.5179 H   0  0  0  0  0
    9.1165   10.6630  -17.3150 H   0  0  0  0  0
    9.9448    9.3314  -16.5016 H   0  0  0  0  0
    9.3735    9.2167  -20.5283 H   0  0  0  0  0
   14.5551    6.0412  -14.6478 H   0  0  0  0  0
   15.1747    3.5004  -13.2815 H   0  0  0  0  0
   16.8861    4.8669  -12.0825 H   0  0  0  0  0
   17.2198    7.0502  -12.8914 H   0  0  0  0  0
   17.4839    3.7309  -14.1851 H   0  0  0  0  0
   16.9312    5.1420  -15.1202 H   0  0  0  0  0
   18.3473    5.2824  -14.0497 H   0  0  0  0  0
   13.1776    3.0705  -12.2811 H   0  0  0  0  0
   12.4320    4.8582  -10.0167 H   0  0  0  0  0
   10.4698    3.3343   -9.7862 H   0  0  0  0  0
   11.0491    2.5013  -11.3131 H   0  0  0  0  0
   10.6555    4.4680  -12.5854 H   0  0  0  0  0
   10.2653    5.4144  -11.0965 H   0  0  0  0  0
    8.2990    3.9891  -10.7310 H   0  0  0  0  0
    8.6767    3.1118  -12.2773 H   0  0  0  0  0
    8.3202    5.1522  -13.5257 H   0  0  0  0  0
    7.9644    6.0396  -11.9888 H   0  0  0  0  0
    5.9728    5.4228  -13.1595 H   0  0  0  0  0
    6.3971    3.8120  -13.1124 H   0  0  0  0  0
    6.0695    4.6290  -11.6975 H   0  0  0  0  0
   12.9480    4.3835   -8.0001 H   0  0  0  0  0
   13.7307    1.5742   -7.2456 H   0  0  0  0  0
   15.1649    2.6358   -5.5296 H   0  0  0  0  0
   14.8601    4.2367   -6.3867 H   0  0  0  0  0
   17.0193    3.4242   -6.9918 H   0  0  0  0  0
   15.8841    3.2101   -8.3993 H   0  0  0  0  0
   16.1898   -0.3125   -8.5210 H   0  0  0  0  0
   15.3031    1.1130   -9.0712 H   0  0  0  0  0
   12.7624    0.7618   -5.4278 H   0  0  0  0  0
   10.4502    2.3416   -4.4055 H   0  0  0  0  0
    9.6843    0.0762   -3.5519 H   0  0  0  0  0
   10.7982   -1.7556   -4.5336 H   0  0  0  0  0
    8.7911    0.9605   -5.6651 H   0  0  0  0  0
   10.1708    0.2715   -6.5555 H   0  0  0  0  0
    8.9920   -0.8059   -5.7676 H   0  0  0  0  0
    9.9772    2.6086   -2.2709 H   0  0  0  0  0
   11.7791    1.5797   -0.1705 H   0  0  0  0  0
   12.9215    3.6477   -0.8123 H   0  0  0  0  0
   11.4102    4.5655   -0.6005 H   0  0  0  0  0
   12.1945    3.8050    0.8057 H   0  0  0  0  0
   10.8194    1.4923    1.8178 H   0  0  0  0  0
    7.8444    2.0039    1.9184 H   0  0  0  0  0
    7.8343    0.2289    3.5864 H   0  0  0  0  0
    9.6526    0.0902    3.4432 H   0  0  0  0  0
    9.2900   -0.5498    1.0560 H   0  0  0  0  0
    7.5157   -0.6869    1.4530 H   0  0  0  0  0
    9.7941   -2.2950    2.6349 H   0  0  0  0  0
    8.5272   -2.8749    1.4735 H   0  0  0  0  0
    7.7894   -1.8860    4.1937 H   0  0  0  0  0
    6.6752   -5.4854    2.6901 H   0  0  0  0  0
    7.7394   -4.4485    1.7343 H   0  0  0  0  0
    6.4874   -3.2568    5.4099 H   0  0  0  0  0
    7.0806    3.4982    3.3469 H   0  0  0  0  0
    9.0065    4.9933    4.9576 H   0  0  0  0  0
    6.9824    6.2518    5.7535 H   0  0  0  0  0
    6.0221    5.2186    4.6004 H   0  0  0  0  0
    7.1330    6.1275    2.7357 H   0  0  0  0  0
    8.3635    6.9547    3.7945 H   0  0  0  0  0
    6.5022    8.3742    4.6727 H   0  0  0  0  0
    5.4391    7.6606    3.4019 H   0  0  0  0  0
    6.8196    8.5551    1.6638 H   0  0  0  0  0
    8.0181    9.1772    2.9099 H   0  0  0  0  0
    7.9625   11.4244    1.9716 H   0  0  0  0  0
    6.8664   10.8585    0.6873 H   0  0  0  0  0
    6.4058   12.2465    1.7033 H   0  0  0  0  0
    4.7274    9.7237    1.2850 H   0  0  0  0  0
    4.3025    9.4571    2.9937 H   0  0  0  0  0
    4.2695   11.1028    2.3143 H   0  0  0  0  0
    5.8562   10.2678    4.8001 H   0  0  0  0  0
    7.3680   11.0958    4.3528 H   0  0  0  0  0
    5.8010   11.8999    4.0900 H   0  0  0  0  0
    9.6817    4.5975    6.8643 H   0  0  0  0  0
    8.7088    2.4232    8.5318 H   0  0  0  0  0
   10.6905    4.6446    9.1666 H   0  0  0  0  0
   11.1003    3.0938    8.3359 H   0  0  0  0  0
   11.5281    3.0470   10.5985 H   0  0  0  0  0
    6.5207    2.9848    8.7973 H   0  0  0  0  0
    5.7534    5.3047   10.4299 H   0  0  0  0  0
    3.5380    4.1551   10.4813 H   0  0  0  0  0
    3.3004    2.3534    8.9792 H   0  0  0  0  0
    4.0302    5.8227    8.7350 H   0  0  0  0  0
    4.7523    4.5589    7.7091 H   0  0  0  0  0
    3.0093    4.5228    8.0724 H   0  0  0  0  0
    7.0421    5.1731   12.2650 H   0  0  0  0  0
    6.4690    2.9074   14.1231 H   0  0  0  0  0
    7.1355    4.5198   14.5709 H   0  0  0  0  0
    8.1985    1.9401   15.3529 H   0  0  0  0  0
   10.9470    2.4226   15.0547 H   0  0  0  0  0
   10.5079    1.2622   13.7634 H   0  0  0  0  0
   10.6399   -0.8366   14.2700 H   0  0  0  0  0
    9.5879   -1.8682   16.7961 H   0  0  0  0  0
   11.1803   -3.3222   14.6718 H   0  0  0  0  0
    9.3470   -3.0450   14.6532 H   0  0  0  0  0
   10.7089   -4.5424   16.8570 H   0  0  0  0  0
   10.2338   -5.3569   15.2765 H   0  0  0  0  0
    8.5338   -5.8425   16.8312 H   0  0  0  0  0
    7.9065   -4.4875   15.7641 H   0  0  0  0  0
    8.2941   -2.9097   17.5365 H   0  0  0  0  0
    8.9639   -4.2205   18.5863 H   0  0  0  0  0
    6.7001   -3.6955   19.1292 H   0  0  0  0  0
    6.2058   -4.0427   17.5761 H   0  0  0  0  0
    6.8231   -5.2508   18.5437 H   0  0  0  0  0
   10.8318   -0.8575   18.3851 H   0  0  0  0  0
   13.6684   -1.7924   18.7241 H   0  0  0  0  0
   13.2591    0.6144   18.9936 H   0  0  0  0  0
   12.0454    0.2740   20.2514 H   0  0  0  0  0
   13.7553   -0.1384   20.5292 H   0  0  0  0  0
   11.3298   -1.2792   21.0667 H   0  0  0  0  0
  1  2  1  0  0  0
  2  3  1  0  0  0
  2  5  1  0  0  0
  3  4  2  0  0  0
  3  6  1  0  0  0
  6  7  1  0  0  0
  7  8  1  0  0  0
  7 10  1  0  0  0
  8  9  2  0  0  0
  8 17  1  0  0  0
 10 11  1  0  0  0
 11 12  1  0  0  0
 12 13  1  0  0  0
 13 14  1  0  0  0
 14 15  1  0  0  0
 14 16  2  0  0  0
 17 18  1  0  0  0
 18 19  1  0  0  0
 18 21  1  0  0  0
 19 20  2  0  0  0
 19 24  1  0  0  0
 21 22  1  0  0  0
 21 23  1  0  0  0
 24 25  1  0  0  0
 25 26  1  0  0  0
 25 28  1  0  0  0
 26 27  2  0  0  0
 26 33  1  0  0  0
 28 29  1  0  0  0
 29 30  1  0  0  0
 30 31  1  0  0  0
 31 32  1  0  0  0
 33 34  1  0  0  0
 34 35  1  0  0  0
 34 37  1  0  0  0
 35 36  2  0  0  0
 35 42  1  0  0  0
 37 38  1  0  0  0
 38 39  1  0  0  0
 39 40  2  0  0  0
 39 41  1  0  0  0
 42 43  1  0  0  0
 43 44  1  0  0  0
 43 46  1  0  0  0
 44 45  2  0  0  0
 44 49  1  0  0  0
 46 47  1  0  0  0
 46 48  1  0  0  0
 49 50  1  0  0  0
 50 51  1  0  0  0
 50 53  1  0  0  0
 51 52  2  0  0  0
 51 54  1  0  0  0
 54 55  1  0  0  0
 55 56  1  0  0  0
 55 58  1  0  0  0
 56 57  2  0  0  0
 56 65  1  0  0  0
 58 59  1  0  0  0
 59 60  1  0  0  0
 60 61  1  0  0  0
 61 62  1  0  0  0
 62 63  1  0  0  0
 62 64  2  0  0  0
 65 66  1  0  0  0
 66 67  1  0  0  0
 66 72  1  0  0  0
 67 68  1  0  0  0
 68 69  1  0  0  0
 69 70  1  0  0  0
 70 71  1  0  0  0
 71 74  1  0  0  0
 71 75  1  0  0  0
 71 76  1  0  0  0
 72 73  2  0  0  0
 72 77  1  0  0  0
 77 78  1  0  0  0
 78 79  1  0  0  0
 78 81  1  0  0  0
 79 80  2  0  0  0
 79 83  1  0  0  0
 81 82  1  0  0  0
 83 84  1  0  0  0
 84 85  1  0  0  0
 84 87  1  0  0  0
 85 86  2  0  0  0
 85 90  1  0  0  0
 87 88  1  0  0  0
 87 89  1  0  0  0
 90 91  1  0  0  0
 91 92  1  0  0  0
 92 93  2  0  0  0
 92 94  1  0  0  0
 94 95  1  0  0  0
 95 96  1  0  0  0
 96 97  2  0  0  0
 96 98  1  0  0  0
 98 99  1  0  0  0
 99100  1  0  0  0
 99102  1  0  0  0
100101  2  0  0  0
100107  1  0  0  0
102103  1  0  0  0
103104  1  0  0  0
104105  1  0  0  0
105106  1  0  0  0
107108  1  0  0  0
108109  1  0  0  0
108111  1  0  0  0
109110  2  0  0  0
109112  1  0  0  0
  1113  1  0  0  0
  1114  1  0  0  0
  1115  1  0  0  0
  2116  1  0  0  0
  5117  1  0  0  0
  5118  1  0  0  0
  5119  1  0  0  0
  6120  1  0  0  0
  7121  1  0  0  0
 10122  1  0  0  0
 10123  1  0  0  0
 11124  1  0  0  0
 11125  1  0  0  0
 12126  1  0  0  0
 12127  1  0  0  0
 13128  1  0  0  0
 15129  1  0  0  0
 15130  1  0  0  0
 16131  1  0  0  0
 17132  1  0  0  0
 18133  1  0  0  0
 21134  1  0  0  0
 22135  1  0  0  0
 23136  1  0  0  0
 23137  1  0  0  0
 23138  1  0  0  0
 24139  1  0  0  0
 25140  1  0  0  0
 28141  1  0  0  0
 28142  1  0  0  0
 29143  1  0  0  0
 29144  1  0  0  0
 30145  1  0  0  0
 30146  1  0  0  0
 31147  1  0  0  0
 31148  1  0  0  0
 32149  1  0  0  0
 32150  1  0  0  0
 32151  1  0  0  0
 33152  1  0  0  0
 34153  1  0  0  0
 37154  1  0  0  0
 37155  1  0  0  0
 38156  1  0  0  0
 38157  1  0  0  0
 41158  1  0  0  0
 41159  1  0  0  0
 42160  1  0  0  0
 43161  1  0  0  0
 46162  1  0  0  0
 47163  1  0  0  0
 48164  1  0  0  0
 48165  1  0  0  0
 48166  1  0  0  0
 49167  1  0  0  0
 50168  1  0  0  0
 53169  1  0  0  0
 53170  1  0  0  0
 53171  1  0  0  0
 54172  1  0  0  0
 55173  1  0  0  0
 58174  1  0  0  0
 58175  1  0  0  0
 59176  1  0  0  0
 59177  1  0  0  0
 60178  1  0  0  0
 60179  1  0  0  0
 61180  1  0  0  0
 63181  1  0  0  0
 63182  1  0  0  0
 64183  1  0  0  0
 65184  1  0  0  0
 66185  1  0  0  0
 67186  1  0  0  0
 67187  1  0  0  0
 68188  1  0  0  0
 68189  1  0  0  0
 69190  1  0  0  0
 69191  1  0  0  0
 70192  1  0  0  0
 70193  1  0  0  0
 74194  1  0  0  0
 74195  1  0  0  0
 74196  1  0  0  0
 75197  1  0  0  0
 75198  1  0  0  0
 75199  1  0  0  0
 76200  1  0  0  0
 76201  1  0  0  0
 76202  1  0  0  0
 77203  1  0  0  0
 78204  1  0  0  0
 81205  1  0  0  0
 81206  1  0  0  0
 82207  1  0  0  0
 83208  1  0  0  0
 84209  1  0  0  0
 87210  1  0  0  0
 88211  1  0  0  0
 89212  1  0  0  0
 89213  1  0  0  0
 89214  1  0  0  0
 90215  1  0  0  0
 91216  1  0  0  0
 91217  1  0  0  0
 94218  1  0  0  0
 95219  1  0  0  0
 95220  1  0  0  0
 98221  1  0  0  0
 99222  1  0  0  0
102223  1  0  0  0
102224  1  0  0  0
103225  1  0  0  0
103226  1  0  0  0
104227  1  0  0  0
104228  1  0  0  0
105229  1  0  0  0
105230  1  0  0  0
106231  1  0  0  0
106232  1  0  0  0
106233  1  0  0  0
107234  1  0  0  0
108235  1  0  0  0
111236  1  0  0  0
111237  1  0  0  0
111238  1  0  0  0
112239  1  0  0  0
M  END
$$$$
