3fc8_ligand
  -I-interpret- 

 39 40  0  0  0  0  0  0  0  0999 V2000
   21.2200   -2.3560   -7.9650 F   0  0  0  0  0
   21.1810   -1.1600   -8.5630 C   0  0  0  0  0
   21.2000   -1.1490   -9.9590 C   0  0  0  0  0
   21.1510    0.0470  -10.6530 C   0  0  0  0  0
   21.1690    0.0430  -12.0020 F   0  0  0  0  0
   21.0970    1.2400   -9.9270 C   0  0  0  0  0
   21.0980    1.2210   -8.5210 C   0  0  0  0  0
   21.1210    0.0130   -7.7990 C   0  0  0  0  0
   21.1330   -0.0300   -6.3630 C   0  0  0  0  0
   20.1650    0.6540   -5.6100 C   0  0  0  0  0
   22.0610   -0.7330   -5.5650 C   0  0  0  0  0
   22.1000   -0.7980   -4.1120 C   0  0  0  0  0
   23.6320   -1.9410   -3.2100 I   0  0  0  0  0
   21.2140   -0.0970   -3.1990 C   0  0  0  0  0
   21.0660   -0.0590   -1.9720 O   0  0  0  0  0
   20.1730    0.6250   -4.1500 C   0  0  0  0  0
   18.9600    1.4680   -3.6130 C   0  0  0  0  0
   18.0810    2.0320   -4.3060 O   0  0  0  0  0
   18.8540    1.5080   -2.2750 N   0  0  0  0  0
   17.8470    2.1350   -1.4090 C   0  0  0  0  0
   16.6480    1.1860   -1.4740 C   0  0  0  0  0
   15.9400    0.9830   -0.1530 C   0  0  0  0  0
   16.0840    1.7740    0.7700 O   0  0  0  0  0
   15.0680   -0.1700    0.0360 O   0  0  0  0  0
   13.9880   -0.1250    0.9740 C   0  0  0  0  0
   21.2539   -2.0900  -10.5065 H   0  0  0  0  0
   21.0538    2.1927  -10.4548 H   0  0  0  0  0
   21.0805    2.1652   -7.9767 H   0  0  0  0  0
   19.3899    1.2196   -6.1271 H   0  0  0  0  0
   22.8339   -1.2887   -6.0960 H   0  0  0  0  0
   20.9574   -0.0310   -3.7725 H   0  0  0  0  0
   19.5983    1.0208   -1.7759 H   0  0  0  0  0
   17.5916    3.1418   -1.7393 H   0  0  0  0  0
   18.2090    2.2693   -0.3897 H   0  0  0  0  0
   17.0266    0.2130   -1.7870 H   0  0  0  0  0
   15.9257    1.6295   -2.1594 H   0  0  0  0  0
   14.3830    0.0643    1.9721 H   0  0  0  0  0
   13.3004    0.6739    0.6964 H   0  0  0  0  0
   13.4609   -1.0791    0.9653 H   0  0  0  0  0
  1  2  1  0  0  0
  2  3  4  0  0  0
  2  8  4  0  0  0
  3  4  4  0  0  0
  4  5  1  0  0  0
  4  6  4  0  0  0
  6  7  4  0  0  0
  7  8  4  0  0  0
  8  9  1  0  0  0
  9 10  2  0  0  0
  9 11  1  0  0  0
 10 16  1  0  0  0
 11 12  2  0  0  0
 12 13  1  0  0  0
 12 14  1  0  0  0
 14 15  2  0  0  0
 14 16  1  0  0  0
 16 17  1  0  0  0
 17 18  2  0  0  0
 17 19  1  0  0  0
 19 20  1  0  0  0
 20 21  1  0  0  0
 21 22  1  0  0  0
 22 23  2  0  0  0
 22 24  1  0  0  0
 24 25  1  0  0  0
  3 26  1  0  0  0
  6 27  1  0  0  0
  7 28  1  0  0  0
 10 29  1  0  0  0
 11 30  1  0  0  0
 16 31  1  0  0  0
 19 32  1  0  0  0
 20 33  1  0  0  0
 20 34  1  0  0  0
 21 35  1  0  0  0
 21 36  1  0  0  0
 25 37  1  0  0  0
 25 38  1  0  0  0
 25 39  1  0  0  0
M  END
$$$$
