5zbz_ligand
  -I-interpret- 

 40 45  0  0  0  0  0  0  0  0999 V2000
  -15.5170   -5.6180   27.0080 N   0  0  0  0  0
  -21.5240   -3.7530   25.5890 C   0  0  0  0  0
  -20.4680   -4.6890   25.5050 O   0  0  0  0  0
  -19.5820   -2.7260   26.1340 C   0  0  0  0  0
  -20.8860   -2.5120   25.7570 O   0  0  0  0  0
  -19.3320   -4.0650   26.0090 C   0  0  0  0  0
  -10.0500   -5.7890   29.1120 O   0  0  0  0  0
  -18.5950   -1.8060   26.5640 C   0  0  0  0  0
  -11.5880   -7.0740   28.1040 O   0  0  0  0  0
  -17.3440   -2.3510   26.8760 C   0  0  0  0  0
  -17.1020   -3.7280   26.7750 C   0  0  0  0  0
  -18.0970   -4.6030   26.3230 C   0  0  0  0  0
  -16.3490   -1.4690   27.3280 C   0  0  0  0  0
  -15.0980   -1.9540   27.6850 C   0  0  0  0  0
  -15.8150   -4.2520   27.1350 C   0  0  0  0  0
  -14.2960   -6.1230   27.4300 C   0  0  0  0  0
  -13.2710   -5.2090   27.8040 C   0  0  0  0  0
  -13.5410   -3.8820   27.9400 C   0  0  0  0  0
  -14.8240   -3.3610   27.5700 C   0  0  0  0  0
  -12.5850   -3.0770   28.5560 C   0  0  0  0  0
  -11.3460   -3.5860   28.9250 C   0  0  0  0  0
  -11.1150   -4.9460   28.7620 C   0  0  0  0  0
  -12.0470   -5.7590   28.1980 C   0  0  0  0  0
  -10.4910   -7.1130   29.0310 C   0  0  0  0  0
  -16.2090   -6.8820   26.7260 C   0  0  0  0  0
  -22.2023   -3.9770   26.4123 H   0  0  0  0  0
  -22.1547   -3.7697   24.7002 H   0  0  0  0  0
  -18.7972   -0.7381   26.6470 H   0  0  0  0  0
  -17.9051   -5.6712   26.2220 H   0  0  0  0  0
  -16.5592   -0.4018   27.3987 H   0  0  0  0  0
  -14.3290   -1.2731   28.0499 H   0  0  0  0  0
  -13.8976   -6.6583   26.5681 H   0  0  0  0  0
  -14.5198   -6.6844   28.3371 H   0  0  0  0  0
  -12.8132   -2.0293   28.7519 H   0  0  0  0  0
  -10.5737   -2.9337   29.3327 H   0  0  0  0  0
  -10.7930   -7.5020   30.0034 H   0  0  0  0  0
   -9.7006   -7.7860   28.6987 H   0  0  0  0  0
  -16.9729   -7.0536   27.4844 H   0  0  0  0  0
  -16.6769   -6.8271   25.7431 H   0  0  0  0  0
  -15.4891   -7.7003   26.7419 H   0  0  0  0  0
  1 15  1  0  0  0
 16  1  1  0  0  0
  1 25  1  0  0  0
  3  2  1  0  0  0
  5  2  1  0  0  0
  6  3  1  0  0  0
  4  5  1  0  0  0
  6  4  4  0  0  0
  8  4  4  0  0  0
 12  6  4  0  0  0
  7 22  1  0  0  0
 24  7  1  0  0  0
 10  8  4  0  0  0
 23  9  1  0  0  0
  9 24  1  0  0  0
 11 10  4  0  0  0
 10 13  4  0  0  0
 11 12  4  0  0  0
 15 11  4  0  0  0
 14 13  4  0  0  0
 19 14  4  0  0  0
 15 19  4  0  0  0
 17 16  1  0  0  0
 17 18  4  0  0  0
 17 23  4  0  0  0
 18 19  1  0  0  0
 18 20  4  0  0  0
 20 21  4  0  0  0
 21 22  4  0  0  0
 22 23  4  0  0  0
  2 26  1  0  0  0
  2 27  1  0  0  0
  8 28  1  0  0  0
 12 29  1  0  0  0
 13 30  1  0  0  0
 14 31  1  0  0  0
 16 32  1  0  0  0
 16 33  1  0  0  0
 20 34  1  0  0  0
 21 35  1  0  0  0
 24 36  1  0  0  0
 24 37  1  0  0  0
 25 38  1  0  0  0
 25 39  1  0  0  0
 25 40  1  0  0  0
M  END
$$$$
