5w8j_ligand
  -I-interpret- 

 47 50  0  0  0  0  0  0  0  0999 V2000
   40.3210   20.5820   48.4390 C   0  0  0  0  0
   39.5270   19.5210   48.0670 C   0  0  0  0  0
   45.1320   20.9580   49.5360 C   0  0  0  0  0
   45.3590   22.2700   49.1070 C   0  0  0  0  0
   43.1140   22.2650   48.0420 C   0  0  0  0  0
   38.6990   15.5030   46.6650 C   0  0  0  0  0
   39.8790   14.8460   46.8580 C   0  0  0  0  0
   37.4080   14.8570   46.2750 C   0  0  0  0  0
   37.9070   26.8270   44.9340 N   0  0  0  0  0
   39.4580   26.3800   45.1170 S   0  0  0  0  0
   39.9090   25.9530   43.8220 O   0  0  0  0  0
   40.1690   27.4960   45.7150 O   0  0  0  0  0
   39.5590   25.0940   46.2060 C   0  0  0  0  0
   39.0990   23.8340   45.8520 C   0  0  0  0  0
   39.1870   22.7800   46.7520 C   0  0  0  0  0
   39.7340   22.9710   48.0080 C   0  0  0  0  0
   39.8260   21.8640   48.9550 C   0  0  0  0  0
   38.1860   19.4930   48.1200 O   0  0  0  0  0
   40.3810   18.5140   47.6140 N   0  0  0  0  0
   41.6930   18.9010   47.7370 N   0  0  0  0  0
   41.6780   20.1940   48.2160 C   0  0  0  0  0
   42.9260   20.9480   48.4780 C   0  0  0  0  0
   43.9380   20.3200   49.2280 C   0  0  0  0  0
   46.4550   22.8890   49.3760 F   0  0  0  0  0
   44.3480   22.9390   48.3540 C   0  0  0  0  0
   44.5670   24.1430   47.9650 F   0  0  0  0  0
   39.9540   17.2960   47.2430 C   0  0  0  0  0
   38.7750   16.9070   46.9170 N   0  0  0  0  0
   41.1530   15.9880   47.3710 S   0  0  0  0  0
   37.4930   13.6440   46.0650 O   0  0  0  0  0
   36.4060   15.6140   46.2700 O   0  0  0  0  0
   40.1990   24.2320   48.3560 C   0  0  0  0  0
   40.1120   25.2780   47.4660 C   0  0  0  0  0
   45.8944   20.4353   50.1135 H   0  0  0  0  0
   42.3359   22.7741   47.4733 H   0  0  0  0  0
   40.0239   13.7747   46.7187 H   0  0  0  0  0
   37.4630   26.7647   44.0178 H   0  0  0  0  0
   37.3772   27.1700   45.7353 H   0  0  0  0  0
   38.6672   23.6708   44.8646 H   0  0  0  0  0
   38.8218   21.7936   46.4661 H   0  0  0  0  0
   40.5468   22.1783   49.7098 H   0  0  0  0  0
   38.8063   21.6750   49.2905 H   0  0  0  0  0
   37.8722   18.6418   47.8062 H   0  0  0  0  0
   43.7792   19.3001   49.5782 H   0  0  0  0  0
   36.6826   16.5104   46.4738 H   0  0  0  0  0
   40.6361   24.3947   49.3412 H   0  0  0  0  0
   40.4815   26.2623   47.7537 H   0  0  0  0  0
  2  1  4  0  0  0
  1 17  1  0  0  0
 21  1  4  0  0  0
  2 18  1  0  0  0
 19  2  4  0  0  0
  3  4  4  0  0  0
 23  3  4  0  0  0
  4 24  1  0  0  0
 25  4  4  0  0  0
 22  5  4  0  0  0
  5 25  4  0  0  0
  6  7  4  0  0  0
  6  8  1  0  0  0
 28  6  4  0  0  0
  7 29  4  0  0  0
  8 30  2  0  0  0
  8 31  1  0  0  0
 10  9  1  0  0  0
 10 11  2  0  0  0
 10 12  2  0  0  0
 13 10  1  0  0  0
 14 13  4  0  0  0
 13 33  4  0  0  0
 15 14  4  0  0  0
 16 15  4  0  0  0
 17 16  1  0  0  0
 16 32  4  0  0  0
 19 20  4  0  0  0
 27 19  1  0  0  0
 20 21  4  0  0  0
 21 22  1  0  0  0
 22 23  4  0  0  0
 25 26  1  0  0  0
 27 28  4  0  0  0
 27 29  4  0  0  0
 32 33  4  0  0  0
  3 34  1  0  0  0
  5 35  1  0  0  0
  7 36  1  0  0  0
  9 37  1  0  0  0
  9 38  1  0  0  0
 14 39  1  0  0  0
 15 40  1  0  0  0
 17 41  1  0  0  0
 17 42  1  0  0  0
 18 43  1  0  0  0
 23 44  1  0  0  0
 31 45  1  0  0  0
 32 46  1  0  0  0
 33 47  1  0  0  0
M  END
$$$$
