1agm_ligand
  -I-interpret- 

 88 91  0  0  0  0  0  0  0  0999 V2000
   32.9990   20.4720    8.0250 C   0  0  0  0  0
   34.2520   20.3350    8.9340 C   0  0  0  0  0
   33.8790   19.5410   10.2010 C   0  0  0  0  0
   32.8160   20.2990   11.0310 C   0  0  0  0  0
   31.6570   20.7750   10.1590 C   0  0  0  0  0
   30.5110   21.4730   10.8740 C   0  0  0  0  0
   31.8320   20.9610    8.8150 C   0  0  0  0  0
   35.3210   19.6840    8.1870 O   0  0  0  0  0
   35.0670   19.2930   10.9520 O   0  0  0  0  0
   32.3380   19.3820   12.0290 O   0  0  0  0  0
   31.0510   22.6760   11.4800 O   0  0  0  0  0
   31.6500   18.1080    3.4280 C   0  0  0  0  0
   33.1570   18.4000    3.6780 C   0  0  0  0  0
   33.4910   18.2840    5.1820 C   0  0  0  0  0
   32.5430   19.1850    5.9830 C   0  0  0  0  0
   31.0810   18.7360    5.6940 C   0  0  0  0  0
   30.0400   19.6350    6.3750 C   0  0  0  0  0
   32.7980   19.1470    7.4130 N   0  3  0  0  0
   34.0410   17.5150    2.9490 O   0  0  0  0  0
   34.8410   18.6220    5.4600 O   0  0  0  0  0
   30.8430   18.8660    4.3030 O   0  0  0  0  0
   28.3960   13.9480    2.5860 C   0  0  0  0  0
   28.1460   15.4160    2.1230 C   0  0  0  0  0
   29.4980   16.2110    2.0600 C   0  0  0  0  0
   30.1650   16.1320    3.4480 C   0  0  0  0  0
   30.3120   14.6630    3.8850 C   0  0  0  0  0
   30.7570   14.5730    5.3680 C   0  0  0  0  0
   27.4260   15.5580    0.8960 O   0  0  0  0  0
   29.2050   17.5840    1.7190 O   0  0  0  0  0
   31.4100   16.7430    3.5310 O   0  0  0  0  0
   29.0420   14.0310    3.8510 O   0  0  0  0  0
   31.0110   13.2140    5.6280 O   0  0  0  0  0
   29.2450    9.5910   -0.3540 C   0  0  0  0  0
   27.8620   10.2870   -0.2620 C   0  0  0  0  0
   28.0240   11.7470    0.1990 C   0  0  0  0  0
   28.8320   11.8280    1.5050 C   0  0  0  0  0
   30.1500   11.0580    1.3600 C   0  0  0  0  0
   30.9020   10.9260    2.7140 C   0  0  0  0  0
   29.0150    8.2220   -0.5340 O   0  0  0  0  0
   27.1240   10.3120   -1.5130 O   0  0  0  0  0
   26.7720   12.4720    0.3010 O   0  0  0  0  0
   29.1530   13.2260    1.6560 O   0  0  0  0  0
   29.9890    9.7440    0.8480 O   0  0  0  0  0
   32.3110   11.0880    2.4300 O   0  0  0  0  0
   33.1257   21.2150    7.2376 H   0  0  0  0  0
   34.6064   21.3182    9.2437 H   0  0  0  0  0
   33.4337   18.5853    9.9245 H   0  0  0  0  0
   33.2570   21.1883   11.4813 H   0  0  0  0  0
   30.0795   20.8214   11.6338 H   0  0  0  0  0
   29.7154   21.7214   10.1716 H   0  0  0  0  0
   31.0576   21.5098    8.2791 H   0  0  0  0  0
   35.5272   20.2039    7.4068 H   0  0  0  0  0
   35.6988   18.8227   10.4032 H   0  0  0  0  0
   33.0739   19.0890   12.5714 H   0  0  0  0  0
   30.3504   23.1426   11.9416 H   0  0  0  0  0
   31.3843   18.4127    2.4157 H   0  0  0  0  0
   33.3223   19.4157    3.3187 H   0  0  0  0  0
   33.3559   17.2434    5.4769 H   0  0  0  0  0
   32.7093   20.2150    5.6677 H   0  0  0  0  0
   30.9827   17.7161    6.0658 H   0  0  0  0  0
   30.1906   19.6099    7.4543 H   0  0  0  0  0
   30.1535   20.6574    6.0147 H   0  0  0  0  0
   29.0393   19.2738    6.1380 H   0  0  0  0  0
   31.9772   18.7326    7.8545 H   0  0  0  0  0
   33.6587   18.6174    7.5516 H   0  0  0  0  0
   33.8479   17.5736    2.0104 H   0  0  0  0  0
   35.4234   18.0515    4.9531 H   0  0  0  0  0
   27.4557   13.4028    2.6674 H   0  0  0  0  0
   27.4908   15.8404    2.8837 H   0  0  0  0  0
   30.1701   15.7931    1.3105 H   0  0  0  0  0
   29.4989   16.6838    4.1112 H   0  0  0  0  0
   31.0371   14.1985    3.2167 H   0  0  0  0  0
   29.9830   14.9589    6.0314 H   0  0  0  0  0
   31.6469   15.1769    5.5454 H   0  0  0  0  0
   26.6030   15.0668    0.9505 H   0  0  0  0  0
   28.7907   17.6162    0.8536 H   0  0  0  0  0
   31.2911   13.1108    6.5404 H   0  0  0  0  0
   29.8080   10.0366   -1.1741 H   0  0  0  0  0
   27.2977    9.6905    0.4549 H   0  0  0  0  0
   28.5864   12.2493   -0.5881 H   0  0  0  0  0
   28.2747   11.4132    2.3449 H   0  0  0  0  0
   30.7238   11.6543    0.6506 H   0  0  0  0  0
   30.7088    9.9552    3.1704 H   0  0  0  0  0
   30.5607   11.6821    3.4210 H   0  0  0  0  0
   29.8558    7.7627   -0.5947 H   0  0  0  0  0
   27.0043    9.4140   -1.8306 H   0  0  0  0  0
   26.2941   12.4013   -0.5286 H   0  0  0  0  0
   32.8114   11.0125    3.2458 H   0  0  0  0  0
  1 18  1  0  0  0
  1  7  1  0  0  0
  1  2  1  0  0  0
  2  8  1  0  0  0
  2  3  1  0  0  0
  3  9  1  0  0  0
  3  4  1  0  0  0
  4 10  1  0  0  0
  4  5  1  0  0  0
  5  7  2  0  0  0
  5  6  1  0  0  0
  6 11  1  0  0  0
 18 15  1  0  0  0
 15 16  1  0  0  0
 15 14  1  0  0  0
 14 20  1  0  0  0
 14 13  1  0  0  0
 13 19  1  0  0  0
 13 12  1  0  0  0
 12 30  1  0  0  0
 12 21  1  0  0  0
 21 16  1  0  0  0
 16 17  1  0  0  0
 30 25  1  0  0  0
 25 26  1  0  0  0
 25 24  1  0  0  0
 24 29  1  0  0  0
 24 23  1  0  0  0
 23 28  1  0  0  0
 23 22  1  0  0  0
 22 42  1  0  0  0
 22 31  1  0  0  0
 31 26  1  0  0  0
 26 27  1  0  0  0
 27 32  1  0  0  0
 42 36  1  0  0  0
 36 37  1  0  0  0
 36 35  1  0  0  0
 35 41  1  0  0  0
 35 34  1  0  0  0
 34 40  1  0  0  0
 34 33  1  0  0  0
 33 43  1  0  0  0
 33 39  1  0  0  0
 43 37  1  0  0  0
 37 38  1  0  0  0
 38 44  1  0  0  0
  1 45  1  0  0  0
  2 46  1  0  0  0
  3 47  1  0  0  0
  4 48  1  0  0  0
  6 49  1  0  0  0
  6 50  1  0  0  0
  7 51  1  0  0  0
  8 52  1  0  0  0
  9 53  1  0  0  0
 10 54  1  0  0  0
 11 55  1  0  0  0
 12 56  1  0  0  0
 13 57  1  0  0  0
 14 58  1  0  0  0
 15 59  1  0  0  0
 16 60  1  0  0  0
 17 61  1  0  0  0
 17 62  1  0  0  0
 17 63  1  0  0  0
 18 64  1  0  0  0
 18 65  1  0  0  0
 19 66  1  0  0  0
 20 67  1  0  0  0
 22 68  1  0  0  0
 23 69  1  0  0  0
 24 70  1  0  0  0
 25 71  1  0  0  0
 26 72  1  0  0  0
 27 73  1  0  0  0
 27 74  1  0  0  0
 28 75  1  0  0  0
 29 76  1  0  0  0
 32 77  1  0  0  0
 33 78  1  0  0  0
 34 79  1  0  0  0
 35 80  1  0  0  0
 36 81  1  0  0  0
 37 82  1  0  0  0
 38 83  1  0  0  0
 38 84  1  0  0  0
 39 85  1  0  0  0
 40 86  1  0  0  0
 41 87  1  0  0  0
 44 88  1  0  0  0
M  END
$$$$
