4ivt_ligand
  -I-interpret- 

 47 49  0  0  0  0  0  0  0  0999 V2000
   17.7490   19.3990   -2.2120 C   0  0  0  0  0
   18.3920   20.5430   -1.4180 C   0  0  0  0  0
   19.5790   20.5930   -1.1950 O   0  0  0  0  0
   17.5450   21.5880   -0.9140 N   0  0  0  0  0
   18.0730   22.7290   -0.1510 C   0  0  0  0  0
   18.0150   22.7490    1.2390 C   0  0  0  0  0
   18.4940   23.8390    1.9410 C   0  0  0  0  0
   17.3940   21.4190    2.0150 Cl  0  0  0  0  0
   18.6020   23.8030   -0.8090 C   0  0  0  0  0
   18.6870   23.7790   -2.5580 Cl  0  0  0  0  0
   19.0830   24.8880   -0.1430 C   0  0  0  0  0
   19.0110   24.9220    1.2450 C   0  0  0  0  0
   19.6080   26.1770    1.9660 C   0  0  0  0  0
   21.0400   25.9830    1.9610 N   0  0  0  0  0
   21.8280   26.0570    3.1310 C   0  0  0  0  0
   21.3250   26.3430    4.3040 N   0  0  0  0  0
   23.2430   25.8250    3.0630 N   0  0  0  0  0
   23.9070   25.5050    1.8520 C   0  0  0  0  0
   23.3080   25.4160    0.8030 O   0  0  0  0  0
   25.4120   25.2880    1.9690 C   0  0  0  0  0
   26.1090   25.2340    0.7790 N   0  0  0  0  0
   26.1460   24.1160   -0.0450 C   0  0  0  0  0
   25.5440   22.8360    0.0900 C   0  0  0  0  0
   25.7560   21.8430   -0.9300 C   0  0  0  0  0
   26.5290   22.1470   -2.0250 C   0  0  0  0  0
   27.1190   23.4210   -2.1520 C   0  0  0  0  0
   26.9100   24.4150   -1.1290 C   0  0  0  0  0
   27.3580   25.7870   -0.9540 C   0  0  0  0  0
   26.8220   26.2340    0.2530 C   0  0  0  0  0
   18.1812   19.3647   -3.2120 H   0  0  0  0  0
   17.9358   18.4542   -1.7015 H   0  0  0  0  0
   16.6746   19.5679   -2.2847 H   0  0  0  0  0
   16.5419   21.5369   -1.0916 H   0  0  0  0  0
   18.4658   23.8476    3.0306 H   0  0  0  0  0
   19.5202   25.7218   -0.6922 H   0  0  0  0  0
   19.2225   26.2746    2.9809 H   0  0  0  0  0
   19.3290   27.0995    1.4568 H   0  0  0  0  0
   21.5020   25.7839    1.0737 H   0  0  0  0  0
   21.9333   26.3932    5.1213 H   0  0  0  0  0
   25.5454   24.3173    2.4465 H   0  0  0  0  0
   25.8038   26.1462    2.5149 H   0  0  0  0  0
   24.9267   22.6080    0.9589 H   0  0  0  0  0
   25.3058   20.8549   -0.8346 H   0  0  0  0  0
   26.6870   21.3977   -2.8007 H   0  0  0  0  0
   27.7323   23.6542   -3.0224 H   0  0  0  0  0
   27.9907   26.3563   -1.6349 H   0  0  0  0  0
   26.9601   27.2231    0.6897 H   0  0  0  0  0
  1  2  1  0  0  0
  2  3  2  0  0  0
  2  4  1  0  0  0
  4  5  1  0  0  0
  5  6  4  0  0  0
  5  9  4  0  0  0
  6  7  4  0  0  0
  6  8  1  0  0  0
  7 12  4  0  0  0
  9 10  1  0  0  0
  9 11  4  0  0  0
 11 12  4  0  0  0
 12 13  1  0  0  0
 13 14  1  0  0  0
 14 15  1  0  0  0
 15 16  2  0  0  0
 15 17  4  0  0  0
 17 18  1  0  0  0
 18 19  2  0  0  0
 18 20  1  0  0  0
 20 21  1  0  0  0
 21 22  4  0  0  0
 21 29  4  0  0  0
 22 23  4  0  0  0
 22 27  4  0  0  0
 23 24  4  0  0  0
 24 25  4  0  0  0
 25 26  4  0  0  0
 26 27  4  0  0  0
 27 28  4  0  0  0
 28 29  4  0  0  0
  1 30  1  0  0  0
  1 31  1  0  0  0
  1 32  1  0  0  0
  4 33  1  0  0  0
  7 34  1  0  0  0
 11 35  1  0  0  0
 13 36  1  0  0  0
 13 37  1  0  0  0
 14 38  1  0  0  0
 16 39  1  0  0  0
 20 40  1  0  0  0
 20 41  1  0  0  0
 23 42  1  0  0  0
 24 43  1  0  0  0
 25 44  1  0  0  0
 26 45  1  0  0  0
 28 46  1  0  0  0
 29 47  1  0  0  0
M  END
$$$$
