6cnk_ligand
  -I-interpret- 

 27 28  0  0  0  0  0  0  0  0999 V2000
  119.0120  152.6010  171.8280 N   0  0  0  0  0
  119.2280  153.4600  170.8040 C   0  0  0  0  0
  118.1850  154.1090  170.1090 C   0  0  0  0  0
  116.8850  153.8340  170.5170 C   0  0  0  0  0
  116.6370  152.9540  171.5700 C   0  0  0  0  0
  117.7320  152.3560  172.2000 C   0  0  0  0  0
  119.8230  155.6800  169.2010 N   0  3  0  0  0
  118.4690  155.0530  168.9820 C   0  0  0  0  0
  118.6600  154.4520  167.6200 C   0  0  0  0  0
  119.5500  155.3820  166.8290 C   0  0  0  0  0
  120.3860  156.0770  167.8760 C   0  0  0  0  0
  119.4610  156.9090  169.9110 C   0  0  0  0  0
  120.2561  153.6598  170.5020 H   0  0  0  0  0
  116.0486  154.3123  170.0073 H   0  0  0  0  0
  115.6183  152.7387  171.8925 H   0  0  0  0  0
  117.5493  151.6652  173.0231 H   0  0  0  0  0
  120.4935  155.0783  169.6793 H   0  0  0  0  0
  117.5913  155.6993  168.9920 H   0  0  0  0  0
  117.6988  154.3305  167.1206 H   0  0  0  0  0
  119.1178  153.4661  167.7010 H   0  0  0  0  0
  118.9760  156.0868  166.2275 H   0  0  0  0  0
  120.1624  154.8462  166.1037 H   0  0  0  0  0
  121.4335  155.7869  167.7945 H   0  0  0  0  0
  120.3531  157.1588  167.7465 H   0  0  0  0  0
  118.8028  157.5094  169.2830 H   0  0  0  0  0
  118.9475  156.6538  170.8380 H   0  0  0  0  0
  120.3642  157.4751  170.1385 H   0  0  0  0  0
  1  2  4  0  0  0
  1  6  4  0  0  0
  2  3  4  0  0  0
  3  4  4  0  0  0
  3  8  1  0  0  0
  4  5  4  0  0  0
  5  6  4  0  0  0
  8  7  1  0  0  0
  7 11  1  0  0  0
  7 12  1  0  0  0
  8  9  1  0  0  0
  9 10  1  0  0  0
 10 11  1  0  0  0
  2 13  1  0  0  0
  4 14  1  0  0  0
  5 15  1  0  0  0
  6 16  1  0  0  0
  7 17  1  0  0  0
  8 18  1  0  0  0
  9 19  1  0  0  0
  9 20  1  0  0  0
 10 21  1  0  0  0
 10 22  1  0  0  0
 11 23  1  0  0  0
 11 24  1  0  0  0
 12 25  1  0  0  0
 12 26  1  0  0  0
 12 27  1  0  0  0
M  END
$$$$
