### 
### Created by X-TOOL on Mon Sep 10 21:12:50 2018
### 

@<TRIPOS>MOLECULE
1mxo_ligand
   35    36     1     0     0
SMALL
GAST_HUCK


@<TRIPOS>ATOM
      1 CAF        22.0080    4.7220   10.7950 C.2       1 SM2        -0.0791
      2 CAC        20.7600    5.4040   10.9430 C.2       1 SM2        -0.0924
      3 CAB        20.5650    5.9240   12.1790 C.2       1 SM2        -0.0189
      4 SAD        21.8790    5.6140   13.2200 S.3       1 SM2        -0.0419
      5 CAE        22.7380    4.7620   11.9850 C.2       1 SM2         0.0307
      6 CAG        24.1110    4.1630   12.2860 C.3       1 SM2         0.0818
      7 CAH        24.9890    5.2250   12.9510 C.2       1 SM2         0.1904
      8 OAI        25.3250    6.2360   12.3190 O.2       1 SM2        -0.3936
      9 NAJ        25.3560    5.0080   14.2470 N.am      1 SM2        -0.2815
     10 CAK        26.1670    5.9170   15.0590 C.3       1 SM2         0.0855
     11 B          26.7870    5.1490   16.3560 B         1 SM2         0.7343
     12 OAT        25.7820    4.1740   16.9060 O.3       1 SM2        -0.4949
     13 OAO        27.1450    6.1380   17.4150 O.3       1 SM2        -0.4949
     14 CAL        25.2810    7.1340   15.4190 C.ar      1 SM2        -0.0253
     15 CAQ        24.2220    7.0080   16.3390 C.ar      1 SM2        -0.0454
     16 CAM        25.4900    8.3820   14.7510 C.ar      1 SM2        -0.0569
     17 CAN        24.6020    9.4610   15.0120 C.ar      1 SM2        -0.0649
     18 CAS        23.5310    9.3130   15.9330 C.ar      1 SM2        -0.0545
     19 CAR        23.3420    8.0750   16.6030 C.ar      1 SM2         0.0035
     20 CAU        22.2260    7.8620   17.5950 C.2       1 SM2         0.0613
     21 OAW        21.1330    7.3920   17.1530 O.co2     1 SM2        -0.5607
     22 OAV        22.4800    8.1360   18.7930 O.co2     1 SM2        -0.5607
     23 H1         22.3435    4.2375    9.8793 H         1 SM2         0.0284
     24 H2         20.0335    5.4969   10.1371 H         1 SM2         0.0373
     25 H3         19.6732    6.4755   12.4730 H         1 SM2         0.0603
     26 H4         24.5812    3.8315   11.3485 H         1 SM2         0.0685
     27 H5         23.9970    3.3035   12.9630 H         1 SM2         0.0685
     28 H6         25.0461    4.1599   14.6768 H         1 SM2         0.1866
     29 H7         27.0115    6.2749   14.4519 H         1 SM2         0.0583
     30 H8         26.1576    3.7206   17.6516 H         1 SM2         0.1668
     31 H9         27.5184    5.6816   18.1598 H         1 SM2         0.1668
     32 H10        24.0809    6.0661   16.8567 H         1 SM2         0.0590
     33 H11        26.3132    8.5029   14.0562 H         1 SM2         0.0578
     34 H12        24.7439   10.4072   14.5024 H         1 SM2         0.0606
     35 H13        22.8598   10.1425   16.1240 H         1 SM2         0.0593
@<TRIPOS>BOND
     1    1    2 1  
     2    1    5 2  
     3    2    3 2  
     4    3    4 1  
     5    4    5 1  
     6    5    6 1  
     7    6    7 1  
     8    7    8 2  
     9    7    9 am 
    10    9   10 1  
    11   10   11 1  
    12   10   14 1  
    13   11   12 1  
    14   11   13 1  
    15   14   15 ar 
    16   14   16 ar 
    17   15   19 ar 
    18   16   17 ar 
    19   17   18 ar 
    20   18   19 ar 
    21   19   20 1  
    22   20   21 ar 
    23   20   22 ar 
    24    1   23 1  
    25    2   24 1  
    26    3   25 1  
    27    6   26 1  
    28    6   27 1  
    29    9   28 1  
    30   10   29 1  
    31   12   30 1  
    32   13   31 1  
    33   15   32 1  
    34   16   33 1  
    35   17   34 1  
    36   18   35 1  
@<TRIPOS>SUBSTRUCTURE
     1 SM2         1

