1mxo_ligand
  -I-interpret- 

 36 37  0  0  0  0  0  0  0  0999 V2000
   22.0080    4.7220   10.7950 C   0  0  0  0  0
   20.7600    5.4040   10.9430 C   0  0  0  0  0
   20.5650    5.9240   12.1790 C   0  0  0  0  0
   21.8790    5.6140   13.2200 S   0  0  0  0  0
   22.7380    4.7620   11.9850 C   0  0  0  0  0
   24.1110    4.1630   12.2860 C   0  0  0  0  0
   24.9890    5.2250   12.9510 C   0  0  0  0  0
   25.3250    6.2360   12.3190 O   0  0  0  0  0
   25.3560    5.0080   14.2470 N   0  0  0  0  0
   26.1670    5.9170   15.0590 C   0  0  0  0  0
   26.7870    5.1490   16.3560 B   0  0  0  0  0
   25.7820    4.1740   16.9060 O   0  0  0  0  0
   27.1450    6.1380   17.4150 O   0  0  0  0  0
   25.2810    7.1340   15.4190 C   0  0  0  0  0
   24.2220    7.0080   16.3390 C   0  0  0  0  0
   25.4900    8.3820   14.7510 C   0  0  0  0  0
   24.6020    9.4610   15.0120 C   0  0  0  0  0
   23.5310    9.3130   15.9330 C   0  0  0  0  0
   23.3420    8.0750   16.6030 C   0  0  0  0  0
   22.2260    7.8620   17.5950 C   0  0  0  0  0
   21.1330    7.3920   17.1530 O   0  0  0  0  0
   22.4800    8.1360   18.7930 O   0  0  0  0  0
   22.3438    4.2370    9.8784 H   0  0  0  0  0
   20.0329    5.4970   10.1363 H   0  0  0  0  0
   19.6723    6.4760   12.4733 H   0  0  0  0  0
   24.5770    3.8322   11.3578 H   0  0  0  0  0
   23.9990    3.3099   12.9551 H   0  0  0  0  0
   25.0399    4.1430   14.6854 H   0  0  0  0  0
   27.0365    6.2735   14.5068 H   0  0  0  0  0
   26.1559    3.7270   17.6689 H   0  0  0  0  0
   27.5088    5.6754   18.1735 H   0  0  0  0  0
   24.0801    6.0609   16.8596 H   0  0  0  0  0
   26.3178    8.5036   14.0524 H   0  0  0  0  0
   24.7447   10.4124   14.4996 H   0  0  0  0  0
   22.8561   10.1471   16.1251 H   0  0  0  0  0
   21.1982    7.2731   16.2026 H   0  0  0  0  0
  1  2  4  0  0  0
  1  5  4  0  0  0
  2  3  4  0  0  0
  3  4  4  0  0  0
  4  5  4  0  0  0
  5  6  1  0  0  0
  6  7  1  0  0  0
  7  8  2  0  0  0
  7  9  1  0  0  0
  9 10  1  0  0  0
 10 11  1  0  0  0
 10 14  1  0  0  0
 11 12  1  0  0  0
 11 13  1  0  0  0
 14 15  4  0  0  0
 14 16  4  0  0  0
 15 19  4  0  0  0
 16 17  4  0  0  0
 17 18  4  0  0  0
 18 19  4  0  0  0
 19 20  1  0  0  0
 20 21  1  0  0  0
 20 22  2  0  0  0
  1 23  1  0  0  0
  2 24  1  0  0  0
  3 25  1  0  0  0
  6 26  1  0  0  0
  6 27  1  0  0  0
  9 28  1  0  0  0
 10 29  1  0  0  0
 12 30  1  0  0  0
 13 31  1  0  0  0
 15 32  1  0  0  0
 16 33  1  0  0  0
 17 34  1  0  0  0
 18 35  1  0  0  0
 21 36  1  0  0  0
M  END
$$$$
