1bap_ligand
  -I-interpret- 

 20 20  0  0  0  0  0  0  0  0999 V2000
   14.3640   56.8380   55.1890 C   0  0  0  0  0
   12.9110   57.1690   54.8300 C   0  0  0  0  0
   12.4400   56.2570   53.7020 C   0  0  0  0  0
   13.3660   56.4000   52.4950 C   0  0  0  0  0
   14.7910   56.1060   52.9230 C   0  0  0  0  0
   14.4030   55.5460   55.7260 O   0  0  0  0  0
   12.0680   57.0900   55.9750 O   0  0  0  0  0
   11.0980   56.5510   53.3130 O   0  0  0  0  0
   13.2490   57.6710   51.8650 O   0  0  0  0  0
   15.1900   56.9680   54.0210 O   0  0  0  0  0
   14.7519   57.5313   55.9352 H   0  0  0  0  0
   12.8552   58.1985   54.4764 H   0  0  0  0  0
   12.4686   55.2317   54.0707 H   0  0  0  0  0
   13.0646   55.6738   51.7401 H   0  0  0  0  0
   15.4551   56.2850   52.0774 H   0  0  0  0  0
   14.8514   55.0685   53.2518 H   0  0  0  0  0
   13.8388   55.5059   56.5016 H   0  0  0  0  0
   12.4007   57.6779   56.6571 H   0  0  0  0  0
   10.5186   56.4604   54.0730 H   0  0  0  0  0
   12.3351   57.8178   51.6104 H   0  0  0  0  0
  1  2  1  0  0  0
  1  6  1  0  0  0
  1 10  1  0  0  0
  2  3  1  0  0  0
  2  7  1  0  0  0
  3  4  1  0  0  0
  3  8  1  0  0  0
  4  5  1  0  0  0
  4  9  1  0  0  0
  5 10  1  0  0  0
  1 11  1  0  0  0
  2 12  1  0  0  0
  3 13  1  0  0  0
  4 14  1  0  0  0
  5 15  1  0  0  0
  5 16  1  0  0  0
  6 17  1  0  0  0
  7 18  1  0  0  0
  8 19  1  0  0  0
  9 20  1  0  0  0
M  END
$$$$
