3g8e_ligand
  -I-interpret- 

 77 80  0  0  0  0  0  0  0  0999 V2000
   44.6400   -3.5970  -10.7760 C   0  0  0  0  0
   44.4400   -3.4380   -9.4100 C   0  0  0  0  0
   45.1820   -2.5030   -8.6970 C   0  0  0  0  0
   46.1250   -1.7310   -9.3630 C   0  0  0  0  0
   46.3260   -1.8940  -10.7280 C   0  0  0  0  0
   45.5840   -2.8250  -11.4410 C   0  0  0  0  0
   45.7900   -2.9590  -12.9520 C   0  0  0  0  0
   46.9000   -3.2330  -13.3990 O   0  0  0  0  0
   44.7810   -2.7740  -13.7920 N   0  0  0  0  0
   45.0280   -2.8730  -15.2500 C   0  0  0  0  0
   43.8380   -3.4910  -15.9930 C   0  0  0  0  0
   43.4610   -2.4200  -13.2200 C   0  0  0  0  0
   42.3230   -3.0650  -14.0070 C   0  0  0  0  0
   42.8080   -4.0970  -15.0380 C   0  0  0  0  0
   41.5910   -4.6250  -15.7990 C   0  0  0  0  0
   41.0340   -5.7060  -14.8710 C   0  0  0  0  0
   39.6080   -6.1050  -15.2360 C   0  0  0  0  0
   39.5820   -7.3920  -16.0590 C   0  0  0  0  0
   38.1660   -7.7270  -16.2270 N   0  0  0  0  0
   37.4670   -8.2690  -15.2300 C   0  0  0  0  0
   37.9360   -8.5840  -14.1450 O   0  0  0  0  0
   36.1280   -8.5150  -15.5180 C   0  0  0  0  0
   35.3510   -9.1820  -14.5880 C   0  0  0  0  0
   34.0150   -9.4190  -14.8960 C   0  0  0  0  0
   33.2120   -9.9920  -13.9310 C   0  0  0  0  0
   33.4480   -9.0140  -16.1010 C   0  0  0  0  0
   32.0950   -9.1830  -16.3740 C   0  0  0  0  0
   31.2810   -9.7460  -15.4000 C   0  0  0  0  0
   31.8480  -10.1240  -14.1860 N   0  0  0  0  0
   31.0100  -10.3370  -12.9910 C   0  0  0  0  0
   29.6040  -10.0600  -13.0730 O   0  0  0  0  0
   29.1930   -9.8840  -11.8200 C   0  0  0  0  0
   28.1080   -8.7500  -11.7390 C   0  0  0  0  0
   27.4220   -8.8430  -10.4830 O   0  0  0  0  0
   30.4280  -10.1450  -10.9090 C   0  0  0  0  0
   30.5370  -11.1930   -9.9940 O   0  0  0  0  0
   31.3710   -9.4110  -11.8460 C   0  0  0  0  0
   32.7460   -9.4970  -11.4470 O   0  0  0  0  0
   44.0532   -4.3311  -11.3282 H   0  0  0  0  0
   43.6983   -4.0489   -8.8954 H   0  0  0  0  0
   45.0251   -2.3771   -7.6257 H   0  0  0  0  0
   46.7099   -0.9941   -8.8125 H   0  0  0  0  0
   47.0711   -1.2869  -11.2421 H   0  0  0  0  0
   45.8968   -3.5125  -15.4060 H   0  0  0  0  0
   45.1870   -1.8669  -15.6380 H   0  0  0  0  0
   44.2161   -4.2885  -16.6327 H   0  0  0  0  0
   43.3477   -2.7012  -16.5621 H   0  0  0  0  0
   43.3431   -1.3373  -13.2647 H   0  0  0  0  0
   43.4203   -2.7817  -12.1926 H   0  0  0  0  0
   41.8069   -2.2733  -14.5500 H   0  0  0  0  0
   41.6827   -3.5855  -13.2949 H   0  0  0  0  0
   43.3065   -4.9191  -14.5244 H   0  0  0  0  0
   41.8492   -5.0119  -16.7848 H   0  0  0  0  0
   40.8624   -3.8442  -16.0168 H   0  0  0  0  0
   41.0242   -5.3079  -13.8563 H   0  0  0  0  0
   41.6661   -6.5892  -14.9635 H   0  0  0  0  0
   39.1664   -5.3052  -15.8305 H   0  0  0  0  0
   39.0490   -6.2718  -14.3152 H   0  0  0  0  0
   40.1236   -8.1947  -15.5585 H   0  0  0  0  0
   40.0756   -7.2582  -17.0216 H   0  0  0  0  0
   37.7083   -7.5429  -17.1198 H   0  0  0  0  0
   35.6971   -8.1865  -16.4638 H   0  0  0  0  0
   35.7740   -9.5130  -13.6395 H   0  0  0  0  0
   33.6363  -10.3349  -12.9873 H   0  0  0  0  0
   34.0845   -8.5498  -16.8543 H   0  0  0  0  0
   31.6808   -8.8790  -17.3353 H   0  0  0  0  0
   30.9144  -10.6731  -15.8406 H   0  0  0  0  0
   30.5647   -8.9648  -15.1454 H   0  0  0  0  0
   31.2047  -11.4021  -12.8651 H   0  0  0  0  0
   28.5166  -10.5764  -11.3190 H   0  0  0  0  0
   27.3948   -8.8669  -12.5550 H   0  0  0  0  0
   28.5900   -7.7758  -11.8214 H   0  0  0  0  0
   26.7582   -8.1514  -10.4302 H   0  0  0  0  0
   30.6103   -9.9517   -9.8519 H   0  0  0  0  0
   31.3881  -11.1438   -9.5527 H   0  0  0  0  0
   31.2780   -8.3329  -11.9768 H   0  0  0  0  0
   32.9063   -8.8884  -10.7221 H   0  0  0  0  0
  1  2  4  0  0  0
  1  6  4  0  0  0
  2  3  4  0  0  0
  3  4  4  0  0  0
  4  5  4  0  0  0
  5  6  4  0  0  0
  6  7  1  0  0  0
  7  8  2  0  0  0
  7  9  1  0  0  0
  9 10  1  0  0  0
  9 12  1  0  0  0
 10 11  1  0  0  0
 11 14  1  0  0  0
 12 13  1  0  0  0
 13 14  1  0  0  0
 14 15  1  0  0  0
 15 16  1  0  0  0
 16 17  1  0  0  0
 17 18  1  0  0  0
 18 19  1  0  0  0
 19 20  1  0  0  0
 20 21  2  0  0  0
 20 22  1  0  0  0
 22 23  2  0  0  0
 23 24  1  0  0  0
 24 25  2  0  0  0
 24 26  1  0  0  0
 25 29  1  0  0  0
 26 27  2  0  0  0
 27 28  1  0  0  0
 28 29  1  0  0  0
 29 30  1  0  0  0
 30 31  1  0  0  0
 30 37  1  0  0  0
 31 32  1  0  0  0
 32 33  1  0  0  0
 32 35  1  0  0  0
 33 34  1  0  0  0
 35 36  1  0  0  0
 35 37  1  0  0  0
 37 38  1  0  0  0
  1 39  1  0  0  0
  2 40  1  0  0  0
  3 41  1  0  0  0
  4 42  1  0  0  0
  5 43  1  0  0  0
 10 44  1  0  0  0
 10 45  1  0  0  0
 11 46  1  0  0  0
 11 47  1  0  0  0
 12 48  1  0  0  0
 12 49  1  0  0  0
 13 50  1  0  0  0
 13 51  1  0  0  0
 14 52  1  0  0  0
 15 53  1  0  0  0
 15 54  1  0  0  0
 16 55  1  0  0  0
 16 56  1  0  0  0
 17 57  1  0  0  0
 17 58  1  0  0  0
 18 59  1  0  0  0
 18 60  1  0  0  0
 19 61  1  0  0  0
 22 62  1  0  0  0
 23 63  1  0  0  0
 25 64  1  0  0  0
 26 65  1  0  0  0
 27 66  1  0  0  0
 28 67  1  0  0  0
 28 68  1  0  0  0
 30 69  1  0  0  0
 32 70  1  0  0  0
 33 71  1  0  0  0
 33 72  1  0  0  0
 34 73  1  0  0  0
 35 74  1  0  0  0
 36 75  1  0  0  0
 37 76  1  0  0  0
 38 77  1  0  0  0
M  END
$$$$
