4zt4_ligand
  -I-interpret- 

 40 42  0  0  0  0  0  0  0  0999 V2000
  -41.4530   14.7830    7.2450 C   0  0  0  0  0
  -41.6230   12.2740    7.3610 C   0  0  0  0  0
  -40.8120   13.5500    7.3080 C   0  0  0  0  0
  -42.8430   12.4550    9.4890 C   0  0  0  0  0
  -38.6970   14.6960    7.2720 C   0  0  0  0  0
  -39.4150   13.5130    7.3280 C   0  0  0  0  0
  -44.5930   15.6720   14.5010 C   0  0  0  0  0
  -43.2740   16.0340   14.4840 C   0  0  0  0  0
  -42.9060   17.1690   15.2060 C   0  0  0  0  0
  -45.1990   17.3870   15.8500 C   0  0  0  0  0
  -36.9390   14.6370    7.2790 Cl  0  0  0  0  0
  -39.3250   15.9260    7.2150 C   0  0  0  0  0
  -40.7060   15.9410    7.2180 C   0  0  0  0  0
  -41.5290   17.4660    7.2660 Cl  0  0  0  0  0
  -42.9340   12.3940    8.0280 N   0  3  0  0  0
  -44.2980   12.6420   10.1690 C   0  0  0  0  0
  -45.2190   11.7380    9.6860 F   0  0  0  0  0
  -44.8510   13.8720    9.8950 F   0  0  0  0  0
  -44.0900   12.4490   11.7190 C   0  0  0  0  0
  -43.1400   13.3820   12.3040 N   0  0  0  0  0
  -43.4610   14.3410   13.1790 C   0  0  0  0  0
  -42.5550   15.1860   13.6440 N   0  0  0  0  0
  -44.6980   14.5890   13.6660 N   0  0  0  0  0
  -43.8940   17.8540   15.8980 C   0  0  0  0  0
  -45.5760   16.2990   15.1620 N   0  0  0  0  0
  -42.5415   14.8331    7.2171 H   0  0  0  0  0
  -41.0412   11.5557    7.9386 H   0  0  0  0  0
  -41.8209   11.9844    6.3290 H   0  0  0  0  0
  -42.2239   13.3102    9.7600 H   0  0  0  0  0
  -42.4136   11.5191    9.8466 H   0  0  0  0  0
  -38.8932   12.5579    7.3874 H   0  0  0  0  0
  -41.8704   17.5085   15.2260 H   0  0  0  0  0
  -45.9618   17.9353   16.4029 H   0  0  0  0  0
  -38.7507   16.8513    7.1693 H   0  0  0  0  0
  -43.4766   11.5640    7.7890 H   0  0  0  0  0
  -43.3608   13.2644    7.7108 H   0  0  0  0  0
  -43.6953   11.4445   11.8716 H   0  0  0  0  0
  -45.0528   12.6207   12.2002 H   0  0  0  0  0
  -42.1616   13.2992   12.0279 H   0  0  0  0  0
  -43.6480   18.7474   16.4719 H   0  0  0  0  0
  3  1  4  0  0  0
  1 13  4  0  0  0
  2  3  1  0  0  0
 15  2  1  0  0  0
  3  6  4  0  0  0
  4 15  1  0  0  0
 16  4  1  0  0  0
  6  5  4  0  0  0
  5 11  1  0  0  0
  5 12  4  0  0  0
  8  7  4  0  0  0
  7 23  4  0  0  0
  7 25  4  0  0  0
  8  9  4  0  0  0
 22  8  4  0  0  0
  9 24  4  0  0  0
 24 10  4  0  0  0
 25 10  4  0  0  0
 13 12  4  0  0  0
 13 14  1  0  0  0
 16 17  1  0  0  0
 16 18  1  0  0  0
 19 16  1  0  0  0
 20 19  1  0  0  0
 21 20  1  0  0  0
 21 22  4  0  0  0
 21 23  4  0  0  0
  1 26  1  0  0  0
  2 27  1  0  0  0
  2 28  1  0  0  0
  4 29  1  0  0  0
  4 30  1  0  0  0
  6 31  1  0  0  0
  9 32  1  0  0  0
 10 33  1  0  0  0
 12 34  1  0  0  0
 15 35  1  0  0  0
 15 36  1  0  0  0
 19 37  1  0  0  0
 19 38  1  0  0  0
 20 39  1  0  0  0
 24 40  1  0  0  0
M  END
$$$$
