1qkn_ligand
  -I-interpret- 

 62 66  0  0  0  0  0  0  0  0999 V2000
   16.9310   29.5250    8.7290 C   0  0  0  0  0
   15.8390   30.1280    8.1030 C   0  0  0  0  0
   15.1550   31.1320    8.7770 C   0  0  0  0  0
   14.0660   31.7180    8.1660 O   0  0  0  0  0
   15.5780   31.5290   10.0650 C   0  0  0  0  0
   16.6460   30.9470   10.6570 C   0  0  0  0  0
   17.3610   31.2370   12.1470 S   0  0  0  0  0
   18.5990   30.1110   12.0670 C   0  0  0  0  0
   19.6040   29.8810   13.1400 C   0  0  0  0  0
   19.2300   29.5540   14.4130 C   0  0  0  0  0
   20.1620   29.3210   15.4300 C   0  0  0  0  0
   21.5120   29.4270   15.1430 C   0  0  0  0  0
   22.4470   29.2040   16.1390 O   0  0  0  0  0
   21.9140   29.7600   13.8570 C   0  0  0  0  0
   20.9610   29.9850   12.8660 C   0  0  0  0  0
   17.3510   29.9080    9.9890 C   0  0  0  0  0
   18.4770   29.4450   10.8130 C   0  0  0  0  0
   19.3470   28.4220   10.4480 C   0  0  0  0  0
   19.2450   27.3330   11.0420 O   0  0  0  0  0
   20.3630   28.5880    9.4140 C   0  0  0  0  0
   21.1230   27.5080    8.9700 C   0  0  0  0  0
   22.1230   27.6120    7.9710 C   0  0  0  0  0
   22.3250   28.8770    7.4450 C   0  0  0  0  0
   21.5720   29.9490    7.8960 C   0  0  0  0  0
   20.6060   29.8300    8.8500 C   0  0  0  0  0
   23.2300   29.2790    6.4660 O   0  0  0  0  0
   23.4640   28.3530    5.4320 C   0  0  0  0  0
   24.7760   28.7900    4.7940 C   0  0  0  0  0
   24.7430   29.7120    3.6430 N   0  3  0  0  0
   26.0710   29.5940    2.9850 C   0  0  0  0  0
   26.1790   30.4500    1.7240 C   0  0  0  0  0
   25.9590   31.9320    2.0940 C   0  0  0  0  0
   24.6040   32.0420    2.7970 C   0  0  0  0  0
   24.5390   31.1170    4.0200 C   0  0  0  0  0
   17.4672   28.7304    8.2102 H   0  0  0  0  0
   15.5290   29.8174    7.1052 H   0  0  0  0  0
   13.6978   32.3888    8.7457 H   0  0  0  0  0
   15.0359   32.3158   10.5895 H   0  0  0  0  0
   18.1680   29.4718   14.6442 H   0  0  0  0  0
   19.8296   29.0596   16.4346 H   0  0  0  0  0
   23.3297   29.3162   15.7786 H   0  0  0  0  0
   22.9750   29.8455   13.6224 H   0  0  0  0  0
   21.2861   30.2470   11.8591 H   0  0  0  0  0
   20.9386   26.5302    9.4150 H   0  0  0  0  0
   22.6983   26.7485    7.6369 H   0  0  0  0  0
   21.7610   30.9334    7.4679 H   0  0  0  0  0
   20.0317   30.7011    9.1654 H   0  0  0  0  0
   22.6487   28.3434    4.7086 H   0  0  0  0  0
   23.5215   27.3327    5.8113 H   0  0  0  0  0
   25.2169   27.8723    4.4046 H   0  0  0  0  0
   25.2985   29.3391    5.5773 H   0  0  0  0  0
   23.9586   29.4574    3.0428 H   0  0  0  0  0
   26.2115   28.5522    2.6967 H   0  0  0  0  0
   26.8271   29.9386    3.6905 H   0  0  0  0  0
   25.4224   30.1371    1.0044 H   0  0  0  0  0
   27.1680   30.3268    1.2827 H   0  0  0  0  0
   25.9718   32.5519    1.1976 H   0  0  0  0  0
   26.7558   32.2805    2.7511 H   0  0  0  0  0
   23.8226   31.7486    2.0960 H   0  0  0  0  0
   24.4665   33.0707    3.1301 H   0  0  0  0  0
   25.3278   31.4064    4.7144 H   0  0  0  0  0
   23.5527   31.2132    4.4739 H   0  0  0  0  0
  1  2  4  0  0  0
  1 16  4  0  0  0
  2  3  4  0  0  0
  3  4  1  0  0  0
  3  5  4  0  0  0
  5  6  4  0  0  0
  6  7  4  0  0  0
  6 16  4  0  0  0
  7  8  4  0  0  0
  8  9  1  0  0  0
  8 17  4  0  0  0
  9 10  4  0  0  0
  9 15  4  0  0  0
 10 11  4  0  0  0
 11 12  4  0  0  0
 12 13  1  0  0  0
 12 14  4  0  0  0
 14 15  4  0  0  0
 16 17  4  0  0  0
 17 18  1  0  0  0
 18 19  2  0  0  0
 18 20  1  0  0  0
 20 21  4  0  0  0
 20 25  4  0  0  0
 21 22  4  0  0  0
 22 23  4  0  0  0
 23 24  4  0  0  0
 23 26  1  0  0  0
 24 25  4  0  0  0
 26 27  1  0  0  0
 27 28  1  0  0  0
 28 29  1  0  0  0
 29 30  1  0  0  0
 29 34  1  0  0  0
 30 31  1  0  0  0
 31 32  1  0  0  0
 32 33  1  0  0  0
 33 34  1  0  0  0
  1 35  1  0  0  0
  2 36  1  0  0  0
  4 37  1  0  0  0
  5 38  1  0  0  0
 10 39  1  0  0  0
 11 40  1  0  0  0
 13 41  1  0  0  0
 14 42  1  0  0  0
 15 43  1  0  0  0
 21 44  1  0  0  0
 22 45  1  0  0  0
 24 46  1  0  0  0
 25 47  1  0  0  0
 27 48  1  0  0  0
 27 49  1  0  0  0
 28 50  1  0  0  0
 28 51  1  0  0  0
 29 52  1  0  0  0
 30 53  1  0  0  0
 30 54  1  0  0  0
 31 55  1  0  0  0
 31 56  1  0  0  0
 32 57  1  0  0  0
 32 58  1  0  0  0
 33 59  1  0  0  0
 33 60  1  0  0  0
 34 61  1  0  0  0
 34 62  1  0  0  0
M  END
$$$$
