5mgx_ligand
  -I-interpret- 

119118  0  0  0  0  0  0  0  0999 V2000
  -41.4130   29.9500   64.4050 N   0  3  0  0  0
  -42.1380   28.7470   64.8190 C   0  0  0  0  0
  -41.4970   27.4870   64.1950 C   0  0  0  0  0
  -41.2530   26.5320   64.9370 O   0  0  0  0  0
  -43.6370   28.8580   64.4790 C   0  0  0  0  0
  -44.5000   27.6940   64.9180 C   0  0  0  0  0
  -44.6400   27.4860   66.1500 O   0  0  0  0  0
  -45.0960   27.0330   64.0340 O   0  0  0  0  0
  -41.2090   27.4740   62.8590 N   0  0  0  0  0
  -40.5200   26.3250   62.2360 C   0  0  0  0  0
  -39.0080   26.5110   62.3440 C   0  0  0  0  0
  -38.4700   27.5160   61.8720 O   0  0  0  0  0
  -40.9250   26.0630   60.7720 C   0  0  0  0  0
  -42.2750   25.6210   60.7370 O   0  0  0  0  0
  -40.0540   24.9910   60.1030 C   0  0  0  0  0
  -38.3300   25.5070   62.9270 N   0  0  0  0  0
  -36.8850   25.4910   63.0480 C   0  0  0  0  0
  -36.2720   24.9650   61.7600 C   0  0  0  0  0
  -36.4070   23.7900   61.4280 O   0  0  0  0  0
  -36.4300   24.6590   64.2590 C   0  0  0  0  0
  -35.6550   25.8710   61.0030 N   0  0  0  0  0
  -34.8710   25.5890   59.8170 C   0  0  0  0  0
  -33.6170   25.0100   60.4310 C   0  0  0  0  0
  -33.3210   25.3380   61.5890 O   0  0  0  0  0
  -34.5900   26.8530   58.9910 C   0  0  0  0  0
  -35.8120   27.7080   58.7110 C   0  0  0  0  0
  -37.0740   26.9320   57.6750 S   0  0  0  0  0
  -38.4770   27.8680   58.1750 C   0  0  0  0  0
  -32.8830   24.1670   59.7290 N   0  0  0  0  0
  -31.7120   23.4400   60.2390 C   0  0  0  0  0
  -32.1700   22.1230   60.8440 C   0  0  0  0  0
  -31.3960   21.1800   60.7710 O   0  0  0  0  0
  -30.7840   24.2110   61.2260 C   0  0  0  0  0
  -29.6250   24.9540   60.5650 C   0  0  0  0  0
  -29.9780   26.1280   59.6720 C   0  0  0  0  0
  -30.8740   26.9280   60.0310 O   0  0  0  0  0
  -29.3230   26.2680   58.6170 O   0  0  0  0  0
  -33.4130   22.0070   61.3780 N   0  0  0  0  0
  -33.9290   20.7420   61.9030 C   0  0  0  0  0
  -34.2410   19.7910   60.7610 C   0  0  0  0  0
  -34.6180   20.2250   59.6670 O   0  0  0  0  0
  -35.1630   20.9380   62.7870 C   0  0  0  0  0
  -34.8120   21.1330   64.2560 C   0  0  0  0  0
  -35.9440   21.0340   65.2640 C   0  0  0  0  0
  -37.0840   20.7080   64.8600 O   0  0  0  0  0
  -35.6800   21.2550   66.4680 O   0  0  0  0  0
  -34.0600   18.5040   61.0170 N   0  0  0  0  0
  -34.2420   17.4450   60.0470 C   0  0  0  0  0
  -35.4990   16.6410   60.4590 C   0  0  0  0  0
  -35.8340   16.6030   61.6540 O   0  0  0  0  0
  -32.8930   16.6900   60.0450 C   0  0  0  0  0
  -32.8050   15.5440   61.0280 C   0  0  0  0  0
  -32.3910   16.3600   58.6680 C   0  0  0  0  0
  -36.2550   16.1040   59.4650 N   0  0  0  0  0
  -37.5250   15.3990   59.7220 C   0  0  0  0  0
  -37.4180   13.8520   59.7050 C   0  0  0  0  0
  -36.3330   13.3020   59.4090 O   0  0  0  0  0
  -38.5960   15.8470   58.7030 C   0  0  0  0  0
  -38.9210   17.3350   58.6810 C   0  0  0  0  0
  -39.0890   17.9270   59.7730 O   0  0  0  0  0
  -39.0860   17.8850   57.5740 O   0  0  0  0  0
  -38.4470   13.1910   59.9800 O   0  0  0  0  0
  -40.4260   29.8490   64.6417 H   0  0  0  0  0
  -41.5112   30.0748   63.3974 H   0  0  0  0  0
  -41.7986   30.7612   64.8885 H   0  0  0  0  0
  -42.0630   28.6536   65.9024 H   0  0  0  0  0
  -43.7040   28.8981   63.3918 H   0  0  0  0  0
  -44.0090   29.7344   65.0097 H   0  0  0  0  0
  -44.0937   28.1035   66.6417 H   0  0  0  0  0
  -41.4745   28.2719   62.2817 H   0  0  0  0  0
  -40.8362   25.4412   62.7902 H   0  0  0  0  0
  -40.7916   26.9977   60.2273 H   0  0  0  0  0
  -42.5331   25.4561   59.8272 H   0  0  0  0  0
  -39.0129   25.3137   60.1108 H   0  0  0  0  0
  -40.1493   24.0534   60.6507 H   0  0  0  0  0
  -40.3834   24.8472   59.0740 H   0  0  0  0  0
  -38.8574   24.7187   63.3022 H   0  0  0  0  0
  -36.5386   26.5109   63.2149 H   0  0  0  0  0
  -36.8484   25.0869   65.1700 H   0  0  0  0  0
  -36.7787   23.6326   64.1447 H   0  0  0  0  0
  -35.3416   24.6700   64.3175 H   0  0  0  0  0
  -35.7419   26.8482   61.2823 H   0  0  0  0  0
  -35.3620   24.9286   59.1022 H   0  0  0  0  0
  -34.2038   26.5238   58.0263 H   0  0  0  0  0
  -33.8990   27.4651   59.5706 H   0  0  0  0  0
  -35.4613   28.5875   58.1709 H   0  0  0  0  0
  -36.2795   27.9106   59.6746 H   0  0  0  0  0
  -38.6358   27.7385   59.2456 H   0  0  0  0  0
  -38.3055   28.9221   57.9567 H   0  0  0  0  0
  -39.3559   27.5214   57.6315 H   0  0  0  0  0
  -33.1491   24.0078   58.7573 H   0  0  0  0  0
  -31.0732   23.2839   59.3697 H   0  0  0  0  0
  -30.3455   23.4693   61.8936 H   0  0  0  0  0
  -31.4009   24.9615   61.7203 H   0  0  0  0  0
  -29.1352   24.2257   59.9186 H   0  0  0  0  0
  -29.0338   25.3689   61.3814 H   0  0  0  0  0
  -31.2474   26.6350   60.8655 H   0  0  0  0  0
  -34.0101   22.8332   61.4147 H   0  0  0  0  0
  -33.1510   20.3099   62.5323 H   0  0  0  0  0
  -35.7768   20.0409   62.7068 H   0  0  0  0  0
  -35.6792   21.8352   62.4453 H   0  0  0  0  0
  -34.4353   22.1527   64.3357 H   0  0  0  0  0
  -34.1252   20.3239   64.5044 H   0  0  0  0  0
  -37.0627   20.5883   63.9077 H   0  0  0  0  0
  -33.7734   18.2418   61.9601 H   0  0  0  0  0
  -34.4466   17.7483   59.0202 H   0  0  0  0  0
  -32.1807   17.4152   60.4385 H   0  0  0  0  0
  -32.9520   15.9226   62.0395 H   0  0  0  0  0
  -33.5768   14.8095   60.7978 H   0  0  0  0  0
  -31.8230   15.0769   60.9526 H   0  0  0  0  0
  -33.1191   15.7285   58.1589 H   0  0  0  0  0
  -32.2499   17.2817   58.1035 H   0  0  0  0  0
  -31.4411   15.8312   58.7460 H   0  0  0  0  0
  -35.9308   16.1922   58.5019 H   0  0  0  0  0
  -37.8094   15.6750   60.7374 H   0  0  0  0  0
  -39.5174   15.3379   58.9856 H   0  0  0  0  0
  -38.1977   15.6074   57.7171 H   0  0  0  0  0
  -38.9092   17.3208   60.4953 H   0  0  0  0  0
  -39.1687   13.7922   60.1780 H   0  0  0  0  0
  1  2  1  0  0  0
  2  3  1  0  0  0
  2  5  1  0  0  0
  3  4  2  0  0  0
  3  9  1  0  0  0
  5  6  1  0  0  0
  6  7  1  0  0  0
  6  8  2  0  0  0
  9 10  1  0  0  0
 10 11  1  0  0  0
 10 13  1  0  0  0
 11 12  2  0  0  0
 11 16  1  0  0  0
 13 14  1  0  0  0
 13 15  1  0  0  0
 16 17  1  0  0  0
 17 18  1  0  0  0
 17 20  1  0  0  0
 18 19  2  0  0  0
 18 21  1  0  0  0
 21 22  1  0  0  0
 22 23  1  0  0  0
 22 25  1  0  0  0
 23 24  2  0  0  0
 23 29  1  0  0  0
 25 26  1  0  0  0
 26 27  1  0  0  0
 27 28  1  0  0  0
 29 30  1  0  0  0
 30 31  1  0  0  0
 30 33  1  0  0  0
 31 32  2  0  0  0
 31 38  1  0  0  0
 33 34  1  0  0  0
 34 35  1  0  0  0
 35 36  1  0  0  0
 35 37  2  0  0  0
 38 39  1  0  0  0
 39 40  1  0  0  0
 39 42  1  0  0  0
 40 41  2  0  0  0
 40 47  1  0  0  0
 42 43  1  0  0  0
 43 44  1  0  0  0
 44 45  1  0  0  0
 44 46  2  0  0  0
 47 48  1  0  0  0
 48 49  1  0  0  0
 48 51  1  0  0  0
 49 50  2  0  0  0
 49 54  1  0  0  0
 51 52  1  0  0  0
 51 53  1  0  0  0
 54 55  1  0  0  0
 55 56  1  0  0  0
 55 58  1  0  0  0
 56 57  2  0  0  0
 56 62  1  0  0  0
 58 59  1  0  0  0
 59 60  1  0  0  0
 59 61  2  0  0  0
  1 63  1  0  0  0
  1 64  1  0  0  0
  1 65  1  0  0  0
  2 66  1  0  0  0
  5 67  1  0  0  0
  5 68  1  0  0  0
  7 69  1  0  0  0
  9 70  1  0  0  0
 10 71  1  0  0  0
 13 72  1  0  0  0
 14 73  1  0  0  0
 15 74  1  0  0  0
 15 75  1  0  0  0
 15 76  1  0  0  0
 16 77  1  0  0  0
 17 78  1  0  0  0
 20 79  1  0  0  0
 20 80  1  0  0  0
 20 81  1  0  0  0
 21 82  1  0  0  0
 22 83  1  0  0  0
 25 84  1  0  0  0
 25 85  1  0  0  0
 26 86  1  0  0  0
 26 87  1  0  0  0
 28 88  1  0  0  0
 28 89  1  0  0  0
 28 90  1  0  0  0
 29 91  1  0  0  0
 30 92  1  0  0  0
 33 93  1  0  0  0
 33 94  1  0  0  0
 34 95  1  0  0  0
 34 96  1  0  0  0
 36 97  1  0  0  0
 38 98  1  0  0  0
 39 99  1  0  0  0
 42100  1  0  0  0
 42101  1  0  0  0
 43102  1  0  0  0
 43103  1  0  0  0
 45104  1  0  0  0
 47105  1  0  0  0
 48106  1  0  0  0
 51107  1  0  0  0
 52108  1  0  0  0
 52109  1  0  0  0
 52110  1  0  0  0
 53111  1  0  0  0
 53112  1  0  0  0
 53113  1  0  0  0
 54114  1  0  0  0
 55115  1  0  0  0
 58116  1  0  0  0
 58117  1  0  0  0
 60118  1  0  0  0
 62119  1  0  0  0
M  END
$$$$
