### 
### Created by X-TOOL on Mon Sep 10 21:13:34 2018
### 

@<TRIPOS>MOLECULE
5mgx_ligand
  114   113     1     0     0
SMALL
GAST_HUCK


@<TRIPOS>ATOM
      1 N         -41.4130   29.9500   64.4050 N.4       1 ASP         0.2391
      2 CA        -42.1380   28.7470   64.8190 C.3       1 ASP         0.0764
      3 C         -41.4970   27.4870   64.1950 C.2       1 ASP         0.2285
      4 O         -41.2530   26.5320   64.9370 O.2       1 ASP        -0.3906
      5 CB        -43.6370   28.8580   64.4790 C.3       1 ASP         0.0607
      6 CG        -44.5000   27.6940   64.9180 C.2       1 ASP         0.0425
      7 OD1       -44.6400   27.4860   66.1500 O.co2     1 ASP        -0.5686
      8 OD2       -45.0960   27.0330   64.0340 O.co2     1 ASP        -0.5686
      9 N         -41.2090   27.4740   62.8590 N.am      1 THR        -0.2585
     10 CA        -40.5200   26.3250   62.2360 C.3       1 THR         0.1566
     11 C         -39.0080   26.5110   62.3440 C.2       1 THR         0.2065
     12 O         -38.4700   27.5160   61.8720 O.2       1 THR        -0.3943
     13 CB        -40.9250   26.0630   60.7720 C.3       1 THR         0.0924
     14 OG1       -42.2750   25.6210   60.7370 O.3       1 THR        -0.3874
     15 CG2       -40.0540   24.9910   60.1030 C.3       1 THR        -0.0346
     16 N         -38.3300   25.5070   62.9270 N.am      1 GLU        -0.2639
     17 CA        -36.8850   25.4910   63.0480 C.3       1 GLU         0.1282
     18 C         -36.2720   24.9650   61.7600 C.2       1 GLU         0.2036
     19 O         -36.4070   23.7900   61.4280 O.2       1 GLU        -0.3944
     20 CB        -36.4300   24.6590   64.2590 C.3       1 GLU        -0.0244
     21 N         -35.6550   25.8710   61.0030 N.am      1 MET        -0.2637
     22 CA        -34.8710   25.5890   59.8170 C.3       1 MET         0.1317
     23 C         -33.6170   25.0100   60.4310 C.2       1 MET         0.2039
     24 O         -33.3210   25.3380   61.5890 O.2       1 MET        -0.3944
     25 CB        -34.5900   26.8530   58.9910 C.3       1 MET        -0.0034
     26 CG        -35.8120   27.7080   58.7110 C.3       1 MET        -0.0024
     27 SD        -37.0740   26.9320   57.6750 S.3       1 MET        -0.1639
     28 CE        -38.4770   27.8680   58.1750 C.3       1 MET        -0.0181
     29 N         -32.8830   24.1670   59.7290 N.am      1 GLU        -0.2636
     30 CA        -31.7120   23.4400   60.2390 C.3       1 GLU         0.1325
     31 C         -32.1700   22.1230   60.8440 C.2       1 GLU         0.2040
     32 O         -31.3960   21.1800   60.7710 O.2       1 GLU        -0.3944
     33 CB        -30.7840   24.2110   61.2260 C.3       1 GLU        -0.0008
     34 CG        -29.6250   24.9540   60.5650 C.3       1 GLU         0.0044
     35 CD        -29.9780   26.1280   59.6720 C.2       1 GLU         0.0350
     36 OE1       -30.8740   26.9280   60.0310 O.co2     1 GLU        -0.5690
     37 OE2       -29.3230   26.2680   58.6170 O.co2     1 GLU        -0.5690
     38 N         -33.4130   22.0070   61.3780 N.am      1 GLU        -0.2636
     39 CA        -33.9290   20.7420   61.9030 C.3       1 GLU         0.1325
     40 C         -34.2410   19.7910   60.7610 C.2       1 GLU         0.2040
     41 O         -34.6180   20.2250   59.6670 O.2       1 GLU        -0.3944
     42 CB        -35.1630   20.9380   62.7870 C.3       1 GLU        -0.0008
     43 CG        -34.8120   21.1330   64.2560 C.3       1 GLU         0.0044
     44 CD        -35.9440   21.0340   65.2640 C.2       1 GLU         0.0350
     45 OE1       -37.0840   20.7080   64.8600 O.co2     1 GLU        -0.5690
     46 OE2       -35.6800   21.2550   66.4680 O.co2     1 GLU        -0.5690
     47 N         -34.0600   18.5040   61.0170 N.am      1 VAL        -0.2635
     48 CA        -34.2420   17.4450   60.0470 C.3       1 VAL         0.1332
     49 C         -35.4990   16.6410   60.4590 C.2       1 VAL         0.2037
     50 O         -35.8340   16.6030   61.6540 O.2       1 VAL        -0.3944
     51 CB        -32.8930   16.6900   60.0450 C.3       1 VAL        -0.0063
     52 CG1       -32.8050   15.5440   61.0280 C.3       1 VAL        -0.0584
     53 CG2       -32.3910   16.3600   58.6680 C.3       1 VAL        -0.0584
     54 N         -36.2550   16.1040   59.4650 N.am      1 ASP        -0.2679
     55 CA        -37.5250   15.3990   59.7220 C.3       1 ASP         0.1057
     56 C         -37.4180   13.8520   59.7050 C.2       1 ASP         0.0618
     57 O         -36.3330   13.3020   59.4090 O.co2     1 ASP        -0.5665
     58 CB        -38.5960   15.8470   58.7030 C.3       1 ASP         0.0351
     59 CG        -38.9210   17.3350   58.6810 C.2       1 ASP         0.0387
     60 OD1       -39.0890   17.9270   59.7730 O.co2     1 ASP        -0.5688
     61 OD2       -39.0860   17.8850   57.5740 O.co2     1 ASP        -0.5688
     62 OXT       -38.4470   13.1910   59.9800 O.co2     1 ASP        -0.5665
     63 H1        -41.8436   30.7613   64.8202 H         1 ASP         0.2016
     64 H2        -41.4423   30.0311   63.4007 H         1 ASP         0.2016
     65 H3        -40.4541   29.8858   64.7091 H         1 ASP         0.2016
     66 H4        -42.0509   28.6601   65.9121 H         1 ASP         0.1117
     67 H5        -43.7293   28.9536   63.3871 H         1 ASP         0.0512
     68 H6        -44.0260   29.7671   64.9608 H         1 ASP         0.0512
     69 H7        -41.4693   28.2562   62.2930 H         1 THR         0.1885
     70 H8        -40.7941   25.4292   62.8125 H         1 THR         0.0826
     71 H9        -40.8299   27.0018   60.2067 H         1 THR         0.0639
     72 H10       -42.8361   26.2907   61.1101 H         1 THR         0.2101
     73 H11       -40.3855   24.8450   59.0644 H         1 THR         0.0257
     74 H12       -40.1493   24.0442   60.6548 H         1 THR         0.0257
     75 H13       -39.0030   25.3155   60.1102 H         1 THR         0.0257
     76 H14       -38.8470   24.7341   63.2949 H         1 GLU         0.1883
     77 H15       -36.5403   26.5247   63.1982 H         1 GLU         0.0797
     78 H16       -35.3317   24.6693   64.3191 H         1 GLU         0.0277
     79 H17       -36.7812   23.6229   64.1448 H         1 GLU         0.0277
     80 H18       -36.8516   25.0898   65.1791 H         1 GLU         0.0277
     81 H19       -35.7402   26.8290   61.2768 H         1 MET         0.1883
     82 H20       -35.3745   24.8503   59.1760 H         1 MET         0.0800
     83 H21       -34.1588   26.5445   58.0272 H         1 MET         0.0320
     84 H22       -33.8602   27.4665   59.5397 H         1 MET         0.0320
     85 H23       -35.4764   28.6267   58.2076 H         1 MET         0.0378
     86 H24       -36.2748   27.9661   59.6749 H         1 MET         0.0378
     87 H25       -39.3647   27.5191   57.6271 H         1 MET         0.0340
     88 H26       -38.3053   28.9320   57.9552 H         1 MET         0.0340
     89 H27       -38.6384   27.7381   59.2553 H         1 MET         0.0340
     90 H28       -33.1439   24.0109   58.7763 H         1 GLU         0.1883
     91 H29       -31.0906   23.2025   59.3630 H         1 GLU         0.0801
     92 H30       -30.3640   23.4858   61.9385 H         1 GLU         0.0330
     93 H31       -31.3966   24.9458   61.7689 H         1 GLU         0.0330
     94 H32       -29.0709   24.2269   59.9532 H         1 GLU         0.0433
     95 H33       -28.9729   25.3314   61.3664 H         1 GLU         0.0433
     96 H34       -33.9984   22.8170   61.4140 H         1 GLU         0.1883
     97 H35       -33.1413   20.2884   62.5225 H         1 GLU         0.0801
     98 H36       -35.8063   20.0505   62.6943 H         1 GLU         0.0330
     99 H37       -35.7097   21.8255   62.4356 H         1 GLU         0.0330
    100 H38       -34.3653   22.1329   64.3587 H         1 GLU         0.0433
    101 H39       -34.0662   20.3692   64.5213 H         1 GLU         0.0433
    102 H40       -33.7790   18.2469   61.9416 H         1 VAL         0.1883
    103 H41       -34.4156   17.8618   59.0439 H         1 VAL         0.0802
    104 H42       -32.1714   17.4266   60.4280 H         1 VAL         0.0343
    105 H43       -31.8144   15.0718   60.9529 H         1 VAL         0.0234
    106 H44       -33.5834   14.8020   60.7968 H         1 VAL         0.0234
    107 H45       -32.9531   15.9247   62.0493 H         1 VAL         0.0234
    108 H46       -32.4904   17.2434   58.0201 H         1 VAL         0.0234
    109 H47       -32.9820   15.5312   58.2511 H         1 VAL         0.0234
    110 H48       -31.3331   16.0639   58.7245 H         1 VAL         0.0234
    111 H49       -35.9371   16.1904   58.5208 H         1 ASP         0.1876
    112 H50       -37.8621   15.6931   60.7269 H         1 ASP         0.0745
    113 H51       -39.5248   15.3038   58.9313 H         1 ASP         0.0471
    114 H52       -38.2436   15.5654   57.6997 H         1 ASP         0.0471
@<TRIPOS>BOND
     1    1    2 1  
     2    2    3 1  
     3    2    5 1  
     4    3    4 2  
     5    3    9 am 
     6    5    6 1  
     7    6    7 ar 
     8    6    8 ar 
     9    9   10 1  
    10   10   11 1  
    11   10   13 1  
    12   11   12 2  
    13   11   16 am 
    14   13   14 1  
    15   13   15 1  
    16   16   17 1  
    17   17   18 1  
    18   17   20 1  
    19   18   19 2  
    20   18   21 am 
    21   21   22 1  
    22   22   23 1  
    23   22   25 1  
    24   23   24 2  
    25   23   29 am 
    26   25   26 1  
    27   26   27 1  
    28   27   28 1  
    29   29   30 1  
    30   30   31 1  
    31   30   33 1  
    32   31   32 2  
    33   31   38 am 
    34   33   34 1  
    35   34   35 1  
    36   35   36 ar 
    37   35   37 ar 
    38   38   39 1  
    39   39   40 1  
    40   39   42 1  
    41   40   41 2  
    42   40   47 am 
    43   42   43 1  
    44   43   44 1  
    45   44   45 ar 
    46   44   46 ar 
    47   47   48 1  
    48   48   49 1  
    49   48   51 1  
    50   49   50 2  
    51   49   54 am 
    52   51   52 1  
    53   51   53 1  
    54   54   55 1  
    55   55   56 1  
    56   55   58 1  
    57   56   57 ar 
    58   56   62 ar 
    59   58   59 1  
    60   59   60 ar 
    61   59   61 ar 
    62    1   63 1  
    63    1   64 1  
    64    1   65 1  
    65    2   66 1  
    66    5   67 1  
    67    5   68 1  
    68    9   69 1  
    69   10   70 1  
    70   13   71 1  
    71   14   72 1  
    72   15   73 1  
    73   15   74 1  
    74   15   75 1  
    75   16   76 1  
    76   17   77 1  
    77   20   78 1  
    78   20   79 1  
    79   20   80 1  
    80   21   81 1  
    81   22   82 1  
    82   25   83 1  
    83   25   84 1  
    84   26   85 1  
    85   26   86 1  
    86   28   87 1  
    87   28   88 1  
    88   28   89 1  
    89   29   90 1  
    90   30   91 1  
    91   33   92 1  
    92   33   93 1  
    93   34   94 1  
    94   34   95 1  
    95   38   96 1  
    96   39   97 1  
    97   42   98 1  
    98   42   99 1  
    99   43  100 1  
   100   43  101 1  
   101   47  102 1  
   102   48  103 1  
   103   51  104 1  
   104   52  105 1  
   105   52  106 1  
   106   52  107 1  
   107   53  108 1  
   108   53  109 1  
   109   53  110 1  
   110   54  111 1  
   111   55  112 1  
   112   58  113 1  
   113   58  114 1  
@<TRIPOS>SUBSTRUCTURE
     1 ASP         1

