6jpj_ligand
  -I-interpret- 

 70 73  0  0  0  0  0  0  0  0999 V2000
   87.4820    1.4910   93.0820 O   0  0  0  0  0
   87.6340    2.6550   93.3170 C   0  0  0  0  0
   87.1980    3.1400   94.5110 C   0  0  0  0  0
   86.7750    4.5120   94.4000 N   0  3  0  0  0
   86.2240    5.0020   95.6360 C   0  0  0  0  0
   87.9830    5.2120   94.0950 C   0  0  0  0  0
   88.4420    4.8190   92.7490 C   0  0  0  0  0
   88.2320    3.4200   92.4300 N   0  0  0  0  0
   88.7010    2.9160   91.1510 C   0  0  0  0  0
   87.8220    3.0510   90.0780 C   0  0  0  0  0
   86.4640    3.1160   90.2450 C   0  0  0  0  0
   88.3310    3.0930   88.8070 C   0  0  0  0  0
   89.6830    3.0450   88.5950 C   0  0  0  0  0
   90.0520    1.6970   88.6000 O   0  0  0  0  0
   87.5230    3.2040   87.7770 N   0  0  0  0  0
   86.2270    3.2750   87.9120 C   0  0  0  0  0
   85.6630    3.2220   89.1490 C   0  0  0  0  0
   84.3210    3.2730   89.3270 C   0  0  0  0  0
   83.6850    4.0760   88.2980 C   0  0  0  0  0
   84.0400    3.5500   86.9960 C   0  0  0  0  0
   85.4710    3.3620   86.8180 N   0  0  0  0  0
   85.9480    3.1440   85.5890 C   0  0  0  0  0
   85.2170    3.1560   84.6200 O   0  0  0  0  0
   87.2540    2.9560   85.4590 N   0  0  0  0  0
   87.8750    2.6610   84.3350 C   0  0  0  0  0
   87.2680    1.9460   83.3520 C   0  0  0  0  0
   89.1420    2.9910   84.2110 N   0  0  0  0  0
   89.8510    2.6650   83.0870 C   0  0  0  0  0
   89.2720    1.9610   82.0730 C   0  0  0  0  0
   89.9900    1.6610   80.9540 C   0  0  0  0  0
   90.5010    1.4560   80.1750 N   0  0  0  0  0
   87.9730    1.6070   82.2370 C   0  0  0  0  0
   87.4090    0.9680   81.3010 N   0  0  0  0  0
   86.5080    1.6910   80.4670 C   0  0  0  0  0
   85.5080    0.7220   79.9470 C   0  0  0  0  0
   84.7550    0.2220   80.9980 O   0  0  0  0  0
   84.7280   -1.1460   80.7200 C   0  0  0  0  0
   88.0195    3.0885   95.2255 H   0  0  0  0  0
   86.3473    2.5415   94.8371 H   0  0  0  0  0
   86.0425    4.6307   93.7002 H   0  0  0  0  0
   86.9434    4.8464   96.4400 H   0  0  0  0  0
   86.0092    6.0663   95.5399 H   0  0  0  0  0
   85.3036    4.4631   95.8609 H   0  0  0  0  0
   88.7474    4.9619   94.8306 H   0  0  0  0  0
   87.8008    6.2864   94.1211 H   0  0  0  0  0
   89.5166    4.9979   92.7123 H   0  0  0  0  0
   87.8644    5.4013   92.0311 H   0  0  0  0  0
   88.8575    1.8455   91.2840 H   0  0  0  0  0
   89.5840    3.5027   90.8974 H   0  0  0  0  0
   86.0294    3.0832   91.2441 H   0  0  0  0  0
   90.2143    3.5923   89.3737 H   0  0  0  0  0
   89.9401    3.5108   87.6437 H   0  0  0  0  0
   90.9980    1.6248   88.4535 H   0  0  0  0  0
   84.1157    3.7249   90.2974 H   0  0  0  0  0
   83.9240    2.2593   89.2723 H   0  0  0  0  0
   84.0226    5.1092   88.3795 H   0  0  0  0  0
   82.6028    4.0415   88.4238 H   0  0  0  0  0
   83.7086    4.2715   86.2492 H   0  0  0  0  0
   83.5660    2.5735   86.8964 H   0  0  0  0  0
   87.8255    3.0473   86.2989 H   0  0  0  0  0
   86.2251    1.6461   83.4549 H   0  0  0  0  0
   90.8932    2.9724   83.0011 H   0  0  0  0  0
   87.5921   -0.0240   81.1500 H   0  0  0  0  0
   87.0449    2.1639   79.6447 H   0  0  0  0  0
   86.0152    2.4818   81.0326 H   0  0  0  0  0
   86.0240   -0.0986   79.4485 H   0  0  0  0  0
   84.8508    1.2252   79.2378 H   0  0  0  0  0
   84.2622   -1.3088   79.7481 H   0  0  0  0  0
   85.7470   -1.5327   80.7054 H   0  0  0  0  0
   84.1537   -1.6607   81.4903 H   0  0  0  0  0
  1  2  2  0  0  0
  2  3  1  0  0  0
  2  8  1  0  0  0
  3  4  1  0  0  0
  4  5  1  0  0  0
  4  6  1  0  0  0
  6  7  1  0  0  0
  7  8  1  0  0  0
  8  9  1  0  0  0
  9 10  1  0  0  0
 10 11  4  0  0  0
 10 12  4  0  0  0
 11 17  4  0  0  0
 12 13  1  0  0  0
 12 15  4  0  0  0
 13 14  1  0  0  0
 15 16  4  0  0  0
 16 17  4  0  0  0
 16 21  1  0  0  0
 17 18  1  0  0  0
 18 19  1  0  0  0
 19 20  1  0  0  0
 20 21  1  0  0  0
 21 22  1  0  0  0
 22 23  2  0  0  0
 22 24  1  0  0  0
 24 25  1  0  0  0
 25 26  4  0  0  0
 25 27  4  0  0  0
 26 32  4  0  0  0
 27 28  4  0  0  0
 28 29  4  0  0  0
 29 30  1  0  0  0
 29 32  4  0  0  0
 30 31  3  0  0  0
 32 33  1  0  0  0
 33 34  1  0  0  0
 34 35  1  0  0  0
 35 36  1  0  0  0
 36 37  1  0  0  0
  3 38  1  0  0  0
  3 39  1  0  0  0
  4 40  1  0  0  0
  5 41  1  0  0  0
  5 42  1  0  0  0
  5 43  1  0  0  0
  6 44  1  0  0  0
  6 45  1  0  0  0
  7 46  1  0  0  0
  7 47  1  0  0  0
  9 48  1  0  0  0
  9 49  1  0  0  0
 11 50  1  0  0  0
 13 51  1  0  0  0
 13 52  1  0  0  0
 14 53  1  0  0  0
 18 54  1  0  0  0
 18 55  1  0  0  0
 19 56  1  0  0  0
 19 57  1  0  0  0
 20 58  1  0  0  0
 20 59  1  0  0  0
 24 60  1  0  0  0
 26 61  1  0  0  0
 28 62  1  0  0  0
 33 63  1  0  0  0
 34 64  1  0  0  0
 34 65  1  0  0  0
 35 66  1  0  0  0
 35 67  1  0  0  0
 37 68  1  0  0  0
 37 69  1  0  0  0
 37 70  1  0  0  0
M  END
$$$$
