5ye9_ligand
  -I-interpret- 

 52 55  0  0  0  0  0  0  0  0999 V2000
  -54.4970  -26.7280   18.5080 C   0  0  0  0  0
  -46.1910  -26.7790   19.6740 C   0  0  0  0  0
  -53.2280  -27.3570   18.6370 C   0  0  0  0  0
  -53.1760  -28.7660   18.8010 C   0  0  0  0  0
  -48.4150  -28.4020   19.2720 C   0  0  0  0  0
  -52.0160  -26.6360   18.6050 C   0  0  0  0  0
  -50.8160  -27.2620   18.7250 C   0  0  0  0  0
  -50.7730  -28.6480   18.8880 C   0  0  0  0  0
  -51.9130  -29.3960   18.9300 C   0  0  0  0  0
  -48.1630  -27.8570   20.5150 C   0  0  0  0  0
  -47.0560  -27.0540   20.7160 C   0  0  0  0  0
  -47.8910  -29.2380   15.9170 N   0  0  0  0  0
  -45.0500  -25.9480   19.8610 N   0  0  0  0  0
  -55.6400  -27.4600   18.5400 C   0  0  0  0  0
  -48.8850  -20.8420   21.3690 N   0  0  0  0  0
  -54.3920  -29.4880   18.8310 C   0  0  0  0  0
  -55.5870  -28.8530   18.7020 C   0  0  0  0  0
  -49.5090  -29.2240   19.0110 O   0  0  0  0  0
  -46.4280  -27.3130   18.4140 C   0  0  0  0  0
  -47.5390  -28.1240   18.2050 C   0  0  0  0  0
  -47.7580  -28.7060   16.9140 C   0  0  0  0  0
  -44.8600  -24.5470   19.0510 S   0  0  0  0  0
  -46.0240  -23.4390   19.7560 C   0  0  0  0  0
  -45.6370  -22.5720   20.7690 C   0  0  0  0  0
  -46.5610  -21.7010   21.3120 C   0  0  0  0  0
  -47.8790  -21.7000   20.8600 C   0  0  0  0  0
  -48.2560  -22.5790   19.8510 C   0  0  0  0  0
  -47.3340  -23.4440   19.3010 C   0  0  0  0  0
  -43.5500  -24.0480   19.3470 O   0  0  0  0  0
  -45.2320  -24.7800   17.6910 O   0  0  0  0  0
  -48.8370  -19.9960   22.4240 C   0  0  0  0  0
  -50.0630  -19.1470   22.6070 C   0  0  0  0  0
  -47.8820  -19.9210   23.1900 O   0  0  0  0  0
  -54.5525  -25.6467   18.3821 H   0  0  0  0  0
  -52.0427  -25.5534   18.4813 H   0  0  0  0  0
  -49.8917  -26.6851   18.6942 H   0  0  0  0  0
  -51.8527  -30.4762   19.0625 H   0  0  0  0  0
  -48.8414  -28.0612   21.3434 H   0  0  0  0  0
  -46.8640  -26.6346   21.7036 H   0  0  0  0  0
  -44.3297  -26.2386   20.5221 H   0  0  0  0  0
  -56.6047  -26.9627   18.4393 H   0  0  0  0  0
  -49.7732  -20.8654   20.8681 H   0  0  0  0  0
  -54.3705  -30.5702   18.9595 H   0  0  0  0  0
  -56.5113  -29.4303   18.7246 H   0  0  0  0  0
  -45.7459  -27.0974   17.5916 H   0  0  0  0  0
  -44.6098  -22.5787   21.1336 H   0  0  0  0  0
  -46.2575  -21.0103   22.0987 H   0  0  0  0  0
  -49.2855  -22.5843   19.4930 H   0  0  0  0  0
  -47.6343  -24.1308   18.5097 H   0  0  0  0  0
  -50.5081  -19.3586   23.5792 H   0  0  0  0  0
  -49.7855  -18.0942   22.5544 H   0  0  0  0  0
  -50.7817  -19.3744   21.8197 H   0  0  0  0  0
  3  1  4  0  0  0
  1 14  4  0  0  0
  2 11  4  0  0  0
 13  2  1  0  0  0
  2 19  4  0  0  0
  4  3  4  0  0  0
  6  3  4  0  0  0
  9  4  4  0  0  0
  4 16  4  0  0  0
 10  5  4  0  0  0
  5 18  1  0  0  0
 20  5  4  0  0  0
  7  6  4  0  0  0
  8  7  4  0  0  0
  8  9  4  0  0  0
 18  8  1  0  0  0
 11 10  4  0  0  0
 21 12  3  0  0  0
 22 13  1  0  0  0
 17 14  4  0  0  0
 26 15  1  0  0  0
 15 31  1  0  0  0
 16 17  4  0  0  0
 19 20  4  0  0  0
 20 21  1  0  0  0
 23 22  1  0  0  0
 22 29  2  0  0  0
 22 30  2  0  0  0
 24 23  4  0  0  0
 23 28  4  0  0  0
 25 24  4  0  0  0
 25 26  4  0  0  0
 26 27  4  0  0  0
 27 28  4  0  0  0
 31 32  1  0  0  0
 31 33  2  0  0  0
  1 34  1  0  0  0
  6 35  1  0  0  0
  7 36  1  0  0  0
  9 37  1  0  0  0
 10 38  1  0  0  0
 11 39  1  0  0  0
 13 40  1  0  0  0
 14 41  1  0  0  0
 15 42  1  0  0  0
 16 43  1  0  0  0
 17 44  1  0  0  0
 19 45  1  0  0  0
 24 46  1  0  0  0
 25 47  1  0  0  0
 27 48  1  0  0  0
 28 49  1  0  0  0
 32 50  1  0  0  0
 32 51  1  0  0  0
 32 52  1  0  0  0
M  END
$$$$
