3k8o_ligand
  -I-interpret- 

 35 36  0  0  0  0  0  0  0  0999 V2000
  -44.5540   -1.1850   -0.6890 O   0  0  0  0  0
  -43.2180   -1.6590   -0.8700 C   0  0  0  0  0
  -43.1120   -2.3930   -2.2130 C   0  0  0  0  0
  -44.0800   -3.4520   -2.2870 O   0  0  0  0  0
  -43.2790   -1.4640   -3.4150 C   0  0  0  0  0
  -43.2310   -2.3160   -4.6770 C   0  0  0  0  0
  -42.9040   -1.5390   -5.8410 O   0  0  0  0  0
  -44.5590   -0.8100   -3.3010 N   0  3  0  0  0
  -44.8600    0.3600   -4.0870 C   0  0  0  0  0
  -44.6800    1.5640   -3.2090 C   0  0  0  0  0
  -43.4410    2.3030   -2.9820 C   0  0  0  0  0
  -42.1980    2.0970   -3.4680 N   0  0  0  0  0
  -41.2170    2.9300   -3.0980 C   0  0  0  0  0
  -41.4320    3.9730   -2.2520 N   0  0  0  0  0
  -45.6340    2.2190   -2.4510 C   0  0  0  0  0
  -45.0800    3.2720   -1.7910 N   0  0  0  0  0
  -43.7690    3.3730   -2.0600 C   0  0  0  0  0
  -42.6250    4.2520   -1.6950 C   0  0  0  0  0
  -42.7550    5.2230   -0.9150 O   0  0  0  0  0
  -44.6184   -0.7261    0.1517 H   0  0  0  0  0
  -42.9632   -2.3437   -0.0611 H   0  0  0  0  0
  -42.5291   -0.8143   -0.8628 H   0  0  0  0  0
  -42.1042   -2.8059   -2.2572 H   0  0  0  0  0
  -43.9737   -4.0345   -1.5314 H   0  0  0  0  0
  -42.4914   -0.7115   -3.4542 H   0  0  0  0  0
  -44.2166   -2.7565   -4.8278 H   0  0  0  0  0
  -42.4591   -3.0744   -4.5463 H   0  0  0  0  0
  -42.8842   -2.1115   -6.6113 H   0  0  0  0  0
  -44.5841   -0.4766   -2.3373 H   0  0  0  0  0
  -45.2264   -1.5088   -3.6278 H   0  0  0  0  0
  -45.8839    0.3127   -4.4578 H   0  0  0  0  0
  -44.1944    0.4178   -4.9483 H   0  0  0  0  0
  -40.2123    2.7667   -3.4880 H   0  0  0  0  0
  -40.6432    4.5791   -2.0265 H   0  0  0  0  0
  -46.6837    1.9315   -2.3908 H   0  0  0  0  0
  1  2  1  0  0  0
  2  3  1  0  0  0
  3  4  1  0  0  0
  3  5  1  0  0  0
  5  6  1  0  0  0
  5  8  1  0  0  0
  6  7  1  0  0  0
  8  9  1  0  0  0
  9 10  1  0  0  0
 10 11  4  0  0  0
 10 15  4  0  0  0
 11 12  1  0  0  0
 11 17  4  0  0  0
 12 13  2  0  0  0
 13 14  1  0  0  0
 14 18  1  0  0  0
 15 16  4  0  0  0
 16 17  4  0  0  0
 17 18  1  0  0  0
 18 19  2  0  0  0
  1 20  1  0  0  0
  2 21  1  0  0  0
  2 22  1  0  0  0
  3 23  1  0  0  0
  4 24  1  0  0  0
  5 25  1  0  0  0
  6 26  1  0  0  0
  6 27  1  0  0  0
  7 28  1  0  0  0
  8 29  1  0  0  0
  8 30  1  0  0  0
  9 31  1  0  0  0
  9 32  1  0  0  0
 13 33  1  0  0  0
 14 34  1  0  0  0
 15 35  1  0  0  0
M  END
$$$$
