### 
### Created by X-TOOL on Mon Sep 10 21:12:57 2018
### 

@<TRIPOS>MOLECULE
2jld_ligand
   53    62     1     0     0
SMALL
GAST_HUCK


@<TRIPOS>ATOM
      1 C26        42.0320   82.4190   36.2090 C.ar      1 AG1         0.0726
      2 C25        42.3560   83.1060   34.9990 C.ar      1 AG1        -0.0442
      3 C24        43.1640   82.4910   33.9920 C.ar      1 AG1        -0.0455
      4 C23        43.6330   81.1820   34.1830 C.ar      1 AG1         0.0831
      5 C28        43.2720   80.5220   35.3710 C.ar      1 AG1        -0.0185
      6 C27        42.4970   81.1080   36.3790 C.ar      1 AG1        -0.0426
      7 C22        44.4970   79.2900   34.0600 C.ar      1 AG1         0.0845
      8 C29        43.8690   79.2170   35.2780 C.ar      1 AG1        -0.0253
      9 C40        45.2250   78.2780   33.5240 C.ar      1 AG1         0.0133
     10 C34        45.3720   77.0760   34.2430 C.ar      1 AG1        -0.0511
     11 C33        44.7160   76.9750   35.4970 C.ar      1 AG1         0.0005
     12 C30        43.9720   78.0450   36.0250 C.ar      1 AG1         0.0026
     13 C31        43.4960   77.6590   37.2900 C.2       1 AG1         0.1915
     14 C38        46.5040   77.6010   31.7180 C.ar      1 AG1        -0.0263
     15 C37        46.6900   76.3590   32.3860 C.ar      1 AG1         0.1011
     16 C36        46.1420   76.0740   33.6360 C.ar      1 AG1        -0.0606
     17 C32        44.6820   75.9750   36.4880 C.2       1 AG1         0.1796
     18 F5         47.4230   75.3820   31.7900 F         1 AG1        -0.1963
     19 N21        45.7360   78.5520   32.2830 N.ar      1 AG1        -0.3719
     20 N19        44.3180   80.3850   33.4370 N.pl3     1 AG1        -0.1621
     21 N20        43.9410   76.3970   37.5730 N.am      1 AG1        -0.2198
     22 O2         41.2780   83.0010   37.1880 O.3       1 AG1        -0.3418
     23 O1         45.2070   74.8840   36.4660 O.2       1 AG1        -0.4095
     24 O41        42.7740   78.2640   38.0560 O.2       1 AG1        -0.3983
     25 C12        43.7110   79.8890   30.5200 C.2       1 AG1        -0.8996
     26 O13        42.8420   79.5670   29.9520 O.2       1 AG1        -1.1004
     27 C18        46.6280   82.1460   31.8550 C.2       1 AG1        -0.6210
     28 C14        45.7870   82.3580   30.7600 C.2       1 AG1        -0.5417
     29 C15        46.0790   81.3830   29.7920 C.2       1 AG1        -0.7744
     30 C16        47.0920   80.5730   30.2800 C.2       1 AG1        -0.7349
     31 C17        47.4270   81.0460   31.5510 C.3       1 AG1        -0.3925
     32 C3         44.7800   83.4260   30.6020 C.2       1 AG1        -0.1378
     33 C10        41.6850   83.7640   28.2260 C.3       1 AG1        -0.0328
     34 C6         43.0130   84.2670   28.8260 C.3       1 AG1         0.0724
     35 C7         42.8450   85.4310   29.8200 C.2       1 AG1         0.0568
     36 N4         44.0370   83.3640   29.4120 N.am      1 AG1        -0.3638
     37 O9         44.6450   84.2040   31.5420 O.2       1 AG1        -0.6623
     38 O8         42.1000   85.1550   30.9270 O.co2     1 AG1        -0.5669
     39 O11        43.3870   86.5060   29.6340 O.co2     1 AG1        -0.5669
     40 RU         45.2780   80.4370   31.6100 Ru        1 AG1         7.0000
     41 H          41.9806   84.1170   34.8405 H         1 AG1         0.0506
     42 H          43.4141   83.0356   33.0815 H         1 AG1         0.0509
     43 H          42.2582   80.5512   37.2851 H         1 AG1         0.0476
     44 H          46.9803   77.7819   30.7544 H         1 AG1         0.0462
     45 H          46.3055   75.1118   34.1213 H         1 AG1         0.0278
     46 H          43.7593   75.8674   38.4256 H         1 AG1         0.2177
     47 H          41.7843   83.0344   38.0030 H         1 AG1         0.2439
     48 H          48.4432   80.9439   31.9318 H         1 AG1        -0.0393
     49 H          41.0349   83.4140   29.0279 H         1 AG1         0.0268
     50 H          41.1976   84.5791   27.6911 H         1 AG1         0.0268
     51 H          41.8867   82.9444   27.5363 H         1 AG1         0.0268
     52 H          43.4325   84.5326   27.8557 H         1 AG1         0.0689
     53 H          44.2387   82.5429   28.8415 H         1 AG1         0.1557
@<TRIPOS>BOND
     1    2    1 ar 
     2    6    1 ar 
     3    1   22 1  
     4    3    2 ar 
     5    4    3 ar 
     6    4    5 ar 
     7   20    4 1  
     8    5    6 ar 
     9    8    5 1  
    10    7    8 ar 
    11    7    9 ar 
    12   20    7 1  
    13    8   12 ar 
    14    9   10 ar 
    15   19    9 ar 
    16   10   11 ar 
    17   10   16 ar 
    18   12   11 ar 
    19   11   17 1  
    20   12   13 1  
    21   13   21 am 
    22   13   24 2  
    23   14   15 ar 
    24   19   14 ar 
    25   15   16 ar 
    26   15   18 1  
    27   17   21 am 
    28   17   23 2  
    29   25   26 2  
    30   27   28 2  
    31   27   31 1  
    32   28   29 1  
    33   28   32 1  
    34   30   29 2  
    35   31   30 1  
    36   32   36 am 
    37   32   37 2  
    38   34   33 1  
    39   34   35 1  
    40   36   34 1  
    41   35   38 ar 
    42   35   39 ar 
    43   40   19 1  
    44   40   20 1  
    45   40   25 1  
    46   40   27 1  
    47   40   29 1  
    48   40   30 1  
    49   40   31 1  
    50    2   41 1  
    51    3   42 1  
    52    6   43 1  
    53   14   44 1  
    54   16   45 1  
    55   21   46 1  
    56   22   47 1  
    57   31   48 1  
    58   33   49 1  
    59   33   50 1  
    60   33   51 1  
    61   34   52 1  
    62   36   53 1  
@<TRIPOS>SUBSTRUCTURE
     1 AG1         1

