2jld_ligand
  -I-interpret- 

 55 64  0  0  0  0  0  0  0  0999 V2000
   42.0320   82.4190   36.2090 C   0  0  0  0  0
   42.3560   83.1060   34.9990 C   0  0  0  0  0
   43.1640   82.4910   33.9920 C   0  0  0  0  0
   43.6330   81.1820   34.1830 C   0  0  0  0  0
   43.2720   80.5220   35.3710 C   0  0  0  0  0
   42.4970   81.1080   36.3790 C   0  0  0  0  0
   44.4970   79.2900   34.0600 C   0  0  0  0  0
   43.8690   79.2170   35.2780 C   0  0  0  0  0
   45.2250   78.2780   33.5240 C   0  0  0  0  0
   45.3720   77.0760   34.2430 C   0  0  0  0  0
   44.7160   76.9750   35.4970 C   0  0  0  0  0
   43.9720   78.0450   36.0250 C   0  0  0  0  0
   43.4960   77.6590   37.2900 C   0  0  0  0  0
   46.5040   77.6010   31.7180 C   0  0  0  0  0
   46.6900   76.3590   32.3860 C   0  0  0  0  0
   46.1420   76.0740   33.6360 C   0  0  0  0  0
   44.6820   75.9750   36.4880 C   0  0  0  0  0
   47.4230   75.3820   31.7900 F   0  0  0  0  0
   45.7360   78.5520   32.2830 N   0  0  0  0  0
   44.3180   80.3850   33.4370 N   0  0  0  0  0
   43.9410   76.3970   37.5730 N   0  0  0  0  0
   41.2780   83.0010   37.1880 O   0  0  0  0  0
   45.2070   74.8840   36.4660 O   0  0  0  0  0
   42.7740   78.2640   38.0560 O   0  0  0  0  0
   43.7110   79.8890   30.5200 C   0  0  0  0  0
   42.8420   79.5670   29.9520 O   0  0  0  0  0
   46.6280   82.1460   31.8550 C   0  0  0  0  0
   45.7870   82.3580   30.7600 C   0  0  0  0  0
   46.0790   81.3830   29.7920 C   0  0  0  0  0
   47.0920   80.5730   30.2800 C   0  0  0  0  0
   47.4270   81.0460   31.5510 C   0  0  0  0  0
   44.7800   83.4260   30.6020 C   0  0  0  0  0
   41.6850   83.7640   28.2260 C   0  0  0  0  0
   43.0130   84.2670   28.8260 C   0  0  0  0  0
   42.8450   85.4310   29.8200 C   0  0  0  0  0
   44.0370   83.3640   29.4120 N   0  0  0  0  0
   44.6450   84.2040   31.5420 O   0  0  0  0  0
   42.1000   85.1550   30.9270 O   0  0  0  0  0
   43.3870   86.5060   29.6340 O   0  0  0  0  0
   45.2780   80.4370   31.6100 Ru  0  0  0  0  0
   41.9806   84.1170   34.8405 H   0  0  0  0  0
   43.4141   83.0356   33.0815 H   0  0  0  0  0
   42.2582   80.5512   37.2851 H   0  0  0  0  0
   46.9803   77.7819   30.7544 H   0  0  0  0  0
   46.3055   75.1118   34.1213 H   0  0  0  0  0
   43.7593   75.8674   38.4256 H   0  0  0  0  0
   41.1705   82.3849   37.9164 H   0  0  0  0  0
   44.0374   80.5244   29.6967 H   0  0  0  0  0
   48.4432   80.9439   31.9318 H   0  0  0  0  0
   41.0349   83.4140   29.0279 H   0  0  0  0  0
   41.1976   84.5791   27.6911 H   0  0  0  0  0
   41.8867   82.9444   27.5363 H   0  0  0  0  0
   43.4325   84.5326   27.8557 H   0  0  0  0  0
   44.2387   82.5429   28.8415 H   0  0  0  0  0
   41.7675   84.2561   30.8716 H   0  0  0  0  0
  2  1  4  0  0  0
  6  1  4  0  0  0
  1 22  1  0  0  0
  3  2  4  0  0  0
  4  3  4  0  0  0
  4  5  4  0  0  0
 20  4  4  0  0  0
  5  6  4  0  0  0
  8  5  4  0  0  0
  7  8  4  0  0  0
  7  9  4  0  0  0
 20  7  4  0  0  0
  8 12  4  0  0  0
  9 10  4  0  0  0
 19  9  4  0  0  0
 10 11  4  0  0  0
 10 16  4  0  0  0
 12 11  4  0  0  0
 11 17  1  0  0  0
 12 13  1  0  0  0
 13 21  1  0  0  0
 13 24  2  0  0  0
 14 15  4  0  0  0
 19 14  4  0  0  0
 15 16  4  0  0  0
 15 18  1  0  0  0
 17 21  1  0  0  0
 17 23  2  0  0  0
 25 26  2  0  0  0
 27 28  2  0  0  0
 27 31  1  0  0  0
 28 29  1  0  0  0
 28 32  1  0  0  0
 30 29  2  0  0  0
 31 30  1  0  0  0
 32 36  1  0  0  0
 32 37  2  0  0  0
 34 33  1  0  0  0
 34 35  1  0  0  0
 36 34  1  0  0  0
 35 38  1  0  0  0
 35 39  2  0  0  0
 40 19  1  0  0  0
 40 20  1  0  0  0
 40 25  1  0  0  0
 40 27  1  0  0  0
 40 29  1  0  0  0
 40 30  1  0  0  0
 40 31  1  0  0  0
  2 41  1  0  0  0
  3 42  1  0  0  0
  6 43  1  0  0  0
 14 44  1  0  0  0
 16 45  1  0  0  0
 21 46  1  0  0  0
 22 47  1  0  0  0
 25 48  1  0  0  0
 31 49  1  0  0  0
 33 50  1  0  0  0
 33 51  1  0  0  0
 33 52  1  0  0  0
 34 53  1  0  0  0
 36 54  1  0  0  0
 38 55  1  0  0  0
M  END
$$$$
