2j62_ligand
  -I-interpret- 

 54 56  0  0  0  0  0  0  0  0999 V2000
   37.1090   40.4740   22.5240 C   0  0  0  0  0
   36.5190   41.7320   21.8600 C   0  0  0  0  0
   37.0330   42.9790   22.5650 C   0  0  0  0  0
   34.9720   41.7350   21.8580 C   0  0  0  0  0
   34.3250   40.7810   22.3200 O   0  0  0  0  0
   34.4150   42.8330   21.3140 N   0  0  0  0  0
   32.9330   43.0140   21.2010 C   0  0  0  0  0
   32.2780   43.1860   22.5720 C   0  0  0  0  0
   32.2910   44.5600   22.8210 O   0  0  0  0  0
   30.8330   42.6510   22.6560 C   0  0  0  0  0
   30.3000   42.8810   23.9690 O   0  0  0  0  0
   30.8690   41.1540   22.3300 C   0  0  0  0  0
   29.5680   40.3700   22.6510 C   0  0  0  0  0
   28.5320   40.8310   21.8280 O   0  0  0  0  0
   31.2900   41.0200   20.9070 N   0  0  0  0  0
   30.9460   40.1880   19.9240 C   0  0  0  0  0
   32.2770   41.8850   20.3670 C   0  0  0  0  0
   32.4450   41.5340   19.0930 N   0  0  0  0  0
   31.6290   40.5070   18.8130 C   0  0  0  0  0
   31.5430   39.7580   17.4630 C   0  0  0  0  0
   31.3720   40.7370   16.3070 C   0  0  0  0  0
   29.9540   41.3460   16.2500 C   0  0  0  0  0
   28.8900   40.6290   15.6690 C   0  0  0  0  0
   27.6060   41.1840   15.5930 C   0  0  0  0  0
   27.4000   42.4620   16.1150 C   0  0  0  0  0
   28.4610   43.1830   16.6960 C   0  0  0  0  0
   29.7370   42.6290   16.7710 C   0  0  0  0  0
   36.7727   40.4195   23.5594 H   0  0  0  0  0
   36.7731   39.5885   21.9845 H   0  0  0  0  0
   38.1974   40.5267   22.4965 H   0  0  0  0  0
   36.8442   41.7269   20.8196 H   0  0  0  0  0
   36.6733   43.8650   22.0418 H   0  0  0  0  0
   36.6696   42.9897   23.5926 H   0  0  0  0  0
   38.1230   42.9723   22.5638 H   0  0  0  0  0
   35.0266   43.5709   20.9650 H   0  0  0  0  0
   32.7593   43.9414   20.6552 H   0  0  0  0  0
   32.8315   42.6037   23.3087 H   0  0  0  0  0
   31.8892   44.7330   23.6755 H   0  0  0  0  0
   30.1870   43.1667   21.9455 H   0  0  0  0  0
   29.4016   42.5452   24.0118 H   0  0  0  0  0
   31.5892   40.6789   22.9962 H   0  0  0  0  0
   29.2987   40.5238   23.6959 H   0  0  0  0  0
   29.7298   39.3071   22.4717 H   0  0  0  0  0
   27.7275   40.3463   22.0264 H   0  0  0  0  0
   30.2236   39.3762   20.0088 H   0  0  0  0  0
   30.6817   39.0904   17.4870 H   0  0  0  0  0
   32.4659   39.1976   17.3139 H   0  0  0  0  0
   31.5409   40.1922   15.3781 H   0  0  0  0  0
   32.0817   41.5519   16.4496 H   0  0  0  0  0
   29.0680   39.6291   15.2733 H   0  0  0  0  0
   26.7859   40.6300   15.1363 H   0  0  0  0  0
   26.4060   42.9073   16.0724 H   0  0  0  0  0
   28.2823   44.1833   17.0905 H   0  0  0  0  0
   30.5551   43.1854   17.2284 H   0  0  0  0  0
  1  2  1  0  0  0
  2  3  1  0  0  0
  2  4  1  0  0  0
  4  5  2  0  0  0
  4  6  1  0  0  0
  6  7  1  0  0  0
  7  8  1  0  0  0
  7 17  1  0  0  0
  8  9  1  0  0  0
  8 10  1  0  0  0
 10 11  1  0  0  0
 10 12  1  0  0  0
 12 13  1  0  0  0
 12 15  1  0  0  0
 13 14  1  0  0  0
 15 16  4  0  0  0
 15 17  4  0  0  0
 16 19  4  0  0  0
 17 18  4  0  0  0
 18 19  4  0  0  0
 19 20  1  0  0  0
 20 21  1  0  0  0
 21 22  1  0  0  0
 22 23  4  0  0  0
 22 27  4  0  0  0
 23 24  4  0  0  0
 24 25  4  0  0  0
 25 26  4  0  0  0
 26 27  4  0  0  0
  1 28  1  0  0  0
  1 29  1  0  0  0
  1 30  1  0  0  0
  2 31  1  0  0  0
  3 32  1  0  0  0
  3 33  1  0  0  0
  3 34  1  0  0  0
  6 35  1  0  0  0
  7 36  1  0  0  0
  8 37  1  0  0  0
  9 38  1  0  0  0
 10 39  1  0  0  0
 11 40  1  0  0  0
 12 41  1  0  0  0
 13 42  1  0  0  0
 13 43  1  0  0  0
 14 44  1  0  0  0
 16 45  1  0  0  0
 20 46  1  0  0  0
 20 47  1  0  0  0
 21 48  1  0  0  0
 21 49  1  0  0  0
 23 50  1  0  0  0
 24 51  1  0  0  0
 25 52  1  0  0  0
 26 53  1  0  0  0
 27 54  1  0  0  0
M  END
$$$$
