5alm_ligand
  -I-interpret- 

 43 45  0  0  0  0  0  0  0  0999 V2000
   13.0120   10.0570   19.5840 C   0  0  0  0  0
   14.3350   10.9620   21.3580 C   0  0  0  0  0
   11.9190    9.9910   20.4180 C   0  0  0  0  0
   13.2390   10.8950   22.1950 C   0  0  0  0  0
   14.2170   10.5620   20.0430 C   0  0  0  0  0
   12.0320   10.4120   21.7250 C   0  0  0  0  0
   18.9030   10.9850   13.1130 C   0  0  0  0  0
   17.4660   10.7140   12.8010 C   0  0  0  0  0
   14.4620   10.7880   16.9320 C   0  0  0  0  0
   15.3820   10.6340   15.7550 C   0  0  0  0  0
   16.6690   11.4930   17.4580 C   0  0  0  0  0
   18.0110   10.3920   14.1640 C   0  0  0  0  0
   15.2680   11.4480   18.0330 C   0  0  0  0  0
   14.7610   12.8560   18.3050 C   0  0  0  0  0
   10.9890    8.6900   23.4810 C   0  0  0  0  0
   17.6170   11.2590   15.3150 C   0  0  0  0  0
   16.7370   10.6120   16.2890 N   0  3  0  0  0
   15.3570   10.6380   19.2310 O   0  0  0  0  0
   10.6130   10.3100   22.7740 S   0  0  0  0  0
   12.9284    9.7091   18.5544 H   0  0  0  0  0
   15.2896   11.3294   21.7347 H   0  0  0  0  0
   10.9688    9.6076   20.0463 H   0  0  0  0  0
   13.3258   11.2242   23.2305 H   0  0  0  0  0
   19.6188   11.8013   13.0164 H   0  0  0  0  0
   19.8826   10.7970   12.6736 H   0  0  0  0  0
   16.8762   10.2309   12.0220 H   0  0  0  0  0
   16.6130   11.2331   12.3640 H   0  0  0  0  0
   14.0820    9.8194   17.2567 H   0  0  0  0  0
   13.5946   11.3938   16.6698 H   0  0  0  0  0
   15.2539   11.4550   15.0496 H   0  0  0  0  0
   15.1638    9.7176   15.2065 H   0  0  0  0  0
   17.3844   11.1599   18.2099 H   0  0  0  0  0
   16.9109   12.5138   17.1620 H   0  0  0  0  0
   18.0350    9.5007   14.7909 H   0  0  0  0  0
   14.8490   13.4540   17.3980 H   0  0  0  0  0
   13.7162   12.8115   18.6124 H   0  0  0  0  0
   15.3557   13.3079   19.0988 H   0  0  0  0  0
   11.0357    7.9488   22.6832 H   0  0  0  0  0
   11.9492    8.7333   23.9951 H   0  0  0  0  0
   10.2081    8.4142   24.1897 H   0  0  0  0  0
   17.0686   12.1062   14.9031 H   0  0  0  0  0
   18.5333   11.5263   15.8413 H   0  0  0  0  0
   17.0707    9.6709   16.4974 H   0  0  0  0  0
  1  3  4  0  0  0
  5  1  4  0  0  0
  2  4  4  0  0  0
  5  2  4  0  0  0
  3  6  4  0  0  0
  4  6  4  0  0  0
 18  5  1  0  0  0
  6 19  1  0  0  0
  8  7  1  0  0  0
 12  7  1  0  0  0
 12  8  1  0  0  0
 10  9  1  0  0  0
 13  9  1  0  0  0
 17 10  1  0  0  0
 11 13  1  0  0  0
 17 11  1  0  0  0
 16 12  1  0  0  0
 13 14  1  0  0  0
 13 18  1  0  0  0
 19 15  1  0  0  0
 16 17  1  0  0  0
  1 20  1  0  0  0
  2 21  1  0  0  0
  3 22  1  0  0  0
  4 23  1  0  0  0
  7 24  1  0  0  0
  7 25  1  0  0  0
  8 26  1  0  0  0
  8 27  1  0  0  0
  9 28  1  0  0  0
  9 29  1  0  0  0
 10 30  1  0  0  0
 10 31  1  0  0  0
 11 32  1  0  0  0
 11 33  1  0  0  0
 12 34  1  0  0  0
 14 35  1  0  0  0
 14 36  1  0  0  0
 14 37  1  0  0  0
 15 38  1  0  0  0
 15 39  1  0  0  0
 15 40  1  0  0  0
 16 41  1  0  0  0
 16 42  1  0  0  0
 17 43  1  0  0  0
M  END
$$$$
