3g9l_ligand
  -I-interpret- 

 51 55  0  0  0  0  0  0  0  0999 V2000
   17.9830    6.2560   33.0480 O   0  0  0  0  0
   18.7530    7.4310   32.9490 N   0  0  0  0  0
   19.7720    7.3550   32.1670 C   0  0  0  0  0
   20.2170    6.1770   31.3870 C   0  0  0  0  0
   19.6450    5.1050   31.3070 O   0  0  0  0  0
   21.3730    6.4990   30.7980 N   0  0  0  0  0
   22.0690    5.5860   29.8960 C   0  0  0  0  0
   23.0050    4.6740   30.6320 C   0  0  0  0  0
   22.5260    3.7480   31.5350 C   0  0  0  0  0
   23.4250    2.9250   32.1940 C   0  0  0  0  0
   22.9570    2.0100   33.0750 F   0  0  0  0  0
   24.7930    3.0290   31.9410 C   0  0  0  0  0
   25.2620    3.9650   31.0260 C   0  0  0  0  0
   26.7330    4.1040   30.7210 C   0  0  0  0  0
   26.8710    4.6480   29.3900 O   0  0  0  0  0
   26.1800    5.8900   29.1980 C   0  0  0  0  0
   24.7740    5.7130   29.4570 O   0  0  0  0  0
   24.3620    4.7820   30.3650 C   0  0  0  0  0
   21.7240    7.8280   31.0670 C   0  0  0  0  0
   22.7800    8.6270   30.6390 C   0  0  0  0  0
   22.8600    9.9510   31.0300 C   0  0  0  0  0
   21.8970   10.5100   31.8590 C   0  0  0  0  0
   20.8110    9.7330   32.2940 C   0  0  0  0  0
   19.7460   10.2870   33.1510 C   0  0  0  0  0
   19.6210   11.6220   33.2210 C   0  0  0  0  0
   18.5870   12.2930   34.0320 C   0  0  0  0  0
   18.1490   11.7400   35.2520 C   0  0  0  0  0
   17.1780   12.3910   35.9940 C   0  0  0  0  0
   16.6360   13.5860   35.5310 C   0  0  0  0  0
   17.0570   14.1440   34.3230 C   0  0  0  0  0
   18.0310   13.5050   33.5700 C   0  0  0  0  0
   20.7400    8.4020   31.8820 C   0  0  0  0  0
   17.2493    6.4053   33.6488 H   0  0  0  0  0
   22.6539    6.1803   29.1940 H   0  0  0  0  0
   21.3235    4.9728   29.3897 H   0  0  0  0  0
   21.4563    3.6649   31.7273 H   0  0  0  0  0
   25.4944    2.3763   32.4608 H   0  0  0  0  0
   27.2205    3.1308   30.7795 H   0  0  0  0  0
   27.2042    4.7671   31.4465 H   0  0  0  0  0
   26.3173    6.2228   28.1692 H   0  0  0  0  0
   26.5814    6.6350   29.8849 H   0  0  0  0  0
   23.5492    8.2064   29.9913 H   0  0  0  0  0
   23.6911   10.5645   30.6823 H   0  0  0  0  0
   21.9836   11.5505   32.1719 H   0  0  0  0  0
   19.0795    9.6314   33.7114 H   0  0  0  0  0
   20.3162   12.2392   32.6519 H   0  0  0  0  0
   18.5735   10.8023   35.6106 H   0  0  0  0  0
   16.8387   11.9680   36.9395 H   0  0  0  0  0
   15.8720   14.0934   36.1200 H   0  0  0  0  0
   16.6215   15.0796   33.9722 H   0  0  0  0  0
   18.3651   13.9367   32.6265 H   0  0  0  0  0
  1  2  1  0  0  0
  2  3  2  0  0  0
  3  4  1  0  0  0
  3 32  1  0  0  0
  4  5  2  0  0  0
  4  6  1  0  0  0
  6  7  1  0  0  0
  6 19  1  0  0  0
  7  8  1  0  0  0
  8  9  4  0  0  0
  8 18  4  0  0  0
  9 10  4  0  0  0
 10 11  1  0  0  0
 10 12  4  0  0  0
 12 13  4  0  0  0
 13 14  1  0  0  0
 13 18  4  0  0  0
 14 15  1  0  0  0
 15 16  1  0  0  0
 16 17  1  0  0  0
 17 18  1  0  0  0
 19 20  4  0  0  0
 19 32  4  0  0  0
 20 21  4  0  0  0
 21 22  4  0  0  0
 22 23  4  0  0  0
 23 24  1  0  0  0
 23 32  4  0  0  0
 24 25  2  0  0  0
 25 26  1  0  0  0
 26 27  4  0  0  0
 26 31  4  0  0  0
 27 28  4  0  0  0
 28 29  4  0  0  0
 29 30  4  0  0  0
 30 31  4  0  0  0
  1 33  1  0  0  0
  7 34  1  0  0  0
  7 35  1  0  0  0
  9 36  1  0  0  0
 12 37  1  0  0  0
 14 38  1  0  0  0
 14 39  1  0  0  0
 16 40  1  0  0  0
 16 41  1  0  0  0
 20 42  1  0  0  0
 21 43  1  0  0  0
 22 44  1  0  0  0
 24 45  1  0  0  0
 25 46  1  0  0  0
 27 47  1  0  0  0
 28 48  1  0  0  0
 29 49  1  0  0  0
 30 50  1  0  0  0
 31 51  1  0  0  0
M  END
$$$$
