5mon_ligand
  -I-interpret- 

 13 13  0  0  0  0  0  0  0  0999 V2000
   -2.3590  -14.1710  -17.7730 N   0  0  0  0  0
   -1.8560  -15.3910  -17.4920 C   0  0  0  0  0
   -1.3270  -15.6040  -16.2040 C   0  0  0  0  0
   -1.3310  -14.5670  -15.2910 C   0  0  0  0  0
   -1.8520  -13.3380  -15.6300 C   0  0  0  0  0
   -2.3700  -13.1650  -16.8800 C   0  0  0  0  0
   -1.8980  -16.3280  -18.4310 N   0  0  0  0  0
   -0.9187  -16.5769  -15.9304 H   0  0  0  0  0
   -0.9184  -14.7229  -14.2942 H   0  0  0  0  0
   -1.8504  -12.5179  -14.9120 H   0  0  0  0  0
   -2.7973  -12.2016  -17.1581 H   0  0  0  0  0
   -2.3046  -16.1185  -19.3427 H   0  0  0  0  0
   -1.5237  -17.2576  -18.2410 H   0  0  0  0  0
  1  2  4  0  0  0
  1  6  4  0  0  0
  2  3  4  0  0  0
  2  7  1  0  0  0
  3  4  4  0  0  0
  4  5  4  0  0  0
  5  6  4  0  0  0
  3  8  1  0  0  0
  4  9  1  0  0  0
  5 10  1  0  0  0
  6 11  1  0  0  0
  7 12  1  0  0  0
  7 13  1  0  0  0
M  END
$$$$
