### 
### Created by X-TOOL on Mon Sep 10 21:12:50 2018
### 

@<TRIPOS>MOLECULE
1nzl_ligand
  140   143     1     0     0
SMALL
GAST_HUCK


@<TRIPOS>ATOM
      1 N          18.0160   28.8240    4.4760 N.4       1 PRO         0.2461
      2 CA         19.4500   29.0670    4.5460 C.3       1 PRO         0.0670
      3 C          19.5880   30.4660    5.1370 C.2       1 PRO         0.2268
      4 O          20.5790   31.1610    4.8890 O.2       1 PRO        -0.3907
      5 CB         19.9230   29.0220    3.1200 C.3       1 PRO         0.0127
      6 CG         18.7640   29.7390    2.4310 C.3       1 PRO        -0.0053
      7 CD         17.5380   29.0680    3.1020 C.3       1 PRO        -0.0313
      8 N          18.5640   30.8880    5.8850 N.am      1 GLN        -0.2609
      9 CA         18.5750   32.2160    6.5130 C.3       1 GLN         0.1331
     10 C          18.6760   32.2640    8.0310 C.2       1 GLN         0.2042
     11 O          18.3910   31.2900    8.7360 O.2       1 GLN        -0.3944
     12 CB         17.3400   33.0030    6.1110 C.3       1 GLN         0.0045
     13 CG         17.1300   33.0260    4.6650 C.3       1 GLN         0.0412
     14 CD         15.8080   33.6020    4.2930 C.2       1 GLN         0.1737
     15 OE1        15.0400   34.0330    5.1430 O.2       1 GLN        -0.3973
     16 NE2        15.5190   33.6140    3.0100 N.am      1 GLN        -0.3009
     17 N          19.0910   33.4320    8.5150 N.am      1 PTR        -0.2607
     18 CA         19.2310   33.6950    9.9440 C.3       1 PTR         0.1468
     19 C          18.1160   34.6470   10.3610 C.2       1 PTR         0.2074
     20 O          17.7090   35.5150    9.5880 O.2       1 PTR        -0.3941
     21 CB         20.5940   34.3250   10.2480 C.3       1 PTR         0.0400
     22 CG         21.7180   33.3220   10.3040 C.ar      1 PTR        -0.0004
     23 CD1        21.9860   32.6140   11.4710 C.ar      1 PTR        -0.0239
     24 CD2        22.4880   33.0540    9.1820 C.ar      1 PTR        -0.0239
     25 CE1        22.9910   31.6670   11.5160 C.ar      1 PTR         0.0115
     26 CE2        23.4940   32.1070    9.2150 C.ar      1 PTR         0.0115
     27 CZ         23.7420   31.4180   10.3830 C.ar      1 PTR         0.1728
     28 OH         24.7500   30.4850   10.4130 O.3       1 PTR        -0.2040
     29 P          24.5510   28.9480   10.0810 P.3       1 PTR         0.1348
     30 O1P        24.7330   28.7000    8.6300 O.co2     1 PTR        -0.6653
     31 O2P        23.1920   28.5020   10.4480 O.co2     1 PTR        -0.6653
     32 O3P        25.5830   28.2260   10.8570 O.co2     1 PTR        -0.6653
     33 N          17.6200   34.4760   11.5820 N.am      1 GLU        -0.2634
     34 CA         16.5420   35.3050   12.0960 C.3       1 GLU         0.1325
     35 C          17.1030   36.6210   12.6110 C.2       1 GLU         0.2042
     36 O          18.1500   36.6500   13.2580 O.2       1 GLU        -0.3944
     37 CB         15.8120   34.5650   13.2240 C.3       1 GLU        -0.0008
     38 CG         14.5170   35.2120   13.7200 C.3       1 GLU         0.0044
     39 CD         13.3600   35.0730   12.7410 C.2       1 GLU         0.0350
     40 OE1        13.4260   34.1970   11.8530 O.co2     1 GLU        -0.5690
     41 OE2        12.3760   35.8320   12.8750 O.co2     1 GLU        -0.5690
     42 N          16.4090   37.7090   12.3050 N.am      1 PTR        -0.2607
     43 CA         16.8330   39.0240   12.7530 C.3       1 PTR         0.1468
     44 C          15.9030   39.5020   13.8480 C.2       1 PTR         0.2074
     45 O          14.7010   39.2320   13.8150 O.2       1 PTR        -0.3941
     46 CB         16.7730   40.0350   11.6100 C.3       1 PTR         0.0400
     47 CG         17.8630   39.8900   10.5830 C.ar      1 PTR        -0.0004
     48 CD1        19.0800   40.5390   10.7390 C.ar      1 PTR        -0.0239
     49 CD2        17.6770   39.1050    9.4580 C.ar      1 PTR        -0.0239
     50 CE1        20.0790   40.4090    9.8000 C.ar      1 PTR         0.0115
     51 CE2        18.6700   38.9680    8.5140 C.ar      1 PTR         0.0115
     52 CZ         19.8690   39.6200    8.6880 C.ar      1 PTR         0.1728
     53 OH         20.8530   39.4630    7.7400 O.3       1 PTR        -0.2040
     54 P          22.3560   40.0310    7.7420 P.3       1 PTR         0.1348
     55 O1P        22.9970   39.6100    6.4850 O.co2     1 PTR        -0.6653
     56 O2P        23.1030   39.5170    8.9080 O.co2     1 PTR        -0.6653
     57 O3P        22.3350   41.5140    7.8130 O.co2     1 PTR        -0.6653
     58 N          16.4590   40.2070   14.8280 N.am      1 ILE        -0.2632
     59 CA         15.6420   40.7720   15.8890 C.3       1 ILE         0.1337
     60 C          15.0900   42.0480   15.2520 C.2       1 ILE         0.2067
     61 O          15.8420   42.8420   14.6850 O.2       1 ILE        -0.3942
     62 CB         16.4890   41.1090   17.1420 C.3       1 ILE        -0.0037
     63 CG1        16.9910   39.8120   17.7850 C.3       1 ILE        -0.0491
     64 CG2        15.6680   41.9160   18.1500 C.3       1 ILE        -0.0582
     65 CD1        17.7910   40.0220   19.0660 C.3       1 ILE        -0.0648
     66 N          13.7630   42.2360   15.2980 N.am      1 PRO        -0.2498
     67 CA         13.1210   43.4200   14.7160 C.3       1 PRO         0.1337
     68 C          13.5530   44.7430   15.3490 C.2       1 PRO         0.2035
     69 O          13.7910   44.8160   16.5540 O.2       1 PRO        -0.3944
     70 CB         11.6320   43.1290   14.9020 C.3       1 PRO        -0.0104
     71 CG         11.6050   42.2850   16.1520 C.3       1 PRO        -0.0281
     72 CD         12.7660   41.3460   15.9200 C.3       1 PRO         0.0369
     73 N          13.6590   45.7720   14.5080 N.am      1 ALA        -0.2697
     74 CA         14.0700   47.1260   14.8870 C.3       1 ALA         0.0916
     75 C          15.5800   47.3090   14.7480 C.2       1 ALA         0.0598
     76 O          15.9750   48.1900   13.9580 O.co2     1 ALA        -0.5666
     77 CB         13.6210   47.4680   16.3190 C.3       1 ALA        -0.0300
     78 OXT        16.3550   46.5760   15.4110 O.co2     1 ALA        -0.5666
     79 H1         17.5394   29.4442    5.1118 H         1 PRO         0.2035
     80 H2         17.8250   27.8681    4.7326 H         1 PRO         0.2035
     81 H3         19.9740   28.3217    5.1624 H         1 PRO         0.1099
     82 H4         20.0352   27.9887    2.7599 H         1 PRO         0.0347
     83 H5         20.8725   29.5614    2.9880 H         1 PRO         0.0347
     84 H6         18.7727   29.5641    1.3450 H         1 PRO         0.0320
     85 H7         18.7872   30.8209    2.6284 H         1 PRO         0.0320
     86 H8         16.6666   29.7392    3.0981 H         1 PRO         0.0814
     87 H9         17.2769   28.1252    2.5992 H         1 PRO         0.0814
     88 H10        17.7752   30.2883    6.0198 H         1 GLN         0.1885
     89 H11        19.4590   32.7377    6.1176 H         1 GLN         0.0801
     90 H12        17.4514   34.0380    6.4666 H         1 GLN         0.0337
     91 H13        16.4606   32.5445    6.5867 H         1 GLN         0.0337
     92 H14        17.1866   31.9959    4.2832 H         1 GLN         0.0504
     93 H15        17.9225   33.6326    4.2024 H         1 GLN         0.0504
     94 H16        14.6458   33.9881    2.6976 H         1 GLN         0.1814
     95 H17        16.1725   33.2490    2.3468 H         1 GLN         0.1814
     96 H18        19.3172   34.1626    7.8707 H         1 PTR         0.1886
     97 H19        19.1385   32.7510   10.5011 H         1 PTR         0.0840
     98 H20        20.5332   34.8352   11.2206 H         1 PTR         0.0584
     99 H21        20.8215   35.0601    9.4619 H         1 PTR         0.0584
    100 H22        21.3966   32.8085   12.3598 H         1 PTR         0.0703
    101 H23        22.2974   33.5968    8.2632 H         1 PTR         0.0703
    102 H24        23.1889   31.1236   12.4329 H         1 PTR         0.0736
    103 H25        24.0843   31.9072    8.3281 H         1 PTR         0.0736
    104 H26        17.9991   33.7565   12.1639 H         1 GLU         0.1883
    105 H27        15.8297   35.5127   11.2839 H         1 GLU         0.0801
    106 H28        16.5003   34.4906   14.0788 H         1 GLU         0.0330
    107 H29        15.5670   33.5558   12.8615 H         1 GLU         0.0330
    108 H30        14.7043   36.2827   13.8890 H         1 GLU         0.0433
    109 H31        14.2301   34.7356   14.6691 H         1 GLU         0.0433
    110 H32        15.5781   37.6223   11.7554 H         1 PTR         0.1886
    111 H33        17.8622   38.9629   13.1365 H         1 PTR         0.0840
    112 H34        16.8415   41.0444   12.0417 H         1 PTR         0.0584
    113 H35        15.8050   39.9189   11.1006 H         1 PTR         0.0584
    114 H36        19.2467   41.1577   11.6134 H         1 PTR         0.0703
    115 H37        16.7338   38.5895    9.3179 H         1 PTR         0.0703
    116 H38        21.0239   40.9231    9.9338 H         1 PTR         0.0736
    117 H39        18.5080   38.3498    7.6384 H         1 PTR         0.0736
    118 H40        17.4487   40.3500   14.8354 H         1 ILE         0.1883
    119 H41        14.8303   40.0847   16.1695 H         1 ILE         0.0803
    120 H42        17.3557   41.7113   16.8321 H         1 ILE         0.0345
    121 H43        17.6324   39.2918   17.0584 H         1 ILE         0.0267
    122 H44        16.1197   39.1835   18.0209 H         1 ILE         0.0267
    123 H45        15.3142   42.8434   17.6759 H         1 ILE         0.0235
    124 H46        16.2954   42.1645   19.0187 H         1 ILE         0.0235
    125 H47        14.8042   41.3203   18.4800 H         1 ILE         0.0235
    126 H48        18.1124   39.0472   19.4615 H         1 ILE         0.0230
    127 H49        17.1625   40.5309   19.8116 H         1 ILE         0.0230
    128 H50        18.6752   40.6393   18.8491 H         1 ILE         0.0230
    129 H51        13.3570   43.4740   13.6430 H         1 PRO         0.0802
    130 H52        11.2269   42.5752   14.0422 H         1 PRO         0.0313
    131 H53        11.0616   44.0593   15.0407 H         1 PRO         0.0313
    132 H54        10.6571   41.7343   16.2424 H         1 PRO         0.0287
    133 H55        11.7602   42.8981   17.0520 H         1 PRO         0.0287
    134 H56        13.1384   40.9297   16.8676 H         1 PRO         0.0524
    135 H57        12.4864   40.5249   15.2435 H         1 PRO         0.0524
    136 H58        13.4416   45.6071   13.5460 H         1 ALA         0.1875
    137 H59        13.5783   47.8304   14.2000 H         1 ALA         0.0723
    138 H60        13.9448   48.4886   16.5709 H         1 ALA         0.0270
    139 H61        14.0725   46.7554   17.0249 H         1 ALA         0.0270
    140 H62        12.5248   47.4045   16.3846 H         1 ALA         0.0270
@<TRIPOS>BOND
     1    1    2 1  
     2    1    7 1  
     3    2    3 1  
     4    2    5 1  
     5    3    4 2  
     6    3    8 am 
     7    5    6 1  
     8    6    7 1  
     9    8    9 1  
    10    9   10 1  
    11    9   12 1  
    12   10   11 2  
    13   10   17 am 
    14   12   13 1  
    15   13   14 1  
    16   14   15 2  
    17   14   16 am 
    18   17   18 1  
    19   18   19 1  
    20   18   21 1  
    21   19   20 2  
    22   19   33 am 
    23   21   22 1  
    24   22   23 ar 
    25   22   24 ar 
    26   23   25 ar 
    27   24   26 ar 
    28   25   27 ar 
    29   26   27 ar 
    30   27   28 1  
    31   28   29 1  
    32   29   30 ar 
    33   29   31 ar 
    34   29   32 ar 
    35   33   34 1  
    36   34   35 1  
    37   34   37 1  
    38   35   36 2  
    39   35   42 am 
    40   37   38 1  
    41   38   39 1  
    42   39   40 ar 
    43   39   41 ar 
    44   42   43 1  
    45   43   44 1  
    46   43   46 1  
    47   44   45 2  
    48   44   58 am 
    49   46   47 1  
    50   47   48 ar 
    51   47   49 ar 
    52   48   50 ar 
    53   49   51 ar 
    54   50   52 ar 
    55   51   52 ar 
    56   52   53 1  
    57   53   54 1  
    58   54   55 ar 
    59   54   56 ar 
    60   54   57 ar 
    61   58   59 1  
    62   59   60 1  
    63   59   62 1  
    64   60   61 2  
    65   60   66 am 
    66   62   63 1  
    67   62   64 1  
    68   63   65 1  
    69   66   67 1  
    70   66   72 1  
    71   67   68 1  
    72   67   70 1  
    73   68   69 2  
    74   68   73 am 
    75   70   71 1  
    76   71   72 1  
    77   73   74 1  
    78   74   75 1  
    79   74   77 1  
    80   75   76 ar 
    81   75   78 ar 
    82    1   79 1  
    83    1   80 1  
    84    2   81 1  
    85    5   82 1  
    86    5   83 1  
    87    6   84 1  
    88    6   85 1  
    89    7   86 1  
    90    7   87 1  
    91    8   88 1  
    92    9   89 1  
    93   12   90 1  
    94   12   91 1  
    95   13   92 1  
    96   13   93 1  
    97   16   94 1  
    98   16   95 1  
    99   17   96 1  
   100   18   97 1  
   101   21   98 1  
   102   21   99 1  
   103   23  100 1  
   104   24  101 1  
   105   25  102 1  
   106   26  103 1  
   107   33  104 1  
   108   34  105 1  
   109   37  106 1  
   110   37  107 1  
   111   38  108 1  
   112   38  109 1  
   113   42  110 1  
   114   43  111 1  
   115   46  112 1  
   116   46  113 1  
   117   48  114 1  
   118   49  115 1  
   119   50  116 1  
   120   51  117 1  
   121   58  118 1  
   122   59  119 1  
   123   62  120 1  
   124   63  121 1  
   125   63  122 1  
   126   64  123 1  
   127   64  124 1  
   128   64  125 1  
   129   65  126 1  
   130   65  127 1  
   131   65  128 1  
   132   67  129 1  
   133   70  130 1  
   134   70  131 1  
   135   71  132 1  
   136   71  133 1  
   137   72  134 1  
   138   72  135 1  
   139   73  136 1  
   140   74  137 1  
   141   77  138 1  
   142   77  139 1  
   143   77  140 1  
@<TRIPOS>SUBSTRUCTURE
     1 PRO         1

