1nzl_ligand
  -I-interpret- 

146149  0  0  0  0  0  0  0  0999 V2000
   18.0160   28.8240    4.4760 N   0  3  0  0  0
   19.4500   29.0670    4.5460 C   0  0  0  0  0
   19.5880   30.4660    5.1370 C   0  0  0  0  0
   20.5790   31.1610    4.8890 O   0  0  0  0  0
   19.9230   29.0220    3.1200 C   0  0  0  0  0
   18.7640   29.7390    2.4310 C   0  0  0  0  0
   17.5380   29.0680    3.1020 C   0  0  0  0  0
   18.5640   30.8880    5.8850 N   0  0  0  0  0
   18.5750   32.2160    6.5130 C   0  0  0  0  0
   18.6760   32.2640    8.0310 C   0  0  0  0  0
   18.3910   31.2900    8.7360 O   0  0  0  0  0
   17.3400   33.0030    6.1110 C   0  0  0  0  0
   17.1300   33.0260    4.6650 C   0  0  0  0  0
   15.8080   33.6020    4.2930 C   0  0  0  0  0
   15.0400   34.0330    5.1430 O   0  0  0  0  0
   15.5190   33.6140    3.0100 N   0  0  0  0  0
   19.0910   33.4320    8.5150 N   0  0  0  0  0
   19.2310   33.6950    9.9440 C   0  0  0  0  0
   18.1160   34.6470   10.3610 C   0  0  0  0  0
   17.7090   35.5150    9.5880 O   0  0  0  0  0
   20.5940   34.3250   10.2480 C   0  0  0  0  0
   21.7180   33.3220   10.3040 C   0  0  0  0  0
   21.9860   32.6140   11.4710 C   0  0  0  0  0
   22.4880   33.0540    9.1820 C   0  0  0  0  0
   22.9910   31.6670   11.5160 C   0  0  0  0  0
   23.4940   32.1070    9.2150 C   0  0  0  0  0
   23.7420   31.4180   10.3830 C   0  0  0  0  0
   24.7500   30.4850   10.4130 O   0  0  0  0  0
   24.5510   28.9480   10.0810 P   0  0  0  0  0
   24.7330   28.7000    8.6300 O   0  0  0  0  0
   23.1920   28.5020   10.4480 O   0  0  0  0  0
   25.5830   28.2260   10.8570 O   0  0  0  0  0
   17.6200   34.4760   11.5820 N   0  0  0  0  0
   16.5420   35.3050   12.0960 C   0  0  0  0  0
   17.1030   36.6210   12.6110 C   0  0  0  0  0
   18.1500   36.6500   13.2580 O   0  0  0  0  0
   15.8120   34.5650   13.2240 C   0  0  0  0  0
   14.5170   35.2120   13.7200 C   0  0  0  0  0
   13.3600   35.0730   12.7410 C   0  0  0  0  0
   13.4260   34.1970   11.8530 O   0  0  0  0  0
   12.3760   35.8320   12.8750 O   0  0  0  0  0
   16.4090   37.7090   12.3050 N   0  0  0  0  0
   16.8330   39.0240   12.7530 C   0  0  0  0  0
   15.9030   39.5020   13.8480 C   0  0  0  0  0
   14.7010   39.2320   13.8150 O   0  0  0  0  0
   16.7730   40.0350   11.6100 C   0  0  0  0  0
   17.8630   39.8900   10.5830 C   0  0  0  0  0
   19.0800   40.5390   10.7390 C   0  0  0  0  0
   17.6770   39.1050    9.4580 C   0  0  0  0  0
   20.0790   40.4090    9.8000 C   0  0  0  0  0
   18.6700   38.9680    8.5140 C   0  0  0  0  0
   19.8690   39.6200    8.6880 C   0  0  0  0  0
   20.8530   39.4630    7.7400 O   0  0  0  0  0
   22.3560   40.0310    7.7420 P   0  0  0  0  0
   22.9970   39.6100    6.4850 O   0  0  0  0  0
   23.1030   39.5170    8.9080 O   0  0  0  0  0
   22.3350   41.5140    7.8130 O   0  0  0  0  0
   16.4590   40.2070   14.8280 N   0  0  0  0  0
   15.6420   40.7720   15.8890 C   0  0  0  0  0
   15.0900   42.0480   15.2520 C   0  0  0  0  0
   15.8420   42.8420   14.6850 O   0  0  0  0  0
   16.4890   41.1090   17.1420 C   0  0  0  0  0
   16.9910   39.8120   17.7850 C   0  0  0  0  0
   15.6680   41.9160   18.1500 C   0  0  0  0  0
   17.7910   40.0220   19.0660 C   0  0  0  0  0
   13.7630   42.2360   15.2980 N   0  0  0  0  0
   13.1210   43.4200   14.7160 C   0  0  0  0  0
   13.5530   44.7430   15.3490 C   0  0  0  0  0
   13.7910   44.8160   16.5540 O   0  0  0  0  0
   11.6320   43.1290   14.9020 C   0  0  0  0  0
   11.6050   42.2850   16.1520 C   0  0  0  0  0
   12.7660   41.3460   15.9200 C   0  0  0  0  0
   13.6590   45.7720   14.5080 N   0  0  0  0  0
   14.0700   47.1260   14.8870 C   0  0  0  0  0
   15.5800   47.3090   14.7480 C   0  0  0  0  0
   15.9750   48.1900   13.9580 O   0  0  0  0  0
   13.6210   47.4680   16.3190 C   0  0  0  0  0
   16.3550   46.5760   15.4110 O   0  0  0  0  0
   17.5344   29.4529    5.1186 H   0  0  0  0  0
   17.8237   27.8562    4.7344 H   0  0  0  0  0
   20.0205   28.3578    5.1457 H   0  0  0  0  0
   20.1187   28.0183    2.7427 H   0  0  0  0  0
   20.8976   29.4813    2.9549 H   0  0  0  0  0
   18.7745   29.6396    1.3456 H   0  0  0  0  0
   18.7882   30.8219    2.5529 H   0  0  0  0  0
   16.6413   29.6868    3.0666 H   0  0  0  0  0
   17.2195   28.1578    2.5939 H   0  0  0  0  0
   17.7594   30.2763    6.0225 H   0  0  0  0  0
   19.5015   32.6510    6.1383 H   0  0  0  0  0
   17.4758   34.0315    6.4453 H   0  0  0  0  0
   16.4744   32.5222    6.5667 H   0  0  0  0  0
   17.1645   31.9986    4.3026 H   0  0  0  0  0
   17.9065   33.6490    4.2211 H   0  0  0  0  0
   14.6268   33.9923    2.6917 H   0  0  0  0  0
   16.1870   33.2450    2.3333 H   0  0  0  0  0
   19.3217   34.1772    7.8578 H   0  0  0  0  0
   19.1629   32.7591   10.4985 H   0  0  0  0  0
   20.5263   34.7977   11.2278 H   0  0  0  0  0
   20.8187   35.0258    9.4440 H   0  0  0  0  0
   21.3934   32.8096   12.3647 H   0  0  0  0  0
   22.2964   33.5998    8.2581 H   0  0  0  0  0
   23.1900   31.1206   12.4379 H   0  0  0  0  0
   24.0876   31.9061    8.3232 H   0  0  0  0  0
   25.6117   28.9825    8.3660 H   0  0  0  0  0
   26.4532   28.5369   10.5968 H   0  0  0  0  0
   18.0067   33.7421   12.1755 H   0  0  0  0  0
   15.8349   35.5135   11.2931 H   0  0  0  0  0
   16.4939   34.5525   14.0743 H   0  0  0  0  0
   15.5338   33.5908   12.8220 H   0  0  0  0  0
   14.7105   36.2766   13.8517 H   0  0  0  0  0
   14.2297   34.7078   14.6427 H   0  0  0  0  0
   12.5297   36.4261   13.6133 H   0  0  0  0  0
   15.5614   37.6206   11.7444 H   0  0  0  0  0
   17.8582   38.9455   13.1148 H   0  0  0  0  0
   16.8864   41.0235   12.0551 H   0  0  0  0  0
   15.8271   39.8731   11.0931 H   0  0  0  0  0
   19.2476   41.1611   11.6182 H   0  0  0  0  0
   16.7285   38.5867    9.3171 H   0  0  0  0  0
   21.0291   40.9260    9.9345 H   0  0  0  0  0
   18.5071   38.3464    7.6336 H   0  0  0  0  0
   22.6693   39.8022    9.7155 H   0  0  0  0  0
   21.9170   41.7881    8.6326 H   0  0  0  0  0
   17.4685   40.3529   14.8355 H   0  0  0  0  0
   14.8694   40.0869   16.2381 H   0  0  0  0  0
   17.3423   41.7150   16.8373 H   0  0  0  0  0
   17.6538   39.3308   17.0658 H   0  0  0  0  0
   16.1134   39.2204   18.0459 H   0  0  0  0  0
   15.3385   42.8460   17.6867 H   0  0  0  0  0
   14.7992   41.3341   18.4578 H   0  0  0  0  0
   16.2835   42.1407   19.0210 H   0  0  0  0  0
   18.6668   40.6338   18.8497 H   0  0  0  0  0
   17.1671   40.5264   19.8039 H   0  0  0  0  0
   18.1089   39.0554   19.4569 H   0  0  0  0  0
   13.4049   43.5676   13.6740 H   0  0  0  0  0
   11.1893   42.6255   14.0426 H   0  0  0  0  0
   11.0323   44.0349   14.9908 H   0  0  0  0  0
   10.6566   41.7702   16.3057 H   0  0  0  0  0
   11.6964   42.8673   17.0689 H   0  0  0  0  0
   13.1237   40.8693   16.8326 H   0  0  0  0  0
   12.5085   40.4873   15.3000 H   0  0  0  0  0
   13.4372   45.6038   13.5267 H   0  0  0  0  0
   13.5776   47.8146   14.2004 H   0  0  0  0  0
   12.5347   47.4046   16.3827 H   0  0  0  0  0
   14.0690   46.7612   17.0174 H   0  0  0  0  0
   13.9424   48.4795   16.5674 H   0  0  0  0  0
   15.8392   45.9726   15.9508 H   0  0  0  0  0
  1  2  1  0  0  0
  1  7  1  0  0  0
  2  3  1  0  0  0
  2  5  1  0  0  0
  3  4  2  0  0  0
  3  8  1  0  0  0
  5  6  1  0  0  0
  6  7  1  0  0  0
  8  9  1  0  0  0
  9 10  1  0  0  0
  9 12  1  0  0  0
 10 11  2  0  0  0
 10 17  1  0  0  0
 12 13  1  0  0  0
 13 14  1  0  0  0
 14 15  2  0  0  0
 14 16  1  0  0  0
 17 18  1  0  0  0
 18 19  1  0  0  0
 18 21  1  0  0  0
 19 20  2  0  0  0
 19 33  1  0  0  0
 21 22  1  0  0  0
 22 23  4  0  0  0
 22 24  4  0  0  0
 23 25  4  0  0  0
 24 26  4  0  0  0
 25 27  4  0  0  0
 26 27  4  0  0  0
 27 28  1  0  0  0
 28 29  1  0  0  0
 29 30  1  0  0  0
 29 31  2  0  0  0
 29 32  1  0  0  0
 33 34  1  0  0  0
 34 35  1  0  0  0
 34 37  1  0  0  0
 35 36  2  0  0  0
 35 42  1  0  0  0
 37 38  1  0  0  0
 38 39  1  0  0  0
 39 40  2  0  0  0
 39 41  1  0  0  0
 42 43  1  0  0  0
 43 44  1  0  0  0
 43 46  1  0  0  0
 44 45  2  0  0  0
 44 58  1  0  0  0
 46 47  1  0  0  0
 47 48  4  0  0  0
 47 49  4  0  0  0
 48 50  4  0  0  0
 49 51  4  0  0  0
 50 52  4  0  0  0
 51 52  4  0  0  0
 52 53  1  0  0  0
 53 54  1  0  0  0
 54 55  2  0  0  0
 54 56  1  0  0  0
 54 57  1  0  0  0
 58 59  1  0  0  0
 59 60  1  0  0  0
 59 62  1  0  0  0
 60 61  2  0  0  0
 60 66  1  0  0  0
 62 63  1  0  0  0
 62 64  1  0  0  0
 63 65  1  0  0  0
 66 67  1  0  0  0
 66 72  1  0  0  0
 67 68  1  0  0  0
 67 70  1  0  0  0
 68 69  2  0  0  0
 68 73  1  0  0  0
 70 71  1  0  0  0
 71 72  1  0  0  0
 73 74  1  0  0  0
 74 75  1  0  0  0
 74 77  1  0  0  0
 75 76  2  0  0  0
 75 78  1  0  0  0
  1 79  1  0  0  0
  1 80  1  0  0  0
  2 81  1  0  0  0
  5 82  1  0  0  0
  5 83  1  0  0  0
  6 84  1  0  0  0
  6 85  1  0  0  0
  7 86  1  0  0  0
  7 87  1  0  0  0
  8 88  1  0  0  0
  9 89  1  0  0  0
 12 90  1  0  0  0
 12 91  1  0  0  0
 13 92  1  0  0  0
 13 93  1  0  0  0
 16 94  1  0  0  0
 16 95  1  0  0  0
 17 96  1  0  0  0
 18 97  1  0  0  0
 21 98  1  0  0  0
 21 99  1  0  0  0
 23100  1  0  0  0
 24101  1  0  0  0
 25102  1  0  0  0
 26103  1  0  0  0
 30104  1  0  0  0
 32105  1  0  0  0
 33106  1  0  0  0
 34107  1  0  0  0
 37108  1  0  0  0
 37109  1  0  0  0
 38110  1  0  0  0
 38111  1  0  0  0
 41112  1  0  0  0
 42113  1  0  0  0
 43114  1  0  0  0
 46115  1  0  0  0
 46116  1  0  0  0
 48117  1  0  0  0
 49118  1  0  0  0
 50119  1  0  0  0
 51120  1  0  0  0
 56121  1  0  0  0
 57122  1  0  0  0
 58123  1  0  0  0
 59124  1  0  0  0
 62125  1  0  0  0
 63126  1  0  0  0
 63127  1  0  0  0
 64128  1  0  0  0
 64129  1  0  0  0
 64130  1  0  0  0
 65131  1  0  0  0
 65132  1  0  0  0
 65133  1  0  0  0
 67134  1  0  0  0
 70135  1  0  0  0
 70136  1  0  0  0
 71137  1  0  0  0
 71138  1  0  0  0
 72139  1  0  0  0
 72140  1  0  0  0
 73141  1  0  0  0
 74142  1  0  0  0
 77143  1  0  0  0
 77144  1  0  0  0
 77145  1  0  0  0
 78146  1  0  0  0
M  END
$$$$
