### 
### Created by X-TOOL on Mon Sep 10 21:12:49 2018
### 

@<TRIPOS>MOLECULE
1is0_ligand
   81    82     1     0     0
SMALL
GAST_HUCK


@<TRIPOS>ATOM
      1 C1          7.8370   24.9000   16.3810 C.2       1 AY0         0.1854
      2 O1          8.7810   24.1480   16.2120 O.2       1 AY0        -0.3963
      3 N1          6.5880   24.6510   15.8960 N.am      1 AY0        -0.2894
      4 C2          6.1530   23.2890   15.6310 C.3       1 AY0         0.0196
      5 CA          9.3010   26.3550   17.6510 C.3       1 AY0         0.0929
      6 C           9.6870   26.8830   19.0660 C.2       1 AY0         0.1879
      7 O           8.9160   27.6660   19.6390 O.2       1 AY0        -0.3961
      8 CB          8.6370   27.4180   16.6660 C.3       1 AY0         0.0556
      9 CG          9.4100   27.4180   15.3290 C.ar      1 AY0         0.0035
     10 CD1        10.8360   27.3960   15.1820 C.ar      1 AY0        -0.0235
     11 CD2         8.6210   27.4240   14.1560 C.ar      1 AY0        -0.0235
     12 CE1        11.3900   27.3910   13.8780 C.ar      1 AY0         0.0115
     13 CE2         9.1700   27.4180   12.8650 C.ar      1 AY0         0.0115
     14 CZ         10.5820   27.4060   12.7530 C.ar      1 AY0         0.1728
     15 OH         11.1660   27.4180   11.4500 O.3       1 AY0        -0.2040
     16 C7          7.8950   26.2190   17.1280 C.3       1 AY0         0.0928
     17 P          11.0530   26.2160   10.3550 P.3       1 AY0         0.1348
     18 O1P         9.6660   26.3070    9.6790 O.co2     1 AY0        -0.6653
     19 O2P        11.2930   24.9470   11.1210 O.co2     1 AY0        -0.6653
     20 O3P        12.1550   26.5770    9.3360 O.co2     1 AY0        -0.6653
     21 O2         13.8710   32.0391   27.6478 O.co2     1 ILE        -0.5666
     22 H1          5.9643   25.4127   15.7206 H         1 AY0         0.1847
     23 H2          5.1222   23.3015   15.2472 H         1 AY0         0.0484
     24 H3          6.1905   22.7044   16.5620 H         1 AY0         0.0484
     25 H4          6.8171   22.8309   14.8833 H         1 AY0         0.0484
     26 H5         10.0663   25.6434   17.3076 H         1 AY0         0.0612
     27 H6          8.3110   28.4265   16.9603 H         1 AY0         0.0630
     28 H7         11.4797   27.3834   16.0541 H         1 AY0         0.0703
     29 H8          7.5419   27.4337   14.2588 H         1 AY0         0.0703
     30 H9         12.4673   27.3751   13.7584 H         1 AY0         0.0736
     31 H10         8.5367   27.4224   11.9852 H         1 AY0         0.0736
     32 H11         6.9967   26.3704   17.7445 H         1 AY0         0.0612
     33 H12        11.4110   25.8357   19.1785 H         1 GLU         0.1883
     34 H13        10.2057   26.6344   21.6190 H         1 GLU         0.0801
     35 H14        12.4049   26.3401   22.6637 H         1 GLU         0.0330
     36 H15        13.1692   26.2732   21.0395 H         1 GLU         0.0330
     37 H16        12.9968   24.0588   21.8815 H         1 GLU         0.0433
     38 H17        11.8037   24.2511   20.5525 H         1 GLU         0.0433
     39 H18        10.8002   28.0083   23.2334 H         1 GLU         0.1883
     40 H19        11.8076   30.6734   22.3001 H         1 GLU         0.0801
     41 N          10.7910   26.4520   19.6640 N.am      1 GLU        -0.2649
     42 CA         11.1080   26.8760   21.0380 C.3       1 GLU         0.1324
     43 C          11.4100   28.3380   21.3510 C.2       1 GLU         0.2040
     44 O          11.8540   29.1030   20.5020 O.2       1 GLU        -0.3944
     45 CB         12.2610   26.0410   21.6150 C.3       1 GLU        -0.0008
     46 CG         12.0580   24.5470   21.5810 C.3       1 GLU         0.0044
     47 CD         10.9520   24.0780   22.5060 C.2       1 GLU         0.0350
     48 OE1        11.0370   24.3060   23.7360 O.co2     1 GLU        -0.5690
     49 OE2        10.0000   23.4660   21.9910 O.co2     1 GLU        -0.5690
     50 H20        10.4138   31.4064   24.4074 H         1 GLU         0.0330
     51 N          11.1710   28.6930   22.6060 N.am      1 GLU        -0.2636
     52 CA         11.4250   30.0400   23.1140 C.3       1 GLU         0.1324
     53 C          12.4590   29.9630   24.2390 C.2       1 GLU         0.2035
     54 O          12.5240   28.9550   24.9580 O.2       1 GLU        -0.3944
     55 CB         10.1410   30.6410   23.6660 C.3       1 GLU        -0.0008
     56 CG          9.2500   31.2800   22.6450 C.3       1 GLU         0.0044
     57 CD          7.9750   31.8210   23.2810 C.2       1 GLU         0.0350
     58 OE1         8.0790   32.6100   24.2590 O.co2     1 GLU        -0.5690
     59 OE2         6.8710   31.4530   22.8050 O.co2     1 GLU        -0.5690
     60 H21         9.5733   29.8384   24.1595 H         1 GLU         0.0330
     61 N          13.2820   31.0050   24.3800 N.am      1 ILE        -0.2692
     62 CA         14.2950   31.0520   25.4400 C.3       1 ILE         0.0969
     63 C          13.8740   32.1740   26.3950 C.2       1 ILE         0.0604
     64 O          13.5320   33.2400   25.8240 O.co2     1 ILE        -0.5666
     65 CB         15.7210   31.4300   24.9130 C.3       1 ILE        -0.0092
     66 CG1        16.2120   30.4310   23.8760 C.3       1 ILE        -0.0497
     67 CG2        16.7330   31.4540   26.0710 C.3       1 ILE        -0.0588
     68 CD1        17.5600   30.8200   23.3240 C.3       1 ILE        -0.0649
     69 H22         8.9812   30.5311   21.8855 H         1 GLU         0.0433
     70 H23         9.7912   32.1096   22.1666 H         1 GLU         0.0433
     71 H24        13.2057   31.7743   23.7457 H         1 ILE         0.1875
     72 H25        14.3349   30.0832   25.9594 H         1 ILE         0.0729
     73 H26        15.6718   32.4285   24.4542 H         1 ILE         0.0338
     74 H27        15.4869   30.3887   23.0499 H         1 ILE         0.0267
     75 H28        16.2914   29.4394   24.3454 H         1 ILE         0.0267
     76 H29        16.3987   32.1710   26.8353 H         1 ILE         0.0234
     77 H30        17.7192   31.7576   25.6899 H         1 ILE         0.0234
     78 H31        16.8048   30.4506   26.5161 H         1 ILE         0.0234
     79 H32        17.8801   30.0758   22.5799 H         1 ILE         0.0230
     80 H33        18.2939   30.8593   24.1424 H         1 ILE         0.0230
     81 H34        17.4895   31.8086   22.8469 H         1 ILE         0.0230
@<TRIPOS>BOND
     1   16    1 1  
     2    1    3 am 
     3    1    2 2  
     4    3    4 1  
     5    8   16 1  
     6    5   16 1  
     7    5    8 1  
     8    6    5 1  
     9    6    7 2  
    10    8    9 1  
    11    9   11 ar 
    12    9   10 ar 
    13   10   12 ar 
    14   12   14 ar 
    15   14   15 1  
    16   13   14 ar 
    17   11   13 ar 
    18   15   17 1  
    19   17   20 ar 
    20   17   19 ar 
    21   17   18 ar 
    22   41    6 am 
    23   63   21 ar 
    24    3   22 1  
    25    4   23 1  
    26    4   24 1  
    27    4   25 1  
    28    5   26 1  
    29    8   27 1  
    30   10   28 1  
    31   11   29 1  
    32   12   30 1  
    33   13   31 1  
    34   16   32 1  
    35   41   33 1  
    36   42   34 1  
    37   45   35 1  
    38   45   36 1  
    39   46   37 1  
    40   46   38 1  
    41   51   39 1  
    42   52   40 1  
    43   43   42 1  
    44   42   45 1  
    45   42   41 1  
    46   55   50 1  
    47   45   46 1  
    48   46   47 1  
    49   47   48 ar 
    50   47   49 ar 
    51   43   44 2  
    52   53   52 1  
    53   52   55 1  
    54   52   51 1  
    55   55   60 1  
    56   55   56 1  
    57   56   57 1  
    58   57   58 ar 
    59   57   59 ar 
    60   53   54 2  
    61   62   63 1  
    62   62   65 1  
    63   61   62 1  
    64   56   69 1  
    65   65   66 1  
    66   65   67 1  
    67   66   68 1  
    68   63   64 ar 
    69   51   43 am 
    70   53   61 am 
    71   56   70 1  
    72   61   71 1  
    73   62   72 1  
    74   65   73 1  
    75   66   74 1  
    76   66   75 1  
    77   67   76 1  
    78   67   77 1  
    79   67   78 1  
    80   68   79 1  
    81   68   80 1  
    82   68   81 1  
@<TRIPOS>SUBSTRUCTURE
     1 AY0         1

