1is0_ligand
  -I-interpret- 

 86 87  0  0  0  0  0  0  0  0999 V2000
    7.8370   24.9000   16.3810 C   0  0  0  0  0
    8.7810   24.1480   16.2120 O   0  0  0  0  0
    6.5880   24.6510   15.8960 N   0  0  0  0  0
    6.1530   23.2890   15.6310 C   0  0  0  0  0
    9.3010   26.3550   17.6510 C   0  0  0  0  0
    9.6870   26.8830   19.0660 C   0  0  0  0  0
    8.9160   27.6660   19.6390 O   0  0  0  0  0
    8.6370   27.4180   16.6660 C   0  0  0  0  0
    9.4100   27.4180   15.3290 C   0  0  0  0  0
   10.8360   27.3960   15.1820 C   0  0  0  0  0
    8.6210   27.4240   14.1560 C   0  0  0  0  0
   11.3900   27.3910   13.8780 C   0  0  0  0  0
    9.1700   27.4180   12.8650 C   0  0  0  0  0
   10.5820   27.4060   12.7530 C   0  0  0  0  0
   11.1660   27.4180   11.4500 O   0  0  0  0  0
    7.8950   26.2190   17.1280 C   0  0  0  0  0
   11.0530   26.2160   10.3550 P   0  0  0  0  0
    9.6660   26.3070    9.6790 O   0  0  0  0  0
   11.2930   24.9470   11.1210 O   0  0  0  0  0
   12.1550   26.5770    9.3360 O   0  0  0  0  0
   13.8710   32.0391   27.6478 O   0  0  0  0  0
   10.7910   26.4520   19.6640 N   0  0  0  0  0
   11.1080   26.8760   21.0380 C   0  0  0  0  0
   11.4100   28.3380   21.3510 C   0  0  0  0  0
   11.8540   29.1030   20.5020 O   0  0  0  0  0
   12.2610   26.0410   21.6150 C   0  0  0  0  0
   12.0580   24.5470   21.5810 C   0  0  0  0  0
   10.9520   24.0780   22.5060 C   0  0  0  0  0
   11.0370   24.3060   23.7360 O   0  0  0  0  0
   10.0000   23.4660   21.9910 O   0  0  0  0  0
   11.1710   28.6930   22.6060 N   0  0  0  0  0
   11.4250   30.0400   23.1140 C   0  0  0  0  0
   12.4590   29.9630   24.2390 C   0  0  0  0  0
   12.5240   28.9550   24.9580 O   0  0  0  0  0
   10.1410   30.6410   23.6660 C   0  0  0  0  0
    9.2500   31.2800   22.6450 C   0  0  0  0  0
    7.9750   31.8210   23.2810 C   0  0  0  0  0
    8.0790   32.6100   24.2590 O   0  0  0  0  0
    6.8710   31.4530   22.8050 O   0  0  0  0  0
   13.2820   31.0050   24.3800 N   0  0  0  0  0
   14.2950   31.0520   25.4400 C   0  0  0  0  0
   13.8740   32.1740   26.3950 C   0  0  0  0  0
   13.5320   33.2400   25.8240 O   0  0  0  0  0
   15.7210   31.4300   24.9130 C   0  0  0  0  0
   16.2120   30.4310   23.8760 C   0  0  0  0  0
   16.7330   31.4540   26.0710 C   0  0  0  0  0
   17.5600   30.8200   23.3240 C   0  0  0  0  0
    5.9518   25.4279   15.7171 H   0  0  0  0  0
    6.8119   22.8362   14.8901 H   0  0  0  0  0
    6.1906   22.7108   16.5542 H   0  0  0  0  0
    5.1316   23.3027   15.2507 H   0  0  0  0  0
   10.1389   25.6593   17.6946 H   0  0  0  0  0
    8.3407   28.4660   16.6208 H   0  0  0  0  0
   11.4832   27.3833   16.0590 H   0  0  0  0  0
    7.5360   27.4337   14.2594 H   0  0  0  0  0
   12.4732   27.3750   13.7577 H   0  0  0  0  0
    8.5332   27.4224   11.9804 H   0  0  0  0  0
    6.8593   26.1976   17.4669 H   0  0  0  0  0
    9.5927   27.1430    9.2128 H   0  0  0  0  0
   11.9238   27.3968    8.8933 H   0  0  0  0  0
   14.1648   31.1536   27.8739 H   0  0  0  0  0
   11.4234   25.8234   19.1688 H   0  0  0  0  0
   10.1372   26.7080   21.5044 H   0  0  0  0  0
   12.3514   26.3190   22.6651 H   0  0  0  0  0
   13.1355   26.2503   20.9989 H   0  0  0  0  0
   12.9859   24.0783   21.9087 H   0  0  0  0  0
   11.7785   24.2730   20.5637 H   0  0  0  0  0
   11.8471   24.7889   23.9156 H   0  0  0  0  0
   10.7928   27.9946   23.2460 H   0  0  0  0  0
   11.7953   30.6646   22.3010 H   0  0  0  0  0
   10.4354   31.4265   24.3620 H   0  0  0  0  0
    9.5749   29.8212   24.1083 H   0  0  0  0  0
    8.9758   30.5278   21.9053 H   0  0  0  0  0
    9.7878   32.1102   22.1870 H   0  0  0  0  0
    9.0076   32.7543   24.4550 H   0  0  0  0  0
   13.2042   31.7897   23.7330 H   0  0  0  0  0
   14.3527   30.0642   25.8972 H   0  0  0  0  0
   15.6422   32.4169   24.4570 H   0  0  0  0  0
   15.4968   30.4091   23.0537 H   0  0  0  0  0
   16.3044   29.4559   24.3543 H   0  0  0  0  0
   16.4203   32.1919   26.8099 H   0  0  0  0  0
   16.7756   30.4687   26.5351 H   0  0  0  0  0
   17.7178   31.7184   25.6858 H   0  0  0  0  0
   17.4888   31.7997   22.8516 H   0  0  0  0  0
   18.2863   30.8586   24.1359 H   0  0  0  0  0
   17.8761   30.0819   22.5868 H   0  0  0  0  0
 16  1  1  0  0  0
  1  3  1  0  0  0
  1  2  2  0  0  0
  3  4  1  0  0  0
  8 16  1  0  0  0
  5 16  1  0  0  0
  5  8  1  0  0  0
  6  5  1  0  0  0
  6  7  2  0  0  0
  8  9  1  0  0  0
  9 11  4  0  0  0
  9 10  4  0  0  0
 10 12  4  0  0  0
 12 14  4  0  0  0
 14 15  1  0  0  0
 13 14  4  0  0  0
 11 13  4  0  0  0
 15 17  1  0  0  0
 17 20  1  0  0  0
 17 19  2  0  0  0
 17 18  1  0  0  0
 22  6  1  0  0  0
 42 21  1  0  0  0
 24 23  1  0  0  0
 23 26  1  0  0  0
 23 22  1  0  0  0
 26 27  1  0  0  0
 27 28  1  0  0  0
 28 29  1  0  0  0
 28 30  2  0  0  0
 24 25  2  0  0  0
 33 32  1  0  0  0
 32 35  1  0  0  0
 32 31  1  0  0  0
 35 36  1  0  0  0
 36 37  1  0  0  0
 37 38  1  0  0  0
 37 39  2  0  0  0
 33 34  2  0  0  0
 41 42  1  0  0  0
 41 44  1  0  0  0
 40 41  1  0  0  0
 44 45  1  0  0  0
 44 46  1  0  0  0
 45 47  1  0  0  0
 42 43  2  0  0  0
 31 24  1  0  0  0
 33 40  1  0  0  0
  3 48  1  0  0  0
  4 49  1  0  0  0
  4 50  1  0  0  0
  4 51  1  0  0  0
  5 52  1  0  0  0
  8 53  1  0  0  0
 10 54  1  0  0  0
 11 55  1  0  0  0
 12 56  1  0  0  0
 13 57  1  0  0  0
 16 58  1  0  0  0
 18 59  1  0  0  0
 20 60  1  0  0  0
 21 61  1  0  0  0
 22 62  1  0  0  0
 23 63  1  0  0  0
 26 64  1  0  0  0
 26 65  1  0  0  0
 27 66  1  0  0  0
 27 67  1  0  0  0
 29 68  1  0  0  0
 31 69  1  0  0  0
 32 70  1  0  0  0
 35 71  1  0  0  0
 35 72  1  0  0  0
 36 73  1  0  0  0
 36 74  1  0  0  0
 38 75  1  0  0  0
 40 76  1  0  0  0
 41 77  1  0  0  0
 44 78  1  0  0  0
 45 79  1  0  0  0
 45 80  1  0  0  0
 46 81  1  0  0  0
 46 82  1  0  0  0
 46 83  1  0  0  0
 47 84  1  0  0  0
 47 85  1  0  0  0
 47 86  1  0  0  0
M  END
$$$$
