4eyj_ligand
  -I-interpret- 

 50 52  0  0  0  0  0  0  0  0999 V2000
  -12.9230   12.2820  -26.4660 O   0  0  0  0  0
  -13.8960   11.5290  -26.5500 C   0  0  0  0  0
  -14.9220   11.5170  -25.5020 N   0  0  0  0  0
  -14.8390   12.4200  -24.3360 C   0  0  0  0  0
  -14.4260   13.7380  -24.3550 C   0  0  0  0  0
  -14.5280   14.2170  -23.0140 C   0  0  0  0  0
  -14.1720   15.6350  -22.5330 C   0  0  0  0  0
  -12.7490   15.9670  -22.9430 C   0  0  0  0  0
  -14.3210   15.7030  -21.0620 C   0  0  0  0  0
  -15.1150   16.6080  -23.1730 C   0  0  0  0  0
  -14.9830   13.2160  -22.2590 N   0  0  0  0  0
  -15.1920   12.0990  -23.0590 N   0  0  0  0  0
  -15.6870   10.7860  -22.6260 C   0  0  0  0  0
  -14.1020   10.6160  -27.6590 N   0  0  0  0  0
  -13.2280   10.4380  -28.8060 C   0  0  0  0  0
  -11.8990   10.7610  -28.8190 C   0  0  0  0  0
  -11.1320   10.5510  -29.9950 C   0  0  0  0  0
  -11.7390   10.0210  -31.1390 C   0  0  0  0  0
  -13.0660    9.6910  -31.1170 C   0  0  0  0  0
  -13.8260    9.9020  -29.9530 C   0  0  0  0  0
  -11.0290    9.7820  -32.2910 O   0  0  0  0  0
  -10.7000   10.9220  -33.0250 C   0  0  0  0  0
   -9.6040   10.8610  -33.9040 C   0  0  0  0  0
   -9.2750   11.9600  -34.6290 C   0  0  0  0  0
   -9.9990   13.1130  -34.5090 N   0  0  0  0  0
  -11.0680   13.2030  -33.6630 C   0  0  0  0  0
  -11.4340   12.1340  -32.9240 C   0  0  0  0  0
  -15.7085   10.8722  -25.5799 H   0  0  0  0  0
  -14.0881   14.3022  -25.2243 H   0  0  0  0  0
  -12.5018   16.9747  -22.6091 H   0  0  0  0  0
  -12.0644   15.2530  -22.4852 H   0  0  0  0  0
  -12.6624   15.9109  -24.0281 H   0  0  0  0  0
  -13.6431   14.9879  -20.5960 H   0  0  0  0  0
  -14.0805   16.7096  -20.7199 H   0  0  0  0  0
  -15.3487   15.4615  -20.7906 H   0  0  0  0  0
  -14.8684   17.6186  -22.8476 H   0  0  0  0  0
  -15.0232   16.5415  -24.2571 H   0  0  0  0  0
  -16.1368   16.3691  -22.8782 H   0  0  0  0  0
  -16.6032   10.5482  -23.1665 H   0  0  0  0  0
  -14.9327   10.0276  -22.8356 H   0  0  0  0  0
  -15.8912   10.8111  -21.5556 H   0  0  0  0  0
  -14.9446   10.0418  -27.6304 H   0  0  0  0  0
  -11.4298   11.1788  -27.9283 H   0  0  0  0  0
  -10.0714   10.8023  -30.0068 H   0  0  0  0  0
  -13.5352    9.2637  -32.0032 H   0  0  0  0  0
  -14.8857    9.6471  -29.9435 H   0  0  0  0  0
   -9.0258    9.9422  -34.0018 H   0  0  0  0  0
   -8.4267   11.9229  -35.3124 H   0  0  0  0  0
  -11.6248   14.1368  -33.5848 H   0  0  0  0  0
  -12.2898   12.2007  -32.2522 H   0  0  0  0  0
  1  2  2  0  0  0
  2  3  1  0  0  0
  2 14  1  0  0  0
  3  4  1  0  0  0
  4  5  4  0  0  0
  4 12  4  0  0  0
  5  6  4  0  0  0
  6  7  1  0  0  0
  6 11  4  0  0  0
  7  8  1  0  0  0
  7  9  1  0  0  0
  7 10  1  0  0  0
 11 12  4  0  0  0
 12 13  1  0  0  0
 14 15  1  0  0  0
 15 16  4  0  0  0
 15 20  4  0  0  0
 16 17  4  0  0  0
 17 18  4  0  0  0
 18 19  4  0  0  0
 18 21  1  0  0  0
 19 20  4  0  0  0
 21 22  1  0  0  0
 22 23  4  0  0  0
 22 27  4  0  0  0
 23 24  4  0  0  0
 24 25  4  0  0  0
 25 26  4  0  0  0
 26 27  4  0  0  0
  3 28  1  0  0  0
  5 29  1  0  0  0
  8 30  1  0  0  0
  8 31  1  0  0  0
  8 32  1  0  0  0
  9 33  1  0  0  0
  9 34  1  0  0  0
  9 35  1  0  0  0
 10 36  1  0  0  0
 10 37  1  0  0  0
 10 38  1  0  0  0
 13 39  1  0  0  0
 13 40  1  0  0  0
 13 41  1  0  0  0
 14 42  1  0  0  0
 16 43  1  0  0  0
 17 44  1  0  0  0
 19 45  1  0  0  0
 20 46  1  0  0  0
 23 47  1  0  0  0
 24 48  1  0  0  0
 26 49  1  0  0  0
 27 50  1  0  0  0
M  END
$$$$
