5ha9_ligand
  -I-interpret- 

 45 47  0  0  0  0  0  0  0  0999 V2000
  -16.7050    2.7960   -6.4410 N   0  3  0  0  0
  -12.0640    3.9310   -6.6320 C   0  0  0  0  0
   -9.7470    3.6900   -7.2650 C   0  0  0  0  0
  -11.3590    6.1750   -7.4640 C   0  0  0  0  0
  -10.7930    3.4360   -6.3890 C   0  0  0  0  0
  -12.2160    5.3150   -6.7520 C   0  0  0  0  0
  -13.0280    2.9450   -6.9240 C   0  0  0  0  0
   -8.4770    3.1700   -6.9990 C   0  0  0  0  0
  -11.6180    7.5470   -7.4730 C   0  0  0  0  0
  -10.5970    2.6760   -5.2360 C   0  0  0  0  0
  -13.2880    5.8560   -6.0410 C   0  0  0  0  0
  -15.4400    3.5290   -6.2890 C   0  0  0  0  0
   -8.2720    2.4100   -5.8480 C   0  0  0  0  0
  -12.7050    8.0710   -6.7790 C   0  0  0  0  0
   -9.3270    2.1630   -4.9720 C   0  0  0  0  0
  -13.5430    7.2240   -6.0640 C   0  0  0  0  0
  -17.7350    3.5720   -5.7360 C   0  0  0  0  0
  -17.1330    2.5810   -7.8260 C   0  0  0  0  0
   -9.8620    4.4370   -8.4560 C   0  0  0  0  0
  -10.1970    5.9230   -8.2310 C   0  0  0  0  0
  -14.4860    3.1670   -7.4180 C   0  0  0  0  0
  -16.5646    1.8617   -6.0566 H   0  0  0  0  0
  -12.7163    1.9094   -6.7882 H   0  0  0  0  0
   -7.6524    3.3574   -7.6868 H   0  0  0  0  0
  -10.9614    8.2155   -8.0299 H   0  0  0  0  0
  -11.4237    2.4858   -4.5516 H   0  0  0  0  0
  -13.9343    5.1983   -5.4598 H   0  0  0  0  0
  -14.9839    3.2611   -5.3359 H   0  0  0  0  0
  -15.6413    4.5998   -6.3207 H   0  0  0  0  0
   -7.2822    2.0074   -5.6327 H   0  0  0  0  0
  -12.8984    9.1436   -6.7964 H   0  0  0  0  0
   -9.1590    1.5658   -4.0758 H   0  0  0  0  0
  -14.3976    7.6298   -5.5227 H   0  0  0  0  0
  -17.4639    3.6618   -4.6841 H   0  0  0  0  0
  -17.8075    4.5649   -6.1799 H   0  0  0  0  0
  -18.6948    3.0628   -5.8230 H   0  0  0  0  0
  -17.2686    3.5448   -8.3168 H   0  0  0  0  0
  -16.3726    2.0063   -8.3549 H   0  0  0  0  0
  -18.0749    2.0326   -7.8329 H   0  0  0  0  0
  -10.6797    4.0041   -9.0323 H   0  0  0  0  0
   -8.8961    4.3952   -8.9593 H   0  0  0  0  0
   -9.3606    6.3498   -7.6774 H   0  0  0  0  0
  -10.3754    6.3540   -9.2162 H   0  0  0  0  0
  -14.8337    2.2352   -7.8641 H   0  0  0  0  0
  -14.4768    3.9951   -8.1268 H   0  0  0  0  0
 12  1  1  0  0  0
  1 17  1  0  0  0
  1 18  1  0  0  0
  2  5  1  0  0  0
  2  6  1  0  0  0
  7  2  2  0  0  0
  5  3  4  0  0  0
  3  8  4  0  0  0
  3 19  1  0  0  0
  6  4  4  0  0  0
  4  9  4  0  0  0
  4 20  1  0  0  0
  5 10  4  0  0  0
  6 11  4  0  0  0
 21  7  1  0  0  0
  8 13  4  0  0  0
  9 14  4  0  0  0
 10 15  4  0  0  0
 11 16  4  0  0  0
 12 21  1  0  0  0
 13 15  4  0  0  0
 14 16  4  0  0  0
 19 20  1  0  0  0
  1 22  1  0  0  0
  7 23  1  0  0  0
  8 24  1  0  0  0
  9 25  1  0  0  0
 10 26  1  0  0  0
 11 27  1  0  0  0
 12 28  1  0  0  0
 12 29  1  0  0  0
 13 30  1  0  0  0
 14 31  1  0  0  0
 15 32  1  0  0  0
 16 33  1  0  0  0
 17 34  1  0  0  0
 17 35  1  0  0  0
 17 36  1  0  0  0
 18 37  1  0  0  0
 18 38  1  0  0  0
 18 39  1  0  0  0
 19 40  1  0  0  0
 19 41  1  0  0  0
 20 42  1  0  0  0
 20 43  1  0  0  0
 21 44  1  0  0  0
 21 45  1  0  0  0
M  END
$$$$
