1tbz_ligand
  -I-interpret- 

 74 77  0  0  0  0  0  0  0  0999 V2000
   15.9710  -16.7030   23.3420 N   0  3  0  0  0
   17.3180  -16.0350   23.3760 C   0  0  0  0  0
   17.1160  -14.6670   22.7340 C   0  0  0  0  0
   16.0980  -14.0640   23.1020 O   0  0  0  0  0
   17.7620  -15.9460   24.8420 C   0  0  0  0  0
   19.1830  -15.4740   24.9790 C   0  0  0  0  0
   20.2040  -16.2210   24.3680 C   0  0  0  0  0
   19.4910  -14.3500   25.7500 C   0  0  0  0  0
   21.5530  -15.8030   24.4760 C   0  0  0  0  0
   20.8610  -13.9640   25.9140 C   0  0  0  0  0
   21.8870  -14.6860   25.2770 C   0  0  0  0  0
   17.9660  -14.2630   21.8220 N   0  0  0  0  0
   17.7500  -12.9700   21.0910 C   0  0  0  0  0
   16.3630  -12.9590   20.4590 C   0  0  0  0  0
   15.8110  -14.0260   20.1000 O   0  0  0  0  0
   18.9190  -12.8540   20.1400 C   0  0  0  0  0
   19.8360  -14.0400   20.3510 C   0  0  0  0  0
   19.1870  -14.9440   21.3740 C   0  0  0  0  0
   15.6870  -11.8020   20.4690 N   0  0  0  0  0
   14.3470  -11.5500   19.9650 C   0  0  0  0  0
   14.3130  -10.6130   18.7370 C   0  0  0  0  0
   13.2540  -10.5190   18.0770 O   0  0  0  0  0
   13.3770  -10.9300   20.9830 C   0  0  0  0  0
   12.9310  -11.8980   22.0430 C   0  0  0  0  0
   11.9120  -11.2870   22.9150 C   0  0  0  0  0
   11.2820  -12.2580   23.7470 N   0  0  0  0  0
   10.4450  -12.0770   24.7370 C   0  0  0  0  0
   10.1850  -10.7810   25.0480 N   0  0  0  0  0
    9.7080  -13.0960   25.1750 N   0  0  0  0  0
   15.6310  -11.0900   17.4900 C   0  0  0  0  0
   16.8410  -10.8090   17.1950 N   0  0  0  0  0
   17.2560  -11.5450   16.1110 C   0  0  0  0  0
   14.9130  -12.5010   16.6110 S   0  0  0  0  0
   16.2370  -12.2760   15.4610 C   0  0  0  0  0
   16.5480  -13.1150   14.3680 C   0  0  0  0  0
   17.8340  -13.0610   13.8240 C   0  0  0  0  0
   18.7010  -11.9850   14.2280 C   0  0  0  0  0
   18.4180  -11.2460   15.3590 C   0  0  0  0  0
   15.6526  -16.7745   22.3756 H   0  0  0  0  0
   16.0454  -17.6363   23.7467 H   0  0  0  0  0
   15.3047  -16.1496   23.8807 H   0  0  0  0  0
   18.0969  -16.5739   22.8365 H   0  0  0  0  0
   17.6928  -16.9427   25.2778 H   0  0  0  0  0
   17.1165  -15.2283   25.3483 H   0  0  0  0  0
   19.9575  -17.1241   23.8097 H   0  0  0  0  0
   18.6964  -13.7723   26.2222 H   0  0  0  0  0
   22.3346  -16.3427   23.9413 H   0  0  0  0  0
   21.1102  -13.1048   26.5367 H   0  0  0  0  0
   22.9282  -14.3877   25.3995 H   0  0  0  0  0
   17.7416  -12.0838   21.7256 H   0  0  0  0  0
   19.4613  -11.9280   20.3312 H   0  0  0  0  0
   18.5595  -12.8424   19.1111 H   0  0  0  0  0
   20.8125  -13.7074   20.7029 H   0  0  0  0  0
   19.9877  -14.5746   19.4133 H   0  0  0  0  0
   18.9534  -15.9167   20.9411 H   0  0  0  0  0
   19.8591  -15.1288   22.2120 H   0  0  0  0  0
   16.1703  -11.0029   20.8792 H   0  0  0  0  0
   14.0233  -12.5582   19.7067 H   0  0  0  0  0
   14.4623   -9.6495   19.2243 H   0  0  0  0  0
   13.3845   -9.9053   17.3504 H   0  0  0  0  0
   12.4903  -10.6054   20.4385 H   0  0  0  0  0
   13.8991  -10.1129   21.4809 H   0  0  0  0  0
   13.7925  -12.1754   22.6504 H   0  0  0  0  0
   12.4997  -12.7744   21.5593 H   0  0  0  0  0
   11.1505  -10.8276   22.2848 H   0  0  0  0  0
   12.4016  -10.5520   23.5539 H   0  0  0  0  0
   11.5161  -13.2294   23.5423 H   0  0  0  0  0
    9.3913  -10.5492   25.6453 H   0  0  0  0  0
   10.7834  -10.0393   24.6843 H   0  0  0  0  0
    9.7967  -14.0140   24.7393 H   0  0  0  0  0
   15.7990  -13.7917   13.9567 H   0  0  0  0  0
   18.1720  -13.8141   13.1122 H   0  0  0  0  0
   19.5867  -11.7524   13.6369 H   0  0  0  0  0
   19.0826  -10.4401   15.6702 H   0  0  0  0  0
  2  1  1  0  0  0
  3  2  1  0  0  0
  2  5  1  0  0  0
  3  4  2  0  0  0
 12  3  1  0  0  0
  5  6  1  0  0  0
  6  7  4  0  0  0
  6  8  4  0  0  0
  7  9  4  0  0  0
  8 10  4  0  0  0
  9 11  4  0  0  0
 10 11  4  0  0  0
 13 12  1  0  0  0
 12 18  1  0  0  0
 14 13  1  0  0  0
 13 16  1  0  0  0
 14 15  2  0  0  0
 19 14  1  0  0  0
 16 17  1  0  0  0
 17 18  1  0  0  0
 20 19  1  0  0  0
 21 20  1  0  0  0
 20 23  1  0  0  0
 21 22  1  0  0  0
 23 24  1  0  0  0
 24 25  1  0  0  0
 25 26  1  0  0  0
 26 27  1  0  0  0
 27 28  1  0  0  0
 27 29  2  0  0  0
 30 31  4  0  0  0
 30 33  4  0  0  0
 31 32  4  0  0  0
 34 32  4  0  0  0
 32 38  4  0  0  0
 33 34  4  0  0  0
 34 35  4  0  0  0
 35 36  4  0  0  0
 36 37  4  0  0  0
 38 37  4  0  0  0
 30 21  1  0  0  0
  1 39  1  0  0  0
  1 40  1  0  0  0
  1 41  1  0  0  0
  2 42  1  0  0  0
  5 43  1  0  0  0
  5 44  1  0  0  0
  7 45  1  0  0  0
  8 46  1  0  0  0
  9 47  1  0  0  0
 10 48  1  0  0  0
 11 49  1  0  0  0
 13 50  1  0  0  0
 16 51  1  0  0  0
 16 52  1  0  0  0
 17 53  1  0  0  0
 17 54  1  0  0  0
 18 55  1  0  0  0
 18 56  1  0  0  0
 19 57  1  0  0  0
 20 58  1  0  0  0
 21 59  1  0  0  0
 22 60  1  0  0  0
 23 61  1  0  0  0
 23 62  1  0  0  0
 24 63  1  0  0  0
 24 64  1  0  0  0
 25 65  1  0  0  0
 25 66  1  0  0  0
 26 67  1  0  0  0
 28 68  1  0  0  0
 28 69  1  0  0  0
 29 70  1  0  0  0
 35 71  1  0  0  0
 36 72  1  0  0  0
 37 73  1  0  0  0
 38 74  1  0  0  0
M  END
$$$$
