5v9p_ligand
  -I-interpret- 

 38 40  0  0  0  0  0  0  0  0999 V2000
  -49.0590   46.8030   14.8060 C   0  0  0  0  0
  -50.1610   41.6220   19.2670 C   0  0  0  0  0
  -49.0280   46.0460   15.9960 C   0  0  0  0  0
  -50.2300   45.3530   16.0120 C   0  0  0  0  0
  -50.8140   44.4290   17.0010 C   0  0  0  0  0
  -51.0420   42.7790   18.7860 C   0  0  0  0  0
  -47.4930   47.2570   12.8960 C   0  0  0  0  0
  -46.8410   47.9120   15.1820 C   0  0  0  0  0
  -48.8510   42.3870   19.4720 C   0  0  0  0  0
  -48.8100   43.2710   18.1950 C   0  0  0  0  0
  -49.1180   44.4910   20.9310 C   0  0  0  0  0
  -49.0900   44.7740   22.2610 C   0  0  0  0  0
  -48.0310   47.7570   14.2390 C   0  0  0  0  0
  -48.8870   43.5550   22.9010 C   0  0  0  0  0
  -50.2220   43.5950   17.8960 N   0  0  0  0  0
  -48.9320   43.1440   20.7420 N   0  0  0  0  0
  -48.7950   42.5810   22.0140 N   0  0  0  0  0
  -50.8950   45.7300   14.8820 N   0  0  0  0  0
  -50.1890   46.5540   14.2150 N   0  0  0  0  0
  -52.0220   44.4250   17.0090 O   0  0  0  0  0
  -49.3170   46.4240   23.1170 Br  0  0  0  0  0
  -50.0973   40.7771   18.5813 H   0  0  0  0  0
  -50.5305   41.0989   20.1490 H   0  0  0  0  0
  -48.2329   46.0127   16.7408 H   0  0  0  0  0
  -51.4008   43.3684   19.6298 H   0  0  0  0  0
  -51.9225   42.4036   18.2646 H   0  0  0  0  0
  -46.7831   47.9820   12.4978 H   0  0  0  0  0
  -46.9936   46.2989   13.0401 H   0  0  0  0  0
  -48.3206   47.1353   12.1971 H   0  0  0  0  0
  -46.3479   46.9476   15.3042 H   0  0  0  0  0
  -46.1374   48.6307   14.7619 H   0  0  0  0  0
  -47.1909   48.2680   16.1510 H   0  0  0  0  0
  -47.9438   41.7913   19.5727 H   0  0  0  0  0
  -48.3339   42.7513   17.3635 H   0  0  0  0  0
  -48.2169   44.1721   18.3509 H   0  0  0  0  0
  -49.2656   45.2222   20.1363 H   0  0  0  0  0
  -48.5362   48.7142   14.1100 H   0  0  0  0  0
  -48.8143   43.4230   23.9805 H   0  0  0  0  0
  3  1  4  0  0  0
  1 13  1  0  0  0
  1 19  4  0  0  0
  2  6  1  0  0  0
  9  2  1  0  0  0
  4  3  4  0  0  0
  5  4  1  0  0  0
  4 18  4  0  0  0
 15  5  1  0  0  0
  5 20  2  0  0  0
 15  6  1  0  0  0
 13  7  1  0  0  0
 13  8  1  0  0  0
  9 10  1  0  0  0
 16  9  1  0  0  0
 10 15  1  0  0  0
 11 12  4  0  0  0
 11 16  4  0  0  0
 12 14  4  0  0  0
 12 21  1  0  0  0
 14 17  4  0  0  0
 16 17  4  0  0  0
 18 19  4  0  0  0
  2 22  1  0  0  0
  2 23  1  0  0  0
  3 24  1  0  0  0
  6 25  1  0  0  0
  6 26  1  0  0  0
  7 27  1  0  0  0
  7 28  1  0  0  0
  7 29  1  0  0  0
  8 30  1  0  0  0
  8 31  1  0  0  0
  8 32  1  0  0  0
  9 33  1  0  0  0
 10 34  1  0  0  0
 10 35  1  0  0  0
 11 36  1  0  0  0
 13 37  1  0  0  0
 14 38  1  0  0  0
M  END
$$$$
