1m5c_ligand
  -I-interpret- 

 21 21  0  0  0  0  0  0  0  0999 V2000
   43.5150   15.7520   18.9240 O   0  0  0  0  0
   42.7280   14.7930   18.6030 C   0  0  0  0  0
   42.1870   13.9780   19.4040 O   0  0  0  0  0
   42.4210   14.6000   17.0720 C   0  0  0  0  0
   41.4380   13.5120   16.8750 N   0  3  0  0  0
   41.9060   15.9490   16.5660 C   0  0  0  0  0
   42.2670   16.2440   15.1720 C   0  0  0  0  0
   41.5630   16.6960   14.0670 C   0  0  0  0  0
   39.7860   17.1200   13.9400 Br  0  0  0  0  0
   42.5980   16.7580   12.9860 C   0  0  0  0  0
   42.4120   17.1220   11.7780 O   0  0  0  0  0
   43.7990   16.3510   13.5190 N   0  0  0  0  0
   43.6040   16.0490   14.8060 O   0  0  0  0  0
   43.7865   16.2206   18.1313 H   0  0  0  0  0
   43.3078   14.3040   16.5116 H   0  0  0  0  0
   41.8263   12.6368   17.2267 H   0  0  0  0  0
   40.5813   13.7335   17.3823 H   0  0  0  0  0
   41.2311   13.4183   15.8806 H   0  0  0  0  0
   42.3598   16.7212   17.1872 H   0  0  0  0  0
   40.8177   15.9190   16.6181 H   0  0  0  0  0
   44.6855   16.2902   13.0182 H   0  0  0  0  0
  1  2  1  0  0  0
  2  4  1  0  0  0
  2  3  2  0  0  0
  4  6  1  0  0  0
  4  5  1  0  0  0
  6  7  1  0  0  0
  7 13  1  0  0  0
  7  8  2  0  0  0
  8 10  1  0  0  0
  8  9  1  0  0  0
 10 12  1  0  0  0
 10 11  2  0  0  0
 12 13  1  0  0  0
  1 14  1  0  0  0
  4 15  1  0  0  0
  5 16  1  0  0  0
  5 17  1  0  0  0
  5 18  1  0  0  0
  6 19  1  0  0  0
  6 20  1  0  0  0
 12 21  1  0  0  0
M  END
$$$$
