5hu0_ligand
  -I-interpret- 

 46 49  0  0  0  0  0  0  0  0999 V2000
   21.5200   10.4850   21.8930 C   0  0  0  0  0
   21.7180   11.6250   22.8620 C   0  0  0  0  0
   22.1940   11.0880   24.0470 N   0  0  0  0  0
   22.1960    9.7140   23.9940 C   0  0  0  0  0
   21.7760    9.3340   22.7530 N   0  0  0  0  0
   22.5100   11.9040   25.2120 C   0  0  0  0  0
   22.6430   10.6010   20.8880 C   0  0  0  0  0
   20.1120   10.3860   21.3180 C   0  0  0  0  0
   19.6860    9.2010   20.7360 C   0  0  0  0  0
   18.4220    9.0640   20.1960 C   0  0  0  0  0
   17.5530   10.1370   20.2190 C   0  0  0  0  0
   17.9450   11.3380   20.7890 C   0  0  0  0  0
   19.2190   11.4520   21.3220 C   0  0  0  0  0
   23.9370   10.2410   21.2470 C   0  0  0  0  0
   25.0010   10.3540   20.3810 C   0  0  0  0  0
   24.7780   10.8350   19.1040 C   0  0  0  0  0
   23.4970   11.2000   18.7290 C   0  0  0  0  0
   22.4390   11.0870   19.6100 C   0  0  0  0  0
   22.5860    8.9330   24.9480 N   0  0  0  0  0
   21.5190   12.8070   22.6000 O   0  0  0  0  0
   26.2560    9.9560   20.8700 N   0  0  0  0  0
   27.5150   10.3720   20.4590 C   0  0  0  0  0
   27.7380   11.0020   19.4430 O   0  0  0  0  0
   28.5790    9.9620   21.3400 C   0  0  0  0  0
   28.3030    9.0630   22.3190 O   0  0  0  0  0
   29.4340    8.8280   23.0380 C   0  0  0  0  0
   30.4630    9.5680   22.5100 C   0  0  0  0  0
   29.9180   10.2990   21.4180 C   0  0  0  0  0
   21.6556    8.3639   22.4617 H   0  0  0  0  0
   21.8136   11.6704   26.0173 H   0  0  0  0  0
   23.5283   11.6914   25.5375 H   0  0  0  0  0
   22.4237   12.9584   24.9497 H   0  0  0  0  0
   20.3693    8.3524   20.7038 H   0  0  0  0  0
   18.1129    8.1163   19.7551 H   0  0  0  0  0
   16.5566   10.0392   19.7879 H   0  0  0  0  0
   17.2583   12.1840   20.8177 H   0  0  0  0  0
   19.5294   12.4025   21.7559 H   0  0  0  0  0
   24.1155    9.8552   22.2507 H   0  0  0  0  0
   25.6041   10.9259   18.3988 H   0  0  0  0  0
   23.3202   11.5823   17.7237 H   0  0  0  0  0
   21.4380   11.3826   19.2958 H   0  0  0  0  0
   22.9257    9.3289   25.8245 H   0  0  0  0  0
   26.2403    9.2716   21.6262 H   0  0  0  0  0
   29.5108    8.1595   23.8955 H   0  0  0  0  0
   31.4953    9.5909   22.8592 H   0  0  0  0  0
   30.4528   10.9914   20.7679 H   0  0  0  0  0
  1  2  1  0  0  0
  1  5  1  0  0  0
  1  7  1  0  0  0
  1  8  1  0  0  0
  2  3  1  0  0  0
  2 20  2  0  0  0
  3  4  4  0  0  0
  3  6  1  0  0  0
  4  5  1  0  0  0
  4 19  2  0  0  0
  7 14  4  0  0  0
  7 18  4  0  0  0
  8  9  4  0  0  0
  8 13  4  0  0  0
  9 10  4  0  0  0
 10 11  4  0  0  0
 11 12  4  0  0  0
 12 13  4  0  0  0
 14 15  4  0  0  0
 15 16  4  0  0  0
 15 21  1  0  0  0
 16 17  4  0  0  0
 17 18  4  0  0  0
 21 22  1  0  0  0
 22 23  2  0  0  0
 22 24  1  0  0  0
 24 25  4  0  0  0
 24 28  4  0  0  0
 25 26  4  0  0  0
 26 27  4  0  0  0
 27 28  4  0  0  0
  5 29  1  0  0  0
  6 30  1  0  0  0
  6 31  1  0  0  0
  6 32  1  0  0  0
  9 33  1  0  0  0
 10 34  1  0  0  0
 11 35  1  0  0  0
 12 36  1  0  0  0
 13 37  1  0  0  0
 14 38  1  0  0  0
 16 39  1  0  0  0
 17 40  1  0  0  0
 18 41  1  0  0  0
 19 42  1  0  0  0
 21 43  1  0  0  0
 26 44  1  0  0  0
 27 45  1  0  0  0
 28 46  1  0  0  0
M  END
$$$$
