1hp5_ligand
  -I-interpret- 

 27 28  0  0  0  0  0  0  0  0999 V2000
   -5.8060   65.5590    9.9600 C   0  0  0  0  0
   -6.5790   66.4760    8.9660 C   0  0  0  0  0
   -5.6020   67.2660    8.0300 C   0  0  0  0  0
   -4.3700   67.8090    8.7750 C   0  0  0  0  0
   -3.6630   66.6680    9.5380 C   0  0  0  0  0
   -2.4400   67.1200   10.3320 C   0  0  0  0  0
   -7.0380   64.4310    8.0570 C   0  0  0  0  0
   -7.6950   63.3350    7.2510 C   0  0  0  0  0
   -7.4390   65.6240    8.1550 N   0  0  0  0  0
   -5.5870   64.0020    8.9670 S   0  0  0  0  0
   -6.3010   68.3240    7.3920 O   0  0  0  0  0
   -3.4830   68.3940    7.8380 O   0  0  0  0  0
   -4.6030   66.0340   10.4880 O   0  0  0  0  0
   -1.7400   65.9970   10.8690 O   0  0  0  0  0
   -6.3694   65.4523   10.8870 H   0  0  0  0  0
   -7.1579   67.2074    9.5299 H   0  0  0  0  0
   -5.2296   66.5645    7.2835 H   0  0  0  0  0
   -4.6843   68.5621    9.4976 H   0  0  0  0  0
   -3.3272   65.9711    8.7702 H   0  0  0  0  0
   -2.7700   67.7544   11.1546 H   0  0  0  0  0
   -1.7710   67.6655    9.6664 H   0  0  0  0  0
   -8.7107   63.1778    7.6140 H   0  0  0  0  0
   -7.7240   63.6256    6.2008 H   0  0  0  0  0
   -7.1227   62.4136    7.3587 H   0  0  0  0  0
   -7.0656   67.9695    6.9324 H   0  0  0  0  0
   -3.9338   69.1011    7.3707 H   0  0  0  0  0
   -0.9764   66.3038   11.3633 H   0  0  0  0  0
  2  1  1  0  0  0
  1 10  1  0  0  0
  1 13  1  0  0  0
  2  3  1  0  0  0
  9  2  1  0  0  0
  3  4  1  0  0  0
  3 11  1  0  0  0
  4  5  1  0  0  0
  4 12  1  0  0  0
  5  6  1  0  0  0
 13  5  1  0  0  0
  6 14  1  0  0  0
  7  8  1  0  0  0
  7  9  2  0  0  0
  7 10  1  0  0  0
  1 15  1  0  0  0
  2 16  1  0  0  0
  3 17  1  0  0  0
  4 18  1  0  0  0
  5 19  1  0  0  0
  6 20  1  0  0  0
  6 21  1  0  0  0
  8 22  1  0  0  0
  8 23  1  0  0  0
  8 24  1  0  0  0
 11 25  1  0  0  0
 12 26  1  0  0  0
 14 27  1  0  0  0
M  END
$$$$
