5ekh_ligand
  -I-interpret- 

 35 35  0  0  0  0  0  0  0  0999 V2000
   -0.0640    5.4560   83.4630 C   0  0  0  0  0
    1.6440    7.0900   83.3020 C   0  0  0  0  0
    2.3070    7.9010   84.4040 C   0  0  0  0  0
    2.5600    9.3350   83.9080 C   0  0  0  0  0
    3.4170   10.0840   84.9130 C   0  0  0  0  0
   -1.5330    2.1340   85.8310 C   0  0  0  0  0
   -2.3950    3.1670   85.4390 C   0  0  0  0  0
   -1.8940    4.2350   84.6840 C   0  0  0  0  0
   -0.5570    4.2690   84.3050 C   0  0  0  0  0
    0.3080    3.2220   84.6930 C   0  0  0  0  0
   -0.1790    2.1530   85.4520 C   0  0  0  0  0
   -2.1750    0.7760   86.8040 S   0  0  0  0  0
   -3.6080    0.8910   86.7530 O   0  0  0  0  0
   -1.6600    0.9130   88.1420 O   0  0  0  0  0
   -1.6690   -0.6070   86.1190 N   0  0  0  0  0
    1.2960    5.7930   83.8150 N   0  3  0  0  0
   -0.7040    6.3172   83.6546 H   0  0  0  0  0
   -0.1003    5.1825   82.4085 H   0  0  0  0  0
    2.3322    6.9797   82.4640 H   0  0  0  0  0
    0.7444    7.6023   82.9610 H   0  0  0  0  0
    3.2563    7.4381   84.6734 H   0  0  0  0  0
    1.6537    7.9293   85.2761 H   0  0  0  0  0
    1.6062    9.8500   83.7935 H   0  0  0  0  0
    3.0779    9.2984   82.9496 H   0  0  0  0  0
    2.9016   10.1199   85.8728 H   0  0  0  0  0
    4.3707    9.5694   85.0303 H   0  0  0  0  0
    3.5918   11.0985   84.5548 H   0  0  0  0  0
   -3.4479    3.1395   85.7197 H   0  0  0  0  0
   -2.5589    5.0474   84.3908 H   0  0  0  0  0
    1.3576    3.2472   84.4002 H   0  0  0  0  0
    0.4856    1.3411   85.7474 H   0  0  0  0  0
   -2.3473   -1.2589   85.7249 H   0  0  0  0  0
   -0.6729   -0.8236   86.0829 H   0  0  0  0  0
    1.9241    5.0981   83.4112 H   0  0  0  0  0
    1.3812    5.8055   84.8314 H   0  0  0  0  0
  9  1  1  0  0  0
  1 16  1  0  0  0
  2  3  1  0  0  0
 16  2  1  0  0  0
  3  4  1  0  0  0
  4  5  1  0  0  0
  7  6  4  0  0  0
  6 11  4  0  0  0
  6 12  1  0  0  0
  8  7  4  0  0  0
  8  9  4  0  0  0
  9 10  4  0  0  0
 10 11  4  0  0  0
 12 13  2  0  0  0
 12 14  2  0  0  0
 12 15  1  0  0  0
  1 17  1  0  0  0
  1 18  1  0  0  0
  2 19  1  0  0  0
  2 20  1  0  0  0
  3 21  1  0  0  0
  3 22  1  0  0  0
  4 23  1  0  0  0
  4 24  1  0  0  0
  5 25  1  0  0  0
  5 26  1  0  0  0
  5 27  1  0  0  0
  7 28  1  0  0  0
  8 29  1  0  0  0
 10 30  1  0  0  0
 11 31  1  0  0  0
 15 32  1  0  0  0
 15 33  1  0  0  0
 16 34  1  0  0  0
 16 35  1  0  0  0
M  END
$$$$
