5ivy_ligand
  -I-interpret- 

 31 32  0  0  0  0  0  0  0  0999 V2000
  -27.9150   23.4510    6.2090 C   0  0  0  0  0
  -27.0110   24.5210    4.2560 C   0  0  0  0  0
  -24.2300   19.1960    3.8880 C   0  0  0  0  0
  -23.2330   17.4650    5.7590 C   0  0  0  0  0
  -24.1190   20.1120    8.0600 O   0  0  0  0  0
  -23.5010   19.1390    7.6110 C   0  0  0  0  0
  -22.7770   18.3970    8.3070 O   0  0  0  0  0
  -23.6340   18.7470    6.1550 C   0  0  0  0  0
  -24.1670   19.6070    5.2120 C   0  0  0  0  0
  -24.5560   20.9000    5.6110 N   0  0  0  0  0
  -25.1690   21.8570    4.9110 C   0  0  0  0  0
  -25.4660   23.1680    5.5980 C   0  0  0  0  0
  -26.8020   23.7080    5.3580 C   0  0  0  0  0
  -29.1630   23.9800    5.9240 C   0  0  0  0  0
  -29.3080   24.7830    4.7820 C   0  0  0  0  0
  -30.8550   25.4770    4.3700 Cl  0  0  0  0  0
  -28.2360   25.0450    3.9680 C   0  0  0  0  0
  -25.4220   21.7450    3.7250 O   0  0  0  0  0
  -23.8620   17.9550    3.4630 N   0  0  0  0  0
  -23.3580   17.1230    4.4220 C   0  0  0  0  0
  -27.7830   22.8304    7.0953 H   0  0  0  0  0
  -26.1710   24.7484    3.5997 H   0  0  0  0  0
  -24.5946   19.9064    3.1460 H   0  0  0  0  0
  -22.8332   16.7551    6.4831 H   0  0  0  0  0
  -22.3985   17.7103    7.7532 H   0  0  0  0  0
  -24.3371   21.1410    6.5776 H   0  0  0  0  0
  -24.7585   23.8962    5.2015 H   0  0  0  0  0
  -25.3911   22.9835    6.6697 H   0  0  0  0  0
  -30.0148   23.7769    6.5731 H   0  0  0  0  0
  -28.3639   25.6746    3.0874 H   0  0  0  0  0
  -23.0340   16.1281    4.1165 H   0  0  0  0  0
 13  1  4  0  0  0
  1 14  4  0  0  0
 13  2  4  0  0  0
  2 17  4  0  0  0
  9  3  4  0  0  0
  3 19  4  0  0  0
  8  4  4  0  0  0
  4 20  4  0  0  0
  6  5  2  0  0  0
  6  7  1  0  0  0
  8  6  1  0  0  0
  9  8  4  0  0  0
 10  9  1  0  0  0
 11 10  1  0  0  0
 12 11  1  0  0  0
 11 18  2  0  0  0
 12 13  1  0  0  0
 14 15  4  0  0  0
 15 16  1  0  0  0
 15 17  4  0  0  0
 19 20  4  0  0  0
  1 21  1  0  0  0
  2 22  1  0  0  0
  3 23  1  0  0  0
  4 24  1  0  0  0
  7 25  1  0  0  0
 10 26  1  0  0  0
 12 27  1  0  0  0
 12 28  1  0  0  0
 14 29  1  0  0  0
 17 30  1  0  0  0
 20 31  1  0  0  0
M  END
$$$$
