### 
### Created by X-TOOL on Mon Sep 10 21:13:08 2018
### 

@<TRIPOS>MOLECULE
2l65_ligand
  164   170     1     0     0
SMALL
GAST_HUCK


@<TRIPOS>ATOM
      1 C1         23.1080   -6.2690   -0.6270 C.3       1 DAG         0.1899
      2 C2         22.5550   -7.0190    0.5870 C.3       1 DAG         0.1434
      3 C3         21.0460   -6.7980    0.6930 C.3       1 DAG         0.1318
      4 C4         20.7440   -5.2990    0.6900 C.3       1 DAG         0.0633
      5 C5         21.4080   -4.6310   -0.5160 C.3       1 DAG         0.1049
      6 C6         21.1370   -3.1270   -0.4740 C.3       1 DAG        -0.0332
      7 O1         24.5240   -6.4600   -0.6990 O.3       1 DAG        -0.3323
      8 O2         22.8140   -8.4190    0.4460 O.3       1 DAG        -0.3402
      9 O3         20.5440   -7.4030    1.8880 O.3       1 DAG        -0.3833
     10 N4         19.2920   -5.0830    0.6570 N.4       1 DAG         0.3996
     11 O5         22.8230   -4.8690   -0.4990 O.3       1 DAG        -0.3400
     12 C1         17.7580   -4.9100   -1.0080 C.3       1 DSR         0.2039
     13 C2         17.3840   -5.5690   -2.3360 C.3       1 DSR         0.0308
     14 C3         16.2550   -4.7660   -2.9840 C.3       1 DSR         0.0764
     15 C4         15.0850   -4.6440   -2.0040 C.3       1 DSR         0.0755
     16 C5         15.5760   -4.0670   -0.6750 C.3       1 DSR         0.0755
     17 C6         14.4090   -4.0110    0.3130 C.3       1 DSR        -0.0373
     18 O1         18.8150   -5.6500   -0.3910 O.3       1 DSR        -0.2976
     19 O3         16.7310   -3.4570   -3.3040 O.3       1 DSR        -0.3903
     20 O5         16.6220   -4.8920   -0.1340 O.3       1 DSR        -0.3424
     21 S4         13.7520   -3.6010   -2.7060 S.3       1 DSR        -0.0477
     22 C1          9.1690   -5.2450   -4.0260 C.ar      1 HIB         0.0265
     23 C2          8.2910   -4.3800   -3.3900 C.ar      1 HIB         0.1258
     24 C3          8.7080   -3.6540   -2.2770 C.ar      1 HIB         0.1491
     25 C4         10.0120   -3.7920   -1.8100 C.ar      1 HIB         0.1294
     26 C5         10.8890   -4.6580   -2.4490 C.ar      1 HIB         0.0578
     27 C6         10.4680   -5.3870   -3.5550 C.ar      1 HIB        -0.0409
     28 C7         12.3210   -4.8170   -1.9330 C.2       1 HIB         0.1728
     29 C8         11.4350   -6.3450   -4.2470 C.3       1 HIB        -0.0351
     30 C9          7.1520   -3.5480   -0.6190 C.3       1 HIB         0.0527
     31 CX          9.8020   -1.7960   -0.6930 C.3       1 HIB         0.0586
     32 O3          7.8360   -2.8250   -1.6450 O.3       1 HIB        -0.3325
     33 O4         10.4390   -3.0750   -0.7340 O.3       1 HIB        -0.3225
     34 O7         12.8100   -5.1110   -0.8450 O.2       1 HIB        -0.3820
     35 I1          8.5370   -6.3290   -5.7020 I         1 HIB        -0.0727
     36 C1          6.2470   -2.6170   -4.3950 C.3       1 MRP         0.2086
     37 C2          5.7430   -2.7610   -5.8320 C.3       1 MRP         0.1387
     38 C3          4.7280   -3.9020   -5.9160 C.3       1 MRP         0.1174
     39 C4          3.6230   -3.6370   -4.8910 C.3       1 MRP         0.1097
     40 C5          4.2250   -3.4430   -3.4970 C.3       1 MRP         0.0877
     41 C6          3.1090   -3.1450   -2.4970 C.3       1 MRP        -0.0360
     42 C7          5.2210   -4.2450   -8.1770 C.3       1 MRP         0.0370
     43 O1          6.8770   -3.8370   -3.9950 O.3       1 MRP        -0.2878
     44 O2          5.1140   -1.5390   -6.2300 O.3       1 MRP        -0.3837
     45 O3          4.1750   -4.0030   -7.2350 O.3       1 MRP        -0.3744
     46 O4          2.7270   -4.7520   -4.8670 O.3       1 MRP        -0.3866
     47 O5          5.1450   -2.3400   -3.5170 O.3       1 MRP        -0.3395
     48 C1         23.2140   -9.2320    1.4460 C.3       1 EMP         0.1626
     49 C2         22.9280  -10.7350    1.4590 C.3       1 EMP         0.0301
     50 C3         23.6480  -11.3890    0.2790 C.3       1 EMP         0.1074
     51 C4         25.1360  -11.0570    0.3850 C.3       1 EMP         0.0282
     52 C5         25.3270   -9.5400    0.4450 C.3       1 EMP         0.0957
     53 C6         27.2890  -11.3350   -0.6840 C.3       1 EMP        -0.0361
     54 C7         27.5560   -9.8560   -0.9670 C.3       1 EMP        -0.0245
     55 C8         22.0640  -13.1110    0.2000 C.3       1 EMP         0.0371
     56 O3         23.4580  -12.8110    0.3180 O.3       1 EMP        -0.3740
     57 N4         25.8470  -11.6160   -0.7740 N.4       1 EMP         0.2324
     58 O5         24.6260   -9.0020    1.5770 O.3       1 EMP        -0.3456
     59 C1         25.3710   -6.5980   -2.4400 C.3       1 MTC         0.1297
     60 C2         24.3260   -5.8320   -3.1270 C.1       1 MTC        -0.0654
     61 C3         23.5510   -5.0830   -3.7070 C.1       1 MTC        -0.0709
     62 C4         22.7890   -4.0760   -4.3790 C.2       1 MTC        -0.0033
     63 C5         23.4320   -2.8440   -4.3820 C.2       1 MTC        -0.0033
     64 C6         24.7010   -2.8650   -3.7170 C.1       1 MTC        -0.0705
     65 C7         25.7570   -3.0010   -3.1120 C.1       1 MTC        -0.0601
     66 C8         26.9830   -3.2760   -2.3510 C.3       1 MTC         0.1457
     67 C9         28.1900   -3.3890   -3.2850 C.3       1 MTC         0.0639
     68 C10        28.1060   -4.7060   -4.0610 C.2       1 MTC         0.1343
     69 C11        27.5750   -5.8670   -3.5080 C.3       1 MTC         0.1233
     70 C12        26.6280   -5.7270   -2.4980 C.3       1 MTC         0.0423
     71 C13        26.8030   -4.6300   -1.6620 C.3       1 MTC         0.0126
     72 C14        26.7310   -4.6780   -0.1310 C.3       1 MTC        -0.0361
     73 C15        27.5590   -5.8390    0.4200 C.3       1 MTC         0.0051
     74 C16        31.1540   -6.7820    1.2060 C.3       1 MTC        -0.0071
     75 C17        28.7250   -7.3180   -4.9320 C.2       1 MTC         0.3216
     76 C18        29.8850   -8.6680   -6.3690 C.3       1 MTC         0.0663
     77 O8         27.2040   -2.2420   -1.3890 O.3       1 MTC        -0.3741
     78 O10        28.4600   -4.6960   -5.2400 O.2       1 MTC        -0.3890
     79 O71        29.4460   -6.4550   -5.4310 O.2       1 MTC        -0.3774
     80 O72        28.8960   -8.6050   -5.3390 O.3       1 MTC        -0.2671
     81 N11        27.8290   -7.0860   -3.9750 N.am      1 MTC        -0.2419
     82 S1         27.5050   -5.9550    2.2450 S.3       1 MTC        -0.0818
     83 S2         28.7300   -7.5290    2.6740 S.3       1 MTC        -0.0245
     84 S3         30.5690   -6.6740    2.8840 S.3       1 MTC        -0.0852
     85 H          22.6399   -6.6529   -1.5334 H         1 DAG         0.0938
     86 H          23.0415   -6.6427    1.4869 H         1 DAG         0.0676
     87 H          20.5546   -7.2604   -0.1630 H         1 DAG         0.0679
     88 H          21.1461   -4.8528    1.5996 H         1 DAG         0.0913
     89 H          20.9932   -5.0529   -1.4314 H         1 DAG         0.0652
     90 H          21.5633   -2.7076    0.4373 H         1 DAG         0.0257
     91 H          21.5940   -2.6524   -1.3423 H         1 DAG         0.0257
     92 H          20.0611   -2.9525   -0.4871 H         1 DAG         0.0257
     93 H          20.7403   -8.3426    1.8765 H         1 DAG         0.2102
     94 H          19.0910   -4.0833    0.6318 H         1 DAG         0.2354
     95 H          18.8634   -5.4820    1.4921 H         1 DAG         0.2354
     96 H          18.0838   -3.8871   -1.1966 H         1 DAG         0.0965
     97 H          17.0551   -6.5932   -2.1604 H         1 DAG         0.0341
     98 H          18.2509   -5.5868   -2.9966 H         1 DAG         0.0341
     99 H          15.9238   -5.2736   -3.8899 H         1 DAG         0.0608
    100 H          14.6747   -5.6382   -1.8268 H         1 DAG         0.0490
    101 H          15.9669   -3.0635   -0.8432 H         1 DAG         0.0607
    102 H          13.6213   -3.3761   -0.0927 H         1 DAG         0.0255
    103 H          14.0208   -5.0170    0.4721 H         1 DAG         0.0255
    104 H          14.7565   -3.6001    1.2609 H         1 DAG         0.0255
    105 H          16.0223   -2.9495   -3.7061 H         1 DAG         0.2098
    106 H          11.0306   -7.3566   -4.2106 H         1 DAG         0.0389
    107 H          11.5643   -6.0412   -5.2858 H         1 DAG         0.0389
    108 H          12.3979   -6.3186   -3.7369 H         1 DAG         0.0389
    109 H           6.6064   -4.3799   -1.0645 H         1 DAG         0.0565
    110 H           7.8771   -3.9305    0.0993 H         1 DAG         0.0565
    111 H           6.4527   -2.8830   -0.1122 H         1 DAG         0.0565
    112 H          10.0403   -1.2435   -1.6019 H         1 DAG         0.0577
    113 H           8.7228   -1.9312   -0.6209 H         1 DAG         0.0577
    114 H          10.1588   -1.2415    0.1749 H         1 DAG         0.0577
    115 H           6.9617   -1.7957   -4.3424 H         1 DAG         0.0992
    116 H           6.5833   -2.9806   -6.4906 H         1 DAG         0.0675
    117 H           5.2232   -4.8483   -5.6983 H         1 DAG         0.0650
    118 H           3.0866   -2.7312   -5.1736 H         1 DAG         0.0646
    119 H           4.7503   -4.3519   -3.2035 H         1 DAG         0.0621
    120 H           2.5867   -2.2367   -2.7974 H         1 DAG         0.0255
    121 H           2.4079   -3.9793   -2.4777 H         1 DAG         0.0255
    122 H           3.5391   -3.0071   -1.5050 H         1 DAG         0.0255
    123 H           5.9345   -3.4216   -8.1452 H         1 DAG         0.0524
    124 H           5.7276   -5.1764   -7.9241 H         1 DAG         0.0524
    125 H           4.7963   -4.3211   -9.1780 H         1 DAG         0.0524
    126 H           5.7497   -0.8215   -6.1779 H         1 DAG         0.2101
    127 H           2.3482   -4.8755   -5.7404 H         1 DAG         0.2100
    128 H          22.5674   -8.9476    2.2761 H         1 DAG         0.0910
    129 H          21.8547  -10.9057    1.3751 H         1 DAG         0.0341
    130 H          23.2843  -11.1689    2.3933 H         1 DAG         0.0341
    131 H          23.2463  -11.0139   -0.6623 H         1 DAG         0.0655
    132 H          25.5426  -11.4956    1.2963 H         1 DAG         0.0899
    133 H          24.9328   -9.0922   -0.4673 H         1 DAG         0.0618
    134 H          26.3893   -9.3155    0.5408 H         1 DAG         0.0618
    135 H          27.6379  -11.5753    0.3203 H         1 DAG         0.0811
    136 H          27.8177  -11.9407   -1.4200 H         1 DAG         0.0811
    137 H          27.2053   -9.6101   -1.9693 H         1 DAG         0.0281
    138 H          27.0261   -9.2460   -0.2354 H         1 DAG         0.0281
    139 H          28.6262   -9.6615   -0.8973 H         1 DAG         0.0281
    140 H          21.5231  -12.6494    1.0261 H         1 DAG         0.0524
    141 H          21.6883  -12.7200   -0.7456 H         1 DAG         0.0524
    142 H          21.9224  -14.1913    0.2299 H         1 DAG         0.0524
    143 H          25.4799  -11.1882   -1.6241 H         1 DAG         0.2018
    144 H          25.7081  -12.6264   -0.7904 H         1 DAG         0.2018
    145 H          25.5344   -7.5644   -2.9170 H         1 DAG         0.0740
    146 H          21.8158   -4.2545   -4.8362 H         1 DAG         0.0718
    147 H          23.0126   -1.9504   -4.8443 H         1 DAG         0.0718
    148 H          29.1088   -3.3683   -2.6989 H         1 DAG         0.0533
    149 H          28.1907   -2.5525   -3.9839 H         1 DAG         0.0533
    150 H          28.6267   -6.0469   -3.2853 H         1 DAG         0.0794
    151 H          26.7382   -6.6046   -1.8610 H         1 DAG         0.0387
    152 H          27.4022   -5.3329   -1.0833 H         1 DAG         0.0346
    153 H          25.6916   -4.8177    0.1661 H         1 DAG         0.0277
    154 H          27.1288   -3.7446    0.2673 H         1 DAG         0.0277
    155 H          28.5963   -5.6739    0.1289 H         1 DAG         0.0385
    156 H          27.1442   -6.7628    0.0167 H         1 DAG         0.0385
    157 H          31.1837   -7.8276    0.8995 H         1 DAG         0.0349
    158 H          30.4803   -6.2291    0.5514 H         1 DAG         0.0349
    159 H          32.1550   -6.3551    1.1434 H         1 DAG         0.0349
    160 H          29.5632   -8.0640   -7.2174 H         1 DAG         0.0575
    161 H          30.8310   -8.2848   -5.9865 H         1 DAG         0.0575
    162 H          30.0123   -9.7031   -6.6858 H         1 DAG         0.0575
    163 H          26.4423   -2.1787   -0.8082 H         1 DAG         0.2116
    164 H          27.3160   -7.8760   -3.5837 H         1 DAG         0.1900
@<TRIPOS>BOND
     1    1    2 1  
     2    7    1 1  
     3    1   11 1  
     4    2    3 1  
     5    2    8 1  
     6    3    4 1  
     7    3    9 1  
     8    5    4 1  
     9    4   10 1  
    10    5    6 1  
    11   11    5 1  
    12    8   48 1  
    13   10   18 1  
    14   12   13 1  
    15   18   12 1  
    16   12   20 1  
    17   13   14 1  
    18   14   15 1  
    19   14   19 1  
    20   16   15 1  
    21   15   21 1  
    22   16   17 1  
    23   20   16 1  
    24   21   28 1  
    25   22   23 ar 
    26   27   22 ar 
    27   22   35 1  
    28   24   23 ar 
    29   23   43 1  
    30   25   24 ar 
    31   24   32 1  
    32   26   25 ar 
    33   25   33 1  
    34   26   27 ar 
    35   28   26 1  
    36   27   29 1  
    37   28   34 2  
    38   32   30 1  
    39   33   31 1  
    40   36   37 1  
    41   43   36 1  
    42   36   47 1  
    43   37   38 1  
    44   37   44 1  
    45   38   39 1  
    46   38   45 1  
    47   40   39 1  
    48   39   46 1  
    49   40   41 1  
    50   47   40 1  
    51   45   42 1  
    52   48   49 1  
    53   48   58 1  
    54   49   50 1  
    55   50   51 1  
    56   50   56 1  
    57   52   51 1  
    58   51   57 1  
    59   58   52 1  
    60   53   54 1  
    61   57   53 1  
    62   56   55 1  
    63   59   60 1  
    64   59   70 1  
    65   60   61 3  
    66   61   62 1  
    67   62   63 2  
    68   63   64 1  
    69   65   64 3  
    70   66   65 1  
    71   66   67 1  
    72   71   66 1  
    73   66   77 1  
    74   68   67 1  
    75   69   68 1  
    76   68   78 2  
    77   70   69 1  
    78   69   81 1  
    79   70   71 1  
    80   71   72 1  
    81   72   73 1  
    82   73   82 1  
    83   84   74 1  
    84   75   79 2  
    85   75   80 1  
    86   81   75 am 
    87   80   76 1  
    88   82   83 1  
    89   83   84 1  
    90    1   85 1  
    91    2   86 1  
    92    3   87 1  
    93    4   88 1  
    94    5   89 1  
    95    6   90 1  
    96    6   91 1  
    97    6   92 1  
    98    7   59 1  
    99    9   93 1  
   100   10   94 1  
   101   10   95 1  
   102   12   96 1  
   103   13   97 1  
   104   13   98 1  
   105   14   99 1  
   106   15  100 1  
   107   16  101 1  
   108   17  102 1  
   109   17  103 1  
   110   17  104 1  
   111   19  105 1  
   112   29  106 1  
   113   29  107 1  
   114   29  108 1  
   115   30  109 1  
   116   30  110 1  
   117   30  111 1  
   118   31  112 1  
   119   31  113 1  
   120   31  114 1  
   121   36  115 1  
   122   37  116 1  
   123   38  117 1  
   124   39  118 1  
   125   40  119 1  
   126   41  120 1  
   127   41  121 1  
   128   41  122 1  
   129   42  123 1  
   130   42  124 1  
   131   42  125 1  
   132   44  126 1  
   133   46  127 1  
   134   48  128 1  
   135   49  129 1  
   136   49  130 1  
   137   50  131 1  
   138   51  132 1  
   139   52  133 1  
   140   52  134 1  
   141   53  135 1  
   142   53  136 1  
   143   54  137 1  
   144   54  138 1  
   145   54  139 1  
   146   55  140 1  
   147   55  141 1  
   148   55  142 1  
   149   57  143 1  
   150   57  144 1  
   151   59  145 1  
   152   62  146 1  
   153   63  147 1  
   154   67  148 1  
   155   67  149 1  
   156   69  150 1  
   157   70  151 1  
   158   71  152 1  
   159   72  153 1  
   160   72  154 1  
   161   73  155 1  
   162   73  156 1  
   163   74  157 1  
   164   74  158 1  
   165   74  159 1  
   166   76  160 1  
   167   76  161 1  
   168   76  162 1  
   169   77  163 1  
   170   81  164 1  
@<TRIPOS>SUBSTRUCTURE
     1 DAG         1

