2l65_ligand
  -I-interpret- 

164170  0  0  0  0  0  0  0  0999 V2000
   23.1080   -6.2690   -0.6270 C   0  0  0  0  0
   22.5550   -7.0190    0.5870 C   0  0  0  0  0
   21.0460   -6.7980    0.6930 C   0  0  0  0  0
   20.7440   -5.2990    0.6900 C   0  0  0  0  0
   21.4080   -4.6310   -0.5160 C   0  0  0  0  0
   21.1370   -3.1270   -0.4740 C   0  0  0  0  0
   24.5240   -6.4600   -0.6990 O   0  0  0  0  0
   22.8140   -8.4190    0.4460 O   0  0  0  0  0
   20.5440   -7.4030    1.8880 O   0  0  0  0  0
   19.2920   -5.0830    0.6570 N   0  3  0  0  0
   22.8230   -4.8690   -0.4990 O   0  0  0  0  0
   17.7580   -4.9100   -1.0080 C   0  0  0  0  0
   17.3840   -5.5690   -2.3360 C   0  0  0  0  0
   16.2550   -4.7660   -2.9840 C   0  0  0  0  0
   15.0850   -4.6440   -2.0040 C   0  0  0  0  0
   15.5760   -4.0670   -0.6750 C   0  0  0  0  0
   14.4090   -4.0110    0.3130 C   0  0  0  0  0
   18.8150   -5.6500   -0.3910 O   0  0  0  0  0
   16.7310   -3.4570   -3.3040 O   0  0  0  0  0
   16.6220   -4.8920   -0.1340 O   0  0  0  0  0
   13.7520   -3.6010   -2.7060 S   0  0  0  0  0
    9.1690   -5.2450   -4.0260 C   0  0  0  0  0
    8.2910   -4.3800   -3.3900 C   0  0  0  0  0
    8.7080   -3.6540   -2.2770 C   0  0  0  0  0
   10.0120   -3.7920   -1.8100 C   0  0  0  0  0
   10.8890   -4.6580   -2.4490 C   0  0  0  0  0
   10.4680   -5.3870   -3.5550 C   0  0  0  0  0
   12.3210   -4.8170   -1.9330 C   0  0  0  0  0
   11.4350   -6.3450   -4.2470 C   0  0  0  0  0
    7.1520   -3.5480   -0.6190 C   0  0  0  0  0
    9.8020   -1.7960   -0.6930 C   0  0  0  0  0
    7.8360   -2.8250   -1.6450 O   0  0  0  0  0
   10.4390   -3.0750   -0.7340 O   0  0  0  0  0
   12.8100   -5.1110   -0.8450 O   0  0  0  0  0
    8.5370   -6.3290   -5.7020 I   0  0  0  0  0
    6.2470   -2.6170   -4.3950 C   0  0  0  0  0
    5.7430   -2.7610   -5.8320 C   0  0  0  0  0
    4.7280   -3.9020   -5.9160 C   0  0  0  0  0
    3.6230   -3.6370   -4.8910 C   0  0  0  0  0
    4.2250   -3.4430   -3.4970 C   0  0  0  0  0
    3.1090   -3.1450   -2.4970 C   0  0  0  0  0
    5.2210   -4.2450   -8.1770 C   0  0  0  0  0
    6.8770   -3.8370   -3.9950 O   0  0  0  0  0
    5.1140   -1.5390   -6.2300 O   0  0  0  0  0
    4.1750   -4.0030   -7.2350 O   0  0  0  0  0
    2.7270   -4.7520   -4.8670 O   0  0  0  0  0
    5.1450   -2.3400   -3.5170 O   0  0  0  0  0
   23.2140   -9.2320    1.4460 C   0  0  0  0  0
   22.9280  -10.7350    1.4590 C   0  0  0  0  0
   23.6480  -11.3890    0.2790 C   0  0  0  0  0
   25.1360  -11.0570    0.3850 C   0  0  0  0  0
   25.3270   -9.5400    0.4450 C   0  0  0  0  0
   27.2890  -11.3350   -0.6840 C   0  0  0  0  0
   27.5560   -9.8560   -0.9670 C   0  0  0  0  0
   22.0640  -13.1110    0.2000 C   0  0  0  0  0
   23.4580  -12.8110    0.3180 O   0  0  0  0  0
   25.8470  -11.6160   -0.7740 N   0  3  0  0  0
   24.6260   -9.0020    1.5770 O   0  0  0  0  0
   25.3710   -6.5980   -2.4400 C   0  0  0  0  0
   24.3260   -5.8320   -3.1270 C   0  0  0  0  0
   23.5510   -5.0830   -3.7070 C   0  0  0  0  0
   22.7890   -4.0760   -4.3790 C   0  0  0  0  0
   23.4320   -2.8440   -4.3820 C   0  0  0  0  0
   24.7010   -2.8650   -3.7170 C   0  0  0  0  0
   25.7570   -3.0010   -3.1120 C   0  0  0  0  0
   26.9830   -3.2760   -2.3510 C   0  0  0  0  0
   28.1900   -3.3890   -3.2850 C   0  0  0  0  0
   28.1060   -4.7060   -4.0610 C   0  0  0  0  0
   27.5750   -5.8670   -3.5080 C   0  0  0  0  0
   26.6280   -5.7270   -2.4980 C   0  0  0  0  0
   26.8030   -4.6300   -1.6620 C   0  0  0  0  0
   26.7310   -4.6780   -0.1310 C   0  0  0  0  0
   27.5590   -5.8390    0.4200 C   0  0  0  0  0
   31.1540   -6.7820    1.2060 C   0  0  0  0  0
   28.7250   -7.3180   -4.9320 C   0  0  0  0  0
   29.8850   -8.6680   -6.3690 C   0  0  0  0  0
   27.2040   -2.2420   -1.3890 O   0  0  0  0  0
   28.4600   -4.6960   -5.2400 O   0  0  0  0  0
   29.4460   -6.4550   -5.4310 O   0  0  0  0  0
   28.8960   -8.6050   -5.3390 O   0  0  0  0  0
   27.8290   -7.0860   -3.9750 N   0  0  0  0  0
   27.5050   -5.9550    2.2450 S   0  0  0  0  0
   28.7300   -7.5290    2.6740 S   0  0  0  0  0
   30.5690   -6.6740    2.8840 S   0  0  0  0  0
   22.6399   -6.6529   -1.5334 H   0  0  0  0  0
   23.0415   -6.6427    1.4869 H   0  0  0  0  0
   20.5546   -7.2604   -0.1630 H   0  0  0  0  0
   21.1461   -4.8528    1.5996 H   0  0  0  0  0
   20.9932   -5.0529   -1.4314 H   0  0  0  0  0
   21.5633   -2.7076    0.4373 H   0  0  0  0  0
   21.5940   -2.6524   -1.3423 H   0  0  0  0  0
   20.0611   -2.9525   -0.4871 H   0  0  0  0  0
   20.7403   -8.3426    1.8764 H   0  0  0  0  0
   19.0910   -4.0833    0.6318 H   0  0  0  0  0
   18.8634   -5.4820    1.4921 H   0  0  0  0  0
   18.0838   -3.8871   -1.1966 H   0  0  0  0  0
   17.0551   -6.5932   -2.1604 H   0  0  0  0  0
   18.2509   -5.5868   -2.9966 H   0  0  0  0  0
   15.9238   -5.2736   -3.8899 H   0  0  0  0  0
   14.6747   -5.6382   -1.8268 H   0  0  0  0  0
   15.9669   -3.0635   -0.8432 H   0  0  0  0  0
   13.6213   -3.3761   -0.0927 H   0  0  0  0  0
   14.0208   -5.0170    0.4721 H   0  0  0  0  0
   14.7565   -3.6001    1.2609 H   0  0  0  0  0
   16.0238   -2.9512   -3.7109 H   0  0  0  0  0
   11.0306   -7.3566   -4.2106 H   0  0  0  0  0
   11.5643   -6.0412   -5.2858 H   0  0  0  0  0
   12.3979   -6.3186   -3.7369 H   0  0  0  0  0
    6.6064   -4.3799   -1.0645 H   0  0  0  0  0
    7.8771   -3.9305    0.0993 H   0  0  0  0  0
    6.4527   -2.8830   -0.1122 H   0  0  0  0  0
   10.0403   -1.2435   -1.6019 H   0  0  0  0  0
    8.7228   -1.9312   -0.6209 H   0  0  0  0  0
   10.1588   -1.2415    0.1749 H   0  0  0  0  0
    6.9617   -1.7957   -4.3424 H   0  0  0  0  0
    6.5833   -2.9806   -6.4906 H   0  0  0  0  0
    5.2232   -4.8483   -5.6983 H   0  0  0  0  0
    3.0866   -2.7312   -5.1736 H   0  0  0  0  0
    4.7503   -4.3519   -3.2035 H   0  0  0  0  0
    2.5867   -2.2367   -2.7974 H   0  0  0  0  0
    2.4079   -3.9793   -2.4777 H   0  0  0  0  0
    3.5391   -3.0071   -1.5050 H   0  0  0  0  0
    5.9345   -3.4216   -8.1452 H   0  0  0  0  0
    5.7276   -5.1764   -7.9241 H   0  0  0  0  0
    4.7963   -4.3211   -9.1780 H   0  0  0  0  0
    4.7954   -1.6233   -7.1317 H   0  0  0  0  0
    2.0323   -4.5890   -4.2248 H   0  0  0  0  0
   22.5674   -8.9476    2.2761 H   0  0  0  0  0
   21.8547  -10.9057    1.3751 H   0  0  0  0  0
   23.2843  -11.1689    2.3933 H   0  0  0  0  0
   23.2463  -11.0139   -0.6623 H   0  0  0  0  0
   25.5426  -11.4956    1.2963 H   0  0  0  0  0
   24.9328   -9.0922   -0.4673 H   0  0  0  0  0
   26.3893   -9.3155    0.5408 H   0  0  0  0  0
   27.6379  -11.5753    0.3203 H   0  0  0  0  0
   27.8177  -11.9407   -1.4200 H   0  0  0  0  0
   27.2053   -9.6101   -1.9693 H   0  0  0  0  0
   27.0261   -9.2460   -0.2354 H   0  0  0  0  0
   28.6262   -9.6615   -0.8973 H   0  0  0  0  0
   21.5231  -12.6494    1.0261 H   0  0  0  0  0
   21.6883  -12.7200   -0.7456 H   0  0  0  0  0
   21.9224  -14.1913    0.2299 H   0  0  0  0  0
   25.4799  -11.1882   -1.6241 H   0  0  0  0  0
   25.7081  -12.6264   -0.7904 H   0  0  0  0  0
   25.6523   -7.5962   -2.7754 H   0  0  0  0  0
   21.8158   -4.2545   -4.8362 H   0  0  0  0  0
   23.0126   -1.9504   -4.8443 H   0  0  0  0  0
   29.1088   -3.3683   -2.6989 H   0  0  0  0  0
   28.1907   -2.5525   -3.9839 H   0  0  0  0  0
   28.6267   -6.0469   -3.2853 H   0  0  0  0  0
   26.7382   -6.6046   -1.8610 H   0  0  0  0  0
   27.4022   -5.3329   -1.0833 H   0  0  0  0  0
   25.6916   -4.8177    0.1661 H   0  0  0  0  0
   27.1288   -3.7446    0.2673 H   0  0  0  0  0
   28.5963   -5.6739    0.1289 H   0  0  0  0  0
   27.1442   -6.7628    0.0167 H   0  0  0  0  0
   31.1837   -7.8276    0.8995 H   0  0  0  0  0
   30.4803   -6.2291    0.5514 H   0  0  0  0  0
   32.1550   -6.3551    1.1434 H   0  0  0  0  0
   29.5632   -8.0640   -7.2174 H   0  0  0  0  0
   30.8310   -8.2848   -5.9865 H   0  0  0  0  0
   30.0123   -9.7031   -6.6858 H   0  0  0  0  0
   28.0066   -2.4303   -0.8971 H   0  0  0  0  0
   27.3160   -7.8760   -3.5837 H   0  0  0  0  0
  1  2  1  0  0  0
  7  1  1  0  0  0
  1 11  1  0  0  0
  2  3  1  0  0  0
  2  8  1  0  0  0
  3  4  1  0  0  0
  3  9  1  0  0  0
  5  4  1  0  0  0
  4 10  1  0  0  0
  5  6  1  0  0  0
 11  5  1  0  0  0
  8 48  1  0  0  0
 10 18  1  0  0  0
 12 13  1  0  0  0
 18 12  1  0  0  0
 12 20  1  0  0  0
 13 14  1  0  0  0
 14 15  1  0  0  0
 14 19  1  0  0  0
 16 15  1  0  0  0
 15 21  1  0  0  0
 16 17  1  0  0  0
 20 16  1  0  0  0
 21 28  1  0  0  0
 22 23  4  0  0  0
 27 22  4  0  0  0
 22 35  1  0  0  0
 24 23  4  0  0  0
 23 43  1  0  0  0
 25 24  4  0  0  0
 24 32  1  0  0  0
 26 25  4  0  0  0
 25 33  1  0  0  0
 26 27  4  0  0  0
 28 26  1  0  0  0
 27 29  1  0  0  0
 28 34  2  0  0  0
 32 30  1  0  0  0
 33 31  1  0  0  0
 36 37  1  0  0  0
 43 36  1  0  0  0
 36 47  1  0  0  0
 37 38  1  0  0  0
 37 44  1  0  0  0
 38 39  1  0  0  0
 38 45  1  0  0  0
 40 39  1  0  0  0
 39 46  1  0  0  0
 40 41  1  0  0  0
 47 40  1  0  0  0
 45 42  1  0  0  0
 48 49  1  0  0  0
 48 58  1  0  0  0
 49 50  1  0  0  0
 50 51  1  0  0  0
 50 56  1  0  0  0
 52 51  1  0  0  0
 51 57  1  0  0  0
 58 52  1  0  0  0
 53 54  1  0  0  0
 57 53  1  0  0  0
 56 55  1  0  0  0
 59 60  1  0  0  0
 59 70  1  0  0  0
 60 61  3  0  0  0
 61 62  1  0  0  0
 62 63  2  0  0  0
 63 64  1  0  0  0
 65 64  3  0  0  0
 66 65  1  0  0  0
 66 67  1  0  0  0
 71 66  1  0  0  0
 66 77  1  0  0  0
 68 67  1  0  0  0
 69 68  1  0  0  0
 68 78  2  0  0  0
 70 69  1  0  0  0
 69 81  1  0  0  0
 70 71  1  0  0  0
 71 72  1  0  0  0
 72 73  1  0  0  0
 73 82  1  0  0  0
 84 74  1  0  0  0
 75 79  2  0  0  0
 75 80  1  0  0  0
 81 75  1  0  0  0
 80 76  1  0  0  0
 82 83  1  0  0  0
 83 84  1  0  0  0
  7 59  1  0  0  0
  1 85  1  0  0  0
  2 86  1  0  0  0
  3 87  1  0  0  0
  4 88  1  0  0  0
  5 89  1  0  0  0
  6 90  1  0  0  0
  6 91  1  0  0  0
  6 92  1  0  0  0
  9 93  1  0  0  0
 10 94  1  0  0  0
 10 95  1  0  0  0
 12 96  1  0  0  0
 13 97  1  0  0  0
 13 98  1  0  0  0
 14 99  1  0  0  0
 15100  1  0  0  0
 16101  1  0  0  0
 17102  1  0  0  0
 17103  1  0  0  0
 17104  1  0  0  0
 19105  1  0  0  0
 29106  1  0  0  0
 29107  1  0  0  0
 29108  1  0  0  0
 30109  1  0  0  0
 30110  1  0  0  0
 30111  1  0  0  0
 31112  1  0  0  0
 31113  1  0  0  0
 31114  1  0  0  0
 36115  1  0  0  0
 37116  1  0  0  0
 38117  1  0  0  0
 39118  1  0  0  0
 40119  1  0  0  0
 41120  1  0  0  0
 41121  1  0  0  0
 41122  1  0  0  0
 42123  1  0  0  0
 42124  1  0  0  0
 42125  1  0  0  0
 44126  1  0  0  0
 46127  1  0  0  0
 48128  1  0  0  0
 49129  1  0  0  0
 49130  1  0  0  0
 50131  1  0  0  0
 51132  1  0  0  0
 52133  1  0  0  0
 52134  1  0  0  0
 53135  1  0  0  0
 53136  1  0  0  0
 54137  1  0  0  0
 54138  1  0  0  0
 54139  1  0  0  0
 55140  1  0  0  0
 55141  1  0  0  0
 55142  1  0  0  0
 57143  1  0  0  0
 57144  1  0  0  0
 59145  1  0  0  0
 62146  1  0  0  0
 63147  1  0  0  0
 67148  1  0  0  0
 67149  1  0  0  0
 69150  1  0  0  0
 70151  1  0  0  0
 71152  1  0  0  0
 72153  1  0  0  0
 72154  1  0  0  0
 73155  1  0  0  0
 73156  1  0  0  0
 74157  1  0  0  0
 74158  1  0  0  0
 74159  1  0  0  0
 76160  1  0  0  0
 76161  1  0  0  0
 76162  1  0  0  0
 77163  1  0  0  0
 81164  1  0  0  0
M  END
$$$$
