4lkj_ligand
  -I-interpret- 

 88 90  0  0  0  0  0  0  0  0999 V2000
  -45.1270   10.6870  -35.6230 C   0  0  0  0  0
  -44.8840   11.0710  -37.0590 C   0  0  0  0  0
  -45.2780    9.9140  -37.9690 C   0  0  0  0  0
  -46.7710    9.6270  -37.8700 C   0  0  0  0  0
  -47.5850   10.9060  -38.0230 C   0  0  0  0  0
  -47.0510   12.0070  -37.1130 C   0  0  0  0  0
  -47.8150   13.3080  -37.3250 C   0  0  0  0  0
  -47.2680   14.4140  -36.4290 C   0  0  0  0  0
  -48.1720   15.6410  -36.4630 C   0  0  0  0  0
  -49.9600   11.2300  -38.4020 C   0  0  0  0  0
  -51.3410   10.7130  -38.1270 C   0  0  0  0  0
  -48.9790   10.6460  -37.7200 N   0  0  0  0  0
  -44.6320    9.6200  -35.1980 O   0  0  0  0  0
  -45.8160   11.4480  -34.9100 O   0  0  0  0  0
  -47.1470    8.6970  -38.8930 O   0  0  0  0  0
  -45.6670   12.2180  -37.3830 O   0  0  0  0  0
  -47.7060   13.7080  -38.6960 O   0  0  0  0  0
  -47.1670   13.9330  -35.0840 O   0  0  0  0  0
  -47.3740   16.8250  -36.3690 O   0  0  0  0  0
  -49.7490   12.1300  -39.1990 O   0  0  0  0  0
  -40.7750   12.0460  -39.8610 C   0  0  0  0  0
  -41.6880   11.3320  -38.8510 C   0  0  0  0  0
  -43.0620   11.9940  -38.6290 C   0  0  0  0  0
  -42.9710   13.5230  -38.6700 C   0  0  0  0  0
  -42.1530   13.9450  -39.8840 C   0  0  0  0  0
  -42.1230   15.4600  -40.0530 C   0  0  0  0  0
  -41.8760    9.9970  -39.2830 O   0  0  0  0  0
  -43.5600   11.5410  -37.3780 O   0  0  0  0  0
  -42.4120   14.0340  -37.4740 O   0  0  0  0  0
  -40.8410   13.4510  -39.7320 O   0  0  0  0  0
  -41.3860   15.7670  -41.2170 O   0  0  0  0  0
  -36.5300   11.4780  -43.1800 C   0  0  0  0  0
  -37.2850   12.8150  -43.1190 C   0  0  0  0  0
  -38.1910   12.9950  -41.8910 C   0  0  0  0  0
  -38.8600   11.6880  -41.4490 C   0  0  0  0  0
  -37.8780   10.5230  -41.4090 C   0  0  0  0  0
  -38.6780    9.2640  -41.0470 C   0  0  0  0  0
  -35.8570   14.4050  -44.2710 C   0  0  0  0  0
  -34.8670   15.5540  -44.1500 C   0  0  0  0  0
  -36.2690   13.8610  -43.1030 N   0  0  0  0  0
  -36.1490   11.2610  -44.5430 O   0  0  0  0  0
  -39.1730   14.0070  -42.1460 O   0  0  0  0  0
  -39.3880   11.8390  -40.1360 O   0  0  0  0  0
  -37.2680   10.3520  -42.6830 O   0  0  0  0  0
  -39.7770    9.1960  -41.9540 O   0  0  0  0  0
  -36.2550   14.0020  -45.4040 O   0  0  0  0  0
  -44.7292    9.0239  -37.6612 H   0  0  0  0  0
  -45.0405   10.1818  -38.9986 H   0  0  0  0  0
  -46.9760    9.2036  -36.8867 H   0  0  0  0  0
  -47.4973   11.2441  -39.0555 H   0  0  0  0  0
  -47.1842   11.6937  -36.0775 H   0  0  0  0  0
  -48.8607   13.1397  -37.0676 H   0  0  0  0  0
  -46.2829   14.7005  -36.7972 H   0  0  0  0  0
  -48.8665   15.6037  -35.6237 H   0  0  0  0  0
  -48.7318   15.6537  -37.3982 H   0  0  0  0  0
  -51.9620   11.5239  -37.7463 H   0  0  0  0  0
  -51.7729   10.3253  -39.0497 H   0  0  0  0  0
  -51.2881    9.9154  -37.3859 H   0  0  0  0  0
  -49.2126   10.0000  -36.9660 H   0  0  0  0  0
  -44.1432    9.1916  -35.9045 H   0  0  0  0  0
  -46.6338    7.8915  -38.7960 H   0  0  0  0  0
  -48.0505   13.0115  -39.2597 H   0  0  0  0  0
  -46.8226   14.6302  -34.5210 H   0  0  0  0  0
  -47.9446   17.5967  -36.3905 H   0  0  0  0  0
  -41.2529   11.4878  -40.6661 H   0  0  0  0  0
  -41.1812   11.3897  -37.8877 H   0  0  0  0  0
  -43.7418   11.7115  -39.4328 H   0  0  0  0  0
  -43.9755   13.9374  -38.7561 H   0  0  0  0  0
  -42.6187   13.5321  -40.7788 H   0  0  0  0  0
  -41.6547   15.9219  -39.1838 H   0  0  0  0  0
  -43.1390   15.8441  -40.1441 H   0  0  0  0  0
  -42.4451    9.5377  -38.6611 H   0  0  0  0  0
  -42.3669   14.9915  -37.5268 H   0  0  0  0  0
  -41.3592   16.7193  -41.3355 H   0  0  0  0  0
  -35.6666   11.5552  -42.5192 H   0  0  0  0  0
  -37.9532   12.8548  -43.9793 H   0  0  0  0  0
  -37.5533   13.3106  -41.0653 H   0  0  0  0  0
  -39.6423   11.4740  -42.1772 H   0  0  0  0  0
  -37.0921   10.7108  -40.6774 H   0  0  0  0  0
  -39.0297    9.3125  -40.0164 H   0  0  0  0  0
  -38.0547    8.3735  -41.1275 H   0  0  0  0  0
  -33.9428   15.2913  -44.6648 H   0  0  0  0  0
  -35.2943   16.4492  -44.6019 H   0  0  0  0  0
  -34.6572   15.7417  -43.0970 H   0  0  0  0  0
  -35.8725   14.1796  -42.2189 H   0  0  0  0  0
  -35.6736   10.4299  -44.6128 H   0  0  0  0  0
  -39.7325   14.1105  -41.3728 H   0  0  0  0  0
  -40.3040    8.4177  -41.7587 H   0  0  0  0  0
  2  1  1  0  0  0
  1 13  1  0  0  0
  1 14  2  0  0  0
  2  3  1  0  0  0
  2 16  1  0  0  0
 28  2  1  0  0  0
  3  4  1  0  0  0
  4  5  1  0  0  0
  4 15  1  0  0  0
  6  5  1  0  0  0
  5 12  1  0  0  0
  6  7  1  0  0  0
 16  6  1  0  0  0
  7  8  1  0  0  0
  7 17  1  0  0  0
  8  9  1  0  0  0
  8 18  1  0  0  0
  9 19  1  0  0  0
 10 11  1  0  0  0
 12 10  1  0  0  0
 10 20  2  0  0  0
 21 22  1  0  0  0
 21 30  1  0  0  0
 43 21  1  0  0  0
 22 23  1  0  0  0
 22 27  1  0  0  0
 23 24  1  0  0  0
 23 28  1  0  0  0
 25 24  1  0  0  0
 24 29  1  0  0  0
 25 26  1  0  0  0
 30 25  1  0  0  0
 26 31  1  0  0  0
 33 32  1  0  0  0
 32 41  1  0  0  0
 32 44  1  0  0  0
 33 34  1  0  0  0
 40 33  1  0  0  0
 34 35  1  0  0  0
 34 42  1  0  0  0
 35 36  1  0  0  0
 35 43  1  0  0  0
 36 37  1  0  0  0
 44 36  1  0  0  0
 37 45  1  0  0  0
 38 39  1  0  0  0
 38 40  1  0  0  0
 38 46  2  0  0  0
  3 47  1  0  0  0
  3 48  1  0  0  0
  4 49  1  0  0  0
  5 50  1  0  0  0
  6 51  1  0  0  0
  7 52  1  0  0  0
  8 53  1  0  0  0
  9 54  1  0  0  0
  9 55  1  0  0  0
 11 56  1  0  0  0
 11 57  1  0  0  0
 11 58  1  0  0  0
 12 59  1  0  0  0
 13 60  1  0  0  0
 15 61  1  0  0  0
 17 62  1  0  0  0
 18 63  1  0  0  0
 19 64  1  0  0  0
 21 65  1  0  0  0
 22 66  1  0  0  0
 23 67  1  0  0  0
 24 68  1  0  0  0
 25 69  1  0  0  0
 26 70  1  0  0  0
 26 71  1  0  0  0
 27 72  1  0  0  0
 29 73  1  0  0  0
 31 74  1  0  0  0
 32 75  1  0  0  0
 33 76  1  0  0  0
 34 77  1  0  0  0
 35 78  1  0  0  0
 36 79  1  0  0  0
 37 80  1  0  0  0
 37 81  1  0  0  0
 39 82  1  0  0  0
 39 83  1  0  0  0
 39 84  1  0  0  0
 40 85  1  0  0  0
 41 86  1  0  0  0
 42 87  1  0  0  0
 45 88  1  0  0  0
M  END
$$$$
