### 
### Created by X-TOOL on Mon Sep 10 21:13:28 2018
### 

@<TRIPOS>MOLECULE
4yhz_ligand
  169   168     1     0     0
SMALL
GAST_HUCK


@<TRIPOS>ATOM
      1 N         -71.7000  -11.3880   26.7920 N.4       1 ALA         0.2377
      2 CA        -71.5140  -10.5270   25.6310 C.3       1 ALA         0.0621
      3 C         -70.1970   -9.7690   25.7290 C.2       1 ALA         0.2264
      4 O         -69.7960   -9.3250   26.8130 O.2       1 ALA        -0.3907
      5 CB        -72.6760   -9.5460   25.4960 C.3       1 ALA        -0.0040
      6 N         -69.5210   -9.6230   24.5980 N.am      1 ARG        -0.2610
      7 CA        -68.3400   -8.7930   24.5600 C.3       1 ARG         0.1312
      8 C         -68.7650   -7.3460   24.3200 C.2       1 ARG         0.2040
      9 O         -68.8330   -6.8610   23.1770 O.2       1 ARG        -0.3944
     10 CB        -67.3640   -9.3100   23.5110 C.3       1 ARG        -0.0092
     11 CG        -66.5860  -10.5010   24.0580 C.3       1 ARG        -0.0156
     12 CD        -66.0490  -11.4180   22.9820 C.3       1 ARG         0.0627
     13 NE        -64.9040  -10.8630   22.2760 N.pl3     1 ARG        -0.2723
     14 CZ        -63.6890  -10.6720   22.7870 C.cat     1 ARG         0.2882
     15 NH1       -63.4260  -10.9510   24.0580 N.pl3     1 ARG        -0.2849
     16 NH2       -62.7260  -10.1810   22.0110 N.pl3     1 ARG        -0.2849
     17 N         -69.0720   -6.6770   25.4310 N.am      1 THR        -0.2613
     18 CA        -69.5580   -5.3050   25.4110 C.3       1 THR         0.1565
     19 C         -69.0510   -4.5670   26.6360 C.2       1 THR         0.2065
     20 O         -68.9030   -5.1660   27.7040 O.2       1 THR        -0.3943
     21 CB        -71.0970   -5.2500   25.3770 C.3       1 THR         0.0924
     22 OG1       -71.5340   -3.8900   25.3520 O.3       1 THR        -0.3874
     23 CG2       -71.6960   -5.9390   26.5940 C.3       1 THR        -0.0346
     24 N         -68.7850   -3.2680   26.4920 N.am      1 M3L        -0.2637
     25 CA        -68.3820   -2.4490   27.6630 C.3       1 M3L         0.1310
     26 CB        -67.4140   -1.2430   27.3410 C.3       1 M3L        -0.0122
     27 CG        -66.0840   -1.7300   26.7270 C.3       1 M3L        -0.0440
     28 CD        -65.2120   -0.5220   26.2930 C.3       1 M3L        -0.0123
     29 CE        -65.6510   -0.0040   24.9150 C.3       1 M3L        -0.0309
     30 NZ        -65.0180    1.3180   24.6020 N.4       1 M3L         0.2369
     31 C         -69.5950   -2.0420   28.4810 C.2       1 M3L         0.2039
     32 O         -69.3870   -1.5420   29.6090 O.2       1 M3L        -0.3944
     33 CM1       -65.2560    1.6880   23.2220 C.3       1 M3L        -0.0418
     34 CM2       -65.5960    2.3230   25.4740 C.3       1 M3L        -0.0418
     35 CM3       -63.6160    1.2810   24.8270 C.3       1 M3L        -0.0418
     36 N         -70.8230   -2.2230   27.9930 N.am      1 GLN        -0.2636
     37 CA        -71.9860   -1.8190   28.7930 C.3       1 GLN         0.1330
     38 C         -72.1470   -2.7620   29.9860 C.2       1 GLN         0.2041
     39 O         -71.8250   -3.9450   29.8850 O.2       1 GLN        -0.3944
     40 CB        -73.2620   -1.7780   27.9410 C.3       1 GLN         0.0045
     41 CG        -73.9480   -3.1130   27.7030 C.3       1 GLN         0.0412
     42 CD        -74.8430   -3.5080   28.8600 C.2       1 GLN         0.1737
     43 OE1       -75.5420   -2.6660   29.4340 O.2       1 GLN        -0.3973
     44 NE2       -74.8030   -4.7890   29.2330 N.am      1 GLN        -0.3009
     45 N         -72.6560   -2.2510   31.1080 N.am      1 THR        -0.2613
     46 CA        -72.6140   -3.0100   32.3550 C.3       1 THR         0.1565
     47 C         -73.9620   -3.4830   32.9020 C.2       1 THR         0.2065
     48 O         -74.0050   -4.2150   33.8880 O.2       1 THR        -0.3943
     49 CB        -71.9440   -2.1920   33.4780 C.3       1 THR         0.0924
     50 OG1       -72.6240   -0.9390   33.6430 O.3       1 THR        -0.3874
     51 CG2       -70.5060   -1.9400   33.1580 C.3       1 THR        -0.0346
     52 N         -75.0580   -3.0700   32.2820 N.am      1 ALA        -0.2639
     53 CA        -76.3760   -3.3610   32.8450 C.3       1 ALA         0.1282
     54 C         -76.7890   -4.8120   32.6100 C.2       1 ALA         0.2036
     55 O         -76.4310   -5.4290   31.6090 O.2       1 ALA        -0.3944
     56 CB        -77.4200   -2.4180   32.2640 C.3       1 ALA        -0.0244
     57 N         -77.5510   -5.3400   33.5510 N.am      1 ARG        -0.2637
     58 CA        -78.0420   -6.7050   33.4780 C.3       1 ARG         0.1310
     59 C         -79.4040   -6.7280   34.1610 C.2       1 ARG         0.2033
     60 O         -79.5070   -6.4030   35.3440 O.2       1 ARG        -0.3944
     61 CB        -77.0490   -7.6570   34.1450 C.3       1 ARG        -0.0092
     62 CG        -77.3890   -9.1280   34.1050 C.3       1 ARG        -0.0156
     63 CD        -76.3460   -9.9040   34.9200 C.3       1 ARG         0.0627
     64 NE        -76.9210  -11.0410   35.6350 N.pl3     1 ARG        -0.2723
     65 CZ        -76.6580  -11.3480   36.9000 C.cat     1 ARG         0.2882
     66 NH1       -75.8160  -10.6070   37.6040 N.pl3     1 ARG        -0.2849
     67 NH2       -77.2370  -12.4010   37.4620 N.pl3     1 ARG        -0.2849
     68 N         -80.4440   -7.0750   33.4050 N.am      1 LYS        -0.2695
     69 CA        -81.8210   -7.0480   33.9060 C.3       1 LYS         0.0944
     70 C         -82.0170   -8.0170   35.0690 C.2       1 LYS         0.0601
     71 O         -81.8460   -9.2280   34.9090 O.co2     1 LYS        -0.5666
     72 CB        -82.8000   -7.3880   32.7850 C.3       1 LYS        -0.0177
     73 CG        -82.2690   -7.0700   31.3770 C.3       1 LYS        -0.0446
     74 CD        -83.2620   -7.5100   30.2940 C.3       1 LYS        -0.0125
     75 CE        -82.7680   -7.1930   28.8800 C.3       1 LYS        -0.0354
     76 NZ        -82.4480   -5.7520   28.6680 N.4       1 LYS         0.2185
     77 OXT       -82.3480   -7.5990   36.1810 O.co2     1 LYS        -0.5666
     78 H1        -72.5757  -11.8802   26.7084 H         1 ALA         0.2015
     79 H2        -71.7089  -10.8263   27.6289 H         1 ALA         0.2015
     80 H3        -70.9442  -12.0531   26.8417 H         1 ALA         0.2015
     81 H4        -71.4858  -11.1596   24.7315 H         1 ALA         0.1095
     82 H5        -72.5158   -8.9069   24.6151 H         1 ALA         0.0310
     83 H6        -72.7334   -8.9192   26.3981 H         1 ALA         0.0310
     84 H7        -73.6159  -10.1050   25.3774 H         1 ALA         0.0310
     85 H8        -69.8298  -10.0890   23.7688 H         1 ARG         0.1884
     86 H9        -67.8409   -8.8453   25.5389 H         1 ARG         0.0800
     87 H10       -66.6601   -8.5083   23.2430 H         1 ARG         0.0313
     88 H11       -67.9232   -9.6212   22.6163 H         1 ARG         0.0313
     89 H12       -67.2539  -11.0832   24.7098 H         1 ARG         0.0301
     90 H13       -65.7379  -10.1218   24.6470 H         1 ARG         0.0301
     91 H14       -66.8504  -11.6089   22.2531 H         1 ARG         0.0689
     92 H15       -65.7454  -12.3661   23.4499 H         1 ARG         0.0689
     93 H16       -65.0460  -10.5935   21.2921 H         1 ARG         0.2642
     94 H17       -62.4797  -10.7962   24.4341 H         1 ARG         0.2615
     95 H18       -64.1683  -11.3223   24.6680 H         1 ARG         0.2615
     96 H19       -62.9216   -9.9618   21.0238 H         1 ARG         0.2615
     97 H20       -61.7849  -10.0201   22.3975 H         1 ARG         0.2615
     98 H21       -68.9642   -7.1356   26.3131 H         1 THR         0.1884
     99 H22       -69.1698   -4.8093   24.5090 H         1 THR         0.0826
    100 H23       -71.4494   -5.7599   24.4683 H         1 THR         0.0639
    101 H24       -71.1872   -3.4613   24.5784 H         1 THR         0.2101
    102 H25       -72.7935   -5.8844   26.5431 H         1 THR         0.0257
    103 H26       -71.3460   -5.4378   27.5085 H         1 THR         0.0257
    104 H27       -71.3817   -6.9930   26.6104 H         1 THR         0.0257
    105 H28       -68.8574   -2.8430   25.5897 H         1 M3L         0.1883
    106 H29       -67.7962   -3.1223   28.3060 H         1 M3L         0.0800
    107 H30       -67.1990   -0.6992   28.2727 H         1 M3L         0.0312
    108 H31       -67.9100   -0.5676   26.6283 H         1 M3L         0.0312
    109 H32       -66.2985   -2.3559   25.8483 H         1 M3L         0.0269
    110 H33       -65.5357   -2.3225   27.4742 H         1 M3L         0.0269
    111 H34       -64.1591   -0.8362   26.2421 H         1 M3L         0.0317
    112 H35       -65.3186    0.2849   27.0330 H         1 M3L         0.0317
    113 H36       -66.7448    0.1121   24.9079 H         1 M3L         0.0815
    114 H37       -65.3547   -0.7337   24.1470 H         1 M3L         0.0815
    115 H38       -64.7830    2.6596   23.0161 H         1 M3L         0.0778
    116 H39       -66.3389    1.7623   23.0438 H         1 M3L         0.0778
    117 H40       -64.8267    0.9232   22.5580 H         1 M3L         0.0778
    118 H41       -65.4170    2.0449   26.5231 H         1 M3L         0.0778
    119 H42       -66.6788    2.3878   25.2916 H         1 M3L         0.0778
    120 H43       -65.1305    3.2982   25.2686 H         1 M3L         0.0778
    121 H44       -63.1596    0.5231   24.1733 H         1 M3L         0.0778
    122 H45       -63.4200    1.0241   25.8785 H         1 M3L         0.0778
    123 H46       -63.1826    2.2670   24.6034 H         1 M3L         0.0778
    124 H47       -70.9507   -2.6309   27.0889 H         1 GLN         0.1883
    125 H48       -71.8031   -0.8050   29.1780 H         1 GLN         0.0801
    126 H49       -72.9982   -1.3558   26.9601 H         1 GLN         0.0337
    127 H50       -73.9813   -1.1151   28.4441 H         1 GLN         0.0337
    128 H51       -73.1790   -3.8880   27.5688 H         1 GLN         0.0504
    129 H52       -74.5586   -3.0404   26.7910 H         1 GLN         0.0504
    130 H53       -75.3725   -5.1071   29.9910 H         1 GLN         0.1814
    131 H54       -74.2036   -5.4306   28.7545 H         1 GLN         0.1814
    132 H55       -73.0698   -1.3407   31.0952 H         1 THR         0.1884
    133 H56       -72.0032   -3.9039   32.1605 H         1 THR         0.0826
    134 H57       -72.0061   -2.7609   34.4174 H         1 THR         0.0639
    135 H58       -73.5319   -1.1004   33.8714 H         1 THR         0.2101
    136 H59       -70.0467   -1.3563   33.9694 H         1 THR         0.0257
    137 H60       -70.4332   -1.3778   32.2153 H         1 THR         0.0257
    138 H61       -69.9798   -2.9003   33.0538 H         1 THR         0.0257
    139 H62       -74.9836   -2.5577   31.4264 H         1 ALA         0.1883
    140 H63       -76.3254   -3.1936   33.9310 H         1 ALA         0.0797
    141 H64       -78.4044   -2.6494   32.6968 H         1 ALA         0.0277
    142 H65       -77.4608   -2.5441   31.1720 H         1 ALA         0.0277
    143 H66       -77.1494   -1.3790   32.5033 H         1 ALA         0.0277
    144 H67       -77.7986   -4.7801   34.3417 H         1 ARG         0.1883
    145 H68       -78.1593   -7.0001   32.4249 H         1 ARG         0.0800
    146 H69       -76.9636   -7.3632   35.2016 H         1 ARG         0.0313
    147 H70       -76.0764   -7.5260   33.6482 H         1 ARG         0.0313
    148 H71       -77.3796   -9.4805   33.0631 H         1 ARG         0.0301
    149 H72       -78.3879   -9.2876   34.5371 H         1 ARG         0.0301
    150 H73       -75.8924   -9.2205   35.6528 H         1 ARG         0.0689
    151 H74       -75.5694  -10.2753   34.2351 H         1 ARG         0.0689
    152 H75       -77.5766  -11.6473   35.1217 H         1 ARG         0.2642
    153 H76       -75.6142  -10.8479   38.5849 H         1 ARG         0.2615
    154 H77       -75.3629   -9.7898   37.1707 H         1 ARG         0.2615
    155 H78       -77.8925  -12.9798   36.9178 H         1 ARG         0.2615
    156 H79       -77.0311  -12.6397   38.4426 H         1 ARG         0.2615
    157 H80       -80.2795   -7.3643   32.4620 H         1 LYS         0.1875
    158 H81       -82.0366   -6.0303   34.2635 H         1 LYS         0.0726
    159 H82       -83.7236   -6.8124   32.9451 H         1 LYS         0.0305
    160 H83       -83.0248   -8.4636   32.8357 H         1 LYS         0.0305
    161 H84       -81.3163   -7.5986   31.2255 H         1 LYS         0.0269
    162 H85       -82.1042   -5.9857   31.2927 H         1 LYS         0.0269
    163 H86       -84.2169   -6.9894   30.4587 H         1 LYS         0.0317
    164 H87       -83.4171   -8.5958   30.3780 H         1 LYS         0.0317
    165 H88       -83.5513   -7.4840   28.1646 H         1 LYS         0.0813
    166 H89       -81.8593   -7.7827   28.6888 H         1 LYS         0.0813
    167 H90       -82.1304   -5.6141   27.7213 H         1 LYS         0.1994
    168 H91       -81.7234   -5.4707   29.3098 H         1 LYS         0.1994
    169 H92       -83.2739   -5.1971   28.8295 H         1 LYS         0.1994
@<TRIPOS>BOND
     1    1    2 1  
     2    2    3 1  
     3    2    5 1  
     4    3    4 2  
     5    3    6 am 
     6    6    7 1  
     7    7    8 1  
     8    7   10 1  
     9    8    9 2  
    10    8   17 am 
    11   10   11 1  
    12   11   12 1  
    13   12   13 1  
    14   13   14 ar 
    15   14   15 ar 
    16   14   16 ar 
    17   17   18 1  
    18   18   19 1  
    19   18   21 1  
    20   19   20 2  
    21   19   24 am 
    22   21   22 1  
    23   21   23 1  
    24   24   25 1  
    25   25   26 1  
    26   25   31 1  
    27   26   27 1  
    28   27   28 1  
    29   28   29 1  
    30   29   30 1  
    31   30   33 1  
    32   30   34 1  
    33   30   35 1  
    34   31   32 2  
    35   31   36 am 
    36   36   37 1  
    37   37   38 1  
    38   37   40 1  
    39   38   39 2  
    40   38   45 am 
    41   40   41 1  
    42   41   42 1  
    43   42   43 2  
    44   42   44 am 
    45   45   46 1  
    46   46   47 1  
    47   46   49 1  
    48   47   48 2  
    49   47   52 am 
    50   49   50 1  
    51   49   51 1  
    52   52   53 1  
    53   53   54 1  
    54   53   56 1  
    55   54   55 2  
    56   54   57 am 
    57   57   58 1  
    58   58   59 1  
    59   58   61 1  
    60   59   60 2  
    61   59   68 am 
    62   61   62 1  
    63   62   63 1  
    64   63   64 1  
    65   64   65 ar 
    66   65   66 ar 
    67   65   67 ar 
    68   68   69 1  
    69   69   70 1  
    70   69   72 1  
    71   70   71 ar 
    72   70   77 ar 
    73   72   73 1  
    74   73   74 1  
    75   74   75 1  
    76   75   76 1  
    77    1   78 1  
    78    1   79 1  
    79    1   80 1  
    80    2   81 1  
    81    5   82 1  
    82    5   83 1  
    83    5   84 1  
    84    6   85 1  
    85    7   86 1  
    86   10   87 1  
    87   10   88 1  
    88   11   89 1  
    89   11   90 1  
    90   12   91 1  
    91   12   92 1  
    92   13   93 1  
    93   15   94 1  
    94   15   95 1  
    95   16   96 1  
    96   16   97 1  
    97   17   98 1  
    98   18   99 1  
    99   21  100 1  
   100   22  101 1  
   101   23  102 1  
   102   23  103 1  
   103   23  104 1  
   104   24  105 1  
   105   25  106 1  
   106   26  107 1  
   107   26  108 1  
   108   27  109 1  
   109   27  110 1  
   110   28  111 1  
   111   28  112 1  
   112   29  113 1  
   113   29  114 1  
   114   33  115 1  
   115   33  116 1  
   116   33  117 1  
   117   34  118 1  
   118   34  119 1  
   119   34  120 1  
   120   35  121 1  
   121   35  122 1  
   122   35  123 1  
   123   36  124 1  
   124   37  125 1  
   125   40  126 1  
   126   40  127 1  
   127   41  128 1  
   128   41  129 1  
   129   44  130 1  
   130   44  131 1  
   131   45  132 1  
   132   46  133 1  
   133   49  134 1  
   134   50  135 1  
   135   51  136 1  
   136   51  137 1  
   137   51  138 1  
   138   52  139 1  
   139   53  140 1  
   140   56  141 1  
   141   56  142 1  
   142   56  143 1  
   143   57  144 1  
   144   58  145 1  
   145   61  146 1  
   146   61  147 1  
   147   62  148 1  
   148   62  149 1  
   149   63  150 1  
   150   63  151 1  
   151   64  152 1  
   152   66  153 1  
   153   66  154 1  
   154   67  155 1  
   155   67  156 1  
   156   68  157 1  
   157   69  158 1  
   158   72  159 1  
   159   72  160 1  
   160   73  161 1  
   161   73  162 1  
   162   74  163 1  
   163   74  164 1  
   164   75  165 1  
   165   75  166 1  
   166   76  167 1  
   167   76  168 1  
   168   76  169 1  
@<TRIPOS>SUBSTRUCTURE
     1 ALA         1

