4yhz_ligand
  -I-interpret- 

168167  0  0  0  0  0  0  0  0999 V2000
  -71.7000  -11.3880   26.7920 N   0  3  0  0  0
  -71.5140  -10.5270   25.6310 C   0  0  0  0  0
  -70.1970   -9.7690   25.7290 C   0  0  0  0  0
  -69.7960   -9.3250   26.8130 O   0  0  0  0  0
  -72.6760   -9.5460   25.4960 C   0  0  0  0  0
  -69.5210   -9.6230   24.5980 N   0  0  0  0  0
  -68.3400   -8.7930   24.5600 C   0  0  0  0  0
  -68.7650   -7.3460   24.3200 C   0  0  0  0  0
  -68.8330   -6.8610   23.1770 O   0  0  0  0  0
  -67.3640   -9.3100   23.5110 C   0  0  0  0  0
  -66.5860  -10.5010   24.0580 C   0  0  0  0  0
  -66.0490  -11.4180   22.9820 C   0  0  0  0  0
  -64.9040  -10.8630   22.2760 N   0  0  0  0  0
  -63.6890  -10.6720   22.7870 C   0  0  0  0  0
  -63.4260  -10.9510   24.0580 N   0  0  0  0  0
  -62.7260  -10.1810   22.0110 N   0  0  0  0  0
  -69.0720   -6.6770   25.4310 N   0  0  0  0  0
  -69.5580   -5.3050   25.4110 C   0  0  0  0  0
  -69.0510   -4.5670   26.6360 C   0  0  0  0  0
  -68.9030   -5.1660   27.7040 O   0  0  0  0  0
  -71.0970   -5.2500   25.3770 C   0  0  0  0  0
  -71.5340   -3.8900   25.3520 O   0  0  0  0  0
  -71.6960   -5.9390   26.5940 C   0  0  0  0  0
  -68.7850   -3.2680   26.4920 N   0  0  0  0  0
  -68.3820   -2.4490   27.6630 C   0  0  0  0  0
  -67.4140   -1.2430   27.3410 C   0  0  0  0  0
  -66.0840   -1.7300   26.7270 C   0  0  0  0  0
  -65.2120   -0.5220   26.2930 C   0  0  0  0  0
  -65.6510   -0.0040   24.9150 C   0  0  0  0  0
  -65.0180    1.3180   24.6020 N   0  3  0  0  0
  -69.5950   -2.0420   28.4810 C   0  0  0  0  0
  -69.3870   -1.5420   29.6090 O   0  0  0  0  0
  -65.2560    1.6880   23.2220 C   0  0  0  0  0
  -65.5960    2.3230   25.4740 C   0  0  0  0  0
  -63.6160    1.2810   24.8270 C   0  0  0  0  0
  -70.8230   -2.2230   27.9930 N   0  0  0  0  0
  -71.9860   -1.8190   28.7930 C   0  0  0  0  0
  -72.1470   -2.7620   29.9860 C   0  0  0  0  0
  -71.8250   -3.9450   29.8850 O   0  0  0  0  0
  -73.2620   -1.7780   27.9410 C   0  0  0  0  0
  -73.9480   -3.1130   27.7030 C   0  0  0  0  0
  -74.8430   -3.5080   28.8600 C   0  0  0  0  0
  -75.5420   -2.6660   29.4340 O   0  0  0  0  0
  -74.8030   -4.7890   29.2330 N   0  0  0  0  0
  -72.6560   -2.2510   31.1080 N   0  0  0  0  0
  -72.6140   -3.0100   32.3550 C   0  0  0  0  0
  -73.9620   -3.4830   32.9020 C   0  0  0  0  0
  -74.0050   -4.2150   33.8880 O   0  0  0  0  0
  -71.9440   -2.1920   33.4780 C   0  0  0  0  0
  -72.6240   -0.9390   33.6430 O   0  0  0  0  0
  -70.5060   -1.9400   33.1580 C   0  0  0  0  0
  -75.0580   -3.0700   32.2820 N   0  0  0  0  0
  -76.3760   -3.3610   32.8450 C   0  0  0  0  0
  -76.7890   -4.8120   32.6100 C   0  0  0  0  0
  -76.4310   -5.4290   31.6090 O   0  0  0  0  0
  -77.4200   -2.4180   32.2640 C   0  0  0  0  0
  -77.5510   -5.3400   33.5510 N   0  0  0  0  0
  -78.0420   -6.7050   33.4780 C   0  0  0  0  0
  -79.4040   -6.7280   34.1610 C   0  0  0  0  0
  -79.5070   -6.4030   35.3440 O   0  0  0  0  0
  -77.0490   -7.6570   34.1450 C   0  0  0  0  0
  -77.3890   -9.1280   34.1050 C   0  0  0  0  0
  -76.3460   -9.9040   34.9200 C   0  0  0  0  0
  -76.9210  -11.0410   35.6350 N   0  0  0  0  0
  -76.6580  -11.3480   36.9000 C   0  0  0  0  0
  -75.8160  -10.6070   37.6040 N   0  0  0  0  0
  -77.2370  -12.4010   37.4620 N   0  0  0  0  0
  -80.4440   -7.0750   33.4050 N   0  0  0  0  0
  -81.8210   -7.0480   33.9060 C   0  0  0  0  0
  -82.0170   -8.0170   35.0690 C   0  0  0  0  0
  -81.8460   -9.2280   34.9090 O   0  0  0  0  0
  -82.8000   -7.3880   32.7850 C   0  0  0  0  0
  -82.2690   -7.0700   31.3770 C   0  0  0  0  0
  -83.2620   -7.5100   30.2940 C   0  0  0  0  0
  -82.7680   -7.1930   28.8800 C   0  0  0  0  0
  -82.4480   -5.7520   28.6680 N   0  3  0  0  0
  -82.3480   -7.5990   36.1810 O   0  0  0  0  0
  -70.9143  -12.0345   26.8637 H   0  0  0  0  0
  -71.7484  -10.8150   27.6345 H   0  0  0  0  0
  -72.5670  -11.9150   26.6875 H   0  0  0  0  0
  -71.4866  -11.1586   24.7431 H   0  0  0  0  0
  -72.7024   -8.8937   26.3689 H   0  0  0  0  0
  -72.5405   -8.9458   24.5963 H   0  0  0  0  0
  -73.6118  -10.1006   25.4268 H   0  0  0  0  0
  -69.8360  -10.0983   23.7523 H   0  0  0  0  0
  -67.8108   -8.8317   25.5122 H   0  0  0  0  0
  -66.6644   -8.5153   23.2519 H   0  0  0  0  0
  -67.9216   -9.6229   22.6282 H   0  0  0  0  0
  -67.2709  -11.0845   24.6732 H   0  0  0  0  0
  -65.7317  -10.1083   24.6095 H   0  0  0  0  0
  -66.8440  -11.5728   22.2525 H   0  0  0  0  0
  -65.7247  -12.3399   23.4648 H   0  0  0  0  0
  -65.0446  -10.5961   21.3016 H   0  0  0  0  0
  -64.1610  -11.3187   24.6621 H   0  0  0  0  0
  -61.7941  -10.0217   22.3938 H   0  0  0  0  0
  -62.9197   -9.9640   21.0334 H   0  0  0  0  0
  -68.9621   -7.1448   26.3307 H   0  0  0  0  0
  -69.1827   -4.8285   24.5054 H   0  0  0  0  0
  -71.4317   -5.7677   24.4781 H   0  0  0  0  0
  -72.4934   -3.8637   25.3309 H   0  0  0  0  0
  -71.3838   -6.9832   26.6091 H   0  0  0  0  0
  -71.3484   -5.4414   27.4994 H   0  0  0  0  0
  -72.7834   -5.8842   26.5424 H   0  0  0  0  0
  -68.8589   -2.8345   25.5717 H   0  0  0  0  0
  -67.7615   -3.1000   28.2788 H   0  0  0  0  0
  -67.1928   -0.7210   28.2720 H   0  0  0  0  0
  -67.9064   -0.5889   26.6214 H   0  0  0  0  0
  -66.3010   -2.3429   25.8521 H   0  0  0  0  0
  -65.5404   -2.3095   27.4732 H   0  0  0  0  0
  -64.1714   -0.8410   26.2348 H   0  0  0  0  0
  -65.3286    0.2780   27.0241 H   0  0  0  0  0
  -66.7336    0.1229   24.9212 H   0  0  0  0  0
  -65.3403   -0.7248   24.1587 H   0  0  0  0  0
  -64.8302    0.9294   22.5652 H   0  0  0  0  0
  -66.3293    1.7612   23.0467 H   0  0  0  0  0
  -64.7869    2.6508   23.0192 H   0  0  0  0  0
  -66.6713    2.3751   25.3035 H   0  0  0  0  0
  -65.4041    2.0546   26.5129 H   0  0  0  0  0
  -65.1453    3.2918   25.2585 H   0  0  0  0  0
  -63.4233    1.0409   25.8726 H   0  0  0  0  0
  -63.1669    0.5196   24.1893 H   0  0  0  0  0
  -63.1856    2.2543   24.5911 H   0  0  0  0  0
  -70.9532   -2.6390   27.0708 H   0  0  0  0  0
  -71.8172   -0.8090   29.1664 H   0  0  0  0  0
  -72.9631   -1.4085   26.9601 H   0  0  0  0  0
  -73.9751   -1.1608   28.4876 H   0  0  0  0  0
  -73.1777   -3.8763   27.5930 H   0  0  0  0  0
  -74.5665   -3.0231   26.8100 H   0  0  0  0  0
  -75.3648   -5.1082   30.0222 H   0  0  0  0  0
  -74.2106   -5.4487   28.7288 H   0  0  0  0  0
  -73.0780   -1.3225   31.0950 H   0  0  0  0  0
  -72.0446   -3.8970   32.0775 H   0  0  0  0  0
  -72.0044   -2.7643   34.4037 H   0  0  0  0  0
  -72.2011   -0.4365   34.3432 H   0  0  0  0  0
  -69.9857   -2.8923   33.0550 H   0  0  0  0  0
  -70.4352   -1.3829   32.2238 H   0  0  0  0  0
  -70.0520   -1.3616   33.9627 H   0  0  0  0  0
  -74.9821   -2.5475   31.4093 H   0  0  0  0  0
  -76.3114   -3.2068   33.9221 H   0  0  0  0  0
  -77.1507   -1.3889   32.5018 H   0  0  0  0  0
  -77.4594   -2.5439   31.1820 H   0  0  0  0  0
  -78.3949   -2.6483   32.6936 H   0  0  0  0  0
  -77.8035   -4.7689   34.3575 H   0  0  0  0  0
  -78.1456   -7.0386   32.4455 H   0  0  0  0  0
  -77.0305   -7.3815   35.1994 H   0  0  0  0  0
  -76.1141   -7.5497   33.5950 H   0  0  0  0  0
  -77.3841   -9.4785   33.0729 H   0  0  0  0  0
  -78.3802   -9.2879   34.5293 H   0  0  0  0  0
  -75.9242   -9.2227   35.6589 H   0  0  0  0  0
  -75.5979  -10.2883   34.2267 H   0  0  0  0  0
  -77.5703  -11.6414   35.1267 H   0  0  0  0  0
  -75.3673   -9.7977   37.1749 H   0  0  0  0  0
  -77.0331  -12.6374   38.4330 H   0  0  0  0  0
  -77.8861  -12.9742   36.9231 H   0  0  0  0  0
  -80.2762   -7.3700   32.4431 H   0  0  0  0  0
  -82.0168   -6.0387   34.2681 H   0  0  0  0  0
  -81.5935   -9.3968   33.9983 H   0  0  0  0  0
  -83.6930   -6.7823   32.9394 H   0  0  0  0  0
  -82.9823   -8.4618   32.8281 H   0  0  0  0  0
  -81.3332   -7.6091   31.2293 H   0  0  0  0  0
  -82.1228   -5.9929   31.2965 H   0  0  0  0  0
  -84.1944   -6.9684   30.4533 H   0  0  0  0  0
  -83.3870   -8.5900   30.3718 H   0  0  0  0  0
  -83.5683   -7.4552   28.1880 H   0  0  0  0  0
  -81.8499   -7.7584   28.7203 H   0  0  0  0  0
  -82.1268   -5.6137   27.7098 H   0  0  0  0  0
  -83.2844   -5.1916   28.8317 H   0  0  0  0  0
  -81.7148   -5.4686   29.3180 H   0  0  0  0  0
  1  2  1  0  0  0
  2  3  1  0  0  0
  2  5  1  0  0  0
  3  4  2  0  0  0
  3  6  1  0  0  0
  6  7  1  0  0  0
  7  8  1  0  0  0
  7 10  1  0  0  0
  8  9  2  0  0  0
  8 17  1  0  0  0
 10 11  1  0  0  0
 11 12  1  0  0  0
 12 13  1  0  0  0
 13 14  1  0  0  0
 14 15  2  0  0  0
 14 16  1  0  0  0
 17 18  1  0  0  0
 18 19  1  0  0  0
 18 21  1  0  0  0
 19 20  2  0  0  0
 19 24  1  0  0  0
 21 22  1  0  0  0
 21 23  1  0  0  0
 24 25  1  0  0  0
 25 26  1  0  0  0
 25 31  1  0  0  0
 26 27  1  0  0  0
 27 28  1  0  0  0
 28 29  1  0  0  0
 29 30  1  0  0  0
 30 33  1  0  0  0
 30 34  1  0  0  0
 30 35  1  0  0  0
 31 32  2  0  0  0
 31 36  1  0  0  0
 36 37  1  0  0  0
 37 38  1  0  0  0
 37 40  1  0  0  0
 38 39  2  0  0  0
 38 45  1  0  0  0
 40 41  1  0  0  0
 41 42  1  0  0  0
 42 43  2  0  0  0
 42 44  1  0  0  0
 45 46  1  0  0  0
 46 47  1  0  0  0
 46 49  1  0  0  0
 47 48  2  0  0  0
 47 52  1  0  0  0
 49 50  1  0  0  0
 49 51  1  0  0  0
 52 53  1  0  0  0
 53 54  1  0  0  0
 53 56  1  0  0  0
 54 55  2  0  0  0
 54 57  1  0  0  0
 57 58  1  0  0  0
 58 59  1  0  0  0
 58 61  1  0  0  0
 59 60  2  0  0  0
 59 68  1  0  0  0
 61 62  1  0  0  0
 62 63  1  0  0  0
 63 64  1  0  0  0
 64 65  1  0  0  0
 65 66  2  0  0  0
 65 67  1  0  0  0
 68 69  1  0  0  0
 69 70  1  0  0  0
 69 72  1  0  0  0
 70 71  1  0  0  0
 70 77  2  0  0  0
 72 73  1  0  0  0
 73 74  1  0  0  0
 74 75  1  0  0  0
 75 76  1  0  0  0
  1 78  1  0  0  0
  1 79  1  0  0  0
  1 80  1  0  0  0
  2 81  1  0  0  0
  5 82  1  0  0  0
  5 83  1  0  0  0
  5 84  1  0  0  0
  6 85  1  0  0  0
  7 86  1  0  0  0
 10 87  1  0  0  0
 10 88  1  0  0  0
 11 89  1  0  0  0
 11 90  1  0  0  0
 12 91  1  0  0  0
 12 92  1  0  0  0
 13 93  1  0  0  0
 15 94  1  0  0  0
 16 95  1  0  0  0
 16 96  1  0  0  0
 17 97  1  0  0  0
 18 98  1  0  0  0
 21 99  1  0  0  0
 22100  1  0  0  0
 23101  1  0  0  0
 23102  1  0  0  0
 23103  1  0  0  0
 24104  1  0  0  0
 25105  1  0  0  0
 26106  1  0  0  0
 26107  1  0  0  0
 27108  1  0  0  0
 27109  1  0  0  0
 28110  1  0  0  0
 28111  1  0  0  0
 29112  1  0  0  0
 29113  1  0  0  0
 33114  1  0  0  0
 33115  1  0  0  0
 33116  1  0  0  0
 34117  1  0  0  0
 34118  1  0  0  0
 34119  1  0  0  0
 35120  1  0  0  0
 35121  1  0  0  0
 35122  1  0  0  0
 36123  1  0  0  0
 37124  1  0  0  0
 40125  1  0  0  0
 40126  1  0  0  0
 41127  1  0  0  0
 41128  1  0  0  0
 44129  1  0  0  0
 44130  1  0  0  0
 45131  1  0  0  0
 46132  1  0  0  0
 49133  1  0  0  0
 50134  1  0  0  0
 51135  1  0  0  0
 51136  1  0  0  0
 51137  1  0  0  0
 52138  1  0  0  0
 53139  1  0  0  0
 56140  1  0  0  0
 56141  1  0  0  0
 56142  1  0  0  0
 57143  1  0  0  0
 58144  1  0  0  0
 61145  1  0  0  0
 61146  1  0  0  0
 62147  1  0  0  0
 62148  1  0  0  0
 63149  1  0  0  0
 63150  1  0  0  0
 64151  1  0  0  0
 66152  1  0  0  0
 67153  1  0  0  0
 67154  1  0  0  0
 68155  1  0  0  0
 69156  1  0  0  0
 71157  1  0  0  0
 72158  1  0  0  0
 72159  1  0  0  0
 73160  1  0  0  0
 73161  1  0  0  0
 74162  1  0  0  0
 74163  1  0  0  0
 75164  1  0  0  0
 75165  1  0  0  0
 76166  1  0  0  0
 76167  1  0  0  0
 76168  1  0  0  0
M  END
$$$$
