### 
### Created by X-TOOL on Mon Sep 10 21:13:02 2018
### 

@<TRIPOS>MOLECULE
2kmx_ligand
   43    45     1     0     0
SMALL
GAST_HUCK


@<TRIPOS>ATOM
      1 PG        -14.1720   -4.4680  -10.8710 P.3       1 ATP         0.1879
      2 O1G       -13.4770   -4.8410  -12.1150 O.co2     1 ATP        -0.6091
      3 O2G       -14.6850   -5.6020  -10.1120 O.co2     1 ATP        -0.6091
      4 O3G       -15.0960   -3.3420  -11.0080 O.co2     1 ATP        -0.6091
      5 PB        -12.6800   -4.0890   -8.5670 P.3       1 ATP         0.3553
      6 O1B       -11.7020   -5.2020   -8.5790 O.co2     1 ATP        -0.5652
      7 O2B       -13.8710   -4.2270   -7.6880 O.co2     1 ATP        -0.5652
      8 O3B       -13.0870   -3.8630  -10.0230 O.3       1 ATP        -0.1546
      9 PA        -12.5450   -1.4120   -8.2630 P.3       1 ATP         0.3266
     10 O1A       -14.0220   -1.4380   -8.2620 O.co2     1 ATP        -0.5692
     11 O2A       -11.8490   -0.7180   -9.3620 O.co2     1 ATP        -0.5692
     12 O3A       -11.9390   -2.8150   -8.1570 O.3       1 ATP        -0.1171
     13 O5'       -12.1100   -0.7310   -6.9000 O.3       1 ATP        -0.2441
     14 C5'       -10.8070   -0.1870   -6.7460 C.3       1 ATP         0.1131
     15 C4'       -10.3970   -0.1110   -5.2740 C.3       1 ATP         0.1189
     16 O4'       -10.1840   -1.4260   -4.7790 O.3       1 ATP        -0.3364
     17 C3'        -9.0550    0.6160   -5.1070 C.3       1 ATP         0.1149
     18 O3'        -9.1990    2.0140   -4.8800 O.3       1 ATP        -0.3864
     19 C2'        -8.3860   -0.1600   -3.9560 C.3       1 ATP         0.1385
     20 O2'        -8.1530    0.5410   -2.7490 O.3       1 ATP        -0.3836
     21 C1'        -9.3440   -1.3230   -3.6480 C.3       1 ATP         0.2010
     22 N9         -8.6220   -2.5960   -3.3680 N.pl3     1 ATP        -0.1919
     23 C8         -8.7960   -3.8460   -3.9240 C.2       1 ATP         0.1123
     24 N7         -8.0230   -4.7780   -3.4180 N.2       1 ATP        -0.2958
     25 C5         -7.2530   -4.0760   -2.4720 C.ar      1 ATP         0.1045
     26 C6         -6.1850   -4.4010   -1.5920 C.ar      1 ATP         0.1298
     27 N6         -5.6320   -5.5870   -1.4580 N.pl3     1 ATP        -0.3152
     28 N1         -5.6080   -3.4680   -0.8460 N.ar      1 ATP        -0.2698
     29 C2         -6.0680   -2.2360   -0.9220 C.ar      1 ATP         0.0533
     30 N3         -7.0520   -1.7700   -1.6810 N.ar      1 ATP        -0.2714
     31 C4         -7.6130   -2.7530   -2.4420 C.ar      1 ATP         0.1613
     32 H         -10.8055    0.8230   -7.1559 H         1 ATP         0.0648
     33 H         -10.1007   -0.8337   -7.2667 H         1 ATP         0.0648
     34 H         -11.1906    0.4155   -4.7438 H         1 ATP         0.0651
     35 H          -8.4431    0.6104   -6.0090 H         1 ATP         0.0648
     36 H          -8.3309    2.4125   -4.7839 H         1 ATP         0.2100
     37 H          -7.3875   -0.4316   -4.2987 H         1 ATP         0.0676
     38 H          -7.7350   -0.0461   -2.1148 H         1 ATP         0.2101
     39 H          -9.9165   -1.1320   -2.7403 H         1 ATP         0.0996
     40 H          -9.5161   -4.0435   -4.7181 H         1 ATP         0.1349
     41 H          -5.9681   -6.3723   -2.0154 H         1 ATP         0.1820
     42 H          -4.8671   -5.7213   -0.7967 H         1 ATP         0.1820
     43 H          -5.5774   -1.5054   -0.2789 H         1 ATP         0.0996
@<TRIPOS>BOND
     1    1    2 ar 
     2    1    3 ar 
     3    1    4 ar 
     4    8    1 1  
     5    5    6 ar 
     6    5    7 ar 
     7    5    8 1  
     8   12    5 1  
     9    9   10 ar 
    10    9   11 ar 
    11    9   12 1  
    12    9   13 1  
    13   13   14 1  
    14   14   15 1  
    15   15   16 1  
    16   15   17 1  
    17   16   21 1  
    18   17   18 1  
    19   17   19 1  
    20   19   20 1  
    21   19   21 1  
    22   21   22 1  
    23   22   23 1  
    24   22   31 1  
    25   23   24 2  
    26   24   25 1  
    27   25   26 ar 
    28   25   31 ar 
    29   26   27 1  
    30   26   28 ar 
    31   28   29 ar 
    32   29   30 ar 
    33   30   31 ar 
    34   14   32 1  
    35   14   33 1  
    36   15   34 1  
    37   17   35 1  
    38   18   36 1  
    39   19   37 1  
    40   20   38 1  
    41   21   39 1  
    42   23   40 1  
    43   27   41 1  
    44   27   42 1  
    45   29   43 1  
@<TRIPOS>SUBSTRUCTURE
     1 ATP         1

