2kmx_ligand
  -I-interpret- 

 47 49  0  0  0  0  0  0  0  0999 V2000
  -14.1720   -4.4680  -10.8710 P   0  0  0  0  0
  -13.4770   -4.8410  -12.1150 O   0  0  0  0  0
  -14.6850   -5.6020  -10.1120 O   0  0  0  0  0
  -15.0960   -3.3420  -11.0080 O   0  0  0  0  0
  -12.6800   -4.0890   -8.5670 P   0  0  0  0  0
  -11.7020   -5.2020   -8.5790 O   0  0  0  0  0
  -13.8710   -4.2270   -7.6880 O   0  0  0  0  0
  -13.0870   -3.8630  -10.0230 O   0  0  0  0  0
  -12.5450   -1.4120   -8.2630 P   0  0  0  0  0
  -14.0220   -1.4380   -8.2620 O   0  0  0  0  0
  -11.8490   -0.7180   -9.3620 O   0  0  0  0  0
  -11.9390   -2.8150   -8.1570 O   0  0  0  0  0
  -12.1100   -0.7310   -6.9000 O   0  0  0  0  0
  -10.8070   -0.1870   -6.7460 C   0  0  0  0  0
  -10.3970   -0.1110   -5.2740 C   0  0  0  0  0
  -10.1840   -1.4260   -4.7790 O   0  0  0  0  0
   -9.0550    0.6160   -5.1070 C   0  0  0  0  0
   -9.1990    2.0140   -4.8800 O   0  0  0  0  0
   -8.3860   -0.1600   -3.9560 C   0  0  0  0  0
   -8.1530    0.5410   -2.7490 O   0  0  0  0  0
   -9.3440   -1.3230   -3.6480 C   0  0  0  0  0
   -8.6220   -2.5960   -3.3680 N   0  0  0  0  0
   -8.7960   -3.8460   -3.9240 C   0  0  0  0  0
   -8.0230   -4.7780   -3.4180 N   0  0  0  0  0
   -7.2530   -4.0760   -2.4720 C   0  0  0  0  0
   -6.1850   -4.4010   -1.5920 C   0  0  0  0  0
   -5.6320   -5.5870   -1.4580 N   0  0  0  0  0
   -5.6080   -3.4680   -0.8460 N   0  0  0  0  0
   -6.0680   -2.2360   -0.9220 C   0  0  0  0  0
   -7.0520   -1.7700   -1.6810 N   0  0  0  0  0
   -7.6130   -2.7530   -2.4420 C   0  0  0  0  0
  -13.1688   -4.0473  -12.5584 H   0  0  0  0  0
  -14.6767   -2.6458  -11.5189 H   0  0  0  0  0
  -14.4213   -3.4448   -7.7715 H   0  0  0  0  0
  -14.3319   -1.9210   -7.4924 H   0  0  0  0  0
  -10.8055    0.8230   -7.1559 H   0  0  0  0  0
  -10.1007   -0.8337   -7.2667 H   0  0  0  0  0
  -11.1906    0.4155   -4.7438 H   0  0  0  0  0
   -8.4431    0.6104   -6.0090 H   0  0  0  0  0
   -8.3309    2.4125   -4.7839 H   0  0  0  0  0
   -7.3875   -0.4316   -4.2987 H   0  0  0  0  0
   -7.7350   -0.0461   -2.1148 H   0  0  0  0  0
   -9.9165   -1.1320   -2.7403 H   0  0  0  0  0
   -9.5161   -4.0435   -4.7181 H   0  0  0  0  0
   -5.9681   -6.3723   -2.0154 H   0  0  0  0  0
   -4.8671   -5.7213   -0.7967 H   0  0  0  0  0
   -5.5774   -1.5054   -0.2789 H   0  0  0  0  0
  1  2  1  0  0  0
  1  3  2  0  0  0
  1  4  1  0  0  0
  8  1  1  0  0  0
  5  6  2  0  0  0
  5  7  1  0  0  0
  5  8  1  0  0  0
 12  5  1  0  0  0
  9 10  1  0  0  0
  9 11  2  0  0  0
  9 12  1  0  0  0
  9 13  1  0  0  0
 13 14  1  0  0  0
 14 15  1  0  0  0
 15 16  1  0  0  0
 15 17  1  0  0  0
 16 21  1  0  0  0
 17 18  1  0  0  0
 17 19  1  0  0  0
 19 20  1  0  0  0
 19 21  1  0  0  0
 21 22  1  0  0  0
 22 23  4  0  0  0
 22 31  4  0  0  0
 23 24  4  0  0  0
 24 25  4  0  0  0
 25 26  4  0  0  0
 25 31  4  0  0  0
 26 27  1  0  0  0
 26 28  4  0  0  0
 28 29  4  0  0  0
 29 30  4  0  0  0
 30 31  4  0  0  0
  2 32  1  0  0  0
  4 33  1  0  0  0
  7 34  1  0  0  0
 10 35  1  0  0  0
 14 36  1  0  0  0
 14 37  1  0  0  0
 15 38  1  0  0  0
 17 39  1  0  0  0
 18 40  1  0  0  0
 19 41  1  0  0  0
 20 42  1  0  0  0
 21 43  1  0  0  0
 23 44  1  0  0  0
 27 45  1  0  0  0
 27 46  1  0  0  0
 29 47  1  0  0  0
M  END
$$$$
