3wv3_ligand
  -I-interpret- 

 35 37  0  0  0  0  0  0  0  0999 V2000
   44.6300   -6.1850  -15.1710 C   0  0  0  0  0
   44.3810   -5.3900  -14.0630 C   0  0  0  0  0
   43.9350   -5.9610  -16.3400 C   0  0  0  0  0
   48.1150   -5.2620   -7.3730 C   0  0  0  0  0
   42.7390   -4.1670  -15.3130 C   0  0  0  0  0
   47.2210   -5.9960   -6.6230 C   0  0  0  0  0
   47.5200   -4.6960   -8.5340 C   0  0  0  0  0
   43.4450   -4.3780  -14.1450 C   0  0  0  0  0
   42.9840   -4.9600  -16.4130 C   0  0  0  0  0
   46.1900   -5.0070   -8.6560 C   0  0  0  0  0
   48.1570   -3.8760   -9.5330 C   0  0  0  0  0
   45.9830   -3.8770  -10.5360 C   0  0  0  0  0
   45.2320   -3.3810  -11.7240 C   0  0  0  0  0
   42.7070   -5.4820  -18.6370 C   0  0  0  0  0
   43.1710   -3.5070  -12.9460 C   0  0  0  0  0
   45.3750   -4.6170   -9.6430 N   0  0  0  0  0
   47.3050   -3.5010  -10.5220 N   0  0  0  0  0
   43.9500   -3.8270  -11.7760 N   0  0  0  0  0
   49.3370   -3.5600   -9.4750 O   0  0  0  0  0
   45.8050   -2.7400  -12.5950 O   0  0  0  0  0
   42.2470   -4.6820  -17.5540 O   0  0  0  0  0
   45.6610   -5.9950   -7.3370 S   0  0  0  0  0
   45.3711   -6.9826  -15.1181 H   0  0  0  0  0
   44.9211   -5.5628  -13.1321 H   0  0  0  0  0
   44.1370   -6.5787  -17.2151 H   0  0  0  0  0
   49.1633   -5.1299   -7.1054 H   0  0  0  0  0
   41.9907   -3.3761  -15.3646 H   0  0  0  0  0
   47.4728   -6.5107   -5.6958 H   0  0  0  0  0
   43.7582   -5.2650  -18.8265 H   0  0  0  0  0
   42.5923   -6.5358  -18.3830 H   0  0  0  0  0
   42.1216   -5.2560  -19.5283 H   0  0  0  0  0
   42.1244   -3.6550  -12.6797 H   0  0  0  0  0
   43.4304   -2.4870  -13.2298 H   0  0  0  0  0
   47.6589   -2.9195  -11.2816 H   0  0  0  0  0
   43.5510   -4.3713  -11.0112 H   0  0  0  0  0
  2  1  4  0  0  0
  1  3  4  0  0  0
  8  2  4  0  0  0
  9  3  4  0  0  0
  4  6  4  0  0  0
  7  4  4  0  0  0
  8  5  4  0  0  0
  5  9  4  0  0  0
 22  6  4  0  0  0
 10  7  4  0  0  0
 11  7  1  0  0  0
 15  8  1  0  0  0
  9 21  1  0  0  0
 16 10  1  0  0  0
 10 22  4  0  0  0
 17 11  1  0  0  0
 11 19  2  0  0  0
 13 12  1  0  0  0
 12 16  2  0  0  0
 12 17  1  0  0  0
 18 13  1  0  0  0
 13 20  2  0  0  0
 21 14  1  0  0  0
 15 18  1  0  0  0
  1 23  1  0  0  0
  2 24  1  0  0  0
  3 25  1  0  0  0
  4 26  1  0  0  0
  5 27  1  0  0  0
  6 28  1  0  0  0
 14 29  1  0  0  0
 14 30  1  0  0  0
 14 31  1  0  0  0
 15 32  1  0  0  0
 15 33  1  0  0  0
 17 34  1  0  0  0
 18 35  1  0  0  0
M  END
$$$$
