3zlw_ligand
  -I-interpret- 

 31 33  0  0  0  0  0  0  0  0999 V2000
  -17.2690   29.3540   -3.0350 C   0  0  0  0  0
  -16.8550   29.5960   -1.7480 O   0  0  0  0  0
  -18.4940   30.2360   -3.2510 C   0  0  0  0  0
  -19.6990   29.7600   -2.4490 C   0  0  0  0  0
  -16.1080   29.7550   -3.9590 C   0  0  0  0  0
  -20.1020   28.3910   -2.8250 N   0  0  0  0  0
  -21.4240   28.0340   -2.8800 C   0  0  0  0  0
  -22.3440   28.8000   -2.5950 O   0  0  0  0  0
  -21.7330   26.6230   -3.3000 C   0  0  0  0  0
  -20.6930   25.5980   -2.9400 C   0  0  0  0  0
  -19.2780   26.0680   -3.1640 C   0  0  0  0  0
  -18.2440   25.1560   -3.3830 C   0  0  0  0  0
  -16.9280   25.5800   -3.5040 C   0  0  0  0  0
  -16.6120   26.9280   -3.3950 C   0  0  0  0  0
  -18.9760   27.4450   -3.0600 C   0  0  0  0  0
  -17.6190   27.8650   -3.1680 C   0  0  0  0  0
  -16.6334   30.5253   -1.6537 H   0  0  0  0  0
  -18.7555   30.1979   -4.3085 H   0  0  0  0  0
  -18.2461   31.2450   -2.9216 H   0  0  0  0  0
  -20.5333   30.4310   -2.6536 H   0  0  0  0  0
  -19.4291   29.7597   -1.3930 H   0  0  0  0  0
  -15.2235   29.1717   -3.7030 H   0  0  0  0  0
  -16.3859   29.5604   -4.9949 H   0  0  0  0  0
  -15.8942   30.8163   -3.8321 H   0  0  0  0  0
  -21.7982   26.6302   -4.3880 H   0  0  0  0  0
  -22.6455   26.3363   -2.7772 H   0  0  0  0  0
  -20.8541   24.7307   -3.5802 H   0  0  0  0  0
  -20.8011   25.3827   -1.8770 H   0  0  0  0  0
  -18.4740   24.0933   -3.4602 H   0  0  0  0  0
  -16.1382   24.8511   -3.6856 H   0  0  0  0  0
  -15.5758   27.2536   -3.4870 H   0  0  0  0  0
  1  2  1  0  0  0
  1  3  1  0  0  0
  1  5  1  0  0  0
  1 16  1  0  0  0
  3  4  1  0  0  0
  4  6  1  0  0  0
  6  7  1  0  0  0
  6 15  1  0  0  0
  7  8  2  0  0  0
  7  9  1  0  0  0
  9 10  1  0  0  0
 10 11  1  0  0  0
 11 12  4  0  0  0
 11 15  4  0  0  0
 12 13  4  0  0  0
 13 14  4  0  0  0
 14 16  4  0  0  0
 15 16  4  0  0  0
  2 17  1  0  0  0
  3 18  1  0  0  0
  3 19  1  0  0  0
  4 20  1  0  0  0
  4 21  1  0  0  0
  5 22  1  0  0  0
  5 23  1  0  0  0
  5 24  1  0  0  0
  9 25  1  0  0  0
  9 26  1  0  0  0
 10 27  1  0  0  0
 10 28  1  0  0  0
 12 29  1  0  0  0
 13 30  1  0  0  0
 14 31  1  0  0  0
M  END
$$$$
