6ce2_ligand
  -I-interpret- 

126133  0  0  0  0  0  0  0  0999 V2000
   15.5360   11.1970   10.6670 O   0  0  0  0  0
   16.7560   10.2890   10.9460 S   0  0  0  0  0
   17.5510   10.4360    9.6790 O   0  0  0  0  0
   17.5370   10.7690   12.1610 O   0  0  0  0  0
   16.2350    8.5570   11.1920 C   0  0  0  0  0
   16.1130    8.0630   12.5300 C   0  0  0  0  0
   15.7270    6.7670   12.7610 C   0  0  0  0  0
   15.6120    6.2740   14.5370 S   0  0  0  0  0
   16.3020    4.9640   14.8050 O   0  0  0  0  0
   14.1830    5.9850   14.9480 O   0  0  0  0  0
   16.1820    7.3640   15.3800 O   0  0  0  0  0
   15.9670    7.7420   10.1260 C   0  0  0  0  0
   15.5620    6.3870   10.3530 C   0  0  0  0  0
   15.3010    5.5950    9.2870 C   0  0  0  0  0
   15.4690    6.2720    7.5730 S   0  0  0  0  0
   15.1300    5.2280    6.5420 O   0  0  0  0  0
   16.9200    6.5710    7.2350 O   0  0  0  0  0
   14.6000    7.5000    7.4120 O   0  0  0  0  0
   14.9020    4.2600    9.4730 C   0  0  0  0  0
   14.7820    3.7630   10.7570 C   0  0  0  0  0
   15.4390    5.8950   11.6520 C   0  0  0  0  0
   15.0390    4.5550   11.8320 C   0  0  0  0  0
   14.9010    4.0130   13.1290 N   0  0  0  0  0
   13.6420    3.4670   13.5320 C   0  0  0  0  0
   12.7030    3.4800   12.8040 O   0  0  0  0  0
   13.4750    2.8840   14.9570 C   0  0  0  0  0
   12.1930    2.8620   15.4840 C   0  0  0  0  0
   14.5350    2.4130   15.6940 C   0  0  0  0  0
   14.3090    1.9030   16.9870 C   0  0  0  0  0
   13.0250    1.8780   17.5150 C   0  0  0  0  0
   12.7860    1.3310   18.9050 C   0  0  0  0  0
   11.9660    2.3670   16.7480 C   0  0  0  0  0
   10.5040    2.4010   17.2100 N   0  0  0  0  0
    9.7270    1.1750   17.4150 C   0  0  0  0  0
   10.2050    0.1070   17.2480 O   0  0  0  0  0
    8.2460    1.3780   17.8430 C   0  0  0  0  0
    7.5490    2.3510   17.1530 C   0  0  0  0  0
    7.6300    0.6510   18.8380 C   0  0  0  0  0
    6.2900    0.9100   19.1470 C   0  0  0  0  0
    5.5840    1.8840   18.4630 C   0  0  0  0  0
    6.2180    2.6060   17.4600 C   0  0  0  0  0
    5.5230    3.6730   16.6850 N   0  0  0  0  0
    4.4520    3.3870   15.7470 C   0  0  0  0  0
    4.0670    2.2910   15.5560 O   0  0  0  0  0
    3.8570    4.5800   15.0410 N   0  0  0  0  0
    2.7160    4.5270   14.0000 C   0  0  0  0  0
    3.0520    4.6320   12.6680 C   0  0  0  0  0
    1.3790    4.4060   14.3760 C   0  0  0  0  0
    0.3960    4.3770   13.3950 C   0  0  0  0  0
    0.7340    4.4770   12.0490 C   0  0  0  0  0
    2.0650    4.6050   11.6910 C   0  0  0  0  0
    2.5420    4.7180   10.2500 C   0  0  0  0  0
    1.8110    4.4580    9.3030 O   0  0  0  0  0
    3.9310    5.1570   10.0820 N   0  0  0  0  0
    4.5980    5.3090    8.7480 C   0  0  0  0  0
    4.6450    4.2120    7.8990 C   0  0  0  0  0
    5.2010    6.5220    8.3670 C   0  0  0  0  0
    5.1590    7.7690    9.3270 C   0  0  0  0  0
    5.8240    6.6240    7.1260 C   0  0  0  0  0
    5.8710    5.5120    6.2590 C   0  0  0  0  0
    5.2890    4.3150    6.6540 C   0  0  0  0  0
    5.2850    3.0700    5.7140 C   0  0  0  0  0
    4.4470    2.2200    5.9060 O   0  0  0  0  0
    6.2480    2.8670    4.5770 N   0  0  0  0  0
    5.9410    1.6180    3.8640 C   0  0  0  0  0
    5.0030    1.7460    2.8440 C   0  0  0  0  0
    4.5900    0.6410    2.0980 C   0  0  0  0  0
    5.1200   -0.6060    2.4020 C   0  0  0  0  0
    4.5880   -2.1000    1.4260 S   0  0  0  0  0
    3.7620   -3.0420    2.2960 O   0  0  0  0  0
    5.7900   -2.8030    0.8490 O   0  0  0  0  0
    3.5840   -1.7280    0.3410 O   0  0  0  0  0
    6.4740    0.3510    4.1950 C   0  0  0  0  0
    6.0530   -0.7520    3.4390 C   0  0  0  0  0
    6.5570   -2.0530    3.7000 C   0  0  0  0  0
    7.4240    0.1460    5.2380 C   0  0  0  0  0
    8.0640    1.4180    6.2770 S   0  0  0  0  0
    9.4330    1.0390    6.7440 O   0  0  0  0  0
    8.3670    2.6700    5.5220 O   0  0  0  0  0
    7.1480    1.6660    7.4550 O   0  0  0  0  0
    7.9160   -1.1440    5.4890 C   0  0  0  0  0
    7.4870   -2.2430    4.7220 C   0  0  0  0  0
    8.1700   -3.9500    5.0960 S   0  0  0  0  0
    7.2740   -4.6840    6.0630 O   0  0  0  0  0
    9.5810   -3.8350    5.6390 O   0  0  0  0  0
    8.0980   -4.8510    3.8920 O   0  0  0  0  0
   14.9465   11.1807   11.4245 H   0  0  0  0  0
   16.3284    8.7215   13.3715 H   0  0  0  0  0
   13.6477    6.7706   14.8143 H   0  0  0  0  0
   16.0613    8.1222    9.1088 H   0  0  0  0  0
   17.2568    7.2381    7.8376 H   0  0  0  0  0
   14.6896    3.6237    8.6139 H   0  0  0  0  0
   14.4787    2.7272   10.9093 H   0  0  0  0  0
   15.6923    4.0110   13.7726 H   0  0  0  0  0
   11.3586    3.2395   14.8930 H   0  0  0  0  0
   15.5434    2.4340   15.2807 H   0  0  0  0  0
   15.1454    1.5263   17.5758 H   0  0  0  0  0
   13.1068    0.2900   18.9445 H   0  0  0  0  0
   13.3558    1.9158   19.6271 H   0  0  0  0  0
   11.7238    1.3945   19.1414 H   0  0  0  0  0
   10.0593    3.3031   17.3796 H   0  0  0  0  0
    8.0442    2.9199   16.3661 H   0  0  0  0  0
    8.1809   -0.1183   19.3791 H   0  0  0  0  0
    5.7975    0.3390   19.9341 H   0  0  0  0  0
    4.5408    2.0826   18.7089 H   0  0  0  0  0
    5.8111    4.6423   16.8189 H   0  0  0  0  0
    4.2394    5.4975   15.2696 H   0  0  0  0  0
    4.0978    4.7368   12.3793 H   0  0  0  0  0
    1.1077    4.3349   15.4293 H   0  0  0  0  0
   -0.6504    4.2749   13.6825 H   0  0  0  0  0
   -0.0419    4.4548   11.2838 H   0  0  0  0  0
    4.4733    5.3708   10.9190 H   0  0  0  0  0
    4.1827    3.2711    8.1976 H   0  0  0  0  0
    4.1217    8.0433    9.5190 H   0  0  0  0  0
    5.6500    7.5187   10.2674 H   0  0  0  0  0
    5.6763    8.6054    8.8569 H   0  0  0  0  0
    6.2776    7.5676    6.8228 H   0  0  0  0  0
    6.3597    5.5919    5.2880 H   0  0  0  0  0
    7.0062    3.5048    4.3348 H   0  0  0  0  0
    4.5830    2.7274    2.6236 H   0  0  0  0  0
    3.8651    0.7547    1.2920 H   0  0  0  0  0
    3.0052   -2.5686    2.6491 H   0  0  0  0  0
    6.2185   -2.9005    3.1039 H   0  0  0  0  0
    6.2756    1.9076    7.1353 H   0  0  0  0  0
    8.6404   -1.2968    6.2890 H   0  0  0  0  0
   10.1289   -3.3652    5.0061 H   0  0  0  0  0
  1  2  1  0  0  0
  2  3  2  0  0  0
  2  4  2  0  0  0
  2  5  1  0  0  0
  5  6  4  0  0  0
  5 12  4  0  0  0
  6  7  4  0  0  0
  7  8  1  0  0  0
  7 21  4  0  0  0
  8  9  2  0  0  0
  8 10  1  0  0  0
  8 11  2  0  0  0
 12 13  4  0  0  0
 13 14  4  0  0  0
 13 21  4  0  0  0
 14 15  1  0  0  0
 14 19  4  0  0  0
 15 16  2  0  0  0
 15 17  1  0  0  0
 15 18  2  0  0  0
 19 20  4  0  0  0
 20 22  4  0  0  0
 21 22  4  0  0  0
 22 23  1  0  0  0
 23 24  1  0  0  0
 24 25  2  0  0  0
 24 26  1  0  0  0
 26 27  4  0  0  0
 26 28  4  0  0  0
 27 32  4  0  0  0
 28 29  4  0  0  0
 29 30  4  0  0  0
 30 31  1  0  0  0
 30 32  4  0  0  0
 32 33  1  0  0  0
 33 34  1  0  0  0
 34 35  2  0  0  0
 34 36  1  0  0  0
 36 37  4  0  0  0
 36 38  4  0  0  0
 37 41  4  0  0  0
 38 39  4  0  0  0
 39 40  4  0  0  0
 40 41  4  0  0  0
 41 42  1  0  0  0
 42 43  1  0  0  0
 43 44  2  0  0  0
 43 45  1  0  0  0
 45 46  1  0  0  0
 46 47  4  0  0  0
 46 48  4  0  0  0
 47 51  4  0  0  0
 48 49  4  0  0  0
 49 50  4  0  0  0
 50 51  4  0  0  0
 51 52  1  0  0  0
 52 53  2  0  0  0
 52 54  1  0  0  0
 54 55  1  0  0  0
 55 56  4  0  0  0
 55 57  4  0  0  0
 56 61  4  0  0  0
 57 58  1  0  0  0
 57 59  4  0  0  0
 59 60  4  0  0  0
 60 61  4  0  0  0
 61 62  1  0  0  0
 62 63  2  0  0  0
 62 64  1  0  0  0
 64 65  1  0  0  0
 65 66  4  0  0  0
 65 73  4  0  0  0
 66 67  4  0  0  0
 67 68  4  0  0  0
 68 69  1  0  0  0
 68 74  4  0  0  0
 69 70  1  0  0  0
 69 71  2  0  0  0
 69 72  2  0  0  0
 73 74  4  0  0  0
 73 76  4  0  0  0
 74 75  4  0  0  0
 75 82  4  0  0  0
 76 77  1  0  0  0
 76 81  4  0  0  0
 77 78  2  0  0  0
 77 79  2  0  0  0
 77 80  1  0  0  0
 81 82  4  0  0  0
 82 83  1  0  0  0
 83 84  2  0  0  0
 83 85  1  0  0  0
 83 86  2  0  0  0
  1 87  1  0  0  0
  6 88  1  0  0  0
 10 89  1  0  0  0
 12 90  1  0  0  0
 17 91  1  0  0  0
 19 92  1  0  0  0
 20 93  1  0  0  0
 23 94  1  0  0  0
 27 95  1  0  0  0
 28 96  1  0  0  0
 29 97  1  0  0  0
 31 98  1  0  0  0
 31 99  1  0  0  0
 31100  1  0  0  0
 33101  1  0  0  0
 37102  1  0  0  0
 38103  1  0  0  0
 39104  1  0  0  0
 40105  1  0  0  0
 42106  1  0  0  0
 45107  1  0  0  0
 47108  1  0  0  0
 48109  1  0  0  0
 49110  1  0  0  0
 50111  1  0  0  0
 54112  1  0  0  0
 56113  1  0  0  0
 58114  1  0  0  0
 58115  1  0  0  0
 58116  1  0  0  0
 59117  1  0  0  0
 60118  1  0  0  0
 64119  1  0  0  0
 66120  1  0  0  0
 67121  1  0  0  0
 70122  1  0  0  0
 75123  1  0  0  0
 80124  1  0  0  0
 81125  1  0  0  0
 85126  1  0  0  0
M  END
$$$$
