### 
### Created by X-TOOL on Wed Jan  1 15:39:38 2020
### 

@<TRIPOS>MOLECULE
6ce2_ligand
  120   127     1     0     0
SMALL
GAST_HUCK


@<TRIPOS>ATOM
      1 O35        15.5360   11.1970   10.6670 O.co2     1 SVR        -0.4797
      2 S31        16.7560   10.2890   10.9460 S.o2      1 SVR        -0.1636
      3 O36        17.5510   10.4360    9.6790 O.co2     1 SVR        -0.4797
      4 O34        17.5370   10.7690   12.1610 O.co2     1 SVR        -0.4797
      5 C22        16.2350    8.5570   11.1920 C.ar      1 SVR         0.0494
      6 C18        16.1130    8.0630   12.5300 C.ar      1 SVR        -0.0210
      7 C11        15.7270    6.7670   12.7610 C.ar      1 SVR         0.0599
      8 S17        15.6120    6.2740   14.5370 S.o2      1 SVR        -0.1625
      9 O23        16.3020    4.9640   14.8050 O.co2     1 SVR        -0.4795
     10 O24        14.1830    5.9850   14.9480 O.co2     1 SVR        -0.4795
     11 O25        16.1820    7.3640   15.3800 O.co2     1 SVR        -0.4795
     12 C16        15.9670    7.7420   10.1260 C.ar      1 SVR        -0.0371
     13 C10        15.5620    6.3870   10.3530 C.ar      1 SVR        -0.0062
     14 C15        15.3010    5.5950    9.2870 C.ar      1 SVR         0.0386
     15 S21        15.4690    6.2720    7.5730 S.o2      1 SVR        -0.1723
     16 O28        15.1300    5.2280    6.5420 O.co2     1 SVR        -0.4823
     17 O29        16.9200    6.5710    7.2350 O.co2     1 SVR        -0.4823
     18 O30        14.6000    7.5000    7.4120 O.co2     1 SVR        -0.4823
     19 C12        14.9020    4.2600    9.4730 C.ar      1 SVR        -0.0595
     20 C7         14.7820    3.7630   10.7570 C.ar      1 SVR        -0.0414
     21 C6         15.4390    5.8950   11.6520 C.ar      1 SVR         0.0350
     22 C3         15.0390    4.5550   11.8320 C.ar      1 SVR         0.0824
     23 N1         14.9010    4.0130   13.1290 N.am      1 SVR        -0.2285
     24 C2         13.6420    3.4670   13.5320 C.2       1 SVR         0.2279
     25 O4         12.7030    3.4800   12.8040 O.2       1 SVR        -0.3740
     26 C5         13.4750    2.8840   14.9570 C.ar      1 SVR         0.0364
     27 C8         12.1930    2.8620   15.4840 C.ar      1 SVR        -0.0272
     28 C9         14.5350    2.4130   15.6940 C.ar      1 SVR        -0.0632
     29 C14        14.3090    1.9030   16.9870 C.ar      1 SVR        -0.0675
     30 C20        13.0250    1.8780   17.5150 C.ar      1 SVR        -0.0191
     31 C27        12.7860    1.3310   18.9050 C.3       1 SVR        -0.0327
     32 C13        11.9660    2.3670   16.7480 C.ar      1 SVR         0.0740
     33 N19        10.5040    2.4010   17.2100 N.am      1 SVR        -0.2354
     34 C26         9.7270    1.1750   17.4150 C.2       1 SVR         0.2270
     35 O32        10.2050    0.1070   17.2480 O.2       1 SVR        -0.3740
     36 C33         8.2460    1.3780   17.8430 C.ar      1 SVR         0.0419
     37 C37         7.5490    2.3510   17.1530 C.ar      1 SVR        -0.0214
     38 C38         7.6300    0.6510   18.8380 C.ar      1 SVR        -0.0571
     39 C40         6.2900    0.9100   19.1470 C.ar      1 SVR        -0.0701
     40 C42         5.5840    1.8840   18.4630 C.ar      1 SVR        -0.0372
     41 C39         6.2180    2.6060   17.4600 C.ar      1 SVR         0.0725
     42 N41         5.5230    3.6730   16.6850 N.am      1 SVR        -0.2134
     43 C43         4.4520    3.3870   15.7470 C.2       1 SVR         0.3170
     44 O45         4.0670    2.2910   15.5560 O.2       1 SVR        -0.3803
     45 N44         3.8570    4.5800   15.0410 N.am      1 SVR        -0.2134
     46 C46         2.7160    4.5270   14.0000 C.ar      1 SVR         0.0725
     47 C47         3.0520    4.6320   12.6680 C.ar      1 SVR        -0.0214
     48 C48         1.3790    4.4060   14.3760 C.ar      1 SVR        -0.0372
     49 C50         0.3960    4.3770   13.3950 C.ar      1 SVR        -0.0701
     50 C52         0.7340    4.4770   12.0490 C.ar      1 SVR        -0.0571
     51 C49         2.0650    4.6050   11.6910 C.ar      1 SVR         0.0419
     52 C51         2.5420    4.7180   10.2500 C.2       1 SVR         0.2270
     53 O54         1.8110    4.4580    9.3030 O.2       1 SVR        -0.3740
     54 N53         3.9310    5.1570   10.0820 N.am      1 SVR        -0.2354
     55 C55         4.5980    5.3090    8.7480 C.ar      1 SVR         0.0740
     56 C56         4.6450    4.2120    7.8990 C.ar      1 SVR        -0.0272
     57 C57         5.2010    6.5220    8.3670 C.ar      1 SVR        -0.0191
     58 C59         5.1590    7.7690    9.3270 C.3       1 SVR        -0.0327
     59 C60         5.8240    6.6240    7.1260 C.ar      1 SVR        -0.0675
     60 C62         5.8710    5.5120    6.2590 C.ar      1 SVR        -0.0632
     61 C58         5.2890    4.3150    6.6540 C.ar      1 SVR         0.0364
     62 C61         5.2850    3.0700    5.7140 C.2       1 SVR         0.2279
     63 O64         4.4470    2.2200    5.9060 O.2       1 SVR        -0.3740
     64 N63         6.2480    2.8670    4.5770 N.am      1 SVR        -0.2285
     65 C65         5.9410    1.6180    3.8640 C.ar      1 SVR         0.0824
     66 C67         5.0030    1.7460    2.8440 C.ar      1 SVR        -0.0414
     67 C70         4.5900    0.6410    2.0980 C.ar      1 SVR        -0.0595
     68 C71         5.1200   -0.6060    2.4020 C.ar      1 SVR         0.0386
     69 S75         4.5880   -2.1000    1.4260 S.o2      1 SVR        -0.1723
     70 O80         3.7620   -3.0420    2.2960 O.co2     1 SVR        -0.4823
     71 O81         5.7900   -2.8030    0.8490 O.co2     1 SVR        -0.4823
     72 O82         3.5840   -1.7280    0.3410 O.co2     1 SVR        -0.4823
     73 C66         6.4740    0.3510    4.1950 C.ar      1 SVR         0.0350
     74 C68         6.0530   -0.7520    3.4390 C.ar      1 SVR        -0.0062
     75 C72         6.5570   -2.0530    3.7000 C.ar      1 SVR        -0.0371
     76 C69         7.4240    0.1460    5.2380 C.ar      1 SVR         0.0599
     77 S73         8.0640    1.4180    6.2770 S.o2      1 SVR        -0.1625
     78 O77         9.4330    1.0390    6.7440 O.co2     1 SVR        -0.4795
     79 O78         8.3670    2.6700    5.5220 O.co2     1 SVR        -0.4795
     80 O79         7.1480    1.6660    7.4550 O.co2     1 SVR        -0.4795
     81 C74         7.9160   -1.1440    5.4890 C.ar      1 SVR        -0.0210
     82 C76         7.4870   -2.2430    4.7220 C.ar      1 SVR         0.0494
     83 S83         8.1700   -3.9500    5.0960 S.o2      1 SVR        -0.1636
     84 O85         7.2740   -4.6840    6.0630 O.co2     1 SVR        -0.4797
     85 O86         9.5810   -3.8350    5.6390 O.co2     1 SVR        -0.4797
     86 O84         8.0980   -4.8510    3.8920 O.co2     1 SVR        -0.4797
     87 H1         16.3272    8.7178   13.3669 H         1 SVR         0.0614
     88 H2         16.0608    8.1201    9.1144 H         1 SVR         0.0606
     89 H3         14.6907    3.6272    8.6186 H         1 SVR         0.0583
     90 H4         14.4804    2.7329   10.9084 H         1 SVR         0.0443
     91 H5         15.6768    4.0110   13.7600 H         1 SVR         0.2306
     92 H6         11.3632    3.2374   14.8962 H         1 SVR         0.0529
     93 H7         15.5378    2.4339   15.2830 H         1 SVR         0.0525
     94 H8         15.1408    1.5284   17.5725 H         1 SVR         0.0527
     95 H9         13.7413    0.9989   19.3376 H         1 SVR         0.0372
     96 H10        12.0927    0.4788   18.8495 H         1 SVR         0.0372
     97 H11        12.3503    2.1175   19.5387 H         1 SVR         0.0372
     98 H12        10.0680    3.2854   17.3763 H         1 SVR         0.2231
     99 H13         8.0415    2.9167   16.3704 H         1 SVR         0.0551
    100 H14         8.1779   -0.1140   19.3762 H         1 SVR         0.0538
    101 H15         5.8002    0.3421   19.9298 H         1 SVR         0.0588
    102 H16         4.5466    2.0815   18.7075 H         1 SVR         0.0536
    103 H17         5.8055    4.6233   16.8162 H         1 SVR         0.2262
    104 H18         4.2319    5.4796   15.2651 H         1 SVR         0.2262
    105 H19         4.0921    4.7362   12.3809 H         1 SVR         0.0551
    106 H20         1.1092    4.3353   15.4235 H         1 SVR         0.0536
    107 H21        -0.6447    4.2755   13.6809 H         1 SVR         0.0588
    108 H22        -0.0376    4.4549   11.2880 H         1 SVR         0.0538
    109 H23         4.4627    5.3666   10.9026 H         1 SVR         0.2231
    110 H24         4.1853    3.2763    8.1960 H         1 SVR         0.0529
    111 H25         5.6808    8.6138    8.8537 H         1 SVR         0.0372
    112 H26         5.6543    7.5177   10.2765 H         1 SVR         0.0372
    113 H27         4.1126    8.0469    9.5216 H         1 SVR         0.0372
    114 H28         6.2751    7.5624    6.8245 H         1 SVR         0.0527
    115 H29         6.3570    5.5915    5.2933 H         1 SVR         0.0525
    116 H30         6.9914    3.4923    4.3395 H         1 SVR         0.2306
    117 H31         4.5854    2.7220    2.6248 H         1 SVR         0.0443
    118 H32         3.8691    0.7541    1.2964 H         1 SVR         0.0583
    119 H33         6.2204   -2.8958    3.1072 H         1 SVR         0.0606
    120 H34         8.6364   -1.2960    6.2846 H         1 SVR         0.0614
@<TRIPOS>BOND
     1    1    2 ar 
     2    2    3 ar 
     3    2    4 ar 
     4    2    5 1  
     5    5    6 ar 
     6    5   12 ar 
     7    6    7 ar 
     8    7    8 1  
     9    7   21 ar 
    10    8    9 ar 
    11    8   10 ar 
    12    8   11 ar 
    13   12   13 ar 
    14   13   14 ar 
    15   13   21 ar 
    16   14   15 1  
    17   14   19 ar 
    18   15   16 ar 
    19   15   17 ar 
    20   15   18 ar 
    21   19   20 ar 
    22   20   22 ar 
    23   21   22 ar 
    24   22   23 1  
    25   23   24 am 
    26   24   25 2  
    27   24   26 1  
    28   26   27 ar 
    29   26   28 ar 
    30   27   32 ar 
    31   28   29 ar 
    32   29   30 ar 
    33   30   31 1  
    34   30   32 ar 
    35   32   33 1  
    36   33   34 am 
    37   34   35 2  
    38   34   36 1  
    39   36   37 ar 
    40   36   38 ar 
    41   37   41 ar 
    42   38   39 ar 
    43   39   40 ar 
    44   40   41 ar 
    45   41   42 1  
    46   42   43 am 
    47   43   44 2  
    48   43   45 am 
    49   45   46 1  
    50   46   47 ar 
    51   46   48 ar 
    52   47   51 ar 
    53   48   49 ar 
    54   49   50 ar 
    55   50   51 ar 
    56   51   52 1  
    57   52   53 2  
    58   52   54 am 
    59   54   55 1  
    60   55   56 ar 
    61   55   57 ar 
    62   56   61 ar 
    63   57   58 1  
    64   57   59 ar 
    65   59   60 ar 
    66   60   61 ar 
    67   61   62 1  
    68   62   63 2  
    69   62   64 am 
    70   64   65 1  
    71   65   66 ar 
    72   65   73 ar 
    73   66   67 ar 
    74   67   68 ar 
    75   68   69 1  
    76   68   74 ar 
    77   69   70 ar 
    78   69   71 ar 
    79   69   72 ar 
    80   73   74 ar 
    81   73   76 ar 
    82   74   75 ar 
    83   75   82 ar 
    84   76   77 1  
    85   76   81 ar 
    86   77   78 ar 
    87   77   79 ar 
    88   77   80 ar 
    89   81   82 ar 
    90   82   83 1  
    91   83   84 ar 
    92   83   85 ar 
    93   83   86 ar 
    94    6   87 1  
    95   12   88 1  
    96   19   89 1  
    97   20   90 1  
    98   23   91 1  
    99   27   92 1  
   100   28   93 1  
   101   29   94 1  
   102   31   95 1  
   103   31   96 1  
   104   31   97 1  
   105   33   98 1  
   106   37   99 1  
   107   38  100 1  
   108   39  101 1  
   109   40  102 1  
   110   42  103 1  
   111   45  104 1  
   112   47  105 1  
   113   48  106 1  
   114   49  107 1  
   115   50  108 1  
   116   54  109 1  
   117   56  110 1  
   118   58  111 1  
   119   58  112 1  
   120   58  113 1  
   121   59  114 1  
   122   60  115 1  
   123   64  116 1  
   124   66  117 1  
   125   67  118 1  
   126   75  119 1  
   127   81  120 1  
@<TRIPOS>SUBSTRUCTURE
     1 SVR         1

