3eyd_ligand

Created by X-TOOL on Fri Nov 18 15:36:06 2016
100102  0  0  0  0  0  0  0  0999 V2000
  192.3460  -10.3250   48.9470  C 0  0  0  1  0  3
  189.5460  -10.9270   50.9630  C 0  0  0  1  0  4
  188.6720  -12.0960   51.4340  C 0  0  0  4  0  4
  188.6370   -9.6750   50.9820  C 0  0  0  4  0  4
  190.7020  -10.7260   51.9890  C 0  0  0  4  0  4
  190.3280  -13.4880   47.1650  C 0  0  0  4  0  4
  192.9460  -11.3560   49.2780  O 0  0  0  1  0  1
  190.1620  -11.2790   49.5250  C 0  0  0  2  0  4
  188.4130  -11.5150   44.8980  C 0  0  0  4  0  4
  189.0850  -11.7050   48.5170  C 0  0  0  3  0  4
  191.0190  -10.2200   48.9740  N 0  0  0  2  0  3
  189.6520  -12.1900   47.2450  N 0  0  0  1  0  3
  189.7590  -11.1500   45.9620  S 0  0  0  1  0  4
  189.5940   -9.7950   46.4720  O 0  0  0  1  0  1
  191.0370  -11.4130   45.3510  O 0  0  0  1  0  1
  192.9760   -9.2770   48.4360  N 0  0  0  2  0  3
  194.4300   -9.2280   48.3830  C 0  0  0  2  0  4
  194.9460   -8.7800   47.0240  C 0  0  0  1  0  4
  196.4700   -8.6010   47.1110  C 0  0  0  4  0  4
  194.5860   -9.9040   46.0410  C 0  0  0  4  0  4
  194.2990   -7.4580   46.5600  C 0  0  0  4  0  4
  194.9030   -8.3530   49.5460  C 0  0  0  1  0  3
  194.4650   -7.2090   49.6840  O 0  0  0  1  0  1
  195.7320   -8.9080   50.4420  N 0  0  0  1  0  3
  196.1550  -10.3140   50.4990  C 0  0  0  3  0  4
  196.2370   -8.1490   51.5880  C 0  0  0  2  0  4
  196.6680   -9.1340   52.6290  C 0  0  0  2  0  4
  196.9310  -10.3390   51.7920  C 0  0  0  2  0  4
  196.0340  -10.4630   53.0310  C 0  0  0  1  0  4
  196.5970  -11.1770   54.2340  C 0  0  0  4  0  4
  194.5340  -10.6110   52.8730  C 0  0  0  4  0  4
  197.1920   -7.0320   51.1850  C 0  0  0  1  0  3
  198.0330   -7.2210   50.3050  O 0  0  0  1  0  1
  197.0650   -5.8800   51.8410  N 0  0  0  2  0  3
  197.9050   -4.7220   51.5450  C 0  0  0  3  0  5
  198.8620   -4.0780   52.6850  B 0  0  0  1  0  3
  197.1470   -3.7020   50.6780  C 0  0  0  3  0  4
  196.4430   -4.2600   49.4010  C 0  0  0  2  0  4
  197.2130   -4.2310   48.0560  C 0  0  0  3  0  4
  195.3010   -3.4630   48.7610  C 0  0  0  3  0  4
  196.0200   -3.5080   47.3940  C 0  0  0  3  0  4
  199.5140   -2.9590   52.1940  O 0  0  0  3  0  3
  199.7900   -5.0740   53.0380  O 0  0  0  3  0  3
  188.2460  -11.8610   52.4206  H 0  0  0  1  0  1
  189.2853  -13.0063   51.5069  H 0  0  0  1  0  1
  187.8579  -12.2591   50.7125  H 0  0  0  1  0  1
  189.2134   -8.7984   50.6512  H 0  0  0  1  0  1
  188.2668   -9.5061   52.0040  H 0  0  0  1  0  1
  187.7846   -9.8304   50.3043  H 0  0  0  1  0  1
  191.3550  -11.6112   51.9837  H 0  0  0  1  0  1
  190.2794  -10.5882   52.9952  H 0  0  0  1  0  1
  191.2875   -9.8368   51.7122  H 0  0  0  1  0  1
  190.1556  -14.0491   48.0953  H 0  0  0  1  0  1
  191.4079  -13.3311   47.0262  H 0  0  0  1  0  1
  189.9278  -14.0580   46.3136  H 0  0  0  1  0  1
  190.8118  -12.1533   49.6777  H 0  0  0  1  0  1
  188.4427  -10.8450   44.0261  H 0  0  0  1  0  1
  187.4670  -11.3694   45.4402  H 0  0  0  1  0  1
  188.4852  -12.5594   44.5604  H 0  0  0  1  0  1
  188.4389  -10.8400   48.3065  H 0  0  0  1  0  1
  188.4845  -12.5110   48.9640  H 0  0  0  1  0  1
  190.5916   -9.3936   48.6074  H 0  0  0  1  0  1
  192.4443   -8.5079   48.0813  H 0  0  0  1  0  1
  194.8130  -10.2455   48.5500  H 0  0  0  1  0  1
  196.8574   -8.2767   46.1339  H 0  0  0  1  0  1
  196.9361   -9.5571   47.3912  H 0  0  0  1  0  1
  196.7072   -7.8410   47.8700  H 0  0  0  1  0  1
  193.4925  -10.0143   45.9947  H 0  0  0  1  0  1
  195.0356  -10.8480   46.3827  H 0  0  0  1  0  1
  194.9720   -9.6547   45.0416  H 0  0  0  1  0  1
  194.5586   -6.6552   47.2658  H 0  0  0  1  0  1
  193.2060   -7.5769   46.5258  H 0  0  0  1  0  1
  194.6713   -7.1995   45.5577  H 0  0  0  1  0  1
  196.7924  -10.5775   49.6421  H 0  0  0  1  0  1
  195.2905  -10.9931   50.5355  H 0  0  0  1  0  1
  195.3731   -7.6252   52.0230  H 0  0  0  1  0  1
  197.3630   -8.6749   53.3474  H 0  0  0  1  0  1
  197.9169  -10.8199   51.7100  H 0  0  0  1  0  1
  195.8466  -11.1879   55.0383  H 0  0  0  1  0  1
  197.4997  -10.6535   54.5819  H 0  0  0  1  0  1
  196.8552  -12.2104   53.9595  H 0  0  0  1  0  1
  194.2040  -10.0643   51.9773  H 0  0  0  1  0  1
  194.0295  -10.2001   53.7599  H 0  0  0  1  0  1
  194.2797  -11.6759   52.7669  H 0  0  0  1  0  1
  196.3728   -5.8053   52.5588  H 0  0  0  1  0  1
  198.8030   -5.0569   51.0051  H 0  0  0  1  0  1
  198.2024   -4.2419   52.4890  H 0  0  0  1  0  1
  197.8681   -2.9369   50.3547  H 0  0  0  1  0  1
  196.3754   -3.2357   51.3082  H 0  0  0  1  0  1
  196.1210   -5.2803   49.6567  H 0  0  0  1  0  1
  197.4244   -5.2259   47.6372  H 0  0  0  1  0  1
  198.1398   -3.6391   48.0810  H 0  0  0  1  0  1
  195.1795   -2.4489   49.1693  H 0  0  0  1  0  1
  194.3312   -3.9820   48.7737  H 0  0  0  1  0  1
  195.4991   -4.1045   46.6305  H 0  0  0  1  0  1
  196.2656   -2.5183   46.9815  H 0  0  0  1  0  1
  200.0172   -3.1991   51.4248  H 0  0  0  1  0  1
  200.0172   -3.1991   51.4248  H 0  0  0  1  0  1
  199.3265   -5.8330   53.3722  H 0  0  0  1  0  1
  199.3265   -5.8329   53.3722  H 0  0  0  1  0  1
  1  7  2  0  0  2
 11  1  1  0  0  2
  1 16  1  0  0  2
  2  3  1  0  0  2
  2  4  1  0  0  2
  2  5  1  0  0  2
  8  2  1  0  0  2
 12  6  1  0  0  2
 10  8  1  0  0  2
  8 11  1  0  0  2
 13  9  1  0  0  2
 12 10  1  0  0  2
 12 13  1  0  0  2
 13 14  2  0  0  2
 13 15  2  0  0  2
 16 17  1  0  0  2
 17 18  1  0  0  2
 17 22  1  0  0  2
 18 19  1  0  0  2
 18 20  1  0  0  2
 18 21  1  0  0  2
 22 23  2  0  0  2
 22 24  1  0  0  2
 24 25  1  0  0  1
 24 26  1  0  0  1
 25 28  1  0  0  1
 26 27  1  0  0  1
 26 32  1  0  0  2
 27 28  1  0  0  1
 27 29  1  0  0  1
 28 29  1  0  0  1
 29 30  1  0  0  2
 29 31  1  0  0  2
 32 33  2  0  0  2
 32 34  1  0  0  2
 34 35  1  0  0  2
 35 36  1  0  0  2
 35 37  1  0  0  2
 36 42  1  0  0  2
 36 43  1  0  0  2
 37 38  1  0  0  2
 38 39  1  0  0  1
 38 40  1  0  0  1
 39 41  1  0  0  1
 40 41  1  0  0  1
  3 44  1  0  0  2
  3 45  1  0  0  2
  3 46  1  0  0  2
  4 47  1  0  0  2
  4 48  1  0  0  2
  4 49  1  0  0  2
  5 50  1  0  0  2
  5 51  1  0  0  2
  5 52  1  0  0  2
  6 53  1  0  0  2
  6 54  1  0  0  2
  6 55  1  0  0  2
  8 56  1  0  0  2
  9 57  1  0  0  2
  9 58  1  0  0  2
  9 59  1  0  0  2
 10 60  1  0  0  2
 10 61  1  0  0  2
 11 62  1  0  0  2
 16 63  1  0  0  2
 17 64  1  0  0  2
 19 65  1  0  0  2
 19 66  1  0  0  2
 19 67  1  0  0  2
 20 68  1  0  0  2
 20 69  1  0  0  2
 20 70  1  0  0  2
 21 71  1  0  0  2
 21 72  1  0  0  2
 21 73  1  0  0  2
 25 74  1  0  0  2
 25 75  1  0  0  2
 26 76  1  0  0  2
 27 77  1  0  0  2
 28 78  1  0  0  2
 30 79  1  0  0  2
 30 80  1  0  0  2
 30 81  1  0  0  2
 31 82  1  0  0  2
 31 83  1  0  0  2
 31 84  1  0  0  2
 34 85  1  0  0  2
 35 86  1  0  0  2
 35 87  1  0  0  2
 37 88  1  0  0  2
 37 89  1  0  0  2
 38 90  1  0  0  2
 39 91  1  0  0  2
 39 92  1  0  0  2
 40 93  1  0  0  2
 40 94  1  0  0  2
 41 95  1  0  0  2
 41 96  1  0  0  2
 42 97  1  0  0  2
 42 98  1  0  0  2
 43 99  1  0  0  2
 43100  1  0  0  2
M  END
> <MOLECULAR_FORMULA>
C29H57N5O7SB

> <MOLECULAR_WEIGHT>
630.2

> <NUM_HB_ATOMS>
10 

> <NUM_ROTOR>
10 

> <XLOGP2>
2.76 

$$$$
