#	Name:			3eyd_ligand
#	Creating user name:	wangrx
#	Creation time:		Wed Aug  4 16:39:52 2021

#	Modifying user name:	wangrx
#	Modification time:	Wed Aug  4 16:40:26 2021

@<TRIPOS>MOLECULE
3eyd_ligand
   99   101     1     0     0
SMALL
GAST_HUCK


@<TRIPOS>ATOM
      1 C1        192.3460  -10.3250   48.9470 C.2       1 BE8         0.2600 
      2 C6        189.5460  -10.9270   50.9630 C.3       1 BE8        -0.0134 
      3 C7        188.6720  -12.0960   51.4340 C.3       1 BE8        -0.0579 
      4 C8        188.6370   -9.6750   50.9820 C.3       1 BE8        -0.0579 
      5 C9        190.7020  -10.7260   51.9890 C.3       1 BE8        -0.0579 
      6 C11       190.3280  -13.4880   47.1650 C.3       1 BE8         0.0179 
      7 O2        192.9460  -11.3560   49.2780 O.2       1 BE8        -0.4007 
      8 C4        190.1620  -11.2790   49.5250 C.3       1 BE8         0.0642 
      9 C15       188.4130  -11.5150   44.8980 C.3       1 BE8         0.0734 
     10 C5        189.0850  -11.7050   48.5170 C.3       1 BE8         0.0522 
     11 N3        191.0190  -10.2200   48.9740 N.am      1 BE8        -0.2679 
     12 N10       189.6520  -12.1900   47.2450 N.am      1 BE8        -0.2395 
     13 S12       189.7590  -11.1500   45.9620 S.o2      1 BE8         0.0383 
     14 O13       189.5940   -9.7950   46.4720 O.2       1 BE8        -0.1556 
     15 O14       191.0370  -11.4130   45.3510 O.2       1 BE8        -0.1556 
     16 N16       192.9760   -9.2770   48.4360 N.am      1 BE8        -0.2514 
     17 C17       194.4300   -9.2280   48.3830 C.3       1 BE8         0.1363 
     18 C18       194.9460   -8.7800   47.0240 C.3       1 BE8         0.0023 
     19 C19       196.4700   -8.6010   47.1110 C.3       1 BE8        -0.0558 
     20 C20       194.5860   -9.9040   46.0410 C.3       1 BE8        -0.0558 
     21 C21       194.2990   -7.4580   46.5600 C.3       1 BE8        -0.0558 
     22 C22       194.9030   -8.3530   49.5460 C.2       1 BE8         0.2067 
     23 O23       194.4650   -7.2090   49.6840 O.2       1 BE8        -0.3942 
     24 N24       195.7320   -8.9080   50.4420 N.am      1 BE8        -0.2493 
     25 C25       196.1550  -10.3140   50.4990 C.3       1 BE8         0.0405 
     26 C26       196.2370   -8.1490   51.5880 C.3       1 BE8         0.1348 
     27 C27       196.6680   -9.1340   52.6290 C.3       1 BE8         0.0101 
     28 C28       196.9310  -10.3390   51.7920 C.3       1 BE8        -0.0073 
     29 C29       196.0340  -10.4630   53.0310 C.3       1 BE8        -0.0224 
     30 C30       196.5970  -11.1770   54.2340 C.3       1 BE8        -0.0590 
     31 C31       194.5340  -10.6110   52.8730 C.3       1 BE8        -0.0590 
     32 C32       197.1920   -7.0320   51.1850 C.2       1 BE8         0.1740 
     33 O33       198.0330   -7.2210   50.3050 O.2       1 BE8        -0.3971 
     34 N34       197.0650   -5.8800   51.8410 N.am      1 BE8        -0.4362 
     35 C35       197.9050   -4.7220   51.5450 C.3       1 BE8        -0.2260 
     36 B36       198.8620   -4.0780   52.6850 B         1 BE8         3.0000 
     37 C37       197.1470   -3.7020   50.6780 C.3       1 BE8        -0.1580 
     38 C38       196.4430   -4.2600   49.4010 C.3       1 BE8        -0.0664 
     39 C39       197.2130   -4.2310   48.0560 C.3       1 BE8        -0.0525 
     40 C40       195.3010   -3.4630   48.7610 C.3       1 BE8        -0.0525 
     41 C41       196.0200   -3.5080   47.3940 C.3       1 BE8        -0.0527 
     42 O42       199.5140   -2.9590   52.1940 O.3       1 BE8        -0.4105 
     43 O43       199.7900   -5.0740   53.0380 O.3       1 BE8        -0.4105 
     44 H1        188.2460  -11.8610   52.4206 H         1 BE8         0.0236 
     45 H2        189.2853  -13.0063   51.5069 H         1 BE8         0.0236 
     46 H3        187.8579  -12.2591   50.7125 H         1 BE8         0.0236 
     47 H4        189.2134   -8.7984   50.6512 H         1 BE8         0.0236 
     48 H5        188.2668   -9.5061   52.0040 H         1 BE8         0.0236 
     49 H6        187.7846   -9.8304   50.3043 H         1 BE8         0.0236 
     50 H7        191.3550  -11.6112   51.9837 H         1 BE8         0.0236 
     51 H8        190.2794  -10.5882   52.9952 H         1 BE8         0.0236 
     52 H9        191.2875   -9.8368   51.7122 H         1 BE8         0.0236 
     53 H10       190.1556  -14.0491   48.0953 H         1 BE8         0.0442 
     54 H11       191.4079  -13.3311   47.0262 H         1 BE8         0.0442 
     55 H12       189.9278  -14.0580   46.3136 H         1 BE8         0.0442 
     56 H13       190.8118  -12.1533   49.6777 H         1 BE8         0.0574 
     57 H14       188.4427  -10.8450   44.0261 H         1 BE8         0.0482 
     58 H15       187.4670  -11.3694   45.4402 H         1 BE8         0.0482 
     59 H16       188.4852  -12.5594   44.5604 H         1 BE8         0.0482 
     60 H17       188.4389  -10.8400   48.3065 H         1 BE8         0.0500 
     61 H18       188.4845  -12.5110   48.9640 H         1 BE8         0.0500 
     62 H19       190.5916   -9.3936   48.6074 H         1 BE8         0.1849 
     63 H20       192.4443   -8.5079   48.0813 H         1 BE8         0.1877 
     64 H21       194.8130  -10.2455   48.5500 H         1 BE8         0.0802 
     65 H22       196.8574   -8.2767   46.1339 H         1 BE8         0.0237 
     66 H23       196.9361   -9.5571   47.3912 H         1 BE8         0.0237 
     67 H24       196.7072   -7.8410   47.8700 H         1 BE8         0.0237 
     68 H25       193.4925  -10.0143   45.9947 H         1 BE8         0.0237 
     69 H26       195.0356  -10.8480   46.3827 H         1 BE8         0.0237 
     70 H27       194.9720   -9.6547   45.0416 H         1 BE8         0.0237 
     71 H28       194.5586   -6.6552   47.2658 H         1 BE8         0.0237 
     72 H29       193.2060   -7.5769   46.5258 H         1 BE8         0.0237 
     73 H30       194.6713   -7.1995   45.5577 H         1 BE8         0.0237 
     74 H31       196.7924  -10.5775   49.6421 H         1 BE8         0.0527 
     75 H32       195.2905  -10.9931   50.5355 H         1 BE8         0.0527 
     76 H33       195.3731   -7.6252   52.0230 H         1 BE8         0.0804 
     77 H34       197.3630   -8.6749   53.3474 H         1 BE8         0.0357 
     78 H35       197.9169  -10.8199   51.7100 H         1 BE8         0.0331 
     79 H36       195.8466  -11.1879   55.0383 H         1 BE8         0.0235 
     80 H37       197.4997  -10.6535   54.5819 H         1 BE8         0.0235 
     81 H38       196.8552  -12.2104   53.9595 H         1 BE8         0.0235 
     82 H39       194.2040  -10.0643   51.9773 H         1 BE8         0.0235 
     83 H40       194.0295  -10.2001   53.7599 H         1 BE8         0.0235 
     84 H41       194.2797  -11.6759   52.7669 H         1 BE8         0.0235 
     85 H42       196.3728   -5.8053   52.5588 H         1 BE8         0.1459 
     86 H43       198.8030   -5.0569   51.0051 H         1 BE8        -0.1822 
     87 H45       197.8681   -2.9369   50.3547 H         1 BE8        -0.0063 
     88 H46       196.3754   -3.2357   51.3082 H         1 BE8        -0.0063 
     89 H47       196.1210   -5.2803   49.6567 H         1 BE8         0.0277 
     90 H48       197.4244   -5.2259   47.6372 H         1 BE8         0.0267 
     91 H49       198.1398   -3.6391   48.0810 H         1 BE8         0.0267 
     92 H50       195.1795   -2.4489   49.1693 H         1 BE8         0.0267 
     93 H51       194.3312   -3.9820   48.7737 H         1 BE8         0.0267 
     94 H52       195.4991   -4.1045   46.6305 H         1 BE8         0.0265 
     95 H53       196.2656   -2.5183   46.9815 H         1 BE8         0.0265 
     96 H54       200.0172   -3.1991   51.4248 H         1 BE8         0.2052 
     97 H55       200.0172   -3.1991   51.4248 H         1 BE8         0.2052 
     98 H56       199.3265   -5.8330   53.3722 H         1 BE8         0.2052 
     99 H57       199.3265   -5.8329   53.3722 H         1 BE8         0.2052 
@<TRIPOS>BOND
     1    1    7 2    
     2   11    1 am   
     3    1   16 am   
     4    2    3 1    
     5    2    4 1    
     6    2    5 1    
     7    8    2 1    
     8   12    6 1    
     9   10    8 1    
    10    8   11 1    
    11   13    9 1    
    12   12   10 1    
    13   12   13 am   
    14   13   14 2    
    15   13   15 2    
    16   16   17 1    
    17   17   18 1    
    18   17   22 1    
    19   18   19 1    
    20   18   20 1    
    21   18   21 1    
    22   22   23 2    
    23   22   24 am   
    24   24   25 1    
    25   24   26 1    
    26   25   28 1    
    27   26   27 1    
    28   26   32 1    
    29   27   28 1    
    30   27   29 1    
    31   28   29 1    
    32   29   30 1    
    33   29   31 1    
    34   32   33 2    
    35   32   34 am   
    36   34   35 1    
    37   35   36 1    
    38   35   37 1    
    39   36   42 1    
    40   36   43 1    
    41   37   38 1    
    42   38   39 1    
    43   38   40 1    
    44   39   41 1    
    45   40   41 1    
    46    3   44 1    
    47    3   45 1    
    48    3   46 1    
    49    4   47 1    
    50    4   48 1    
    51    4   49 1    
    52    5   50 1    
    53    5   51 1    
    54    5   52 1    
    55    6   53 1    
    56    6   54 1    
    57    6   55 1    
    58    8   56 1    
    59    9   57 1    
    60    9   58 1    
    61    9   59 1    
    62   10   60 1    
    63   10   61 1    
    64   11   62 1    
    65   16   63 1    
    66   17   64 1    
    67   19   65 1    
    68   19   66 1    
    69   19   67 1    
    70   20   68 1    
    71   20   69 1    
    72   20   70 1    
    73   21   71 1    
    74   21   72 1    
    75   21   73 1    
    76   25   74 1    
    77   25   75 1    
    78   26   76 1    
    79   27   77 1    
    80   28   78 1    
    81   30   79 1    
    82   30   80 1    
    83   30   81 1    
    84   31   82 1    
    85   31   83 1    
    86   31   84 1    
    87   34   85 1    
    88   35   86 1    
    89   37   87 1    
    90   37   88 1    
    91   38   89 1    
    92   39   90 1    
    93   39   91 1    
    94   40   92 1    
    95   40   93 1    
    96   41   94 1    
    97   41   95 1    
    98   42   96 1    
    99   42   97 1    
   100   43   98 1    
   101   43   99 1    
@<TRIPOS>SUBSTRUCTURE
     1 BE8         1 PERM              0 ****  ****    0 ROOT 
