5he5_ligand
  -I-interpret- 

 48 51  0  0  0  0  0  0  0  0999 V2000
   21.4330   10.6440   21.6660 C   0  0  0  0  0
   20.9810   12.0110   22.1860 C   0  0  0  0  0
   22.3380   10.2470   23.9380 C   0  0  0  0  0
   21.8230   12.5410   23.3110 C   0  0  0  0  0
   17.7670   10.3640   21.8390 C   0  0  0  0  0
   15.6640   10.6020   22.7400 C   0  0  0  0  0
   22.5560   10.7630   20.7050 C   0  0  0  0  0
   17.3660    9.5080   20.8860 N   0  0  0  0  0
   15.1820    9.7340   21.7870 C   0  0  0  0  0
   19.5760   11.8160   22.7000 C   0  0  0  0  0
   22.6310   11.3320   19.4420 C   0  0  0  0  0
   24.8580   10.7230   19.7400 C   0  0  0  0  0
   23.9400   11.3000   18.8860 C   0  0  0  0  0
   22.4850   11.6060   24.0710 N   0  0  0  0  0
   21.7300    9.7890   22.8070 N   0  0  0  0  0
   16.9650   10.9010   22.7710 N   0  0  0  0  0
   19.1380   10.6950   21.8860 N   0  0  0  0  0
   20.1530   10.1430   21.0250 C   0  0  0  0  0
   24.1060   10.1820   21.1800 S   0  0  0  0  0
   16.0660    9.1880   20.8870 C   0  0  0  0  0
   14.7530   11.1280   23.6640 N   0  0  0  0  0
   27.4000   10.4700   19.4910 N   0  0  0  0  0
   22.7730    9.4530   24.8590 N   0  0  0  0  0
   26.2470   10.5630   19.5530 C   0  0  0  0  0
   21.8480   13.7390   23.5580 O   0  0  0  0  0
   13.8830    9.4030   21.7980 F   0  0  0  0  0
   23.3440   12.1100   25.1280 C   0  0  0  0  0
   15.6180    8.2240   19.8230 C   0  0  0  0  0
   15.2090   12.3780   24.2750 C   0  0  0  0  0
   21.0625   12.7347   21.3750 H   0  0  0  0  0
   18.9457   12.7007   22.6092 H   0  0  0  0  0
   19.5198   11.6314   23.7728 H   0  0  0  0  0
   21.7718   11.7612   18.9266 H   0  0  0  0  0
   24.1896   11.6871   17.8981 H   0  0  0  0  0
   21.4716    8.8035   22.7577 H   0  0  0  0  0
   20.1078    9.0563   20.9528 H   0  0  0  0  0
   20.0461   10.4520   19.9852 H   0  0  0  0  0
   13.8620   10.6853   23.8887 H   0  0  0  0  0
   23.2275    9.8347   25.6886 H   0  0  0  0  0
   22.9650   11.7746   26.0934 H   0  0  0  0  0
   24.3563   11.7328   24.9827 H   0  0  0  0  0
   23.3532   13.1996   25.0985 H   0  0  0  0  0
   15.8229    8.6486   18.8402 H   0  0  0  0  0
   16.1595    7.2846   19.9344 H   0  0  0  0  0
   14.5481    8.0426   19.9260 H   0  0  0  0  0
   16.1479   12.2028   24.8002 H   0  0  0  0  0
   15.3603   13.1269   23.4976 H   0  0  0  0  0
   14.4571   12.7316   24.9805 H   0  0  0  0  0
  2  1  1  0  0  0
  1  7  1  0  0  0
  1 15  1  0  0  0
  1 18  1  0  0  0
  2  4  1  0  0  0
 10  2  1  0  0  0
 14  3  4  0  0  0
 15  3  1  0  0  0
  3 23  2  0  0  0
  4 14  1  0  0  0
  4 25  2  0  0  0
  5  8  4  0  0  0
  5 16  4  0  0  0
 17  5  1  0  0  0
  6  9  4  0  0  0
 16  6  4  0  0  0
  6 21  1  0  0  0
  7 11  4  0  0  0
  7 19  4  0  0  0
  8 20  4  0  0  0
 20  9  4  0  0  0
  9 26  1  0  0  0
 10 17  1  0  0  0
 11 13  4  0  0  0
 13 12  4  0  0  0
 12 19  4  0  0  0
 12 24  1  0  0  0
 14 27  1  0  0  0
 17 18  1  0  0  0
 20 28  1  0  0  0
 21 29  1  0  0  0
 24 22  3  0  0  0
  2 30  1  0  0  0
 10 31  1  0  0  0
 10 32  1  0  0  0
 11 33  1  0  0  0
 13 34  1  0  0  0
 15 35  1  0  0  0
 18 36  1  0  0  0
 18 37  1  0  0  0
 21 38  1  0  0  0
 23 39  1  0  0  0
 27 40  1  0  0  0
 27 41  1  0  0  0
 27 42  1  0  0  0
 28 43  1  0  0  0
 28 44  1  0  0  0
 28 45  1  0  0  0
 29 46  1  0  0  0
 29 47  1  0  0  0
 29 48  1  0  0  0
M  END
$$$$
