6b0y_ligand
  -I-interpret- 

 48 51  0  0  0  0  0  0  0  0999 V2000
  -10.4400    9.1990   15.6660 C   0  0  0  0  0
  -10.7990   10.9900   17.2890 C   0  0  0  0  0
  -12.8820   12.1570   17.4720 C   0  0  0  0  0
   -9.9880    9.2710   14.3830 C   0  0  0  0  0
   -9.2000    8.3740   13.8110 C   0  0  0  0  0
   -8.4120    5.6300   10.5310 C   0  0  0  0  0
   -5.2600    3.6410    7.5810 C   0  0  0  0  0
   -7.7470    5.2810    7.9110 O   0  0  0  0  0
   -6.7680    5.2600    8.7080 C   0  0  0  0  0
   -7.0410    5.4460   10.0100 N   0  0  0  0  0
   -5.9910    5.4810   11.0510 C   0  0  0  0  0
   -6.5390    5.0530   12.3770 C   0  0  0  0  0
   -7.4980    6.0670   12.7180 N   0  0  0  0  0
   -7.9180    6.2050   14.0110 C   0  0  0  0  0
   -7.4670    5.2130   14.8830 N   0  0  0  0  0
   -7.9080    5.1620   16.1140 C   0  0  0  0  0
   -8.7000    6.1430   16.6310 N   0  0  0  0  0
   -9.1980    7.1360   15.8080 C   0  0  0  0  0
  -10.0040    8.1040   16.3830 C   0  0  0  0  0
  -11.3160   10.2450   16.2920 C   0  0  0  0  0
  -11.5760   11.9630   17.9180 C   0  0  0  0  0
  -13.3930   11.4840   16.4110 C   0  0  0  0  0
  -12.5970   10.5140   15.7960 C   0  0  0  0  0
  -13.0770    9.7590   14.7890 F   0  0  0  0  0
   -8.7310    7.2760   14.5170 C   0  0  0  0  0
  -10.4080   10.7000   13.3750 Cl  0  0  0  0  0
   -8.3610    6.5990   11.6600 C   0  0  0  0  0
   -5.3730    5.0510    8.1430 C   0  0  0  0  0
   -9.7681   10.8314   17.6056 H   0  0  0  0  0
  -13.5149   12.8746   17.9940 H   0  0  0  0  0
   -8.9147    8.5006   12.7666 H   0  0  0  0  0
   -8.8103    4.6760   10.8766 H   0  0  0  0  0
   -9.0620    6.0101    9.7429 H   0  0  0  0  0
   -5.4428    2.9185    8.3764 H   0  0  0  0  0
   -5.9974    3.5065    6.7896 H   0  0  0  0  0
   -4.2591    3.4918    7.1759 H   0  0  0  0  0
   -5.6181    6.5015   11.1386 H   0  0  0  0  0
   -5.1911    4.7979   10.7652 H   0  0  0  0  0
   -5.7569    4.9622   13.1308 H   0  0  0  0  0
   -6.9925    4.0629   12.3299 H   0  0  0  0  0
   -7.6350    4.3136   16.7415 H   0  0  0  0  0
  -10.3009    7.9984   17.4265 H   0  0  0  0  0
  -11.1717   12.5567   18.7379 H   0  0  0  0  0
  -14.3988   11.6944   16.0474 H   0  0  0  0  0
   -9.3659    6.7539   12.0529 H   0  0  0  0  0
   -7.9608    7.5493   11.3067 H   0  0  0  0  0
   -5.1902    5.7747    7.3487 H   0  0  0  0  0
   -4.6360    5.1871    8.9345 H   0  0  0  0  0
  4  1  4  0  0  0
  1 19  4  0  0  0
  1 20  1  0  0  0
 20  2  4  0  0  0
  2 21  4  0  0  0
 21  3  4  0  0  0
  3 22  4  0  0  0
  5  4  4  0  0  0
  4 26  1  0  0  0
 25  5  4  0  0  0
  6 10  1  0  0  0
 27  6  1  0  0  0
 28  7  1  0  0  0
  9  8  2  0  0  0
 10  9  1  0  0  0
  9 28  1  0  0  0
 11 10  1  0  0  0
 12 11  1  0  0  0
 13 12  1  0  0  0
 14 13  1  0  0  0
 13 27  1  0  0  0
 14 15  4  0  0  0
 14 25  4  0  0  0
 15 16  4  0  0  0
 16 17  4  0  0  0
 17 18  4  0  0  0
 18 19  4  0  0  0
 18 25  4  0  0  0
 20 23  4  0  0  0
 22 23  4  0  0  0
 23 24  1  0  0  0
  2 29  1  0  0  0
  3 30  1  0  0  0
  5 31  1  0  0  0
  6 32  1  0  0  0
  6 33  1  0  0  0
  7 34  1  0  0  0
  7 35  1  0  0  0
  7 36  1  0  0  0
 11 37  1  0  0  0
 11 38  1  0  0  0
 12 39  1  0  0  0
 12 40  1  0  0  0
 16 41  1  0  0  0
 19 42  1  0  0  0
 21 43  1  0  0  0
 22 44  1  0  0  0
 27 45  1  0  0  0
 27 46  1  0  0  0
 28 47  1  0  0  0
 28 48  1  0  0  0
M  END
$$$$
