6q8p_ligand
  -I-interpret- 

 28 30  0  0  0  0  0  0  0  0999 V2000
  -13.5880    4.2630   36.5330 C   0  0  0  0  0
  -13.4750    4.6770   37.8240 C   0  0  0  0  0
  -13.2330    2.5560   38.6130 C   0  0  0  0  0
  -13.3350    1.9890   37.3210 C   0  0  0  0  0
  -13.2510    0.6190   37.0820 C   0  0  0  0  0
  -13.3080    0.0570   35.8040 C   0  0  0  0  0
  -13.4770    0.9270   34.6980 C   0  0  0  0  0
  -13.5900    2.3330   34.9410 C   0  0  0  0  0
  -13.3460   -0.8580   33.2550 C   0  0  0  0  0
  -13.3880   -0.4520   30.8360 C   0  0  0  0  0
  -13.1790   -1.3090   35.4520 C   0  0  0  0  0
  -14.6180    4.0890   33.9100 O   0  0  0  0  0
  -13.7670    3.2190   33.8220 N   0  0  0  0  0
  -13.0460    3.0740   32.8490 O   0  0  0  0  0
  -13.5140    2.8810   36.2350 C   0  0  0  0  0
  -13.5010    0.4640   33.4150 N   0  0  0  0  0
  -13.2950   -1.3080   31.9960 N   0  0  0  0  0
  -13.1950   -1.7710   34.2230 N   0  0  0  0  0
  -13.2970    3.8530   38.8650 N   0  0  0  0  0
  -13.7344    4.9899   35.7341 H   0  0  0  0  0
  -13.5330    5.7469   38.0239 H   0  0  0  0  0
  -13.0924    1.8798   39.4562 H   0  0  0  0  0
  -13.1349   -0.0486   37.9357 H   0  0  0  0  0
  -14.3419    0.0753   30.8507 H   0  0  0  0  0
  -12.5718    0.2703   30.8527 H   0  0  0  0  0
  -13.3202   -1.0580   29.9325 H   0  0  0  0  0
  -13.0575   -2.0296   36.2608 H   0  0  0  0  0
  -13.1843   -2.3110   31.8470 H   0  0  0  0  0
  2  1  4  0  0  0
  1 15  4  0  0  0
 19  2  4  0  0  0
  3  4  4  0  0  0
  3 19  4  0  0  0
  4  5  4  0  0  0
  4 15  4  0  0  0
  5  6  4  0  0  0
  6  7  4  0  0  0
  6 11  4  0  0  0
  7  8  4  0  0  0
  7 16  4  0  0  0
  8 13  1  0  0  0
  8 15  4  0  0  0
 16  9  4  0  0  0
  9 17  1  0  0  0
  9 18  4  0  0  0
 17 10  1  0  0  0
 11 18  4  0  0  0
 13 12  2  0  0  0
 13 14  2  0  0  0
  1 20  1  0  0  0
  2 21  1  0  0  0
  3 22  1  0  0  0
  5 23  1  0  0  0
 10 24  1  0  0  0
 10 25  1  0  0  0
 10 26  1  0  0  0
 11 27  1  0  0  0
 17 28  1  0  0  0
M  END
$$$$
