1s3k_ligand
  -I-interpret- 

 91 94  0  0  0  0  0  0  0  0999 V2000
  -36.5030   46.2510   15.6590 C   0  0  0  0  0
  -37.5680   47.2350   16.1480 C   0  0  0  0  0
  -38.6740   46.4810   16.8880 C   0  0  0  0  0
  -38.0680   45.6660   18.0300 C   0  0  0  0  0
  -37.0060   44.7220   17.4690 C   0  0  0  0  0
  -36.2940   43.9450   18.5580 C   0  0  0  0  0
  -38.1210   47.9380   15.0460 O   0  0  0  0  0
  -39.6240   47.4030   17.4030 O   0  0  0  0  0
  -37.4680   46.5450   18.9770 O   0  0  0  0  0
  -36.0010   45.4840   16.7550 O   0  0  0  0  0
  -36.4530   43.3880   13.4410 C   0  0  0  0  0
  -36.0460   44.8300   13.7850 C   0  0  0  0  0
  -35.9170   45.6280   12.4880 C   0  0  0  0  0
  -34.8730   44.9570   11.5950 C   0  0  0  0  0
  -35.3180   43.5150   11.3250 C   0  0  0  0  0
  -34.3480   42.7310   10.4540 C   0  0  0  0  0
  -37.0280   45.4430   14.6390 O   0  0  0  0  0
  -35.5420   46.9710   12.7630 O   0  0  0  0  0
  -33.6170   44.9550   12.2620 O   0  0  0  0  0
  -35.4620   42.7980   12.5720 O   0  0  0  0  0
  -33.0300   42.7620   10.9820 O   0  0  0  0  0
  -38.8550   39.2100   15.5750 C   0  0  0  0  0
  -37.4000   38.9760   15.1180 C   0  0  0  0  0
  -36.5700   40.2590   15.2520 C   0  0  0  0  0
  -37.2740   41.3850   14.4910 C   0  0  0  0  0
  -38.6940   41.5550   15.0590 C   0  0  0  0  0
  -39.4790   42.6460   14.3660 C   0  0  0  0  0
  -36.2470   36.8650   15.2440 C   0  0  0  0  0
  -35.6940   35.7290   16.0890 C   0  0  0  0  0
  -39.4370   40.3300   14.8890 O   0  0  0  0  0
  -35.2670   40.0340   14.6830 O   0  0  0  0  0
  -36.5340   42.6230   14.6000 O   0  0  0  0  0
  -40.7200   42.8820   15.0230 O   0  0  0  0  0
  -36.1800   36.7970   14.0160 O   0  0  0  0  0
  -36.7930   37.9000   15.8790 N   0  0  0  0  0
  -38.9070   39.4530   16.9360 O   0  0  0  0  0
  -34.2280   39.8330   15.6010 C   0  0  0  0  0
  -33.0510   39.1570   14.8860 C   0  0  0  0  0
  -32.5180   40.1010   13.8000 C   0  0  0  0  0
  -32.1290   41.4440   14.4270 C   0  0  0  0  0
  -33.3130   42.0310   15.2130 C   0  0  0  0  0
  -32.9430   43.2870   15.9840 C   0  0  0  0  0
  -33.4780   37.9300   14.3050 O   0  0  0  0  0
  -31.3810   39.5200   13.1710 O   0  0  0  0  0
  -31.0280   41.2440   15.3010 O   0  0  0  0  0
  -33.7920   41.0620   16.1750 O   0  0  0  0  0
  -35.6614   46.8009   15.2378 H   0  0  0  0  0
  -37.1041   47.9482   16.8294 H   0  0  0  0  0
  -39.1741   45.8058   16.1937 H   0  0  0  0  0
  -38.8511   45.0868   18.5193 H   0  0  0  0  0
  -37.5243   44.0233   16.8122 H   0  0  0  0  0
  -35.5583   43.2796   18.1061 H   0  0  0  0  0
  -35.7919   44.6409   19.2301 H   0  0  0  0  0
  -37.0214   43.3576   19.1183 H   0  0  0  0  0
  -37.4228   48.4091   14.5855 H   0  0  0  0  0
  -39.9999   47.9107   16.6802 H   0  0  0  0  0
  -38.1357   47.1380   19.3293 H   0  0  0  0  0
  -37.4239   43.4103   12.9460 H   0  0  0  0  0
  -35.0929   44.8186   14.3138 H   0  0  0  0  0
  -36.8795   45.6459   11.9767 H   0  0  0  0  0
  -34.7764   45.4973   10.6533 H   0  0  0  0  0
  -36.2653   43.5959   10.7919 H   0  0  0  0  0
  -34.3327   43.1830    9.4623 H   0  0  0  0  0
  -34.6799   41.6934   10.4164 H   0  0  0  0  0
  -35.4659   47.4561   11.9381 H   0  0  0  0  0
  -32.9598   44.5341   11.7030 H   0  0  0  0  0
  -32.4454   42.2593   10.4100 H   0  0  0  0  0
  -39.4174   38.3066   15.3389 H   0  0  0  0  0
  -37.4190   38.6905   14.0662 H   0  0  0  0  0
  -36.4673   40.5343   16.3016 H   0  0  0  0  0
  -37.3288   41.1260   13.4336 H   0  0  0  0  0
  -38.5703   41.8195   16.1092 H   0  0  0  0  0
  -39.6810   42.3330   13.3416 H   0  0  0  0  0
  -38.8928   43.5647   14.3879 H   0  0  0  0  0
  -36.2182   34.8058   15.8421 H   0  0  0  0  0
  -34.6300   35.6102   15.8842 H   0  0  0  0  0
  -35.8386   35.9593   17.1445 H   0  0  0  0  0
  -41.1968   43.5772   14.5637 H   0  0  0  0  0
  -36.7846   37.9365   16.8983 H   0  0  0  0  0
  -39.8189   39.5957   17.1998 H   0  0  0  0  0
  -34.5996   39.1993   16.4062 H   0  0  0  0  0
  -32.2576   38.9435   15.6023 H   0  0  0  0  0
  -33.2967   40.2632   13.0548 H   0  0  0  0  0
  -31.8555   42.1436   13.6371 H   0  0  0  0  0
  -34.0749   42.2820   14.4750 H   0  0  0  0  0
  -32.1519   43.0544   16.6968 H   0  0  0  0  0
  -32.5939   44.0495   15.2878 H   0  0  0  0  0
  -33.8188   43.6549   16.5186 H   0  0  0  0  0
  -32.7367   37.5130   13.8597 H   0  0  0  0  0
  -31.0527   40.1152   12.4931 H   0  0  0  0  0
  -30.7792   42.0822   15.6974 H   0  0  0  0  0
  1  2  1  0  0  0
  1 10  1  0  0  0
 17  1  1  0  0  0
  2  3  1  0  0  0
  2  7  1  0  0  0
  3  4  1  0  0  0
  3  8  1  0  0  0
  5  4  1  0  0  0
  4  9  1  0  0  0
  5  6  1  0  0  0
 10  5  1  0  0  0
 11 12  1  0  0  0
 11 20  1  0  0  0
 32 11  1  0  0  0
 12 13  1  0  0  0
 12 17  1  0  0  0
 13 14  1  0  0  0
 13 18  1  0  0  0
 15 14  1  0  0  0
 14 19  1  0  0  0
 15 16  1  0  0  0
 20 15  1  0  0  0
 16 21  1  0  0  0
 23 22  1  0  0  0
 22 30  1  0  0  0
 22 36  1  0  0  0
 23 24  1  0  0  0
 35 23  1  0  0  0
 24 25  1  0  0  0
 24 31  1  0  0  0
 25 26  1  0  0  0
 25 32  1  0  0  0
 26 27  1  0  0  0
 30 26  1  0  0  0
 27 33  1  0  0  0
 28 29  1  0  0  0
 28 34  2  0  0  0
 28 35  1  0  0  0
 31 37  1  0  0  0
 37 38  1  0  0  0
 37 46  1  0  0  0
 38 39  1  0  0  0
 38 43  1  0  0  0
 39 40  1  0  0  0
 39 44  1  0  0  0
 40 41  1  0  0  0
 40 45  1  0  0  0
 41 42  1  0  0  0
 41 46  1  0  0  0
  1 47  1  0  0  0
  2 48  1  0  0  0
  3 49  1  0  0  0
  4 50  1  0  0  0
  5 51  1  0  0  0
  6 52  1  0  0  0
  6 53  1  0  0  0
  6 54  1  0  0  0
  7 55  1  0  0  0
  8 56  1  0  0  0
  9 57  1  0  0  0
 11 58  1  0  0  0
 12 59  1  0  0  0
 13 60  1  0  0  0
 14 61  1  0  0  0
 15 62  1  0  0  0
 16 63  1  0  0  0
 16 64  1  0  0  0
 18 65  1  0  0  0
 19 66  1  0  0  0
 21 67  1  0  0  0
 22 68  1  0  0  0
 23 69  1  0  0  0
 24 70  1  0  0  0
 25 71  1  0  0  0
 26 72  1  0  0  0
 27 73  1  0  0  0
 27 74  1  0  0  0
 29 75  1  0  0  0
 29 76  1  0  0  0
 29 77  1  0  0  0
 33 78  1  0  0  0
 35 79  1  0  0  0
 36 80  1  0  0  0
 37 81  1  0  0  0
 38 82  1  0  0  0
 39 83  1  0  0  0
 40 84  1  0  0  0
 41 85  1  0  0  0
 42 86  1  0  0  0
 42 87  1  0  0  0
 42 88  1  0  0  0
 43 89  1  0  0  0
 44 90  1  0  0  0
 45 91  1  0  0  0
M  END
$$$$
