3hmv_ligand
  -I-interpret- 

 42 44  0  0  0  0  0  0  0  0999 V2000
  -12.7450  -24.1940   -2.0670 O   0  0  0  0  0
  -12.8960  -24.9860   -2.9700 N   0  0  0  0  0
  -12.0970  -25.2350   -3.8460 O   0  0  0  0  0
  -14.2260  -25.5790   -3.0080 C   0  0  0  0  0
  -15.2070  -24.8730   -2.3150 C   0  0  0  0  0
  -16.4960  -25.3380   -2.3460 C   0  0  0  0  0
  -16.7920  -26.4970   -3.0600 C   0  0  0  0  0
  -15.7900  -27.1810   -3.7540 C   0  0  0  0  0
  -14.4690  -26.7130   -3.7470 C   0  0  0  0  0
  -13.4050  -27.4540   -4.4580 C   0  0  0  0  0
  -12.3460  -27.6900   -3.9010 O   0  0  0  0  0
  -13.6740  -27.8790   -5.7220 N   0  0  0  0  0
  -12.8290  -28.6540   -6.5280 C   0  0  0  0  0
  -13.0270  -28.8700   -7.9140 C   0  0  0  0  0
  -14.0970  -28.2810   -8.6440 C   0  0  0  0  0
  -13.9610  -28.0210   -9.9490 N   0  0  0  0  0
  -15.1430  -27.9790   -8.1010 O   0  0  0  0  0
  -11.4630  -29.4540   -5.9120 S   0  0  0  0  0
  -11.1590  -30.1250   -7.4240 C   0  0  0  0  0
   -9.9550  -31.0290   -7.5870 C   0  0  0  0  0
   -9.5630  -31.2310   -9.0790 C   0  0  0  0  0
   -8.6830  -32.4940   -9.1930 C   0  0  0  0  0
  -10.8030  -31.3360   -9.9880 C   0  0  0  0  0
  -11.8520  -30.2130   -9.8360 C   0  0  0  0  0
  -12.0250  -29.7480   -8.3960 C   0  0  0  0  0
  -14.9547  -23.9696   -1.7597 H   0  0  0  0  0
  -17.2845  -24.8043   -1.8153 H   0  0  0  0  0
  -17.8146  -26.8739   -3.0776 H   0  0  0  0  0
  -16.0384  -28.0874   -4.3061 H   0  0  0  0  0
  -14.5735  -27.6087   -6.1198 H   0  0  0  0  0
  -14.7236  -27.5802  -10.4634 H   0  0  0  0  0
  -13.0947  -28.2636  -10.4298 H   0  0  0  0  0
  -10.2062  -32.0039   -7.1692 H   0  0  0  0  0
   -9.1119  -30.5632   -7.0768 H   0  0  0  0  0
   -9.0029  -30.3599   -9.4190 H   0  0  0  0  0
   -7.7855  -32.3658   -8.5879 H   0  0  0  0  0
   -9.2427  -33.3587   -8.8363 H   0  0  0  0  0
   -8.4016  -32.6463  -10.2350 H   0  0  0  0  0
  -11.3058  -32.2633   -9.7134 H   0  0  0  0  0
  -10.4368  -31.2757  -11.0129 H   0  0  0  0  0
  -12.8104  -30.6070  -10.1743 H   0  0  0  0  0
  -11.5103  -29.3591  -10.4210 H   0  0  0  0  0
  1  2  2  0  0  0
  2  3  2  0  0  0
  2  4  1  0  0  0
  4  5  4  0  0  0
  4  9  4  0  0  0
  5  6  4  0  0  0
  6  7  4  0  0  0
  7  8  4  0  0  0
  8  9  4  0  0  0
  9 10  1  0  0  0
 10 11  2  0  0  0
 10 12  1  0  0  0
 12 13  1  0  0  0
 13 14  4  0  0  0
 13 18  4  0  0  0
 14 15  1  0  0  0
 14 25  4  0  0  0
 15 16  1  0  0  0
 15 17  2  0  0  0
 18 19  4  0  0  0
 19 20  1  0  0  0
 19 25  4  0  0  0
 20 21  1  0  0  0
 21 22  1  0  0  0
 21 23  1  0  0  0
 23 24  1  0  0  0
 24 25  1  0  0  0
  5 26  1  0  0  0
  6 27  1  0  0  0
  7 28  1  0  0  0
  8 29  1  0  0  0
 12 30  1  0  0  0
 16 31  1  0  0  0
 16 32  1  0  0  0
 20 33  1  0  0  0
 20 34  1  0  0  0
 21 35  1  0  0  0
 22 36  1  0  0  0
 22 37  1  0  0  0
 22 38  1  0  0  0
 23 39  1  0  0  0
 23 40  1  0  0  0
 24 41  1  0  0  0
 24 42  1  0  0  0
M  END
$$$$
