2h9n_ligand
  -I-interpret- 

 81 80  0  0  0  0  0  0  0  0999 V2000
    4.6750    8.9560    8.5310 N   0  3  0  0  0
    4.2180    8.3430    9.7870 C   0  0  0  0  0
    4.3670    6.8480    9.6850 C   0  0  0  0  0
    4.6750    6.2110   10.6790 O   0  0  0  0  0
    2.7290    8.7210   10.0910 C   0  0  0  0  0
    4.1510    6.2910    8.4860 N   0  0  0  0  0
    4.1060    4.8280    8.2890 C   0  0  0  0  0
    5.3610    4.1590    8.8070 C   0  0  0  0  0
    5.2960    3.0870    9.3970 O   0  0  0  0  0
    3.9000    4.4560    6.8030 C   0  0  0  0  0
    3.6480    2.9600    6.5740 C   0  0  0  0  0
    3.4550    2.5660    5.0950 C   0  0  0  0  0
    2.2580    3.1470    4.4810 N   0  0  0  0  0
    1.0440    2.6080    4.5460 C   0  0  0  0  0
    0.0160    3.1940    3.9560 N   0  0  0  0  0
    0.8590    1.4640    5.1830 N   0  0  0  0  0
    6.5000    4.8170    8.6000 N   0  0  0  0  0
    7.8100    4.2530    8.9510 C   0  0  0  0  0
    8.1540    4.3110   10.4410 C   0  0  0  0  0
    9.2620    3.9130   10.8460 O   0  0  0  0  0
    8.9230    4.9720    8.1880 C   0  0  0  0  0
    9.0870    6.2810    8.7320 O   0  0  0  0  0
    8.5940    5.0640    6.6920 C   0  0  0  0  0
    7.2100    4.8370   11.2350 N   0  0  0  0  0
    7.2900    4.8990   12.6940 C   0  0  0  0  0
    7.5380    6.3390   13.1310 C   0  0  0  0  0
    8.9680    6.7760   12.8300 C   0  0  0  0  0
    5.9920    4.3860   13.2680 C   0  0  0  0  0
    4.9330    4.5780   12.6570 O   0  0  0  0  0
    6.0560    3.7210   14.4280 N   0  0  0  0  0
    4.8690    3.1140   15.0700 C   0  0  0  0  0
    4.0730    4.0490   15.9930 C   0  0  0  0  0
    4.2950    5.2700   16.0340 O   0  0  0  0  0
    5.2440    1.8220   15.8210 C   0  0  0  0  0
    5.9870    2.0200   17.1340 C   0  0  0  0  0
    5.9370    0.7970   18.0530 C   0  0  0  0  0
    6.9780    0.3210   18.5100 O   0  0  0  0  0
    4.7270    0.2920   18.3380 N   0  0  0  0  0
    3.1212    3.5374   16.7684 O   0  0  0  0  0
    4.5768    9.9694    8.5932 H   0  0  0  0  0
    5.6541    8.7171    8.3740 H   0  0  0  0  0
    4.1100    8.6053    7.7576 H   0  0  0  0  0
    4.8281    8.7202   10.6077 H   0  0  0  0  0
    2.0908    8.3531    9.2876 H   0  0  0  0  0
    2.4257    8.2672   11.0345 H   0  0  0  0  0
    2.6378    9.8049   10.1617 H   0  0  0  0  0
    4.0125    6.8997    7.6794 H   0  0  0  0  0
    3.2515    4.4657    8.8605 H   0  0  0  0  0
    4.8140    4.7189    6.2704 H   0  0  0  0  0
    3.0198    4.9936    6.4504 H   0  0  0  0  0
    2.7249    2.7074    7.0956 H   0  0  0  0  0
    4.5285    2.4282    6.9347 H   0  0  0  0  0
    3.3462    1.4821    5.0584 H   0  0  0  0  0
    4.3178    2.9394    4.5434 H   0  0  0  0  0
    2.3630    4.0233    3.9696 H   0  0  0  0  0
    0.1505    4.0668    3.4456 H   0  0  0  0  0
   -0.0694    1.0427    5.2155 H   0  0  0  0  0
    1.6447    1.0029    5.6418 H   0  0  0  0  0
    6.4613    5.7468    8.1824 H   0  0  0  0  0
    7.7383    3.2014    8.6732 H   0  0  0  0  0
    9.8480    4.4052    8.2938 H   0  0  0  0  0
    9.7848    6.7385    8.2573 H   0  0  0  0  0
    8.4819    4.0597    6.2835 H   0  0  0  0  0
    7.6645    5.6175    6.5591 H   0  0  0  0  0
    9.4028    5.5799    6.1745 H   0  0  0  0  0
    6.3767    5.2213   10.7896 H   0  0  0  0  0
    8.1137    4.2838   13.0561 H   0  0  0  0  0
    7.3756    6.4062   14.2067 H   0  0  0  0  0
    6.8558    6.9886   12.5827 H   0  0  0  0  0
    9.6642    6.1283   13.3628 H   0  0  0  0  0
    9.1505    6.7039   11.7578 H   0  0  0  0  0
    9.1075    7.8070   13.1551 H   0  0  0  0  0
    6.9613    3.6288   14.8888 H   0  0  0  0  0
    4.2003    2.8854   14.2402 H   0  0  0  0  0
    5.9142    1.2655   15.1659 H   0  0  0  0  0
    4.3068    1.3226   16.0668 H   0  0  0  0  0
    5.5083    2.8457   17.6605 H   0  0  0  0  0
    7.0336    2.2071   16.8936 H   0  0  0  0  0
    4.6441   -0.5165   18.9544 H   0  0  0  0  0
    3.8901    0.7166   17.9383 H   0  0  0  0  0
    3.0689    2.5895   16.6258 H   0  0  0  0  0
  2  1  1  0  0  0
  2  5  1  0  0  0
  3  2  1  0  0  0
  3  4  2  0  0  0
  7  6  1  0  0  0
  7 10  1  0  0  0
  8  7  1  0  0  0
  8  9  2  0  0  0
 10 11  1  0  0  0
 11 12  1  0  0  0
 12 13  1  0  0  0
 13 14  1  0  0  0
 14 16  1  0  0  0
 14 15  2  0  0  0
  6  3  1  0  0  0
 18 17  1  0  0  0
 18 21  1  0  0  0
 19 18  1  0  0  0
 19 20  2  0  0  0
 21 23  1  0  0  0
 21 22  1  0  0  0
 17  8  1  0  0  0
 30 31  1  0  0  0
 31 34  1  0  0  0
 31 32  1  0  0  0
 32 33  2  0  0  0
 34 35  1  0  0  0
 35 36  1  0  0  0
 36 38  1  0  0  0
 36 37  2  0  0  0
 25 24  1  0  0  0
 25 26  1  0  0  0
 28 25  1  0  0  0
 26 27  1  0  0  0
 28 29  2  0  0  0
 24 19  1  0  0  0
 28 30  1  0  0  0
 32 39  1  0  0  0
  1 40  1  0  0  0
  1 41  1  0  0  0
  1 42  1  0  0  0
  2 43  1  0  0  0
  5 44  1  0  0  0
  5 45  1  0  0  0
  5 46  1  0  0  0
  6 47  1  0  0  0
  7 48  1  0  0  0
 10 49  1  0  0  0
 10 50  1  0  0  0
 11 51  1  0  0  0
 11 52  1  0  0  0
 12 53  1  0  0  0
 12 54  1  0  0  0
 13 55  1  0  0  0
 15 56  1  0  0  0
 16 57  1  0  0  0
 16 58  1  0  0  0
 17 59  1  0  0  0
 18 60  1  0  0  0
 21 61  1  0  0  0
 22 62  1  0  0  0
 23 63  1  0  0  0
 23 64  1  0  0  0
 23 65  1  0  0  0
 24 66  1  0  0  0
 25 67  1  0  0  0
 26 68  1  0  0  0
 26 69  1  0  0  0
 27 70  1  0  0  0
 27 71  1  0  0  0
 27 72  1  0  0  0
 30 73  1  0  0  0
 31 74  1  0  0  0
 34 75  1  0  0  0
 34 76  1  0  0  0
 35 77  1  0  0  0
 35 78  1  0  0  0
 38 79  1  0  0  0
 38 80  1  0  0  0
 39 81  1  0  0  0
M  END
$$$$
