5fox_ligand
  -I-interpret- 

 65 66  0  0  0  0  0  0  0  0999 V2000
   15.6140   19.8410   34.6690 C   0  0  0  0  0
   15.8340   20.9970   34.3070 O   0  0  0  0  0
   16.1370   19.3070   35.9710 C   0  0  0  0  0
   14.8840   19.0020   33.9420 N   0  0  0  0  0
   14.2620   19.4210   32.6830 C   0  0  0  0  0
   13.1210   20.3840   32.9300 C   0  0  0  0  0
   12.3430   20.2090   33.8620 O   0  0  0  0  0
   13.7200   18.2120   31.9220 C   0  0  0  0  0
   14.7870   17.3710   31.2860 C   0  0  0  0  0
   15.2710   17.6760   30.0210 C   0  0  0  0  0
   15.3110   16.2750   31.9560 C   0  0  0  0  0
   16.2630   16.9040   29.4460 C   0  0  0  0  0
   16.2970   15.4940   31.3770 C   0  0  0  0  0
   16.7700   15.8140   30.1180 C   0  0  0  0  0
   13.0170   21.3900   32.0720 N   0  0  0  0  0
   11.9010   22.3350   32.1000 C   0  0  0  0  0
   11.4740   22.6440   30.6810 C   0  0  0  0  0
   12.2830   22.5990   29.7620 O   0  0  0  0  0
   12.3070   23.6570   32.7630 C   0  0  0  0  0
   12.8260   23.5090   34.1530 C   0  0  0  0  0
   11.9970   23.4480   35.2510 N   0  0  0  0  0
   14.0890   23.4080   34.6280 C   0  0  0  0  0
   12.7280   23.3180   36.3440 C   0  0  0  0  0
   14.0010   23.2920   35.9930 N   0  0  0  0  0
   10.2110   23.0040   30.5020 N   0  0  0  0  0
    9.7490   23.4430   29.1880 C   0  0  0  0  0
   10.6280   24.5860   28.6750 C   0  0  0  0  0
   11.0650   25.4490   29.4480 O   0  0  0  0  0
    8.2980   23.8880   29.2530 C   0  0  0  0  0
   10.8630   24.6030   27.3680 N   0  0  0  0  0
   11.8200   25.5340   26.7720 C   0  0  0  0  0
   11.3340   26.9710   26.7280 C   0  0  0  0  0
   12.1440   27.8810   26.6230 O   0  0  0  0  0
   12.1900   25.0790   25.3790 C   0  0  0  0  0
   10.0230   27.1650   26.7700 N   0  0  0  0  0
   17.2255   19.3631   35.9742 H   0  0  0  0  0
   15.7388   19.9024   36.7926 H   0  0  0  0  0
   15.8251   18.2692   36.0881 H   0  0  0  0  0
   14.7535   18.0442   34.2677 H   0  0  0  0  0
   15.0323   19.9173   32.0928 H   0  0  0  0  0
   13.0829   18.5895   31.1222 H   0  0  0  0  0
   13.1951   17.5831   32.6411 H   0  0  0  0  0
   14.8661   18.5298   29.4777 H   0  0  0  0  0
   14.9419   16.0255   32.9508 H   0  0  0  0  0
   16.6452   17.1587   28.4575 H   0  0  0  0  0
   16.6978   14.6322   31.9106 H   0  0  0  0  0
   17.5454   15.2026   29.6565 H   0  0  0  0  0
   13.7431   21.5092   31.3656 H   0  0  0  0  0
   11.0912   21.8788   32.6694 H   0  0  0  0  0
   11.4125   24.2775   32.8179 H   0  0  0  0  0
   13.1106   24.0843   32.1632 H   0  0  0  0  0
   15.0050   23.4171   34.0372 H   0  0  0  0  0
   12.3455   23.2447   37.3621 H   0  0  0  0  0
    9.5587   22.9743   31.2856 H   0  0  0  0  0
    9.8223   22.6027   28.4976 H   0  0  0  0  0
    7.6785   23.0553   29.5859 H   0  0  0  0  0
    8.2043   24.7159   29.9558 H   0  0  0  0  0
    7.9737   24.2110   28.2638 H   0  0  0  0  0
   10.3632   23.9500   26.7646 H   0  0  0  0  0
   12.6945   25.5231   27.4225 H   0  0  0  0  0
   12.6393   24.0872   25.4295 H   0  0  0  0  0
   11.2935   25.0421   24.7601 H   0  0  0  0  0
   12.9031   25.7807   24.9464 H   0  0  0  0  0
    9.6454   28.1108   26.7138 H   0  0  0  0  0
    9.3921   26.3684   26.8585 H   0  0  0  0  0
  1  2  2  0  0  0
  1  3  1  0  0  0
  1  4  1  0  0  0
  4  5  1  0  0  0
  5  6  1  0  0  0
  5  8  1  0  0  0
  6  7  2  0  0  0
  6 15  1  0  0  0
  8  9  1  0  0  0
  9 10  4  0  0  0
  9 11  4  0  0  0
 10 12  4  0  0  0
 11 13  4  0  0  0
 12 14  4  0  0  0
 13 14  4  0  0  0
 15 16  1  0  0  0
 16 17  1  0  0  0
 16 19  1  0  0  0
 17 18  2  0  0  0
 17 25  1  0  0  0
 19 20  1  0  0  0
 20 21  4  0  0  0
 20 22  4  0  0  0
 21 23  4  0  0  0
 22 24  4  0  0  0
 23 24  4  0  0  0
 25 26  1  0  0  0
 26 27  1  0  0  0
 26 29  1  0  0  0
 27 28  2  0  0  0
 27 30  1  0  0  0
 30 31  1  0  0  0
 31 32  1  0  0  0
 31 34  1  0  0  0
 32 33  2  0  0  0
 32 35  1  0  0  0
  3 36  1  0  0  0
  3 37  1  0  0  0
  3 38  1  0  0  0
  4 39  1  0  0  0
  5 40  1  0  0  0
  8 41  1  0  0  0
  8 42  1  0  0  0
 10 43  1  0  0  0
 11 44  1  0  0  0
 12 45  1  0  0  0
 13 46  1  0  0  0
 14 47  1  0  0  0
 15 48  1  0  0  0
 16 49  1  0  0  0
 19 50  1  0  0  0
 19 51  1  0  0  0
 22 52  1  0  0  0
 23 53  1  0  0  0
 25 54  1  0  0  0
 26 55  1  0  0  0
 29 56  1  0  0  0
 29 57  1  0  0  0
 29 58  1  0  0  0
 30 59  1  0  0  0
 31 60  1  0  0  0
 34 61  1  0  0  0
 34 62  1  0  0  0
 34 63  1  0  0  0
 35 64  1  0  0  0
 35 65  1  0  0  0
M  END
$$$$
