5uiq_ligand
  -I-interpret- 

 26 26  0  0  0  0  0  0  0  0999 V2000
   29.2940   10.6160   -7.8860 C   0  0  0  0  0
   29.5940    8.3140   -7.3730 C   0  0  0  0  0
   30.0620   10.4650   -9.0210 C   0  0  0  0  0
   30.3580    8.1440   -8.5150 C   0  0  0  0  0
   30.6060    9.2320   -9.3470 C   0  0  0  0  0
   30.8510    6.7610   -8.7360 C   0  0  0  0  0
   33.1920   10.1050  -11.6070 C   0  0  0  0  0
   30.8760   10.6400  -12.2760 C   0  0  0  0  0
   29.0630    9.5440   -7.0530 C   0  0  0  0  0
   31.7810   10.3070  -11.1020 C   0  0  0  0  0
   31.8510    6.5700   -9.6620 N   0  0  0  0  0
   30.3450    5.8480   -8.0970 O   0  0  0  0  0
   31.3810    9.0690  -10.4910 O   0  0  0  0  0
   28.8670   11.5899   -7.6465 H   0  0  0  0  0
   29.4101    7.4625   -6.7179 H   0  0  0  0  0
   30.2433   11.3231   -9.6682 H   0  0  0  0  0
   33.8441    9.8562  -10.7697 H   0  0  0  0  0
   33.2039    9.2917  -12.3326 H   0  0  0  0  0
   33.5415   11.0220  -12.0814 H   0  0  0  0  0
   30.9369    9.8434  -13.0175 H   0  0  0  0  0
   29.8482   10.7341  -11.9255 H   0  0  0  0  0
   31.1959   11.5806  -12.7243 H   0  0  0  0  0
   28.4659    9.6676   -6.1495 H   0  0  0  0  0
   31.7187   11.1245  -10.3837 H   0  0  0  0  0
   32.2056    5.6310   -9.8433 H   0  0  0  0  0
   32.2375    7.3675  -10.1670 H   0  0  0  0  0
  3  1  4  0  0  0
  1  9  4  0  0  0
  4  2  4  0  0  0
  2  9  4  0  0  0
  5  3  4  0  0  0
  5  4  4  0  0  0
  4  6  1  0  0  0
 13  5  1  0  0  0
  6 11  1  0  0  0
  6 12  2  0  0  0
 10  7  1  0  0  0
 10  8  1  0  0  0
 10 13  1  0  0  0
  1 14  1  0  0  0
  2 15  1  0  0  0
  3 16  1  0  0  0
  7 17  1  0  0  0
  7 18  1  0  0  0
  7 19  1  0  0  0
  8 20  1  0  0  0
  8 21  1  0  0  0
  8 22  1  0  0  0
  9 23  1  0  0  0
 10 24  1  0  0  0
 11 25  1  0  0  0
 11 26  1  0  0  0
M  END
$$$$
