5umw_ligand
  -I-interpret- 

 47 49  0  0  0  0  0  0  0  0999 V2000
   44.3690    1.7360  115.8890 N   0  0  0  0  0
   44.1060    3.0720  115.8450 C   0  0  0  0  0
   43.7350    3.5610  116.9460 O   0  0  0  0  0
   44.2370    3.8040  114.6980 N   0  0  0  0  0
   44.6510    3.1880  113.5680 C   0  0  0  0  0
   44.8150    3.8000  112.5060 O   0  0  0  0  0
   44.9460    1.7290  113.5650 C   0  0  0  0  0
   45.3490    1.1270  112.4420 N   0  0  0  0  0
   45.6260   -0.1800  112.4980 C   0  0  0  0  0
   46.0450   -0.7280  111.3120 C   0  0  0  0  0
   46.3360   -2.0890  111.2850 C   0  0  0  0  0
   46.8580   -2.5350  109.9690 C   0  0  0  0  0
   46.2050   -2.9830  112.4990 C   0  0  0  0  0
   46.5140   -4.4730  112.5150 C   0  0  0  0  0
   45.7760   -2.4040  113.6950 C   0  0  0  0  0
   45.4780   -1.0310  113.7520 C   0  0  0  0  0
   45.0390   -0.4300  114.9580 N   0  0  0  0  0
   44.7850    0.9800  114.8450 C   0  0  0  0  0
   44.9210   -1.2990  116.1920 C   0  0  0  0  0
   44.3960   -0.8360  117.5910 C   0  0  0  0  0
   44.5130    0.5610  117.9050 O   0  0  0  0  0
   45.1020   -1.5820  118.7510 C   0  0  0  0  0
   45.1360   -2.9960  118.4660 O   0  0  0  0  0
   44.4360   -1.3370  120.1220 C   0  0  0  0  0
   44.0960    0.0470  120.3940 O   0  0  0  0  0
   45.3200   -1.8600  121.2590 C   0  0  0  0  0
   44.4630   -2.2880  122.3270 O   0  0  0  0  0
   44.0252    4.8018  114.6947 H   0  0  0  0  0
   46.1471   -0.1151  110.4164 H   0  0  0  0  0
   46.1138   -2.3359  109.1979 H   0  0  0  0  0
   47.7747   -1.9915  109.7400 H   0  0  0  0  0
   47.0676   -3.6040  110.0061 H   0  0  0  0  0
   45.8700   -4.9840  111.7993 H   0  0  0  0  0
   47.5578   -4.6292  112.2427 H   0  0  0  0  0
   46.3347   -4.8692  113.5145 H   0  0  0  0  0
   45.6716   -3.0193  114.5887 H   0  0  0  0  0
   45.9645   -1.5292  116.4070 H   0  0  0  0  0
   44.1583   -2.0171  115.8907 H   0  0  0  0  0
   43.3357   -1.0729  117.5024 H   0  0  0  0  0
   44.1598    0.7211  118.7832 H   0  0  0  0  0
   46.1143   -1.1836  118.8191 H   0  0  0  0  0
   45.5738   -3.4560  119.1860 H   0  0  0  0  0
   43.4967   -1.8878  120.0717 H   0  0  0  0  0
   43.6890    0.1109  121.2611 H   0  0  0  0  0
   45.9903   -1.0739  121.6065 H   0  0  0  0  0
   45.9296   -2.6930  120.9089 H   0  0  0  0  0
   44.9980   -2.6202  123.0515 H   0  0  0  0  0
  1  2  1  0  0  0
  1 18  2  0  0  0
  2  3  2  0  0  0
  2  4  1  0  0  0
  4  5  1  0  0  0
  5  6  2  0  0  0
  5  7  1  0  0  0
  7  8  2  0  0  0
  7 18  1  0  0  0
  8  9  1  0  0  0
  9 10  4  0  0  0
  9 16  4  0  0  0
 10 11  4  0  0  0
 11 12  1  0  0  0
 11 13  4  0  0  0
 13 14  1  0  0  0
 13 15  4  0  0  0
 15 16  4  0  0  0
 16 17  1  0  0  0
 17 18  1  0  0  0
 17 19  1  0  0  0
 19 20  1  0  0  0
 20 21  1  0  0  0
 20 22  1  0  0  0
 22 23  1  0  0  0
 22 24  1  0  0  0
 24 25  1  0  0  0
 24 26  1  0  0  0
 26 27  1  0  0  0
  4 28  1  0  0  0
 10 29  1  0  0  0
 12 30  1  0  0  0
 12 31  1  0  0  0
 12 32  1  0  0  0
 14 33  1  0  0  0
 14 34  1  0  0  0
 14 35  1  0  0  0
 15 36  1  0  0  0
 19 37  1  0  0  0
 19 38  1  0  0  0
 20 39  1  0  0  0
 21 40  1  0  0  0
 22 41  1  0  0  0
 23 42  1  0  0  0
 24 43  1  0  0  0
 25 44  1  0  0  0
 26 45  1  0  0  0
 26 46  1  0  0  0
 27 47  1  0  0  0
M  END
$$$$
