4x0f_ligand
  -I-interpret- 

 41 43  0  0  0  0  0  0  0  0999 V2000
  -53.4890   49.5030    9.2990 C   0  0  0  0  0
  -53.1970   49.4000   10.6560 C   0  0  0  0  0
  -53.6170   50.3720   11.5520 C   0  0  0  0  0
  -54.3810   51.4590   11.0850 C   0  0  0  0  0
  -54.7010   51.5430    9.7380 C   0  0  0  0  0
  -54.2510   50.5740    8.8600 C   0  0  0  0  0
  -52.9450   48.4940    8.3050 C   0  0  0  0  0
  -51.7980   47.5990    8.8080 C   0  0  0  0  0
  -52.4960   46.3350    9.2410 C   0  0  0  0  0
  -52.0420   45.4690    9.9800 O   0  0  0  0  0
  -53.7050   46.3230    8.7070 N   0  0  0  0  0
  -54.0290   47.4820    7.8870 C   0  0  0  0  0
  -53.2980   50.3540   12.8960 O   0  0  0  0  0
  -52.4770   49.2560   13.4720 C   0  0  0  0  0
  -51.8520   49.5750   14.8110 C   0  0  0  0  0
  -53.0350   49.4820   15.7510 C   0  0  0  0  0
  -53.8050   48.3280   15.3070 C   0  0  0  0  0
  -53.4100   48.1150   13.8620 C   0  0  0  0  0
  -54.7370   52.3840   12.0290 O   0  0  0  0  0
  -55.5590   53.4830   11.6170 C   0  0  0  0  0
  -52.6301   48.5431   11.0199 H   0  0  0  0  0
  -55.3066   52.3720    9.3719 H   0  0  0  0  0
  -54.5005   50.6542    7.8020 H   0  0  0  0  0
  -52.5875   49.1405    7.5036 H   0  0  0  0  0
  -51.2339   48.0613    9.6180 H   0  0  0  0  0
  -51.0452   47.4169    8.0410 H   0  0  0  0  0
  -54.3627   45.5582    8.8581 H   0  0  0  0  0
  -54.0246   47.2660    6.8186 H   0  0  0  0  0
  -55.0428   47.8496    8.0459 H   0  0  0  0  0
  -51.7215   49.0537   12.7128 H   0  0  0  0  0
  -51.3620   50.5484   14.8340 H   0  0  0  0  0
  -51.0396   48.8986   15.0766 H   0  0  0  0  0
  -53.6342   50.3921   15.7254 H   0  0  0  0  0
  -52.7113   49.3684   16.7856 H   0  0  0  0  0
  -54.8768   48.4982   15.4086 H   0  0  0  0  0
  -53.5939   47.4477   15.9141 H   0  0  0  0  0
  -52.9103   47.1540   13.7400 H   0  0  0  0  0
  -54.2922   48.1068   13.2218 H   0  0  0  0  0
  -55.0427   54.0511   10.8431 H   0  0  0  0  0
  -56.5012   53.1025   11.2226 H   0  0  0  0  0
  -55.7561   54.1285   12.4729 H   0  0  0  0  0
  1  2  4  0  0  0
  1  6  4  0  0  0
  1  7  1  0  0  0
  2  3  4  0  0  0
  3  4  4  0  0  0
  3 13  1  0  0  0
  4  5  4  0  0  0
  4 19  1  0  0  0
  5  6  4  0  0  0
  7  8  1  0  0  0
  7 12  1  0  0  0
  8  9  1  0  0  0
  9 10  2  0  0  0
  9 11  1  0  0  0
 11 12  1  0  0  0
 13 14  1  0  0  0
 14 15  1  0  0  0
 14 18  1  0  0  0
 15 16  1  0  0  0
 16 17  1  0  0  0
 17 18  1  0  0  0
 19 20  1  0  0  0
  2 21  1  0  0  0
  5 22  1  0  0  0
  6 23  1  0  0  0
  7 24  1  0  0  0
  8 25  1  0  0  0
  8 26  1  0  0  0
 11 27  1  0  0  0
 12 28  1  0  0  0
 12 29  1  0  0  0
 14 30  1  0  0  0
 15 31  1  0  0  0
 15 32  1  0  0  0
 16 33  1  0  0  0
 16 34  1  0  0  0
 17 35  1  0  0  0
 17 36  1  0  0  0
 18 37  1  0  0  0
 18 38  1  0  0  0
 20 39  1  0  0  0
 20 40  1  0  0  0
 20 41  1  0  0  0
M  END
$$$$
