1q7a_ligand
  -I-interpret- 

 44 46  0  0  0  0  0  0  0  0999 V2000
   12.0290   22.7760   -8.7010 C   0  0  0  0  0
   10.7170   22.6250   -8.1400 C   0  0  0  0  0
   10.1590   23.6150   -7.2150 C   0  0  0  0  0
   11.0120   24.7560   -6.8900 C   0  0  0  0  0
   12.3330   24.8850   -7.4690 C   0  0  0  0  0
   12.8280   23.8920   -8.3770 C   0  0  0  0  0
    6.9580   21.6090  -10.7710 C   0  0  0  0  0
    7.0670   22.6470  -11.7060 C   0  0  0  0  0
    7.3280   24.0030  -11.2650 C   0  0  0  0  0
    7.4810   24.2870   -9.8310 C   0  0  0  0  0
    7.3620   23.1740   -8.8640 C   0  0  0  0  0
    7.1040   21.8690   -9.3850 C   0  0  0  0  0
    4.9540   18.6190   -3.8330 C   0  0  0  0  0
    5.9210   19.7110   -4.1290 C   0  0  0  0  0
    5.5000   21.1760   -3.8360 C   0  0  0  0  0
    6.7770   21.9110   -4.2980 C   0  0  0  0  0
    8.7340   23.4540   -6.6320 N   0  0  0  0  0
    8.4140   23.4390   -5.2890 C   0  0  0  0  0
    6.8900   23.2400   -5.0820 C   0  0  0  0  0
    6.4440   23.1600   -6.4950 C   0  0  0  0  0
    7.4960   23.2740   -7.3630 N   0  0  0  0  0
    9.2060   23.5660   -4.3110 O   0  0  0  0  0
    5.2420   23.0070   -6.7880 O   0  0  0  0  0
    6.9260   22.3540  -13.0260 O   0  0  0  0  0
   12.4125   22.0194   -9.3855 H   0  0  0  0  0
   10.1210   21.7527   -8.4084 H   0  0  0  0  0
   10.6491   25.5202   -6.2026 H   0  0  0  0  0
   12.9551   25.7426   -7.2128 H   0  0  0  0  0
   13.8199   23.9994   -8.8160 H   0  0  0  0  0
    6.7593   20.5930  -11.1122 H   0  0  0  0  0
    7.4105   24.8090  -11.9941 H   0  0  0  0  0
    7.6790   25.3017   -9.4856 H   0  0  0  0  0
    7.0156   21.0370   -8.6864 H   0  0  0  0  0
    4.7087   18.6306   -2.7710 H   0  0  0  0  0
    4.0470   18.7700   -4.4184 H   0  0  0  0  0
    5.4006   17.6594   -4.0935 H   0  0  0  0  0
    6.0747   19.6698   -5.2073 H   0  0  0  0  0
    6.7711   19.5231   -3.4732 H   0  0  0  0  0
    5.2161   21.3676   -2.8012 H   0  0  0  0  0
    4.5868   21.4943   -4.3389 H   0  0  0  0  0
    7.1681   21.2050   -5.0306 H   0  0  0  0  0
    7.2077   22.1995   -3.3392 H   0  0  0  0  0
    6.3125   23.9839   -4.5331 H   0  0  0  0  0
    7.0246   23.1568  -13.5431 H   0  0  0  0  0
  2  1  4  0  0  0
  1  6  4  0  0  0
  3  2  4  0  0  0
  3  4  4  0  0  0
 17  3  1  0  0  0
  4  5  4  0  0  0
  5  6  4  0  0  0
  7  8  4  0  0  0
 12  7  4  0  0  0
  9  8  4  0  0  0
  8 24  1  0  0  0
 10  9  4  0  0  0
 11 10  4  0  0  0
 11 12  4  0  0  0
 21 11  1  0  0  0
 14 13  1  0  0  0
 15 14  1  0  0  0
 16 15  1  0  0  0
 19 16  1  0  0  0
 18 17  1  0  0  0
 17 21  1  0  0  0
 18 19  1  0  0  0
 18 22  2  0  0  0
 19 20  1  0  0  0
 20 21  1  0  0  0
 20 23  2  0  0  0
  1 25  1  0  0  0
  2 26  1  0  0  0
  4 27  1  0  0  0
  5 28  1  0  0  0
  6 29  1  0  0  0
  7 30  1  0  0  0
  9 31  1  0  0  0
 10 32  1  0  0  0
 12 33  1  0  0  0
 13 34  1  0  0  0
 13 35  1  0  0  0
 13 36  1  0  0  0
 14 37  1  0  0  0
 14 38  1  0  0  0
 15 39  1  0  0  0
 15 40  1  0  0  0
 16 41  1  0  0  0
 16 42  1  0  0  0
 19 43  1  0  0  0
 24 44  1  0  0  0
M  END
$$$$
