1nvs_ligand
  -I-interpret- 

 45 52  0  0  0  0  0  0  0  0999 V2000
    6.3370   10.2630   19.4530 N   0  0  0  0  0
    4.9270    9.6930   19.4870 C   0  0  0  0  0
    3.9870   10.2130   20.0680 O   0  0  0  0  0
    4.8800    8.4450   18.7220 C   0  0  0  0  0
    3.7830    7.5530   18.4640 C   0  0  0  0  0
    2.3870    7.4760   18.7990 C   0  0  0  0  0
    1.8740    6.2920   18.1930 C   0  0  0  0  0
    0.4900    5.9220   18.3350 C   0  0  0  0  0
   -0.4050    6.7390   19.0910 C   0  0  0  0  0
    0.0850    7.9280   19.7090 C   0  0  0  0  0
    1.4600    8.2870   19.5600 C   0  0  0  0  0
    2.9280    5.6750   17.5190 N   0  0  0  0  0
    4.0930    6.4170   17.6690 C   0  0  0  0  0
    5.3640    6.1650   17.1600 C   0  0  0  0  0
    5.8000    5.1030   16.3760 N   0  0  0  0  0
    7.1480    5.2390   16.0860 C   0  0  0  0  0
    7.6020    6.4390   16.7080 C   0  0  0  0  0
    8.9950    6.7870   16.5340 C   0  0  0  0  0
    9.8900    5.9780   15.7760 C   0  0  0  0  0
    9.4120    4.7830   15.1670 C   0  0  0  0  0
    8.0420    4.4130   15.3190 C   0  0  0  0  0
    6.4740    7.0150   17.3860 C   0  0  0  0  0
    6.2080    8.1800   18.1890 C   0  0  0  0  0
    7.0980    9.2560   18.6150 C   0  0  0  0  0
    8.2800    9.3470   18.3440 O   0  0  0  0  0
    4.9590    3.9740   15.9060 C   0  0  0  0  0
    3.9990    3.6000   16.9070 O   0  0  0  0  0
    2.8140    4.4020   16.7530 C   0  0  0  0  0
    2.7220    4.6730   15.2460 C   0  0  0  0  0
    4.1190    4.3910   14.6920 C   0  0  0  0  0
    6.6857   11.1167   19.8889 H   0  0  0  0  0
    0.1223    5.0114   17.8620 H   0  0  0  0  0
   -1.4527    6.4568   19.1949 H   0  0  0  0  0
   -0.5860    8.5591   20.2917 H   0  0  0  0  0
    1.8221    9.1994   20.0338 H   0  0  0  0  0
    9.3726    7.6982   16.9980 H   0  0  0  0  0
   10.9335    6.2719   15.6631 H   0  0  0  0  0
   10.0885    4.1544   14.5880 H   0  0  0  0  0
    7.6714    3.5006   14.8519 H   0  0  0  0  0
    5.6441    3.1592   15.6716 H   0  0  0  0  0
    1.9250    3.9006   17.1355 H   0  0  0  0  0
    2.4124    5.6983   15.0435 H   0  0  0  0  0
    1.9704    4.0413   14.7725 H   0  0  0  0  0
    4.0989    3.6110   13.9309 H   0  0  0  0  0
    4.5381    5.2663   14.1956 H   0  0  0  0  0
  2  1  1  0  0  0
  1 24  1  0  0  0
  2  3  2  0  0  0
  2  4  1  0  0  0
  4  5  4  0  0  0
  4 23  4  0  0  0
  5  6  4  0  0  0
  5 13  4  0  0  0
  6  7  4  0  0  0
  6 11  4  0  0  0
  7  8  4  0  0  0
  7 12  4  0  0  0
  8  9  4  0  0  0
  9 10  4  0  0  0
 11 10  4  0  0  0
 12 13  4  0  0  0
 12 28  1  0  0  0
 13 14  4  0  0  0
 14 15  4  0  0  0
 14 22  4  0  0  0
 15 16  4  0  0  0
 15 26  1  0  0  0
 16 17  4  0  0  0
 16 21  4  0  0  0
 17 18  4  0  0  0
 22 17  4  0  0  0
 18 19  4  0  0  0
 19 20  4  0  0  0
 21 20  4  0  0  0
 22 23  4  0  0  0
 23 24  1  0  0  0
 24 25  2  0  0  0
 26 27  1  0  0  0
 26 30  1  0  0  0
 28 27  1  0  0  0
 28 29  1  0  0  0
 29 30  1  0  0  0
  1 31  1  0  0  0
  8 32  1  0  0  0
  9 33  1  0  0  0
 10 34  1  0  0  0
 11 35  1  0  0  0
 18 36  1  0  0  0
 19 37  1  0  0  0
 20 38  1  0  0  0
 21 39  1  0  0  0
 26 40  1  0  0  0
 28 41  1  0  0  0
 29 42  1  0  0  0
 29 43  1  0  0  0
 30 44  1  0  0  0
 30 45  1  0  0  0
M  END
$$$$
