3w54_ligand
  -I-interpret- 

 45 45  0  0  0  0  0  0  0  0999 V2000
   89.5270   39.5770   43.8400 C   0  0  0  0  0
   90.3270   40.0400   42.6190 C   0  0  0  0  0
   91.3620   41.1600   42.7740 C   0  0  0  0  0
   90.0870   39.3960   41.2310 C   0  0  0  0  0
   89.0470   38.2690   41.0800 C   0  0  0  0  0
   88.6720   38.0660   39.5950 C   0  0  0  0  0
   87.7910   36.8130   39.5320 C   0  0  0  0  0
   86.4130   36.7920   40.2760 C   0  0  0  0  0
   88.3070   35.6440   38.7300 C   0  0  0  0  0
   87.5940   34.3030   38.6920 C   0  0  0  0  0
   88.4370   33.3780   39.3430 C   0  0  0  0  0
   89.2520   32.5050   38.6400 C   0  0  0  0  0
   89.2210   32.5470   37.2870 O   0  0  0  0  0
   90.1050   31.5890   39.2730 C   0  0  0  0  0
   90.8960   30.6970   38.5350 C   0  0  0  0  0
   91.2530   30.9340   37.4000 O   0  0  0  0  0
   90.1500   31.5550   40.6700 C   0  0  0  0  0
   91.0190   30.6290   41.2750 C   0  0  0  0  0
   89.3380   32.4380   41.4190 C   0  0  0  0  0
   89.2460   32.5380   43.2820 Cl  0  0  0  0  0
   88.5210   33.3190   40.7250 C   0  0  0  0  0
   87.7680   34.1540   41.4670 O   0  0  0  0  0
   88.4644   39.7394   43.6594 H   0  0  0  0  0
   89.7098   38.5162   44.0116 H   0  0  0  0  0
   89.8394   40.1470   44.7150 H   0  0  0  0  0
   92.3440   40.7886   42.4811 H   0  0  0  0  0
   91.0849   41.9998   42.1368 H   0  0  0  0  0
   91.3905   41.4852   43.8140 H   0  0  0  0  0
   90.6518   39.7388   40.3640 H   0  0  0  0  0
   88.1497   38.5413   41.6356 H   0  0  0  0  0
   89.4733   37.3427   41.4652 H   0  0  0  0  0
   89.5648   37.9450   38.9815 H   0  0  0  0  0
   88.1411   38.9347   39.2057 H   0  0  0  0  0
   85.6134   36.6320   39.5527 H   0  0  0  0  0
   86.4092   35.9846   41.0083 H   0  0  0  0  0
   86.2607   37.7448   40.7830 H   0  0  0  0  0
   89.2258   35.7661   38.1563 H   0  0  0  0  0
   87.3993   33.9953   37.6646 H   0  0  0  0  0
   86.6258   34.3633   39.1891 H   0  0  0  0  0
   89.8296   31.8940   36.9337 H   0  0  0  0  0
   91.2008   29.7580   38.9971 H   0  0  0  0  0
   90.7398   29.6196   40.9729 H   0  0  0  0  0
   92.0423   30.8338   40.9605 H   0  0  0  0  0
   90.9459   30.7185   42.3589 H   0  0  0  0  0
   87.9364   33.9928   42.3983 H   0  0  0  0  0
  1  2  1  0  0  0
  2  3  1  0  0  0
  2  4  2  0  0  0
  4  5  1  0  0  0
  5  6  1  0  0  0
  6  7  1  0  0  0
  7  8  1  0  0  0
  7  9  2  0  0  0
  9 10  1  0  0  0
 10 11  1  0  0  0
 11 12  4  0  0  0
 11 21  4  0  0  0
 12 13  1  0  0  0
 12 14  4  0  0  0
 14 15  1  0  0  0
 14 17  4  0  0  0
 15 16  2  0  0  0
 17 18  1  0  0  0
 17 19  4  0  0  0
 19 20  1  0  0  0
 19 21  4  0  0  0
 21 22  1  0  0  0
  1 23  1  0  0  0
  1 24  1  0  0  0
  1 25  1  0  0  0
  3 26  1  0  0  0
  3 27  1  0  0  0
  3 28  1  0  0  0
  4 29  1  0  0  0
  5 30  1  0  0  0
  5 31  1  0  0  0
  6 32  1  0  0  0
  6 33  1  0  0  0
  8 34  1  0  0  0
  8 35  1  0  0  0
  8 36  1  0  0  0
  9 37  1  0  0  0
 10 38  1  0  0  0
 10 39  1  0  0  0
 13 40  1  0  0  0
 15 41  1  0  0  0
 18 42  1  0  0  0
 18 43  1  0  0  0
 18 44  1  0  0  0
 22 45  1  0  0  0
M  END
$$$$
