6qxa_ligand
  -I-interpret- 

 36 39  0  0  0  0  0  0  0  0999 V2000
  -57.5240    9.7320   -7.4700 C   0  0  0  0  0
  -53.8580   10.4530   -0.4000 C   0  0  0  0  0
  -55.4880   12.2690   -3.3270 C   0  0  0  0  0
  -54.8430   11.8530   -1.9940 C   0  0  0  0  0
  -54.5930   12.6200   -0.8310 C   0  0  0  0  0
  -53.9680   11.7270    0.1700 C   0  0  0  0  0
  -53.5050   11.9650    1.5090 C   0  0  0  0  0
  -52.9430   10.8960    2.2230 C   0  0  0  0  0
  -52.8380    9.6180    1.6490 C   0  0  0  0  0
  -53.2760    9.3670    0.3620 C   0  0  0  0  0
  -55.8930   13.4860   -5.5950 C   0  0  0  0  0
  -56.3880   12.1370   -6.3040 C   0  0  0  0  0
  -55.5730   11.1670   -6.9280 C   0  0  0  0  0
  -56.1490   10.0030   -7.5000 C   0  0  0  0  0
  -57.0000    7.8090   -8.6090 C   0  0  0  0  0
  -58.3420   10.6960   -6.8250 C   0  0  0  0  0
  -57.7630   11.8510   -6.2590 C   0  0  0  0  0
  -54.3800   10.5280   -1.6790 N   0  0  0  0  0
  -55.1270   13.2740   -4.3100 N   0  0  0  0  0
  -57.0600    6.6010   -9.2700 N   0  0  0  0  0
  -57.9890    8.5010   -8.0930 N   0  0  0  0  0
  -56.5000   11.5950   -3.6320 O   0  0  0  0  0
  -55.3760    8.6570   -8.3520 S   0  0  0  0  0
  -54.8199   13.6776   -0.6968 H   0  0  0  0  0
  -53.5885   12.9538    1.9600 H   0  0  0  0  0
  -52.5823   11.0595    3.2385 H   0  0  0  0  0
  -52.4016    8.8065    2.2312 H   0  0  0  0  0
  -53.1852    8.3709   -0.0712 H   0  0  0  0  0
  -56.7849   14.0600   -5.3437 H   0  0  0  0  0
  -55.2170   13.9826   -6.2911 H   0  0  0  0  0
  -54.4937   11.3135   -6.9706 H   0  0  0  0  0
  -59.4197   10.5435   -6.7669 H   0  0  0  0  0
  -58.4197   12.5623   -5.7581 H   0  0  0  0  0
  -54.3171   13.8657   -4.1244 H   0  0  0  0  0
  -57.9587    6.1380   -9.4058 H   0  0  0  0  0
  -56.2057    6.1700   -9.6234 H   0  0  0  0  0
  1 14  4  0  0  0
  1 16  4  0  0  0
 21  1  4  0  0  0
  2  6  4  0  0  0
  2 10  4  0  0  0
 18  2  4  0  0  0
  3  4  1  0  0  0
 19  3  1  0  0  0
  3 22  2  0  0  0
  4  5  4  0  0  0
  4 18  4  0  0  0
  5  6  4  0  0  0
  6  7  4  0  0  0
  7  8  4  0  0  0
  9  8  4  0  0  0
 10  9  4  0  0  0
 12 11  1  0  0  0
 11 19  1  0  0  0
 13 12  4  0  0  0
 12 17  4  0  0  0
 14 13  4  0  0  0
 14 23  4  0  0  0
 15 20  1  0  0  0
 15 21  4  0  0  0
 15 23  4  0  0  0
 16 17  4  0  0  0
  5 24  1  0  0  0
  7 25  1  0  0  0
  8 26  1  0  0  0
  9 27  1  0  0  0
 10 28  1  0  0  0
 11 29  1  0  0  0
 11 30  1  0  0  0
 13 31  1  0  0  0
 16 32  1  0  0  0
 17 33  1  0  0  0
 19 34  1  0  0  0
 20 35  1  0  0  0
 20 36  1  0  0  0
M  END
$$$$
