1qfs_ligand
  -I-interpret- 

 48 50  0  0  0  0  0  0  0  0999 V2000
   44.9510   36.1250   86.4560 C   0  0  0  0  0
   45.6010   35.1180   87.1560 C   0  0  0  0  0
   46.0480   35.3550   88.4520 C   0  0  0  0  0
   45.8400   36.6010   89.0380 C   0  0  0  0  0
   45.1910   37.5990   88.3290 C   0  0  0  0  0
   44.7380   37.3730   87.0350 C   0  0  0  0  0
   44.0200   38.4530   86.2780 C   0  0  0  0  0
   42.6280   38.2980   86.4770 O   0  0  0  0  0
   41.9670   37.8030   85.4520 C   0  0  0  0  0
   42.5230   37.5020   84.3900 O   0  0  0  0  0
   40.6530   37.6370   85.6310 N   0  0  0  0  0
   39.7710   37.0770   84.6100 C   0  0  0  0  0
   39.3320   38.1410   83.6000 C   0  0  0  0  0
   39.4640   39.3500   83.8480 O   0  0  0  0  0
   38.5890   36.5870   85.4390 C   0  0  0  0  0
   38.4670   37.6620   86.4660 C   0  0  0  0  0
   39.9070   37.9120   86.8750 C   0  0  0  0  0
   38.3820   37.7120   80.1390 C   0  0  0  0  0
   38.1310   36.3520   80.6530 C   0  0  0  0  0
   36.9220   39.1260   81.6880 C   0  0  0  0  0
   36.0150   38.0390   81.8940 O   0  0  0  0  0
   38.8170   37.6980   82.4380 N   0  0  0  0  0
   38.7470   36.2860   82.0210 C   0  0  0  0  0
   38.3490   38.5950   81.3850 C   0  0  0  0  0
   44.6030   35.9363   85.4404 H   0  0  0  0  0
   45.7607   34.1448   86.6919 H   0  0  0  0  0
   46.5592   34.5682   89.0067 H   0  0  0  0  0
   46.1874   36.7910   90.0535 H   0  0  0  0  0
   45.0339   38.5732   88.7920 H   0  0  0  0  0
   44.2527   38.3779   85.2158 H   0  0  0  0  0
   44.3386   39.4315   86.6374 H   0  0  0  0  0
   40.2423   36.2985   84.0101 H   0  0  0  0  0
   38.7414   35.5958   85.8662 H   0  0  0  0  0
   37.6807   36.4423   84.8541 H   0  0  0  0  0
   37.8345   37.3731   87.3054 H   0  0  0  0  0
   37.9761   38.5568   86.0833 H   0  0  0  0  0
   40.0713   38.9207   87.2540 H   0  0  0  0  0
   40.2261   37.2859   87.7082 H   0  0  0  0  0
   37.6409   38.0157   79.3997 H   0  0  0  0  0
   39.3321   37.7829   79.6095 H   0  0  0  0  0
   38.5678   35.6015   79.9942 H   0  0  0  0  0
   37.0617   36.1457   80.6986 H   0  0  0  0  0
   36.9556   39.7348   82.5915 H   0  0  0  0  0
   36.5776   39.7183   80.8402 H   0  0  0  0  0
   35.1391   38.3854   82.0798 H   0  0  0  0  0
   39.7247   35.8041   82.0151 H   0  0  0  0  0
   38.1647   35.6758   82.7114 H   0  0  0  0  0
   38.9582   39.4926   81.2788 H   0  0  0  0  0
  1  2  4  0  0  0
  6  1  4  0  0  0
  2  3  4  0  0  0
  4  3  4  0  0  0
  5  4  4  0  0  0
  6  5  4  0  0  0
  7  6  1  0  0  0
  8  7  1  0  0  0
  9  8  1  0  0  0
  9 10  2  0  0  0
 11  9  1  0  0  0
 12 11  1  0  0  0
 11 17  1  0  0  0
 13 12  1  0  0  0
 12 15  1  0  0  0
 13 14  2  0  0  0
 22 13  1  0  0  0
 15 16  1  0  0  0
 16 17  1  0  0  0
 19 18  1  0  0  0
 18 24  1  0  0  0
 23 19  1  0  0  0
 20 21  1  0  0  0
 24 20  1  0  0  0
 22 23  1  0  0  0
 22 24  1  0  0  0
  1 25  1  0  0  0
  2 26  1  0  0  0
  3 27  1  0  0  0
  4 28  1  0  0  0
  5 29  1  0  0  0
  7 30  1  0  0  0
  7 31  1  0  0  0
 12 32  1  0  0  0
 15 33  1  0  0  0
 15 34  1  0  0  0
 16 35  1  0  0  0
 16 36  1  0  0  0
 17 37  1  0  0  0
 17 38  1  0  0  0
 18 39  1  0  0  0
 18 40  1  0  0  0
 19 41  1  0  0  0
 19 42  1  0  0  0
 20 43  1  0  0  0
 20 44  1  0  0  0
 21 45  1  0  0  0
 23 46  1  0  0  0
 23 47  1  0  0  0
 24 48  1  0  0  0
M  END
$$$$
