6q9h_ligand
  -I-interpret- 

 45 48  0  0  0  0  0  0  0  0999 V2000
    3.6290   11.8480    3.0470 C   0  0  0  0  0
    2.3150   11.3990    3.2260 C   0  0  0  0  0
    4.1310   12.3280   -1.2940 C   0  0  0  0  0
    6.3200   12.2570    0.8510 C   0  0  0  0  0
    7.7520   12.4560    1.2170 C   0  0  0  0  0
    8.0730   11.9510    2.3940 C   0  0  0  0  0
    8.9900   13.0120    0.6790 C   0  0  0  0  0
    9.2230   13.7030   -0.6340 C   0  0  0  0  0
    8.3990   13.0030   -1.7520 C   0  0  0  0  0
    8.8520   15.2020   -0.5280 C   0  0  0  0  0
    6.8800   11.3600    2.9880 C   0  0  0  0  0
    3.9820   12.9930    3.6030 F   0  0  0  0  0
    1.9040   10.1850    2.6530 C   0  0  0  0  0
    2.8050    9.4240    1.8990 C   0  0  0  0  0
    4.1160    9.8830    1.7300 C   0  0  0  0  0
    4.5480   11.0990    2.2960 C   0  0  0  0  0
    5.8960   11.5440    2.0850 N   0  0  0  0  0
    9.3220   12.1400    2.6540 N   0  0  0  0  0
    9.8540   12.7830    1.5870 N   0  0  0  0  0
    6.8140   10.8140    4.0770 O   0  0  0  0  0
    5.4250   13.4930    0.6210 C   0  0  0  0  0
    4.3910   13.5010   -0.3400 C   0  0  0  0  0
    3.5700   14.6250   -0.4640 C   0  0  0  0  0
    3.7430   15.7270    0.3770 C   0  0  0  0  0
    4.7470   15.7160    1.3430 C   0  0  0  0  0
    5.5780   14.6000    1.4750 C   0  0  0  0  0
    2.6870   17.1140    0.2310 Cl  0  0  0  0  0
    1.1800   12.3480    4.1720 Cl  0  0  0  0  0
    5.0174   12.1541   -1.9040 H   0  0  0  0  0
    3.9060   11.4328   -0.7142 H   0  0  0  0  0
    3.2855   12.5666   -1.9392 H   0  0  0  0  0
    6.2200   11.7786   -0.1233 H   0  0  0  0  0
   10.2804   13.6364   -0.8900 H   0  0  0  0  0
    8.7096   11.9613   -1.8324 H   0  0  0  0  0
    7.3388   13.0491   -1.5032 H   0  0  0  0  0
    8.5731   13.5097   -2.7012 H   0  0  0  0  0
    7.8002   15.2964   -0.2581 H   0  0  0  0  0
    9.4685   15.6744    0.2368 H   0  0  0  0  0
    9.0270   15.6871   -1.4883 H   0  0  0  0  0
    0.8818    9.8345    2.7955 H   0  0  0  0  0
    2.4886    8.4834    1.4481 H   0  0  0  0  0
    4.8186    9.2868    1.1477 H   0  0  0  0  0
    2.7881   14.6420   -1.2232 H   0  0  0  0  0
    4.8844   16.5779    1.9959 H   0  0  0  0  0
    6.3496   14.5875    2.2448 H   0  0  0  0  0
  1  2  4  0  0  0
  1 12  1  0  0  0
 16  1  4  0  0  0
  2 13  4  0  0  0
  2 28  1  0  0  0
 22  3  1  0  0  0
  4  5  1  0  0  0
  4 17  1  0  0  0
 21  4  1  0  0  0
  5  6  4  0  0  0
  5  7  4  0  0  0
 11  6  1  0  0  0
  6 18  4  0  0  0
  7  8  1  0  0  0
  7 19  4  0  0  0
  8  9  1  0  0  0
  8 10  1  0  0  0
 17 11  1  0  0  0
 11 20  2  0  0  0
 14 13  4  0  0  0
 15 14  4  0  0  0
 16 15  4  0  0  0
 17 16  1  0  0  0
 19 18  4  0  0  0
 21 22  4  0  0  0
 21 26  4  0  0  0
 22 23  4  0  0  0
 23 24  4  0  0  0
 24 25  4  0  0  0
 24 27  1  0  0  0
 25 26  4  0  0  0
  3 29  1  0  0  0
  3 30  1  0  0  0
  3 31  1  0  0  0
  4 32  1  0  0  0
  8 33  1  0  0  0
  9 34  1  0  0  0
  9 35  1  0  0  0
  9 36  1  0  0  0
 10 37  1  0  0  0
 10 38  1  0  0  0
 10 39  1  0  0  0
 13 40  1  0  0  0
 14 41  1  0  0  0
 15 42  1  0  0  0
 23 43  1  0  0  0
 25 44  1  0  0  0
 26 45  1  0  0  0
M  END
$$$$
