5u4x_ligand
  -I-interpret- 

 70 73  0  0  0  0  0  0  0  0999 V2000
    8.7220   29.9210   20.6130 C   0  0  0  0  0
    8.4100   29.2510   21.9450 C   0  0  0  0  0
    7.5630   28.0220   21.7090 C   0  0  0  0  0
   10.9190   30.6970   21.4720 N   0  3  0  0  0
    5.5420   26.9780   21.9520 C   0  0  0  0  0
    5.9750   25.8560   21.2650 C   0  0  0  0  0
    6.3110   28.0560   22.1860 N   0  0  0  0  0
    7.2700   25.8260   20.7660 C   0  0  0  0  0
    7.8430   24.6480   20.0070 C   0  0  0  0  0
    5.9930   24.1410   18.4550 C   0  0  0  0  0
    6.8100   22.3780   19.9180 C   0  0  0  0  0
    6.8520   23.6660   19.5300 N   0  0  0  0  0
    7.6690   21.9560   21.0630 C   0  0  0  0  0
    8.6450   20.9840   20.8840 C   0  0  0  0  0
    9.4120   20.5620   21.9530 C   0  0  0  0  0
    6.1520   21.5350   19.3320 O   0  0  0  0  0
    7.4790   22.5190   22.3250 C   0  0  0  0  0
    8.2650   22.1010   23.3900 C   0  0  0  0  0
    8.1270   22.6470   24.6790 O   0  0  0  0  0
    7.1480   23.6140   24.9160 C   0  0  0  0  0
    5.9130   23.2220   25.4080 C   0  0  0  0  0
    4.9360   24.1770   25.6320 C   0  0  0  0  0
    5.1830   25.5090   25.3530 C   0  0  0  0  0
    6.4120   25.8890   24.8530 C   0  0  0  0  0
    7.4040   24.9450   24.6350 C   0  0  0  0  0
    9.2310   21.1160   23.2100 C   0  0  0  0  0
    8.0680   26.9370   21.0000 C   0  0  0  0  0
    9.6880   31.0880   20.7770 C   0  0  0  0  0
    9.7060   28.9120   22.6780 C   0  0  0  0  0
   10.6230   30.1230   22.7890 C   0  0  0  0  0
   11.8540   29.9130   20.6540 C   0  0  0  0  0
   13.1270   30.6680   20.3880 C   0  0  0  0  0
   14.1630   29.8440   19.7100 N   0  3  0  0  0
   13.8820   29.4600   18.3310 C   0  0  0  0  0
    7.7904   30.3042   20.1965 H   0  0  0  0  0
    9.1858   29.1825   19.9591 H   0  0  0  0  0
    7.8438   29.9349   22.5773 H   0  0  0  0  0
   11.4453   31.5535   21.6448 H   0  0  0  0  0
    4.5178   26.9877   22.3249 H   0  0  0  0  0
    5.3072   25.0071   21.1180 H   0  0  0  0  0
    8.4992   24.1196   20.6986 H   0  0  0  0  0
    8.3320   25.0543   19.1216 H   0  0  0  0  0
    5.4345   25.0127   18.7961 H   0  0  0  0  0
    6.6056   24.4139   17.5958 H   0  0  0  0  0
    5.2979   23.3509   18.1710 H   0  0  0  0  0
    8.8065   20.5524   19.8962 H   0  0  0  0  0
   10.1649   19.7876   21.8064 H   0  0  0  0  0
    6.7167   23.2837   22.4742 H   0  0  0  0  0
    5.7127   22.1711   25.6167 H   0  0  0  0  0
    3.9667   23.8775   26.0305 H   0  0  0  0  0
    4.4092   26.2565   25.5275 H   0  0  0  0  0
    6.6041   26.9381   24.6280 H   0  0  0  0  0
    8.3761   25.2481   24.2461 H   0  0  0  0  0
    9.8400   20.7831   24.0504 H   0  0  0  0  0
    9.0922   26.9595   20.6276 H   0  0  0  0  0
    9.1931   31.8561   21.3713 H   0  0  0  0  0
    9.9591   31.4452   19.7835 H   0  0  0  0  0
   10.2266   28.1372   22.1152 H   0  0  0  0  0
    9.4543   28.5782   23.6846 H   0  0  0  0  0
   10.1218   30.8811   23.3909 H   0  0  0  0  0
   11.5605   29.8050   23.2452 H   0  0  0  0  0
   11.3766   29.6967   19.6983 H   0  0  0  0  0
   12.1025   29.0003   21.1956 H   0  0  0  0  0
   13.5319   30.9839   21.3495 H   0  0  0  0  0
   12.8856   31.5033   19.7306 H   0  0  0  0  0
   14.2265   28.9747   20.2398 H   0  0  0  0  0
   15.0065   30.4166   19.6794 H   0  0  0  0  0
   12.9632   28.8745   18.2983 H   0  0  0  0  0
   13.7649   30.3565   17.7222 H   0  0  0  0  0
   14.7087   28.8631   17.9458 H   0  0  0  0  0
  2  1  1  0  0  0
  1 28  1  0  0  0
  3  2  1  0  0  0
  2 29  1  0  0  0
  7  3  4  0  0  0
  3 27  4  0  0  0
 28  4  1  0  0  0
  4 30  1  0  0  0
  4 31  1  0  0  0
  5  6  4  0  0  0
  5  7  4  0  0  0
  6  8  4  0  0  0
  8  9  1  0  0  0
  8 27  4  0  0  0
  9 12  1  0  0  0
 12 10  1  0  0  0
 12 11  1  0  0  0
 11 13  1  0  0  0
 11 16  2  0  0  0
 13 14  4  0  0  0
 13 17  4  0  0  0
 14 15  4  0  0  0
 15 26  4  0  0  0
 17 18  4  0  0  0
 18 19  1  0  0  0
 18 26  4  0  0  0
 19 20  1  0  0  0
 20 21  4  0  0  0
 20 25  4  0  0  0
 21 22  4  0  0  0
 22 23  4  0  0  0
 23 24  4  0  0  0
 24 25  4  0  0  0
 29 30  1  0  0  0
 31 32  1  0  0  0
 32 33  1  0  0  0
 33 34  1  0  0  0
  1 35  1  0  0  0
  1 36  1  0  0  0
  2 37  1  0  0  0
  4 38  1  0  0  0
  5 39  1  0  0  0
  6 40  1  0  0  0
  9 41  1  0  0  0
  9 42  1  0  0  0
 10 43  1  0  0  0
 10 44  1  0  0  0
 10 45  1  0  0  0
 14 46  1  0  0  0
 15 47  1  0  0  0
 17 48  1  0  0  0
 21 49  1  0  0  0
 22 50  1  0  0  0
 23 51  1  0  0  0
 24 52  1  0  0  0
 25 53  1  0  0  0
 26 54  1  0  0  0
 27 55  1  0  0  0
 28 56  1  0  0  0
 28 57  1  0  0  0
 29 58  1  0  0  0
 29 59  1  0  0  0
 30 60  1  0  0  0
 30 61  1  0  0  0
 31 62  1  0  0  0
 31 63  1  0  0  0
 32 64  1  0  0  0
 32 65  1  0  0  0
 33 66  1  0  0  0
 33 67  1  0  0  0
 34 68  1  0  0  0
 34 69  1  0  0  0
 34 70  1  0  0  0
M  END
$$$$
