5iu7_ligand
  -I-interpret- 

 55 59  0  0  0  0  0  0  0  0999 V2000
    0.3750   14.2570   13.1980 C   0  0  0  0  0
    0.3080   12.8360   15.6550 C   0  0  0  0  0
    3.1880   16.0580   12.9710 C   0  0  0  0  0
    3.7830   18.2890   13.6900 C   0  0  0  0  0
   -1.2760    6.6520   17.4860 C   0  0  0  0  0
   -0.2370    5.0050   18.4870 C   0  0  0  0  0
    2.9170   18.0990   14.7720 C   0  0  0  0  0
    2.2040   16.9070   14.9270 C   0  0  0  0  0
    3.9020   17.2340   12.7900 C   0  0  0  0  0
    0.9510   14.2120   15.5810 C   0  0  0  0  0
    2.3130   15.8070   14.0410 C   0  0  0  0  0
    1.5300   14.4950   14.1770 C   0  0  0  0  0
    1.5640    8.8600   18.3380 N   0  0  0  0  0
    0.3600    8.4130   17.8420 C   0  0  0  0  0
   -0.4680    9.2510   17.1870 N   0  0  0  0  0
   -1.7030    8.7770   16.6750 C   0  0  0  0  0
   -2.4590    9.7180   16.0480 N   0  0  0  0  0
   -2.1570   11.0710   15.8450 C   0  0  0  0  0
   -1.2130   11.2540   14.6530 C   0  0  0  0  0
   -0.7940   12.6860   14.6470 N   0  3  0  0  0
   -0.2180   12.8710   13.2620 C   0  0  0  0  0
   -2.0940    7.5130   16.8150 N   0  0  0  0  0
   -1.3960    5.3500   17.7940 N   0  0  0  0  0
    0.6320    6.0510   18.6060 N   0  0  0  0  0
    0.0020    7.0930   18.0240 N   0  0  0  0  0
    0.0330    3.6970   18.9720 C   0  0  0  0  0
   -0.7500    2.5970   19.1940 C   0  0  0  0  0
    0.1000    1.5130   19.6750 C   0  0  0  0  0
    1.4020    2.0660   19.7150 C   0  0  0  0  0
    1.3240    3.3890   19.2950 O   0  0  0  0  0
    0.7747   14.3886   12.1925 H   0  0  0  0  0
   -0.4177   14.9574   13.4610 H   0  0  0  0  0
   -0.1163   12.7073   16.6507 H   0  0  0  0  0
    1.0716   12.0873   15.4443 H   0  0  0  0  0
    3.3155   15.2707   12.2280 H   0  0  0  0  0
    4.3376   19.2180   13.5581 H   0  0  0  0  0
    2.7962   18.8946   15.5072 H   0  0  0  0  0
    1.5267   16.8188   15.7765 H   0  0  0  0  0
    4.5654   17.3329   11.9308 H   0  0  0  0  0
    1.7662   14.2503   16.3036 H   0  0  0  0  0
    0.1882   14.9604   15.7960 H   0  0  0  0  0
    2.3457   13.8128   13.9375 H   0  0  0  0  0
    1.8375    9.8345   18.2115 H   0  0  0  0  0
    2.1825    8.2167   18.8320 H   0  0  0  0  0
   -3.3557    9.3996   15.6806 H   0  0  0  0  0
   -1.6674   11.4565   16.7393 H   0  0  0  0  0
   -3.0835   11.6078   15.6411 H   0  0  0  0  0
   -1.7134   10.9938   13.7202 H   0  0  0  0  0
   -0.3468   10.5983   14.7418 H   0  0  0  0  0
   -1.5411   13.3462   14.8626 H   0  0  0  0  0
    0.5468   12.1200   13.0641 H   0  0  0  0  0
   -0.9957   12.7542   12.5073 H   0  0  0  0  0
   -1.8273    2.5401   19.0378 H   0  0  0  0  0
   -0.2014    0.5007   19.9441 H   0  0  0  0  0
    2.3089    1.5450   20.0219 H   0  0  0  0  0
 12  1  1  0  0  0
  1 21  1  0  0  0
  2 10  1  0  0  0
 20  2  1  0  0  0
  3  9  4  0  0  0
 11  3  4  0  0  0
  7  4  4  0  0  0
  9  4  4  0  0  0
 22  5  4  0  0  0
  5 23  4  0  0  0
  5 25  4  0  0  0
 23  6  4  0  0  0
  6 24  4  0  0  0
  6 26  1  0  0  0
  8  7  4  0  0  0
 11  8  4  0  0  0
 10 12  1  0  0  0
 12 11  1  0  0  0
 14 13  1  0  0  0
 15 14  4  0  0  0
 14 25  4  0  0  0
 16 15  4  0  0  0
 17 16  1  0  0  0
 16 22  4  0  0  0
 18 17  1  0  0  0
 19 18  1  0  0  0
 19 20  1  0  0  0
 20 21  1  0  0  0
 24 25  4  0  0  0
 26 27  4  0  0  0
 26 30  4  0  0  0
 27 28  4  0  0  0
 28 29  4  0  0  0
 29 30  4  0  0  0
  1 31  1  0  0  0
  1 32  1  0  0  0
  2 33  1  0  0  0
  2 34  1  0  0  0
  3 35  1  0  0  0
  4 36  1  0  0  0
  7 37  1  0  0  0
  8 38  1  0  0  0
  9 39  1  0  0  0
 10 40  1  0  0  0
 10 41  1  0  0  0
 12 42  1  0  0  0
 13 43  1  0  0  0
 13 44  1  0  0  0
 17 45  1  0  0  0
 18 46  1  0  0  0
 18 47  1  0  0  0
 19 48  1  0  0  0
 19 49  1  0  0  0
 20 50  1  0  0  0
 21 51  1  0  0  0
 21 52  1  0  0  0
 27 53  1  0  0  0
 28 54  1  0  0  0
 29 55  1  0  0  0
M  END
$$$$
