4x6j_ligand
  -I-interpret- 

 44 45  0  0  0  0  0  0  0  0999 V2000
   48.7580   19.4740   10.8110 C   0  0  0  0  0
   49.2910   20.7170   11.5170 C   0  0  0  0  0
   50.1110   20.2860   13.8040 C   0  0  0  0  0
   51.2260   20.0250   14.7780 C   0  0  0  0  0
   51.4150   18.4970   14.9600 C   0  0  0  0  0
   52.6530   18.0780   15.7960 C   0  0  0  0  0
   53.8380   18.9690   15.4450 C   0  0  0  0  0
   53.5410   20.4830   15.4640 C   0  0  0  0  0
   52.5470   20.6570   14.3540 C   0  0  0  0  0
   50.5070   21.9120   16.1640 C   0  0  0  0  0
   50.3760   20.5580   12.4840 N   0  0  0  0  0
   48.0320   19.6910    9.7790 N   0  0  0  0  0
   48.9520   20.2480   14.1770 O   0  0  0  0  0
   50.8030   20.5920   16.0300 N   0  0  0  0  0
   50.6130   22.7600   15.2360 O   0  0  0  0  0
   49.7900   22.2800   17.4000 C   0  0  0  0  0
   48.8870   23.3310   17.4780 C   0  0  0  0  0
   48.1280   23.5500   18.6230 C   0  0  0  0  0
   48.2630   22.6850   19.6760 C   0  0  0  0  0
   49.1510   21.6440   19.6220 C   0  0  0  0  0
   49.8790   21.4270   18.4640 C   0  0  0  0  0
   48.6870   24.2940   16.4270 N   0  0  0  0  0
   47.3010   22.8740   21.1710 Cl  0  0  0  0  0
   48.9808   18.4665   11.1624 H   0  0  0  0  0
   48.4492   21.1006   12.0934 H   0  0  0  0  0
   49.7047   21.3400   10.7240 H   0  0  0  0  0
   51.5549   18.0786   13.9633 H   0  0  0  0  0
   50.5382   18.1355   15.4973 H   0  0  0  0  0
   52.9037   17.0407   15.5739 H   0  0  0  0  0
   52.4243   18.1835   16.8565 H   0  0  0  0  0
   54.1305   18.7177   14.4255 H   0  0  0  0  0
   54.6031   18.7882   16.2000 H   0  0  0  0  0
   54.4371   21.0870   15.3217 H   0  0  0  0  0
   53.1573   20.8221   16.4262 H   0  0  0  0  0
   52.4015   21.7178   14.1499 H   0  0  0  0  0
   52.9147   20.1745   13.4484 H   0  0  0  0  0
   51.3434   20.6504   12.1740 H   0  0  0  0  0
   47.8445   20.6478    9.4794 H   0  0  0  0  0
   50.7224   19.9835   16.8446 H   0  0  0  0  0
   47.4397   24.3932   18.6809 H   0  0  0  0  0
   49.2839   20.9907   20.4844 H   0  0  0  0  0
   50.5355   20.5593   18.4000 H   0  0  0  0  0
   49.2255   24.2257   15.5634 H   0  0  0  0  0
   48.0068   25.0447   16.5458 H   0  0  0  0  0
  2  1  1  0  0  0
  1 12  2  0  0  0
 11  2  1  0  0  0
  3  4  1  0  0  0
  3 11  1  0  0  0
  3 13  2  0  0  0
  4  5  1  0  0  0
  4  9  1  0  0  0
  4 14  1  0  0  0
  5  6  1  0  0  0
  6  7  1  0  0  0
  7  8  1  0  0  0
  8  9  1  0  0  0
 14 10  1  0  0  0
 10 15  2  0  0  0
 10 16  1  0  0  0
 16 17  4  0  0  0
 16 21  4  0  0  0
 17 18  4  0  0  0
 17 22  1  0  0  0
 18 19  4  0  0  0
 19 20  4  0  0  0
 19 23  1  0  0  0
 20 21  4  0  0  0
  1 24  1  0  0  0
  2 25  1  0  0  0
  2 26  1  0  0  0
  5 27  1  0  0  0
  5 28  1  0  0  0
  6 29  1  0  0  0
  6 30  1  0  0  0
  7 31  1  0  0  0
  7 32  1  0  0  0
  8 33  1  0  0  0
  8 34  1  0  0  0
  9 35  1  0  0  0
  9 36  1  0  0  0
 11 37  1  0  0  0
 12 38  1  0  0  0
 14 39  1  0  0  0
 18 40  1  0  0  0
 20 41  1  0  0  0
 21 42  1  0  0  0
 22 43  1  0  0  0
 22 44  1  0  0  0
M  END
$$$$
