### 
### Created by X-TOOL on Mon Sep 10 21:13:23 2018
### 

@<TRIPOS>MOLECULE
4x6j_ligand
   44    45     1     0     0
SMALL
GAST_HUCK


@<TRIPOS>ATOM
      1 C1         48.7580   19.4740   10.8110 C.2       1 3Y2         0.0177
      2 C2         49.2910   20.7170   11.5170 C.3       1 3Y2         0.0899
      3 C4         50.1110   20.2860   13.8040 C.2       1 3Y2         0.2272
      4 C6         51.2260   20.0250   14.7780 C.3       1 3Y2         0.1324
      5 C7         51.4150   18.4970   14.9600 C.3       1 3Y2        -0.0199
      6 C8         52.6530   18.0780   15.7960 C.3       1 3Y2        -0.0516
      7 C9         53.8380   18.9690   15.4450 C.3       1 3Y2        -0.0532
      8 C10        53.5410   20.4830   15.4640 C.3       1 3Y2        -0.0516
      9 C11        52.5470   20.6570   14.3540 C.3       1 3Y2        -0.0199
     10 C13        50.5070   21.9120   16.1640 C.2       1 3Y2         0.1960
     11 N3         50.3760   20.5580   12.4840 N.am      1 3Y2        -0.2642
     12 N1         48.0320   19.6910    9.7790 N.2       1 3Y2        -0.3621
     13 O5         48.9520   20.2480   14.1770 O.2       1 3Y2        -0.3418
     14 N12        50.8030   20.5920   16.0300 N.am      1 3Y2        -0.2775
     15 O14        50.6130   22.7600   15.2360 O.2       1 3Y2        -0.3923
     16 C15        49.7900   22.2800   17.4000 C.ar      1 3Y2         0.0665
     17 C16        48.8870   23.3310   17.4780 C.ar      1 3Y2         0.0572
     18 C17        48.1280   23.5500   18.6230 C.ar      1 3Y2        -0.0246
     19 C18        48.2630   22.6850   19.6760 C.ar      1 3Y2         0.0337
     20 C19        49.1510   21.6440   19.6220 C.ar      1 3Y2        -0.0554
     21 C20        49.8790   21.4270   18.4640 C.ar      1 3Y2        -0.0530
     22 N21        48.6870   24.2940   16.4270 N.pl3     1 3Y2        -0.3325
     23 CL2        47.3010   22.8740   21.1710 Cl        1 3Y2        -0.0701
     24 H1         48.9806   18.4675   11.1621 H         1 3Y2         0.1222
     25 H2         48.4452   21.1755   12.0503 H         1 3Y2         0.0805
     26 H3         49.6492   21.4051   10.7371 H         1 3Y2         0.0805
     27 H4         51.5100   18.0448   13.9618 H         1 3Y2         0.0277
     28 H5         50.5182   18.1004   15.4584 H         1 3Y2         0.0277
     29 H6         52.9056   17.0305   15.5748 H         1 3Y2         0.0265
     30 H7         52.4228   18.1815   16.8666 H         1 3Y2         0.0265
     31 H8         54.1798   18.7006   14.4345 H         1 3Y2         0.0265
     32 H9         54.6417   18.7695   16.1690 H         1 3Y2         0.0265
     33 H10        54.4536   21.0655   15.2698 H         1 3Y2         0.0265
     34 H11        53.1102   20.7874   16.4292 H         1 3Y2         0.0265
     35 H12        52.3979   21.7286   14.1552 H         1 3Y2         0.0277
     36 H13        52.9183   20.1634   13.4438 H         1 3Y2         0.0277
     37 H14        51.3244   20.6486   12.1801 H         1 3Y2         0.1900
     38 H15        47.6457   18.9163    9.2626 H         1 3Y2         0.1054
     39 H16        50.7240   19.9954   16.8287 H         1 3Y2         0.1827
     40 H17        47.4434   24.3885   18.6806 H         1 3Y2         0.0533
     41 H18        49.2832   20.9943   20.4796 H         1 3Y2         0.0524
     42 H19        50.5319   20.5640   18.4004 H         1 3Y2         0.0634
     43 H20        49.2090   24.2077   15.5433 H         1 3Y2         0.1745
     44 H21        48.0219   25.0693   16.5587 H         1 3Y2         0.1745
@<TRIPOS>BOND
     1    2    1 1  
     2    1   12 2  
     3   11    2 1  
     4    3    4 1  
     5    3   11 am 
     6    3   13 2  
     7    4    5 1  
     8    4    9 1  
     9    4   14 1  
    10    5    6 1  
    11    6    7 1  
    12    7    8 1  
    13    8    9 1  
    14   14   10 am 
    15   10   15 2  
    16   10   16 1  
    17   16   17 ar 
    18   16   21 ar 
    19   17   18 ar 
    20   17   22 1  
    21   18   19 ar 
    22   19   20 ar 
    23   19   23 1  
    24   20   21 ar 
    25    1   24 1  
    26    2   25 1  
    27    2   26 1  
    28    5   27 1  
    29    5   28 1  
    30    6   29 1  
    31    6   30 1  
    32    7   31 1  
    33    7   32 1  
    34    8   33 1  
    35    8   34 1  
    36    9   35 1  
    37    9   36 1  
    38   11   37 1  
    39   12   38 1  
    40   14   39 1  
    41   18   40 1  
    42   20   41 1  
    43   21   42 1  
    44   22   43 1  
    45   22   44 1  
@<TRIPOS>SUBSTRUCTURE
     1 3Y2         1

