### 
### Created by X-TOOL on Mon Sep 10 21:13:27 2018
### 

@<TRIPOS>MOLECULE
5ixt_ligand
  188   192     1     0     0
SMALL
GAST_HUCK


@<TRIPOS>ATOM
      1 N          -5.2090   56.5070   -4.0940 N.4       1 PRO         0.2461
      2 CA         -4.2060   57.4250   -4.6620 C.3       1 PRO         0.0670
      3 C          -2.7590   56.8740   -4.6670 C.2       1 PRO         0.2268
      4 O          -2.5430   55.6590   -4.6680 O.2       1 PRO        -0.3907
      5 CB         -4.3330   58.6800   -3.7650 C.3       1 PRO         0.0127
      6 CG         -5.7380   58.6490   -3.2700 C.3       1 PRO        -0.0053
      7 CD         -6.1230   57.1910   -3.1590 C.3       1 PRO        -0.0313
      8 N          -1.7830   57.7690   -4.6890 N.am      1 ILE        -0.2607
      9 CA         -0.3530   57.3820   -4.6840 C.3       1 ILE         0.1338
     10 C           0.0770   57.1850   -3.2110 C.2       1 ILE         0.2067
     11 O          -0.2320   58.0480   -2.3730 O.2       1 ILE        -0.3942
     12 CB          0.5150   58.4760   -5.3580 C.3       1 ILE        -0.0037
     13 CG1        -0.0190   58.8180   -6.7640 C.3       1 ILE        -0.0491
     14 CG2         1.9740   58.0590   -5.4220 C.3       1 ILE        -0.0582
     15 CD1         0.3360   60.2270   -7.1970 C.3       1 ILE        -0.0648
     16 N           0.7800   56.0590   -2.8830 N.am      1 PRO        -0.2498
     17 CA          1.2560   55.8610   -1.4900 C.3       1 PRO         0.1340
     18 C           2.1710   57.0260   -1.0560 C.2       1 PRO         0.2066
     19 O           3.0100   57.4020   -1.8290 O.2       1 PRO        -0.3942
     20 CB          2.0430   54.5360   -1.5610 C.3       1 PRO        -0.0104
     21 CG          1.5670   53.8440   -2.7780 C.3       1 PRO        -0.0281
     22 CD          1.1120   54.9060   -3.7500 C.3       1 PRO         0.0369
     23 N           1.9740   57.6270    0.1420 N.am      1 PRO        -0.2498
     24 CA          2.8820   58.7560    0.4790 C.3       1 PRO         0.1338
     25 C           4.3140   58.2600    0.6400 C.2       1 PRO         0.2042
     26 O           4.5360   57.0530    0.8120 O.2       1 PRO        -0.3944
     27 CB          2.3430   59.2700    1.8180 C.3       1 PRO        -0.0104
     28 CG          1.5100   58.1470    2.3710 C.3       1 PRO        -0.0281
     29 CD          0.9330   57.4330    1.1670 C.3       1 PRO         0.0369
     30 N           5.2740   59.1730    0.5130 N.am      1 SER        -0.2616
     31 CA          6.6100   58.9320    0.9640 C.3       1 SER         0.1539
     32 C           6.6300   58.8920    2.5060 C.2       1 SER         0.2062
     33 O           6.7600   59.9330    3.1750 O.2       1 SER        -0.3943
     34 CB          7.5660   60.0110    0.4580 C.3       1 SER         0.0843
     35 OG          8.8710   59.6680    0.8620 O.3       1 SER        -0.3903
     36 N           6.5030   57.6890    3.0760 N.am      1 ALA        -0.2639
     37 CA          6.3840   57.5420    4.5340 C.3       1 ALA         0.1284
     38 C           6.6350   56.0940    4.9680 C.2       1 ALA         0.2062
     39 O           6.6570   55.2080    4.1070 O.2       1 ALA        -0.3942
     40 CB          4.9740   57.9670    4.9840 C.3       1 ALA        -0.0244
     41 N           6.8190   55.8730    6.2760 N.am      1 HYP        -0.2473
     42 CA          6.8780   54.4960    6.8290 C.3       1 HYP         0.1362
     43 C           5.9170   53.4130    6.4040 C.2       1 HYP         0.2043
     44 O           4.7310   53.7200    6.2650 O.2       1 HYP        -0.3944
     45 CB          7.3240   54.5300    8.2930 C.3       1 HYP         0.0158
     46 CG          7.8250   55.9590    8.4400 C.3       1 HYP         0.0799
     47 CD          7.0480   56.7940    7.4050 C.3       1 HYP         0.0629
     48 OD1         9.2270   55.9070    8.1590 O.3       1 HYP        -0.3896
     49 N           6.3780   52.1510    6.2190 N.am      1 SER        -0.2616
     50 CA          5.3930   51.0460    5.9800 C.3       1 SER         0.1539
     51 C           4.4150   51.0030    7.1680 C.2       1 SER         0.2062
     52 O           4.8190   51.1000    8.3380 O.2       1 SER        -0.3943
     53 CB          6.0400   49.6780    5.8060 C.3       1 SER         0.0843
     54 OG          4.9920   48.7190    5.6530 O.3       1 SER        -0.3903
     55 N           3.1370   50.8500    6.8600 N.am      1 LYS        -0.2637
     56 CA          2.1050   50.6610    7.9050 C.3       1 LYS         0.1310
     57 C           1.8270   49.1740    8.2850 C.2       1 LYS         0.2039
     58 O           0.9930   48.9070    9.1330 O.2       1 LYS        -0.3944
     59 CB          0.8000   51.3330    7.4520 C.3       1 LYS        -0.0122
     60 CG          0.9230   52.8420    7.2280 C.3       1 LYS        -0.0440
     61 CD         -0.4310   53.4700    6.8870 C.3       1 LYS        -0.0124
     62 CE         -0.7190   53.4110    5.3860 C.3       1 LYS        -0.0354
     63 NZ         -2.1250   53.8040    5.0570 N.4       1 LYS         0.2185
     64 N           2.5190   48.2270    7.6710 N.am      1 ARG        -0.2637
     65 CA          2.3420   46.8070    8.0300 C.3       1 ARG         0.1311
     66 C           2.6220   46.5500    9.5090 C.2       1 ARG         0.2040
     67 O           3.4960   47.1700   10.1340 O.2       1 ARG        -0.3944
     68 CB          3.2140   45.9170    7.1300 C.3       1 ARG        -0.0092
     69 CG          2.7310   45.9650    5.6670 C.3       1 ARG        -0.0156
     70 CD          3.4450   44.9590    4.7820 C.3       1 ARG         0.0627
     71 NE          3.0560   43.5740    5.0850 N.pl3     1 ARG        -0.2723
     72 CZ          3.5670   42.4830    4.5030 C.cat     1 ARG         0.2882
     73 NH1         4.5130   42.5830    3.5680 N.pl3     1 ARG        -0.2849
     74 NH2         3.1250   41.2770    4.8520 N.pl3     1 ARG        -0.2849
     75 N           1.8370   45.6530   10.0810 N.am      1 HIS        -0.2625
     76 CA          1.9390   45.2820   11.4800 C.3       1 HIS         0.1369
     77 C           1.0800   44.0040   11.6680 C.2       1 HIS         0.2049
     78 O           0.2340   43.6720   10.8220 O.2       1 HIS        -0.3943
     79 CB          1.4260   46.4220   12.4230 C.3       1 HIS         0.0145
     80 CG         -0.0340   46.7310   12.2550 C.2       1 HIS        -0.0027
     81 ND1        -1.0250   46.0280   12.9160 N.2       1 HIS        -0.3252
     82 CD2        -0.6790   47.6140   11.4500 C.2       1 HIS         0.0291
     83 CE1        -2.2140   46.4750   12.5400 C.2       1 HIS         0.0907
     84 NE2        -2.0320   47.4420   11.6550 N.pl3     1 HIS        -0.2752
     85 N           1.2600   43.3730   12.8230 N.am      1 ASN        -0.2672
     86 CA          0.4910   42.1900   13.2240 C.3       1 ASN         0.1110
     87 C          -0.6530   42.6060   14.1660 C.2       1 ASN         0.0624
     88 O          -1.4110   41.7270   14.5830 O.co2     1 ASN        -0.5665
     89 CB          1.4280   41.1470   13.8890 C.3       1 ASN         0.0718
     90 CG          2.6190   40.8440   13.0350 C.2       1 ASN         0.1774
     91 OD1         3.6450   41.5440   13.0930 O.2       1 ASN        -0.3971
     92 ND2         2.4640   39.8870   12.1530 N.am      1 ASN        -0.3007
     93 OXT        -0.8670   43.7870   14.5170 O.co2     1 ASN        -0.5665
     94 H1         -4.7314   55.7694   -3.6001 H         1 PRO         0.2035
     95 H2         -5.7505   56.1116   -4.8466 H         1 PRO         0.2035
     96 H3         -4.4779   57.6709   -5.6991 H         1 PRO         0.1099
     97 H4         -4.1470   59.5941   -4.3479 H         1 PRO         0.0347
     98 H5         -3.6244   58.6301   -2.9251 H         1 PRO         0.0347
     99 H6         -6.4022   59.1642   -3.9795 H         1 PRO         0.0320
    100 H7         -5.8048   59.1354   -2.2857 H         1 PRO         0.0320
    101 H8         -5.9769   56.8254   -2.1319 H         1 PRO         0.0814
    102 H9         -7.1712   57.0399   -3.4564 H         1 PRO         0.0814
    103 H10        -2.0197   58.7404   -4.7097 H         1 ILE         0.1885
    104 H11        -0.2270   56.4375   -5.2335 H         1 ILE         0.0803
    105 H12         0.4504   59.3845   -4.7413 H         1 ILE         0.0345
    106 H13        -1.1143   58.7167   -6.7589 H         1 ILE         0.0267
    107 H14         0.4115   58.1088   -7.4863 H         1 ILE         0.0267
    108 H15         2.3319   57.8205   -4.4096 H         1 ILE         0.0235
    109 H16         2.5729   58.8826   -5.8380 H         1 ILE         0.0235
    110 H17         2.0740   57.1719   -6.0647 H         1 ILE         0.0235
    111 H18        -0.0687   60.4145   -8.2025 H         1 ILE         0.0230
    112 H19         1.4300   60.3404   -7.2150 H         1 ILE         0.0230
    113 H20        -0.0958   60.9484   -6.4877 H         1 ILE         0.0230
    114 H21         0.4098   55.7784   -0.7921 H         1 PRO         0.0802
    115 H22         1.8417   53.9236   -0.6697 H         1 PRO         0.0313
    116 H23         3.1223   54.7359   -1.6324 H         1 PRO         0.0313
    117 H24         0.7279   53.1780   -2.5284 H         1 PRO         0.0287
    118 H25         2.3840   53.2547   -3.2198 H         1 PRO         0.0287
    119 H26         1.9171   55.1639   -4.4538 H         1 PRO         0.0524
    120 H27         0.2276   54.5703   -4.3114 H         1 PRO         0.0524
    121 H28         2.8431   59.5397   -0.2919 H         1 PRO         0.0802
    122 H29         1.7259   60.1677    1.6653 H         1 PRO         0.0313
    123 H30         3.1720   59.5067    2.5012 H         1 PRO         0.0313
    124 H31         0.7031   58.5440    3.0044 H         1 PRO         0.0287
    125 H32         2.1350   57.4604    2.9608 H         1 PRO         0.0287
    126 H33         0.7780   56.3644    1.3769 H         1 PRO         0.0524
    127 H34        -0.0191   57.8875    0.8557 H         1 PRO         0.0524
    128 H35         5.0552   60.0525    0.0903 H         1 SER         0.1884
    129 H36         6.9433   57.9579    0.5766 H         1 SER         0.0823
    130 H37         7.2878   60.9854    0.8860 H         1 SER         0.0606
    131 H38         7.5184   60.0656   -0.6396 H         1 SER         0.0606
    132 H39         9.1045   58.8247    0.4919 H         1 SER         0.2097
    133 H40         6.4887   56.8726    2.4987 H         1 ALA         0.1883
    134 H41         7.1285   58.1920    5.0170 H         1 ALA         0.0797
    135 H42         4.8883   57.8559    6.0750 H         1 ALA         0.0277
    136 H43         4.2243   57.3309    4.4907 H         1 ALA         0.0277
    137 H44         4.8021   59.0178    4.7079 H         1 ALA         0.0277
    138 H45         7.7873   54.1220    6.3357 H         1 HYP         0.0803
    139 H46         8.1279   53.8035    8.4825 H         1 HYP         0.0338
    140 H47         6.4818   54.3303    8.9718 H         1 HYP         0.0338
    141 H48         7.6511   56.3491    9.4537 H         1 HYP         0.0616
    142 H49         6.0914   57.1389    7.8244 H         1 HYP         0.0550
    143 H50         7.6415   57.6623    7.0829 H         1 HYP         0.0550
    144 H51         9.6624   55.3833    8.8213 H         1 HYP         0.2099
    145 H52         7.3594   51.9604    6.2416 H         1 SER         0.1884
    146 H53         4.8331   51.2768    5.0617 H         1 SER         0.0823
    147 H54         6.6448   49.4340    6.6918 H         1 SER         0.0606
    148 H55         6.6816   49.6777    4.9125 H         1 SER         0.0606
    149 H56         5.3693   47.8541    5.5423 H         1 SER         0.2097
    150 H57         2.8617   50.8623    5.8987 H         1 LYS         0.1883
    151 H58         2.4599   51.1696    8.8135 H         1 LYS         0.0800
    152 H59         0.0352   51.1589    8.2232 H         1 LYS         0.0312
    153 H60         0.4809   50.8679    6.5076 H         1 LYS         0.0312
    154 H61         1.6210   53.0245    6.3977 H         1 LYS         0.0269
    155 H62         1.3130   53.3089    8.1444 H         1 LYS         0.0269
    156 H63        -0.4273   54.5220    7.2083 H         1 LYS         0.0317
    157 H64        -1.2220   52.9255    7.4235 H         1 LYS         0.0317
    158 H65        -0.5485   52.3829    5.0341 H         1 LYS         0.0813
    159 H66        -0.0310   54.0949    4.8675 H         1 LYS         0.0813
    160 H67        -2.2647   53.7492    4.0602 H         1 LYS         0.1994
    161 H68        -2.2916   54.7482    5.3682 H         1 LYS         0.1994
    162 H69        -2.7658   53.1793    5.5209 H         1 LYS         0.1994
    163 H70         3.1702   48.4774    6.9546 H         1 ARG         0.1883
    164 H71         1.2902   46.5445    7.8436 H         1 ARG         0.0800
    165 H72         3.1617   44.8795    7.4917 H         1 ARG         0.0313
    166 H73         4.2549   46.2695    7.1764 H         1 ARG         0.0313
    167 H74         2.9120   46.9745    5.2694 H         1 ARG         0.0301
    168 H75         1.6524   45.7501    5.6450 H         1 ARG         0.0301
    169 H76         4.5297   45.0627    4.9325 H         1 ARG         0.0689
    170 H77         3.1983   45.1739    3.7318 H         1 ARG         0.0689
    171 H78         2.3316   43.4321    5.8033 H         1 ARG         0.2642
    172 H79         4.8958   41.7331    3.1298 H         1 ARG         0.2615
    173 H80         4.8607   43.5101    3.2842 H         1 ARG         0.2615
    174 H81         2.3948   41.1848    5.5726 H         1 ARG         0.2615
    175 H82         3.5132   40.4360    4.4015 H         1 ARG         0.2615
    176 H83         1.1379   45.2079    9.5214 H         1 HIS         0.1885
    177 H84         2.9889   45.0645   11.7259 H         1 HIS         0.0817
    178 H85         2.0013   47.3349   12.2095 H         1 HIS         0.0420
    179 H86         1.5986   46.1151   13.4651 H         1 HIS         0.0420
    180 H87        -0.2144   48.3257   10.7691 H         1 HIS         0.0729
    181 H88        -3.1756   46.1097   12.8976 H         1 HIS         0.1199
    182 H89        -2.7800   47.9794   11.1938 H         1 HIS         0.2361
    183 H90         1.9553   43.7223   13.4512 H         1 ASN         0.1877
    184 H91         0.0508   41.7349   12.3245 H         1 ASN         0.0752
    185 H92         0.8641   40.2174   14.0559 H         1 ASN         0.0544
    186 H93         1.7743   41.5442   14.8545 H         1 ASN         0.0544
    187 H94         3.2213   39.6348   11.5506 H         1 ASN         0.1814
    188 H95         1.5884   39.4091   12.0824 H         1 ASN         0.1814
@<TRIPOS>BOND
     1    1    2 1  
     2    1    7 1  
     3    2    3 1  
     4    2    5 1  
     5    3    4 2  
     6    3    8 am 
     7    5    6 1  
     8    6    7 1  
     9    8    9 1  
    10    9   10 1  
    11    9   12 1  
    12   10   11 2  
    13   10   16 am 
    14   12   13 1  
    15   12   14 1  
    16   13   15 1  
    17   16   17 1  
    18   16   22 1  
    19   17   18 1  
    20   17   20 1  
    21   18   19 2  
    22   18   23 am 
    23   20   21 1  
    24   21   22 1  
    25   23   24 1  
    26   23   29 1  
    27   24   25 1  
    28   24   27 1  
    29   25   26 2  
    30   25   30 am 
    31   27   28 1  
    32   28   29 1  
    33   30   31 1  
    34   31   32 1  
    35   31   34 1  
    36   32   33 2  
    37   32   36 am 
    38   34   35 1  
    39   36   37 1  
    40   37   38 1  
    41   37   40 1  
    42   38   39 2  
    43   38   41 am 
    44   41   42 1  
    45   41   47 1  
    46   42   43 1  
    47   42   45 1  
    48   43   44 2  
    49   43   49 am 
    50   45   46 1  
    51   46   47 1  
    52   46   48 1  
    53   49   50 1  
    54   50   51 1  
    55   50   53 1  
    56   51   52 2  
    57   51   55 am 
    58   53   54 1  
    59   55   56 1  
    60   56   57 1  
    61   56   59 1  
    62   57   58 2  
    63   57   64 am 
    64   59   60 1  
    65   60   61 1  
    66   61   62 1  
    67   62   63 1  
    68   64   65 1  
    69   65   66 1  
    70   65   68 1  
    71   66   67 2  
    72   66   75 am 
    73   68   69 1  
    74   69   70 1  
    75   70   71 1  
    76   71   72 ar 
    77   72   73 ar 
    78   72   74 ar 
    79   75   76 1  
    80   76   77 1  
    81   76   79 1  
    82   77   78 2  
    83   77   85 am 
    84   79   80 1  
    85   80   81 1  
    86   80   82 2  
    87   81   83 2  
    88   82   84 1  
    89   83   84 1  
    90   85   86 1  
    91   86   87 1  
    92   86   89 1  
    93   87   88 ar 
    94   87   93 ar 
    95   89   90 1  
    96   90   91 2  
    97   90   92 am 
    98    1   94 1  
    99    1   95 1  
   100    2   96 1  
   101    5   97 1  
   102    5   98 1  
   103    6   99 1  
   104    6  100 1  
   105    7  101 1  
   106    7  102 1  
   107    8  103 1  
   108    9  104 1  
   109   12  105 1  
   110   13  106 1  
   111   13  107 1  
   112   14  108 1  
   113   14  109 1  
   114   14  110 1  
   115   15  111 1  
   116   15  112 1  
   117   15  113 1  
   118   17  114 1  
   119   20  115 1  
   120   20  116 1  
   121   21  117 1  
   122   21  118 1  
   123   22  119 1  
   124   22  120 1  
   125   24  121 1  
   126   27  122 1  
   127   27  123 1  
   128   28  124 1  
   129   28  125 1  
   130   29  126 1  
   131   29  127 1  
   132   30  128 1  
   133   31  129 1  
   134   34  130 1  
   135   34  131 1  
   136   35  132 1  
   137   36  133 1  
   138   37  134 1  
   139   40  135 1  
   140   40  136 1  
   141   40  137 1  
   142   42  138 1  
   143   45  139 1  
   144   45  140 1  
   145   46  141 1  
   146   47  142 1  
   147   47  143 1  
   148   48  144 1  
   149   49  145 1  
   150   50  146 1  
   151   53  147 1  
   152   53  148 1  
   153   54  149 1  
   154   55  150 1  
   155   56  151 1  
   156   59  152 1  
   157   59  153 1  
   158   60  154 1  
   159   60  155 1  
   160   61  156 1  
   161   61  157 1  
   162   62  158 1  
   163   62  159 1  
   164   63  160 1  
   165   63  161 1  
   166   63  162 1  
   167   64  163 1  
   168   65  164 1  
   169   68  165 1  
   170   68  166 1  
   171   69  167 1  
   172   69  168 1  
   173   70  169 1  
   174   70  170 1  
   175   71  171 1  
   176   73  172 1  
   177   73  173 1  
   178   74  174 1  
   179   74  175 1  
   180   75  176 1  
   181   76  177 1  
   182   79  178 1  
   183   79  179 1  
   184   82  180 1  
   185   83  181 1  
   186   84  182 1  
   187   85  183 1  
   188   86  184 1  
   189   89  185 1  
   190   89  186 1  
   191   92  187 1  
   192   92  188 1  
@<TRIPOS>SUBSTRUCTURE
     1 PRO         1

