5ixt_ligand
  -I-interpret- 

187191  0  0  0  0  0  0  0  0999 V2000
   -5.2090   56.5070   -4.0940 N   0  3  0  0  0
   -4.2060   57.4250   -4.6620 C   0  0  0  0  0
   -2.7590   56.8740   -4.6670 C   0  0  0  0  0
   -2.5430   55.6590   -4.6680 O   0  0  0  0  0
   -4.3330   58.6800   -3.7650 C   0  0  0  0  0
   -5.7380   58.6490   -3.2700 C   0  0  0  0  0
   -6.1230   57.1910   -3.1590 C   0  0  0  0  0
   -1.7830   57.7690   -4.6890 N   0  0  0  0  0
   -0.3530   57.3820   -4.6840 C   0  0  0  0  0
    0.0770   57.1850   -3.2110 C   0  0  0  0  0
   -0.2320   58.0480   -2.3730 O   0  0  0  0  0
    0.5150   58.4760   -5.3580 C   0  0  0  0  0
   -0.0190   58.8180   -6.7640 C   0  0  0  0  0
    1.9740   58.0590   -5.4220 C   0  0  0  0  0
    0.3360   60.2270   -7.1970 C   0  0  0  0  0
    0.7800   56.0590   -2.8830 N   0  0  0  0  0
    1.2560   55.8610   -1.4900 C   0  0  0  0  0
    2.1710   57.0260   -1.0560 C   0  0  0  0  0
    3.0100   57.4020   -1.8290 O   0  0  0  0  0
    2.0430   54.5360   -1.5610 C   0  0  0  0  0
    1.5670   53.8440   -2.7780 C   0  0  0  0  0
    1.1120   54.9060   -3.7500 C   0  0  0  0  0
    1.9740   57.6270    0.1420 N   0  0  0  0  0
    2.8820   58.7560    0.4790 C   0  0  0  0  0
    4.3140   58.2600    0.6400 C   0  0  0  0  0
    4.5360   57.0530    0.8120 O   0  0  0  0  0
    2.3430   59.2700    1.8180 C   0  0  0  0  0
    1.5100   58.1470    2.3710 C   0  0  0  0  0
    0.9330   57.4330    1.1670 C   0  0  0  0  0
    5.2740   59.1730    0.5130 N   0  0  0  0  0
    6.6100   58.9320    0.9640 C   0  0  0  0  0
    6.6300   58.8920    2.5060 C   0  0  0  0  0
    6.7600   59.9330    3.1750 O   0  0  0  0  0
    7.5660   60.0110    0.4580 C   0  0  0  0  0
    8.8710   59.6680    0.8620 O   0  0  0  0  0
    6.5030   57.6890    3.0760 N   0  0  0  0  0
    6.3840   57.5420    4.5340 C   0  0  0  0  0
    6.6350   56.0940    4.9680 C   0  0  0  0  0
    6.6570   55.2080    4.1070 O   0  0  0  0  0
    4.9740   57.9670    4.9840 C   0  0  0  0  0
    6.8190   55.8730    6.2760 N   0  0  0  0  0
    6.8780   54.4960    6.8290 C   0  0  0  0  0
    5.9170   53.4130    6.4040 C   0  0  0  0  0
    4.7310   53.7200    6.2650 O   0  0  0  0  0
    7.3240   54.5300    8.2930 C   0  0  0  0  0
    7.8250   55.9590    8.4400 C   0  0  0  0  0
    7.0480   56.7940    7.4050 C   0  0  0  0  0
    9.2270   55.9070    8.1590 O   0  0  0  0  0
    6.3780   52.1510    6.2190 N   0  0  0  0  0
    5.3930   51.0460    5.9800 C   0  0  0  0  0
    4.4150   51.0030    7.1680 C   0  0  0  0  0
    4.8190   51.1000    8.3380 O   0  0  0  0  0
    6.0400   49.6780    5.8060 C   0  0  0  0  0
    4.9920   48.7190    5.6530 O   0  0  0  0  0
    3.1370   50.8500    6.8600 N   0  0  0  0  0
    2.1050   50.6610    7.9050 C   0  0  0  0  0
    1.8270   49.1740    8.2850 C   0  0  0  0  0
    0.9930   48.9070    9.1330 O   0  0  0  0  0
    0.8000   51.3330    7.4520 C   0  0  0  0  0
    0.9230   52.8420    7.2280 C   0  0  0  0  0
   -0.4310   53.4700    6.8870 C   0  0  0  0  0
   -0.7190   53.4110    5.3860 C   0  0  0  0  0
   -2.1250   53.8040    5.0570 N   0  3  0  0  0
    2.5190   48.2270    7.6710 N   0  0  0  0  0
    2.3420   46.8070    8.0300 C   0  0  0  0  0
    2.6220   46.5500    9.5090 C   0  0  0  0  0
    3.4960   47.1700   10.1340 O   0  0  0  0  0
    3.2140   45.9170    7.1300 C   0  0  0  0  0
    2.7310   45.9650    5.6670 C   0  0  0  0  0
    3.4450   44.9590    4.7820 C   0  0  0  0  0
    3.0560   43.5740    5.0850 N   0  0  0  0  0
    3.5670   42.4830    4.5030 C   0  0  0  0  0
    4.5130   42.5830    3.5680 N   0  0  0  0  0
    3.1250   41.2770    4.8520 N   0  0  0  0  0
    1.8370   45.6530   10.0810 N   0  0  0  0  0
    1.9390   45.2820   11.4800 C   0  0  0  0  0
    1.0800   44.0040   11.6680 C   0  0  0  0  0
    0.2340   43.6720   10.8220 O   0  0  0  0  0
    1.4260   46.4220   12.4230 C   0  0  0  0  0
   -0.0340   46.7310   12.2550 C   0  0  0  0  0
   -1.0250   46.0280   12.9160 N   0  0  0  0  0
   -0.6790   47.6140   11.4500 C   0  0  0  0  0
   -2.2140   46.4750   12.5400 C   0  0  0  0  0
   -2.0320   47.4420   11.6550 N   0  0  0  0  0
    1.2600   43.3730   12.8230 N   0  0  0  0  0
    0.4910   42.1900   13.2240 C   0  0  0  0  0
   -0.6530   42.6060   14.1660 C   0  0  0  0  0
   -1.4110   41.7270   14.5830 O   0  0  0  0  0
    1.4280   41.1470   13.8890 C   0  0  0  0  0
    2.6190   40.8440   13.0350 C   0  0  0  0  0
    3.6450   41.5440   13.0930 O   0  0  0  0  0
    2.4640   39.8870   12.1530 N   0  0  0  0  0
   -0.8670   43.7870   14.5170 O   0  0  0  0  0
   -4.7162   55.7769   -3.5796 H   0  0  0  0  0
   -5.7643   56.1288   -4.8615 H   0  0  0  0  0
   -4.3949   57.6098   -5.7195 H   0  0  0  0  0
   -4.1148   59.5963   -4.3136 H   0  0  0  0  0
   -3.6128   58.6702   -2.9469 H   0  0  0  0  0
   -6.4037   59.1772   -3.9527 H   0  0  0  0  0
   -5.8226   59.1492   -2.3052 H   0  0  0  0  0
   -6.0281   56.8155   -2.1401 H   0  0  0  0  0
   -7.1706   57.0207   -3.4072 H   0  0  0  0  0
   -2.0245   58.7598   -4.7101 H   0  0  0  0  0
   -0.2129   56.4602   -5.2486 H   0  0  0  0  0
    0.4503   59.3739   -4.7434 H   0  0  0  0  0
   -1.1058   58.7394   -6.7378 H   0  0  0  0  0
    0.4353   58.1253   -7.4725 H   0  0  0  0  0
    2.3475   57.8920   -4.4117 H   0  0  0  0  0
    2.0627   57.1393   -6.0002 H   0  0  0  0  0
    2.5553   58.8476   -5.8999 H   0  0  0  0  0
   -0.0924   60.9408   -6.4933 H   0  0  0  0  0
    1.4202   60.3381   -7.2144 H   0  0  0  0  0
   -0.0655   60.4115   -8.1934 H   0  0  0  0  0
    0.4454   55.8308   -0.7620 H   0  0  0  0  0
    1.8759   53.9293   -0.6710 H   0  0  0  0  0
    3.1171   54.7166   -1.6041 H   0  0  0  0  0
    0.7463   53.1681   -2.5378 H   0  0  0  0  0
    2.3653   53.2431   -3.2136 H   0  0  0  0  0
    1.8767   55.1482   -4.4880 H   0  0  0  0  0
    0.2633   54.5815   -4.3521 H   0  0  0  0  0
    2.9052   59.5245   -0.2936 H   0  0  0  0  0
    1.7552   60.1790    1.6903 H   0  0  0  0  0
    3.1513   59.5408    2.4973 H   0  0  0  0  0
    0.7231   58.5211    3.0259 H   0  0  0  0  0
    2.1084   57.4728    2.9837 H   0  0  0  0  0
    0.7184   56.3819    1.3599 H   0  0  0  0  0
   -0.0377   57.8266    0.8654 H   0  0  0  0  0
    5.0508   60.0700    0.0818 H   0  0  0  0  0
    6.9433   57.9738    0.5654 H   0  0  0  0  0
    7.2887   60.9808    0.8712 H   0  0  0  0  0
    7.5154   60.0765   -0.6289 H   0  0  0  0  0
    9.4867   60.3362    0.5522 H   0  0  0  0  0
    6.4884   56.8563    2.4871 H   0  0  0  0  0
    7.1354   58.1793    5.0002 H   0  0  0  0  0
    4.8050   59.0083    4.7098 H   0  0  0  0  0
    4.2322   57.3360    4.4945 H   0  0  0  0  0
    4.8903   57.8564    6.0651 H   0  0  0  0  0
    7.6531   54.0298    6.2207 H   0  0  0  0  0
    8.0800   53.7816    8.5307 H   0  0  0  0  0
    6.5266   54.2788    8.9924 H   0  0  0  0  0
    7.6759   56.4014    9.4250 H   0  0  0  0  0
    6.1128   57.1783    7.8122 H   0  0  0  0  0
    7.6026   57.6813    7.0997 H   0  0  0  0  0
    9.6007   56.7878    8.2370 H   0  0  0  0  0
    7.3790   51.9566    6.2421 H   0  0  0  0  0
    4.8808   51.2630    5.0426 H   0  0  0  0  0
    6.6532   49.4350    6.6737 H   0  0  0  0  0
    6.6893   49.6737    4.9305 H   0  0  0  0  0
    5.3733   47.8451    5.5412 H   0  0  0  0  0
    2.8562   50.8626    5.8795 H   0  0  0  0  0
    2.5001   51.1246    8.8089 H   0  0  0  0  0
    0.0664   51.1821    8.2440 H   0  0  0  0  0
    0.5200   50.8860    6.4981 H   0  0  0  0  0
    1.6032   53.0132    6.3937 H   0  0  0  0  0
    1.2943   53.2984    8.1455 H   0  0  0  0  0
   -0.4114   54.5162    7.1924 H   0  0  0  0  0
   -1.2094   52.9130    7.4085 H   0  0  0  0  0
   -0.5707   52.3831    5.0550 H   0  0  0  0  0
   -0.0485   54.1106    4.8869 H   0  0  0  0  0
   -2.2652   53.7482    4.0482 H   0  0  0  0  0
   -2.7724   53.1712    5.5269 H   0  0  0  0  0
   -2.2923   54.7595    5.3724 H   0  0  0  0  0
    3.1832   48.4824    6.9402 H   0  0  0  0  0
    1.2964   46.5486    7.8623 H   0  0  0  0  0
    3.1469   44.8889    7.4859 H   0  0  0  0  0
    4.2410   46.2800    7.1704 H   0  0  0  0  0
    2.9400   46.9614    5.2777 H   0  0  0  0  0
    1.6679   45.7248    5.6571 H   0  0  0  0  0
    4.5165   45.0552    4.9571 H   0  0  0  0  0
    3.1745   45.1674    3.7469 H   0  0  0  0  0
    2.3386   43.4335    5.7964 H   0  0  0  0  0
    4.8884   41.7416    3.1302 H   0  0  0  0  0
    4.8611   43.5008    3.2908 H   0  0  0  0  0
    2.3982   41.1859    5.5618 H   0  0  0  0  0
    1.1239   45.1990    9.5102 H   0  0  0  0  0
    2.9820   45.1068   11.7439 H   0  0  0  0  0
    1.9818   47.3261   12.1745 H   0  0  0  0  0
    1.5728   46.0871   13.4498 H   0  0  0  0  0
   -0.2140   48.3263   10.7685 H   0  0  0  0  0
   -3.1764   46.1093   12.8979 H   0  0  0  0  0
    1.9692   43.7293   13.4637 H   0  0  0  0  0
    0.0489   41.7252   12.3427 H   0  0  0  0  0
    0.8659   40.2242   14.0322 H   0  0  0  0  0
    1.7808   41.5579   14.8349 H   0  0  0  0  0
    3.2027   39.6916   11.4773 H   0  0  0  0  0
    1.6047   39.3376   12.1423 H   0  0  0  0  0
   -0.2067   44.3615   14.1226 H   0  0  0  0  0
  1  2  1  0  0  0
  1  7  1  0  0  0
  2  3  1  0  0  0
  2  5  1  0  0  0
  3  4  2  0  0  0
  3  8  1  0  0  0
  5  6  1  0  0  0
  6  7  1  0  0  0
  8  9  1  0  0  0
  9 10  1  0  0  0
  9 12  1  0  0  0
 10 11  2  0  0  0
 10 16  1  0  0  0
 12 13  1  0  0  0
 12 14  1  0  0  0
 13 15  1  0  0  0
 16 17  1  0  0  0
 16 22  1  0  0  0
 17 18  1  0  0  0
 17 20  1  0  0  0
 18 19  2  0  0  0
 18 23  1  0  0  0
 20 21  1  0  0  0
 21 22  1  0  0  0
 23 24  1  0  0  0
 23 29  1  0  0  0
 24 25  1  0  0  0
 24 27  1  0  0  0
 25 26  2  0  0  0
 25 30  1  0  0  0
 27 28  1  0  0  0
 28 29  1  0  0  0
 30 31  1  0  0  0
 31 32  1  0  0  0
 31 34  1  0  0  0
 32 33  2  0  0  0
 32 36  1  0  0  0
 34 35  1  0  0  0
 36 37  1  0  0  0
 37 38  1  0  0  0
 37 40  1  0  0  0
 38 39  2  0  0  0
 38 41  1  0  0  0
 41 42  1  0  0  0
 41 47  1  0  0  0
 42 43  1  0  0  0
 42 45  1  0  0  0
 43 44  2  0  0  0
 43 49  1  0  0  0
 45 46  1  0  0  0
 46 47  1  0  0  0
 46 48  1  0  0  0
 49 50  1  0  0  0
 50 51  1  0  0  0
 50 53  1  0  0  0
 51 52  2  0  0  0
 51 55  1  0  0  0
 53 54  1  0  0  0
 55 56  1  0  0  0
 56 57  1  0  0  0
 56 59  1  0  0  0
 57 58  2  0  0  0
 57 64  1  0  0  0
 59 60  1  0  0  0
 60 61  1  0  0  0
 61 62  1  0  0  0
 62 63  1  0  0  0
 64 65  1  0  0  0
 65 66  1  0  0  0
 65 68  1  0  0  0
 66 67  2  0  0  0
 66 75  1  0  0  0
 68 69  1  0  0  0
 69 70  1  0  0  0
 70 71  1  0  0  0
 71 72  1  0  0  0
 72 73  1  0  0  0
 72 74  2  0  0  0
 75 76  1  0  0  0
 76 77  1  0  0  0
 76 79  1  0  0  0
 77 78  2  0  0  0
 77 85  1  0  0  0
 79 80  1  0  0  0
 80 81  4  0  0  0
 80 82  4  0  0  0
 81 83  4  0  0  0
 82 84  4  0  0  0
 83 84  4  0  0  0
 85 86  1  0  0  0
 86 87  1  0  0  0
 86 89  1  0  0  0
 87 88  2  0  0  0
 87 93  1  0  0  0
 89 90  1  0  0  0
 90 91  2  0  0  0
 90 92  1  0  0  0
  1 94  1  0  0  0
  1 95  1  0  0  0
  2 96  1  0  0  0
  5 97  1  0  0  0
  5 98  1  0  0  0
  6 99  1  0  0  0
  6100  1  0  0  0
  7101  1  0  0  0
  7102  1  0  0  0
  8103  1  0  0  0
  9104  1  0  0  0
 12105  1  0  0  0
 13106  1  0  0  0
 13107  1  0  0  0
 14108  1  0  0  0
 14109  1  0  0  0
 14110  1  0  0  0
 15111  1  0  0  0
 15112  1  0  0  0
 15113  1  0  0  0
 17114  1  0  0  0
 20115  1  0  0  0
 20116  1  0  0  0
 21117  1  0  0  0
 21118  1  0  0  0
 22119  1  0  0  0
 22120  1  0  0  0
 24121  1  0  0  0
 27122  1  0  0  0
 27123  1  0  0  0
 28124  1  0  0  0
 28125  1  0  0  0
 29126  1  0  0  0
 29127  1  0  0  0
 30128  1  0  0  0
 31129  1  0  0  0
 34130  1  0  0  0
 34131  1  0  0  0
 35132  1  0  0  0
 36133  1  0  0  0
 37134  1  0  0  0
 40135  1  0  0  0
 40136  1  0  0  0
 40137  1  0  0  0
 42138  1  0  0  0
 45139  1  0  0  0
 45140  1  0  0  0
 46141  1  0  0  0
 47142  1  0  0  0
 47143  1  0  0  0
 48144  1  0  0  0
 49145  1  0  0  0
 50146  1  0  0  0
 53147  1  0  0  0
 53148  1  0  0  0
 54149  1  0  0  0
 55150  1  0  0  0
 56151  1  0  0  0
 59152  1  0  0  0
 59153  1  0  0  0
 60154  1  0  0  0
 60155  1  0  0  0
 61156  1  0  0  0
 61157  1  0  0  0
 62158  1  0  0  0
 62159  1  0  0  0
 63160  1  0  0  0
 63161  1  0  0  0
 63162  1  0  0  0
 64163  1  0  0  0
 65164  1  0  0  0
 68165  1  0  0  0
 68166  1  0  0  0
 69167  1  0  0  0
 69168  1  0  0  0
 70169  1  0  0  0
 70170  1  0  0  0
 71171  1  0  0  0
 73172  1  0  0  0
 73173  1  0  0  0
 74174  1  0  0  0
 75175  1  0  0  0
 76176  1  0  0  0
 79177  1  0  0  0
 79178  1  0  0  0
 82179  1  0  0  0
 83180  1  0  0  0
 85181  1  0  0  0
 86182  1  0  0  0
 89183  1  0  0  0
 89184  1  0  0  0
 92185  1  0  0  0
 92186  1  0  0  0
 93187  1  0  0  0
M  END
$$$$
