### 
### Created by X-TOOL on Wed Jan  1 15:39:36 2020
### 

@<TRIPOS>MOLECULE
6dud_ligand
   21    24     1     0     0
SMALL
GAST_HUCK


@<TRIPOS>ATOM
      1 C4         -1.6130   18.4090   -5.8680 C.ar      1 HB4        -0.7074
      2 C7          0.4430   15.6290   -4.2680 C.ar      1 HB4        -0.3657
      3 C6         -0.7040   16.4760   -4.7090 C.ar      1 HB4        -0.4365
      4 C9         -0.5500   13.1500   -4.3980 C.2       1 HB4        -0.2425
      5 C20        -0.0060   21.0060   -7.9650 C.cat     1 HB4        -0.9309
      6 C8          0.3820   14.2060   -4.1410 C.ar      1 HB4        -0.2815
      7 C18        -3.8930   19.0320   -6.0610 C.3       1 HB4        -1.5099
      8 C16        -1.6380   19.7250   -6.6170 C.3       1 HB4        -1.1645
      9 C1         -2.0160   16.1110   -4.3860 C.ar      1 HB4        -0.5147
     10 C2         -3.1030   16.8700   -4.8010 C.ar      1 HB4        -0.5836
     11 C3         -2.9010   18.0270   -5.5390 C.ar      1 HB4        -0.7309
     12 C5         -0.5130   17.6490   -5.4600 C.ar      1 HB4        -0.5233
     13 C10         0.0900   11.9850   -4.1100 C.2       1 HB4        -0.1346
     14 N11         1.3760   12.2370   -3.6810 N.pl3     1 HB4        -0.3668
     15 C12         1.5700   13.5920   -3.6960 C.ar      1 HB4        -0.1577
     16 N13         2.7170   14.2440   -3.4120 N.ar      1 HB4        -0.6614
     17 C14         2.6360   15.5690   -3.5960 C.ar      1 HB4        -0.4519
     18 N15         1.5850   16.2890   -3.9980 N.ar      1 HB4        -0.7603
     19 C17        -3.0890   19.7770   -7.1400 C.3       1 HB4        -1.9072
     20 N19        -0.6250   19.8390   -7.6600 N.pl3     1 HB4        -0.9877
     21 N21        -0.1830   22.1880   -7.4570 N.pl3     1 HB4        -0.5812
@<TRIPOS>BOND
     1    8    1 1  
     2    1   11 ar 
     3    1   12 ar 
     4    3    2 1  
     5    2    6 ar 
     6    2   18 ar 
     7    3    9 ar 
     8   12    3 ar 
     9    6    4 1  
    10    4   13 2  
    11   20    5 ar 
    12    5   21 ar 
    13    6   15 ar 
    14    7   11 1  
    15   19    7 1  
    16    8   19 1  
    17    8   20 1  
    18    9   10 ar 
    19   10   11 ar 
    20   13   14 1  
    21   14   15 1  
    22   15   16 ar 
    23   16   17 ar 
    24   17   18 ar 
@<TRIPOS>SUBSTRUCTURE
     1 HB4         1

