6dud_ligand
  -I-interpret- 

 35 38  0  0  0  0  0  0  0  0999 V2000
   -1.6130   18.4090   -5.8680 C   0  0  0  0  0
    0.4430   15.6290   -4.2680 C   0  0  0  0  0
   -0.7040   16.4760   -4.7090 C   0  0  0  0  0
   -0.5500   13.1500   -4.3980 C   0  0  0  0  0
   -0.0060   21.0060   -7.9650 C   0  0  0  0  0
    0.3820   14.2060   -4.1410 C   0  0  0  0  0
   -3.8930   19.0320   -6.0610 C   0  0  0  0  0
   -1.6380   19.7250   -6.6170 C   0  0  0  0  0
   -2.0160   16.1110   -4.3860 C   0  0  0  0  0
   -3.1030   16.8700   -4.8010 C   0  0  0  0  0
   -2.9010   18.0270   -5.5390 C   0  0  0  0  0
   -0.5130   17.6490   -5.4600 C   0  0  0  0  0
    0.0900   11.9850   -4.1100 C   0  0  0  0  0
    1.3760   12.2370   -3.6810 N   0  0  0  0  0
    1.5700   13.5920   -3.6960 C   0  0  0  0  0
    2.7170   14.2440   -3.4120 N   0  0  0  0  0
    2.6360   15.5690   -3.5960 C   0  0  0  0  0
    1.5850   16.2890   -3.9980 N   0  0  0  0  0
   -3.0890   19.7770   -7.1400 C   0  0  0  0  0
   -0.6250   19.8390   -7.6600 N   0  0  0  0  0
   -0.1830   22.1880   -7.4570 N   0  0  0  0  0
   -1.5740   13.2587   -4.7552 H   0  0  0  0  0
    0.7485   20.9431   -8.7491 H   0  0  0  0  0
   -4.2745   19.6942   -5.2838 H   0  0  0  0  0
   -4.7995   18.5695   -6.4515 H   0  0  0  0  0
   -1.3802   20.5768   -5.9876 H   0  0  0  0  0
   -2.1887   15.2111   -3.7957 H   0  0  0  0  0
   -4.1153   16.5561   -4.5465 H   0  0  0  0  0
    0.4955   17.9667   -5.7248 H   0  0  0  0  0
   -0.3511   10.9928   -4.2049 H   0  0  0  0  0
    3.5462   16.1326   -3.3909 H   0  0  0  0  0
   -3.4405   20.7979   -7.2895 H   0  0  0  0  0
   -3.1925   19.3208   -8.1245 H   0  0  0  0  0
   -0.3704   19.0019   -8.1843 H   0  0  0  0  0
   -0.8721   22.3276   -6.7180 H   0  0  0  0  0
  8  1  1  0  0  0
  1 11  4  0  0  0
  1 12  4  0  0  0
  3  2  1  0  0  0
  2  6  4  0  0  0
  2 18  4  0  0  0
  3  9  4  0  0  0
 12  3  4  0  0  0
  6  4  4  0  0  0
  4 13  4  0  0  0
 20  5  1  0  0  0
  5 21  2  0  0  0
  6 15  4  0  0  0
  7 11  1  0  0  0
 19  7  1  0  0  0
  8 19  1  0  0  0
  8 20  1  0  0  0
  9 10  4  0  0  0
 10 11  4  0  0  0
 13 14  4  0  0  0
 14 15  4  0  0  0
 15 16  4  0  0  0
 16 17  4  0  0  0
 17 18  4  0  0  0
  4 22  1  0  0  0
  5 23  1  0  0  0
  7 24  1  0  0  0
  7 25  1  0  0  0
  8 26  1  0  0  0
  9 27  1  0  0  0
 10 28  1  0  0  0
 12 29  1  0  0  0
 13 30  1  0  0  0
 17 31  1  0  0  0
 19 32  1  0  0  0
 19 33  1  0  0  0
 20 34  1  0  0  0
 21 35  1  0  0  0
M  END
$$$$
