### 
### Created by X-TOOL on Mon Sep 10 21:13:00 2018
### 

@<TRIPOS>MOLECULE
3dpo_ligand
  176   179     1     0     0
SMALL
GAST_HUCK


@<TRIPOS>ATOM
      1 N         -44.4590   27.1690  -23.6940 N.4       1 LYS         0.2379
      2 CA        -44.5560   28.2620  -24.7130 C.3       1 LYS         0.0650
      3 C         -44.4260   29.6070  -24.0250 C.2       1 LYS         0.2267
      4 O         -43.6470   30.4750  -24.4470 O.2       1 LYS        -0.3907
      5 CB        -45.9000   28.2110  -25.4170 C.3       1 LYS         0.0080
      6 CG        -46.1120   29.3720  -26.3810 C.3       1 LYS        -0.0410
      7 CD        -47.2690   29.0990  -27.3310 C.3       1 LYS        -0.0123
      8 CE        -47.0000   27.8870  -28.1930 C.3       1 LYS        -0.0354
      9 NZ        -47.8970   27.8780  -29.3840 N.4       1 LYS         0.2185
     10 N         -45.2350   29.7670  -22.9810 N.am      1 LEU        -0.2610
     11 CA        -45.0890   30.9070  -22.0410 C.3       1 LEU         0.1313
     12 C         -44.3230   30.4790  -20.8100 C.2       1 LEU         0.2040
     13 O         -44.8570   29.8290  -19.9370 O.2       1 LEU        -0.3944
     14 CB        -46.4470   31.5050  -21.6190 C.3       1 LEU        -0.0101
     15 CG        -46.3580   32.7310  -20.6900 C.3       1 LEU        -0.0425
     16 CD1       -45.5000   33.8150  -21.3140 C.3       1 LEU        -0.0625
     17 CD2       -47.7540   33.2960  -20.3280 C.3       1 LEU        -0.0625
     18 N         -43.0660   30.8840  -20.7510 N.am      1 TYR        -0.2621
     19 CA        -42.2040   30.5790  -19.6080 C.3       1 TYR         0.1390
     20 C         -42.2700   31.6640  -18.5060 C.2       1 TYR         0.2057
     21 O         -42.6440   32.8090  -18.7650 O.2       1 TYR        -0.3942
     22 CB        -40.7610   30.3760  -20.0590 C.3       1 TYR         0.0163
     23 CG        -40.5620   29.0480  -20.7270 C.ar      1 TYR        -0.0493
     24 CD1       -40.3400   27.9100  -19.9730 C.ar      1 TYR        -0.0685
     25 CD2       -40.6090   28.9260  -22.1080 C.ar      1 TYR        -0.0685
     26 CE1       -40.1560   26.6790  -20.5760 C.ar      1 TYR        -0.0398
     27 CE2       -40.4320   27.7080  -22.7170 C.ar      1 TYR        -0.0398
     28 CZ        -40.2130   26.5850  -21.9490 C.ar      1 TYR         0.0805
     29 OH        -40.0240   25.3560  -22.5480 O.3       1 TYR        -0.3376
     30 N         -41.9310   31.1950  -17.2900 N.am      1 ALC        -0.2636
     31 CA        -42.1840   32.0880  -16.1800 C.3       1 ALC         0.1312
     32 C         -40.8660   32.4460  -15.5190 C.2       1 ALC         0.2039
     33 O         -40.0000   31.5840  -15.4560 O.2       1 ALC        -0.3944
     34 CB        -43.1040   31.4450  -15.1580 C.3       1 ALC        -0.0096
     35 CG        -44.3910   30.9410  -15.7990 C.3       1 ALC        -0.0368
     36 CD2       -45.2620   30.4080  -14.6900 C.3       1 ALC        -0.0500
     37 CE2       -46.4760   29.7670  -15.3120 C.3       1 ALC        -0.0528
     38 CZ        -47.2960   30.8850  -15.9360 C.3       1 ALC        -0.0530
     39 CE1       -46.4390   31.5810  -16.9820 C.3       1 ALC        -0.0528
     40 CD1       -45.1760   32.1040  -16.3290 C.3       1 ALC        -0.0500
     41 N         -40.7900   33.5220  -14.8190 N.am      1 LEU        -0.2637
     42 CA        -39.5650   34.1520  -14.2490 C.3       1 LEU         0.1314
     43 C         -39.5970   34.2160  -12.7260 C.2       1 LEU         0.2064
     44 O         -40.5750   34.6480  -12.1220 O.2       1 LEU        -0.3942
     45 CB        -39.4040   35.5690  -14.7810 C.3       1 LEU        -0.0101
     46 CG        -39.0190   35.7000  -16.2490 C.3       1 LEU        -0.0425
     47 CD1       -38.9830   37.1790  -16.6490 C.3       1 LEU        -0.0625
     48 CD2       -37.6910   35.0420  -16.4910 C.3       1 LEU        -0.0625
     49 N         -38.4970   33.8450  -12.0930 N.am      1 PRO        -0.2498
     50 CA        -38.5370   34.0100  -10.6470 C.3       1 PRO         0.1338
     51 C         -38.4680   35.4530  -10.1620 C.2       1 PRO         0.2041
     52 O         -37.9740   36.3460  -10.8350 O.2       1 PRO        -0.3944
     53 CB        -37.2950   33.2480  -10.1820 C.3       1 PRO        -0.0104
     54 CG        -36.3300   33.3500  -11.3130 C.3       1 PRO        -0.0281
     55 CD        -37.1610   33.4650  -12.5890 C.3       1 PRO         0.0369
     56 N         -38.9700   35.6310   -8.9550 N.am      1 ARG        -0.2637
     57 CA        -38.8170   36.8890   -8.2030 C.3       1 ARG         0.1313
     58 C         -37.3750   37.0670   -7.7490 C.2       1 ARG         0.2064
     59 O         -36.6280   36.0840   -7.6030 O.2       1 ARG        -0.3942
     60 CB        -39.7360   36.9410   -6.9760 C.3       1 ARG        -0.0092
     61 CG        -39.3810   35.9260   -5.8890 C.3       1 ARG        -0.0156
     62 CD        -40.2850   36.0300   -4.6660 C.3       1 ARG         0.0627
     63 NE        -39.6630   36.8400   -3.6210 N.pl3     1 ARG        -0.2723
     64 CZ        -38.5480   36.5020   -2.9690 C.cat     1 ARG         0.2882
     65 NH1       -37.9190   35.3600   -3.2510 N.pl3     1 ARG        -0.2849
     66 NH2       -38.0540   37.3140   -2.0380 N.pl3     1 ARG        -0.2849
     67 N         -36.9670   38.3280   -7.5260 N.am      1 PRO        -0.2498
     68 CA        -35.6090   38.5060   -7.0430 C.3       1 PRO         0.1338
     69 C         -35.4480   38.1300   -5.5970 C.2       1 PRO         0.2042
     70 O         -36.3920   38.1900   -4.8000 O.2       1 PRO        -0.3944
     71 CB        -35.3330   40.0050   -7.2410 C.3       1 PRO        -0.0104
     72 CG        -36.4640   40.5250   -8.0910 C.3       1 PRO        -0.0281
     73 CD        -37.6150   39.6010   -7.8740 C.3       1 PRO         0.0369
     74 N         -34.2250   37.7020   -5.3290 N.am      1 THR        -0.2624
     75 CA        -33.7110   37.3930   -3.9940 C.3       1 THR         0.1382
     76 C         -34.2740   36.0850   -3.4910 C.2       1 THR         0.1270
     77 O         -33.6550   35.0420   -3.6860 O.2       1 THR        -0.3724
     78 CB        -34.0120   38.4920   -2.9610 C.3       1 THR         0.0911
     79 OG1       -33.7340   39.7870   -3.5190 O.3       1 THR        -0.3873
     80 CG2       -33.1410   38.2820   -1.7290 C.3       1 THR        -0.0345
     81 H1        -44.5454   26.2748  -24.1512 H         1 LYS         0.2015
     82 H2        -45.1991   27.2735  -23.0177 H         1 LYS         0.2015
     83 H3        -43.5672   27.2229  -23.2273 H         1 LYS         0.2015
     84 H4        -43.7495   28.1436  -25.4516 H         1 LYS         0.1098
     85 H5        -46.6949   28.2369  -24.6571 H         1 LYS         0.0346
     86 H6        -45.9639   27.2697  -25.9826 H         1 LYS         0.0346
     87 H7        -45.1941   29.5220  -26.9684 H         1 LYS         0.0270
     88 H8        -46.3303   30.2821  -25.8031 H         1 LYS         0.0270
     89 H9        -47.4134   29.9751  -27.9803 H         1 LYS         0.0317
     90 H10       -48.1818   28.9242  -26.7426 H         1 LYS         0.0317
     91 H11       -47.1763   26.9766  -27.6013 H         1 LYS         0.0813
     92 H12       -45.9530   27.9085  -28.5297 H         1 LYS         0.0813
     93 H13       -47.7024   27.0635  -29.9450 H         1 LYS         0.1994
     94 H14       -47.7370   28.7091  -29.9315 H         1 LYS         0.1994
     95 H15       -48.8580   27.8552  -29.0807 H         1 LYS         0.1994
     96 H16       -45.9631   29.0996  -22.8247 H         1 LEU         0.1884
     97 H17       -44.5151   31.6939  -22.5523 H         1 LEU         0.0800
     98 H18       -47.0173   30.7223  -21.0973 H         1 LEU         0.0315
     99 H19       -46.9854   31.8055  -22.5299 H         1 LEU         0.0315
    100 H20       -45.8744   32.4080  -19.7563 H         1 LEU         0.0298
    101 H21       -45.4501   34.6792  -20.6353 H         1 LEU         0.0232
    102 H22       -45.9418   34.1263  -22.2721 H         1 LEU         0.0232
    103 H23       -44.4859   33.4257  -21.4871 H         1 LEU         0.0232
    104 H24       -48.3656   32.5008  -19.8769 H         1 LEU         0.0232
    105 H25       -48.2474   33.6659  -21.2389 H         1 LEU         0.0232
    106 H26       -47.6404   34.1225  -19.6111 H         1 LEU         0.0232
    107 H27       -42.6923   31.4155  -21.5112 H         1 TYR         0.1885
    108 H28       -42.5588   29.6353  -19.1682 H         1 TYR         0.0821
    109 H29       -40.1028   30.4331  -19.1795 H         1 TYR         0.0453
    110 H30       -40.4952   31.1735  -20.7684 H         1 TYR         0.0453
    111 H31       -40.3097   27.9841  -18.8920 H         1 TYR         0.0530
    112 H32       -40.7882   29.8056  -22.7157 H         1 TYR         0.0530
    113 H33       -39.9688   25.7971  -19.9742 H         1 TYR         0.0525
    114 H34       -40.4644   27.6302  -23.7977 H         1 TYR         0.0525
    115 H35       -39.8876   24.6962  -21.8783 H         1 TYR         0.2458
    116 H36       -41.5301   30.2878  -17.1624 H         1 ALC         0.1883
    117 H37       -42.6599   33.0039  -16.5603 H         1 ALC         0.0800
    118 H38       -43.3565   32.1885  -14.3876 H         1 ALC         0.0315
    119 H39       -42.5817   30.5966  -14.6917 H         1 ALC         0.0315
    120 H40       -44.1859   30.1896  -16.5758 H         1 ALC         0.0303
    121 H41       -45.5725   31.2324  -14.0313 H         1 ALC         0.0268
    122 H42       -44.7050   29.6612  -14.1052 H         1 ALC         0.0268
    123 H43       -47.0667   29.2494  -14.5419 H         1 ALC         0.0265
    124 H44       -46.1692   29.0466  -16.0846 H         1 ALC         0.0265
    125 H45       -47.5935   31.6055  -15.1599 H         1 ALC         0.0265
    126 H46       -48.1951   30.4658  -16.4112 H         1 ALC         0.0265
    127 H47       -47.0011   32.4198  -17.4184 H         1 ALC         0.0265
    128 H48       -46.1735   30.8657  -17.7744 H         1 ALC         0.0265
    129 H49       -44.5743   32.6492  -17.0711 H         1 ALC         0.0268
    130 H50       -45.4396   32.7801  -15.5023 H         1 ALC         0.0268
    131 H51       -41.6538   33.9911  -14.6355 H         1 LEU         0.1883
    132 H52       -38.6957   33.5524  -14.5567 H         1 LEU         0.0800
    133 H53       -38.6235   36.0641  -14.1846 H         1 LEU         0.0315
    134 H54       -40.3614   36.0913  -14.6380 H         1 LEU         0.0315
    135 H55       -39.7781   35.1906  -16.8608 H         1 LEU         0.0298
    136 H56       -38.7044   37.2653  -17.7096 H         1 LEU         0.0232
    137 H57       -38.2424   37.7080  -16.0312 H         1 LEU         0.0232
    138 H58       -39.9763   37.6253  -16.4933 H         1 LEU         0.0232
    139 H59       -37.7468   33.9839  -16.1954 H         1 LEU         0.0232
    140 H60       -36.9169   35.5485  -15.8959 H         1 LEU         0.0232
    141 H61       -37.4365   35.1114  -17.5589 H         1 LEU         0.0232
    142 H62       -39.4521   33.5506  -10.2450 H         1 PRO         0.0802
    143 H63       -37.5415   32.1954   -9.9786 H         1 PRO         0.0313
    144 H64       -36.8766   33.7085   -9.2749 H         1 PRO         0.0313
    145 H65       -35.6962   32.4518  -11.3529 H         1 PRO         0.0287
    146 H66       -35.6963   34.2409  -11.1916 H         1 PRO         0.0287
    147 H67       -36.7536   34.2393  -13.2557 H         1 PRO         0.0524
    148 H68       -37.1979   32.5039  -13.1227 H         1 PRO         0.0524
    149 H69       -39.4764   34.8795   -8.5320 H         1 ARG         0.1883
    150 H70       -39.0821   37.7215   -8.8713 H         1 ARG         0.0800
    151 H71       -40.7667   36.7464   -7.3074 H         1 ARG         0.0313
    152 H72       -39.6750   37.9493   -6.5407 H         1 ARG         0.0313
    153 H73       -38.3415   36.0982   -5.5733 H         1 ARG         0.0301
    154 H74       -39.4737   34.9138   -6.3095 H         1 ARG         0.0301
    155 H75       -40.4754   35.0205   -4.2728 H         1 ARG         0.0689
    156 H76       -41.2375   36.4942   -4.9614 H         1 ARG         0.0689
    157 H77       -40.1148   37.7311   -3.3707 H         1 ARG         0.2642
    158 H78       -37.0593   35.1066   -2.7434 H         1 ARG         0.2615
    159 H79       -38.2930   34.7316   -3.9764 H         1 ARG         0.2615
    160 H80       -38.5358   38.1970   -1.8165 H         1 ARG         0.2615
    161 H81       -37.1897   37.0596   -1.5388 H         1 ARG         0.2615
    162 H82       -34.9135   37.9031   -7.6452 H         1 PRO         0.0802
    163 H83       -34.3707   40.1524   -7.7530 H         1 PRO         0.0313
    164 H84       -35.3150   40.5222   -6.2703 H         1 PRO         0.0313
    165 H85       -36.1727   40.5268   -9.1517 H         1 PRO         0.0287
    166 H86       -36.7329   41.5461   -7.7828 H         1 PRO         0.0287
    167 H87       -38.2547   39.9550   -7.0521 H         1 PRO         0.0524
    168 H88       -38.2166   39.4995   -8.7893 H         1 PRO         0.0524
    169 H89       -33.6014   37.5798   -6.1011 H         1 THR         0.1885
    170 H90       -32.6185   37.2931   -4.0741 H         1 THR         0.0816
    171 H91       -35.2236   36.0666   -2.9583 H         1 THR         0.1374
    172 H92       -35.0725   38.4394   -2.6737 H         1 THR         0.0640
    173 H93       -33.9236   40.4566   -2.8723 H         1 THR         0.2101
    174 H94       -33.3559   39.0678   -0.9898 H         1 THR         0.0257
    175 H95       -32.0805   38.3298   -2.0172 H         1 THR         0.0257
    176 H96       -33.3577   37.2968   -1.2903 H         1 THR         0.0257
@<TRIPOS>BOND
     1    1    2 1  
     2    2    3 1  
     3    2    5 1  
     4    3    4 2  
     5    3   10 am 
     6    5    6 1  
     7    6    7 1  
     8    7    8 1  
     9    8    9 1  
    10   10   11 1  
    11   11   12 1  
    12   11   14 1  
    13   12   13 2  
    14   12   18 am 
    15   14   15 1  
    16   15   16 1  
    17   15   17 1  
    18   18   19 1  
    19   19   20 1  
    20   19   22 1  
    21   20   21 2  
    22   20   30 am 
    23   22   23 1  
    24   23   24 ar 
    25   23   25 ar 
    26   24   26 ar 
    27   25   27 ar 
    28   26   28 ar 
    29   27   28 ar 
    30   28   29 1  
    31   30   31 1  
    32   31   32 1  
    33   31   34 1  
    34   32   33 2  
    35   32   41 am 
    36   34   35 1  
    37   35   36 1  
    38   35   40 1  
    39   36   37 1  
    40   37   38 1  
    41   38   39 1  
    42   39   40 1  
    43   41   42 1  
    44   42   43 1  
    45   42   45 1  
    46   43   44 2  
    47   43   49 am 
    48   45   46 1  
    49   46   47 1  
    50   46   48 1  
    51   49   50 1  
    52   49   55 1  
    53   50   51 1  
    54   50   53 1  
    55   51   52 2  
    56   51   56 am 
    57   53   54 1  
    58   54   55 1  
    59   56   57 1  
    60   57   58 1  
    61   57   60 1  
    62   58   59 2  
    63   58   67 am 
    64   60   61 1  
    65   61   62 1  
    66   62   63 1  
    67   63   64 ar 
    68   64   65 ar 
    69   64   66 ar 
    70   67   68 1  
    71   67   73 1  
    72   68   69 1  
    73   68   71 1  
    74   69   70 2  
    75   69   74 am 
    76   71   72 1  
    77   72   73 1  
    78   74   75 1  
    79   75   76 1  
    80   75   78 1  
    81   76   77 2  
    82   78   79 1  
    83   78   80 1  
    84    1   81 1  
    85    1   82 1  
    86    1   83 1  
    87    2   84 1  
    88    5   85 1  
    89    5   86 1  
    90    6   87 1  
    91    6   88 1  
    92    7   89 1  
    93    7   90 1  
    94    8   91 1  
    95    8   92 1  
    96    9   93 1  
    97    9   94 1  
    98    9   95 1  
    99   10   96 1  
   100   11   97 1  
   101   14   98 1  
   102   14   99 1  
   103   15  100 1  
   104   16  101 1  
   105   16  102 1  
   106   16  103 1  
   107   17  104 1  
   108   17  105 1  
   109   17  106 1  
   110   18  107 1  
   111   19  108 1  
   112   22  109 1  
   113   22  110 1  
   114   24  111 1  
   115   25  112 1  
   116   26  113 1  
   117   27  114 1  
   118   29  115 1  
   119   30  116 1  
   120   31  117 1  
   121   34  118 1  
   122   34  119 1  
   123   35  120 1  
   124   36  121 1  
   125   36  122 1  
   126   37  123 1  
   127   37  124 1  
   128   38  125 1  
   129   38  126 1  
   130   39  127 1  
   131   39  128 1  
   132   40  129 1  
   133   40  130 1  
   134   41  131 1  
   135   42  132 1  
   136   45  133 1  
   137   45  134 1  
   138   46  135 1  
   139   47  136 1  
   140   47  137 1  
   141   47  138 1  
   142   48  139 1  
   143   48  140 1  
   144   48  141 1  
   145   50  142 1  
   146   53  143 1  
   147   53  144 1  
   148   54  145 1  
   149   54  146 1  
   150   55  147 1  
   151   55  148 1  
   152   56  149 1  
   153   57  150 1  
   154   60  151 1  
   155   60  152 1  
   156   61  153 1  
   157   61  154 1  
   158   62  155 1  
   159   62  156 1  
   160   63  157 1  
   161   65  158 1  
   162   65  159 1  
   163   66  160 1  
   164   66  161 1  
   165   68  162 1  
   166   71  163 1  
   167   71  164 1  
   168   72  165 1  
   169   72  166 1  
   170   73  167 1  
   171   73  168 1  
   172   74  169 1  
   173   75  170 1  
   174   76  171 1  
   175   78  172 1  
   176   79  173 1  
   177   80  174 1  
   178   80  175 1  
   179   80  176 1  
@<TRIPOS>SUBSTRUCTURE
     1 LYS         1

