3dpo_ligand
  -I-interpret- 

175178  0  0  0  0  0  0  0  0999 V2000
  -44.4590   27.1690  -23.6940 N   0  3  0  0  0
  -44.5560   28.2620  -24.7130 C   0  0  0  0  0
  -44.4260   29.6070  -24.0250 C   0  0  0  0  0
  -43.6470   30.4750  -24.4470 O   0  0  0  0  0
  -45.9000   28.2110  -25.4170 C   0  0  0  0  0
  -46.1120   29.3720  -26.3810 C   0  0  0  0  0
  -47.2690   29.0990  -27.3310 C   0  0  0  0  0
  -47.0000   27.8870  -28.1930 C   0  0  0  0  0
  -47.8970   27.8780  -29.3840 N   0  3  0  0  0
  -45.2350   29.7670  -22.9810 N   0  0  0  0  0
  -45.0890   30.9070  -22.0410 C   0  0  0  0  0
  -44.3230   30.4790  -20.8100 C   0  0  0  0  0
  -44.8570   29.8290  -19.9370 O   0  0  0  0  0
  -46.4470   31.5050  -21.6190 C   0  0  0  0  0
  -46.3580   32.7310  -20.6900 C   0  0  0  0  0
  -45.5000   33.8150  -21.3140 C   0  0  0  0  0
  -47.7540   33.2960  -20.3280 C   0  0  0  0  0
  -43.0660   30.8840  -20.7510 N   0  0  0  0  0
  -42.2040   30.5790  -19.6080 C   0  0  0  0  0
  -42.2700   31.6640  -18.5060 C   0  0  0  0  0
  -42.6440   32.8090  -18.7650 O   0  0  0  0  0
  -40.7610   30.3760  -20.0590 C   0  0  0  0  0
  -40.5620   29.0480  -20.7270 C   0  0  0  0  0
  -40.3400   27.9100  -19.9730 C   0  0  0  0  0
  -40.6090   28.9260  -22.1080 C   0  0  0  0  0
  -40.1560   26.6790  -20.5760 C   0  0  0  0  0
  -40.4320   27.7080  -22.7170 C   0  0  0  0  0
  -40.2130   26.5850  -21.9490 C   0  0  0  0  0
  -40.0240   25.3560  -22.5480 O   0  0  0  0  0
  -41.9310   31.1950  -17.2900 N   0  0  0  0  0
  -42.1840   32.0880  -16.1800 C   0  0  0  0  0
  -40.8660   32.4460  -15.5190 C   0  0  0  0  0
  -40.0000   31.5840  -15.4560 O   0  0  0  0  0
  -43.1040   31.4450  -15.1580 C   0  0  0  0  0
  -44.3910   30.9410  -15.7990 C   0  0  0  0  0
  -45.2620   30.4080  -14.6900 C   0  0  0  0  0
  -46.4760   29.7670  -15.3120 C   0  0  0  0  0
  -47.2960   30.8850  -15.9360 C   0  0  0  0  0
  -46.4390   31.5810  -16.9820 C   0  0  0  0  0
  -45.1760   32.1040  -16.3290 C   0  0  0  0  0
  -40.7900   33.5220  -14.8190 N   0  0  0  0  0
  -39.5650   34.1520  -14.2490 C   0  0  0  0  0
  -39.5970   34.2160  -12.7260 C   0  0  0  0  0
  -40.5750   34.6480  -12.1220 O   0  0  0  0  0
  -39.4040   35.5690  -14.7810 C   0  0  0  0  0
  -39.0190   35.7000  -16.2490 C   0  0  0  0  0
  -38.9830   37.1790  -16.6490 C   0  0  0  0  0
  -37.6910   35.0420  -16.4910 C   0  0  0  0  0
  -38.4970   33.8450  -12.0930 N   0  0  0  0  0
  -38.5370   34.0100  -10.6470 C   0  0  0  0  0
  -38.4680   35.4530  -10.1620 C   0  0  0  0  0
  -37.9740   36.3460  -10.8350 O   0  0  0  0  0
  -37.2950   33.2480  -10.1820 C   0  0  0  0  0
  -36.3300   33.3500  -11.3130 C   0  0  0  0  0
  -37.1610   33.4650  -12.5890 C   0  0  0  0  0
  -38.9700   35.6310   -8.9550 N   0  0  0  0  0
  -38.8170   36.8890   -8.2030 C   0  0  0  0  0
  -37.3750   37.0670   -7.7490 C   0  0  0  0  0
  -36.6280   36.0840   -7.6030 O   0  0  0  0  0
  -39.7360   36.9410   -6.9760 C   0  0  0  0  0
  -39.3810   35.9260   -5.8890 C   0  0  0  0  0
  -40.2850   36.0300   -4.6660 C   0  0  0  0  0
  -39.6630   36.8400   -3.6210 N   0  0  0  0  0
  -38.5480   36.5020   -2.9690 C   0  0  0  0  0
  -37.9190   35.3600   -3.2510 N   0  0  0  0  0
  -38.0540   37.3140   -2.0380 N   0  0  0  0  0
  -36.9670   38.3280   -7.5260 N   0  0  0  0  0
  -35.6090   38.5060   -7.0430 C   0  0  0  0  0
  -35.4480   38.1300   -5.5970 C   0  0  0  0  0
  -36.3920   38.1900   -4.8000 O   0  0  0  0  0
  -35.3330   40.0050   -7.2410 C   0  0  0  0  0
  -36.4640   40.5250   -8.0910 C   0  0  0  0  0
  -37.6150   39.6010   -7.8740 C   0  0  0  0  0
  -34.2250   37.7020   -5.3290 N   0  0  0  0  0
  -33.7110   37.3930   -3.9940 C   0  0  0  0  0
  -34.2740   36.0850   -3.4910 C   0  0  0  0  0
  -33.6550   35.0420   -3.6860 O   0  0  0  0  0
  -34.0120   38.4920   -2.9610 C   0  0  0  0  0
  -33.7340   39.7870   -3.5190 O   0  0  0  0  0
  -33.1410   38.2820   -1.7290 C   0  0  0  0  0
  -43.5515   27.2172  -23.2308 H   0  0  0  0  0
  -45.2010   27.2828  -23.0034 H   0  0  0  0  0
  -44.5586   26.2652  -24.1561 H   0  0  0  0  0
  -43.7569   28.1277  -25.4421 H   0  0  0  0  0
  -46.6766   28.2669  -24.6542 H   0  0  0  0  0
  -45.9368   27.2881  -25.9957 H   0  0  0  0  0
  -45.2041   29.5041  -26.9695 H   0  0  0  0  0
  -46.3428   30.2659  -25.8016 H   0  0  0  0  0
  -47.3953   29.9650  -27.9808 H   0  0  0  0  0
  -48.1655   28.9115  -26.7400 H   0  0  0  0  0
  -47.1858   26.9881  -27.6051 H   0  0  0  0  0
  -45.9645   27.9184  -28.5319 H   0  0  0  0  0
  -47.6992   27.0535  -29.9509 H   0  0  0  0  0
  -48.8691   27.8550  -29.0759 H   0  0  0  0  0
  -47.7342   28.7194  -29.9371 H   0  0  0  0  0
  -45.9777   29.0862  -22.8216 H   0  0  0  0  0
  -44.5373   31.6824  -22.5726 H   0  0  0  0  0
  -46.9745   30.7283  -21.0654 H   0  0  0  0  0
  -46.9420   31.8370  -22.5316 H   0  0  0  0  0
  -45.8915   32.3945  -19.7642 H   0  0  0  0  0
  -44.4955   33.4280  -21.4850 H   0  0  0  0  0
  -45.9388   34.1225  -22.2632 H   0  0  0  0  0
  -45.4513   34.6707  -20.6406 H   0  0  0  0  0
  -48.2695   33.5987  -21.2394 H   0  0  0  0  0
  -48.3349   32.5270  -19.8188 H   0  0  0  0  0
  -47.6365   34.1585  -19.6719 H   0  0  0  0  0
  -42.6848   31.4261  -21.5264 H   0  0  0  0  0
  -42.5792   29.6527  -19.1729 H   0  0  0  0  0
  -40.1203   30.4135  -19.1780 H   0  0  0  0  0
  -40.5152   31.1586  -20.7768 H   0  0  0  0  0
  -40.3096   27.9845  -18.8860 H   0  0  0  0  0
  -40.7892   29.8104  -22.7191 H   0  0  0  0  0
  -39.9678   25.7922  -19.9708 H   0  0  0  0  0
  -40.4646   27.6298  -23.8037 H   0  0  0  0  0
  -40.0925   25.4517  -23.5008 H   0  0  0  0  0
  -41.5221   30.2696  -17.1598 H   0  0  0  0  0
  -42.6717   32.9853  -16.5610 H   0  0  0  0  0
  -43.3629   32.1935  -14.4092 H   0  0  0  0  0
  -42.5850   30.5953  -14.7144 H   0  0  0  0  0
  -44.1437   30.2150  -16.5735 H   0  0  0  0  0
  -45.5643   31.2194  -14.0279 H   0  0  0  0  0
  -44.7115   29.6748  -14.1005 H   0  0  0  0  0
  -47.0586   29.2333  -14.5611 H   0  0  0  0  0
  -46.1835   29.0356  -16.0654 H   0  0  0  0  0
  -47.6010   31.5971  -15.1692 H   0  0  0  0  0
  -48.1931   30.4756  -16.4005 H   0  0  0  0  0
  -46.9960   32.4116  -17.4155 H   0  0  0  0  0
  -46.1765   30.8729  -17.7680 H   0  0  0  0  0
  -44.5802   32.6502  -17.0603 H   0  0  0  0  0
  -45.4336   32.7793  -15.5131 H   0  0  0  0  0
  -41.6711   34.0005  -14.6318 H   0  0  0  0  0
  -38.7263   33.5257  -14.5529 H   0  0  0  0  0
  -38.5881   36.0154  -14.2125 H   0  0  0  0  0
  -40.3801   36.0435  -14.6800 H   0  0  0  0  0
  -39.7647   35.1981  -16.8655 H   0  0  0  0  0
  -39.9677   37.6200  -16.4943 H   0  0  0  0  0
  -38.2489   37.7020  -16.0361 H   0  0  0  0  0
  -38.7069   37.2632  -17.7001 H   0  0  0  0  0
  -36.9310   35.5232  -15.8755 H   0  0  0  0  0
  -37.7572   33.9859  -16.2293 H   0  0  0  0  0
  -37.4243   35.1409  -17.5432 H   0  0  0  0  0
  -39.4859   33.6503  -10.2492 H   0  0  0  0  0
  -37.5257   32.2101   -9.9418 H   0  0  0  0  0
  -36.8850   33.6682   -9.2636 H   0  0  0  0  0
  -35.6805   32.4754  -11.3497 H   0  0  0  0  0
  -35.6805   34.2171  -11.1927 H   0  0  0  0  0
  -36.7524   34.1919  -13.2910 H   0  0  0  0  0
  -37.1754   32.5394  -13.1644 H   0  0  0  0  0
  -39.4865   34.8645   -8.5236 H   0  0  0  0  0
  -39.0978   37.6969   -8.8787 H   0  0  0  0  0
  -40.7447   36.7090   -7.3177 H   0  0  0  0  0
  -39.6334   37.9335   -6.5373 H   0  0  0  0  0
  -38.3590   36.1256   -5.5667 H   0  0  0  0  0
  -39.5035   34.9284   -6.3109 H   0  0  0  0  0
  -40.4590   35.0279   -4.2740 H   0  0  0  0  0
  -41.2214   36.5022   -4.9630 H   0  0  0  0  0
  -40.1104   37.7225   -3.3731 H   0  0  0  0  0
  -37.0634   35.1127   -2.7537 H   0  0  0  0  0
  -38.2936   34.7340   -3.9639 H   0  0  0  0  0
  -38.5269   38.1920   -1.8240 H   0  0  0  0  0
  -34.9141   37.8602   -7.5798 H   0  0  0  0  0
  -34.3688   40.1694   -7.7220 H   0  0  0  0  0
  -35.2836   40.5276   -6.2857 H   0  0  0  0  0
  -36.1802   40.5551   -9.1430 H   0  0  0  0  0
  -36.7247   41.5460   -7.8122 H   0  0  0  0  0
  -38.2938   39.9521   -7.0968 H   0  0  0  0  0
  -38.2575   39.5185   -8.7506 H   0  0  0  0  0
  -33.5889   37.5773   -6.1166 H   0  0  0  0  0
  -32.6287   37.3229   -4.1029 H   0  0  0  0  0
  -35.2245   36.0665   -2.9578 H   0  0  0  0  0
  -35.0653   38.4387   -2.6857 H   0  0  0  0  0
  -33.9256   40.4636   -2.8655 H   0  0  0  0  0
  -33.3566   37.3055   -1.2953 H   0  0  0  0  0
  -32.0905   38.3296   -2.0159 H   0  0  0  0  0
  -33.3548   39.0612   -0.9974 H   0  0  0  0  0
  1  2  1  0  0  0
  2  3  1  0  0  0
  2  5  1  0  0  0
  3  4  2  0  0  0
  3 10  1  0  0  0
  5  6  1  0  0  0
  6  7  1  0  0  0
  7  8  1  0  0  0
  8  9  1  0  0  0
 10 11  1  0  0  0
 11 12  1  0  0  0
 11 14  1  0  0  0
 12 13  2  0  0  0
 12 18  1  0  0  0
 14 15  1  0  0  0
 15 16  1  0  0  0
 15 17  1  0  0  0
 18 19  1  0  0  0
 19 20  1  0  0  0
 19 22  1  0  0  0
 20 21  2  0  0  0
 20 30  1  0  0  0
 22 23  1  0  0  0
 23 24  4  0  0  0
 23 25  4  0  0  0
 24 26  4  0  0  0
 25 27  4  0  0  0
 26 28  4  0  0  0
 27 28  4  0  0  0
 28 29  1  0  0  0
 30 31  1  0  0  0
 31 32  1  0  0  0
 31 34  1  0  0  0
 32 33  2  0  0  0
 32 41  1  0  0  0
 34 35  1  0  0  0
 35 36  1  0  0  0
 35 40  1  0  0  0
 36 37  1  0  0  0
 37 38  1  0  0  0
 38 39  1  0  0  0
 39 40  1  0  0  0
 41 42  1  0  0  0
 42 43  1  0  0  0
 42 45  1  0  0  0
 43 44  2  0  0  0
 43 49  1  0  0  0
 45 46  1  0  0  0
 46 47  1  0  0  0
 46 48  1  0  0  0
 49 50  1  0  0  0
 49 55  1  0  0  0
 50 51  1  0  0  0
 50 53  1  0  0  0
 51 52  2  0  0  0
 51 56  1  0  0  0
 53 54  1  0  0  0
 54 55  1  0  0  0
 56 57  1  0  0  0
 57 58  1  0  0  0
 57 60  1  0  0  0
 58 59  2  0  0  0
 58 67  1  0  0  0
 60 61  1  0  0  0
 61 62  1  0  0  0
 62 63  1  0  0  0
 63 64  1  0  0  0
 64 65  1  0  0  0
 64 66  2  0  0  0
 67 68  1  0  0  0
 67 73  1  0  0  0
 68 69  1  0  0  0
 68 71  1  0  0  0
 69 70  2  0  0  0
 69 74  1  0  0  0
 71 72  1  0  0  0
 72 73  1  0  0  0
 74 75  1  0  0  0
 75 76  1  0  0  0
 75 78  1  0  0  0
 76 77  2  0  0  0
 78 79  1  0  0  0
 78 80  1  0  0  0
  1 81  1  0  0  0
  1 82  1  0  0  0
  1 83  1  0  0  0
  2 84  1  0  0  0
  5 85  1  0  0  0
  5 86  1  0  0  0
  6 87  1  0  0  0
  6 88  1  0  0  0
  7 89  1  0  0  0
  7 90  1  0  0  0
  8 91  1  0  0  0
  8 92  1  0  0  0
  9 93  1  0  0  0
  9 94  1  0  0  0
  9 95  1  0  0  0
 10 96  1  0  0  0
 11 97  1  0  0  0
 14 98  1  0  0  0
 14 99  1  0  0  0
 15100  1  0  0  0
 16101  1  0  0  0
 16102  1  0  0  0
 16103  1  0  0  0
 17104  1  0  0  0
 17105  1  0  0  0
 17106  1  0  0  0
 18107  1  0  0  0
 19108  1  0  0  0
 22109  1  0  0  0
 22110  1  0  0  0
 24111  1  0  0  0
 25112  1  0  0  0
 26113  1  0  0  0
 27114  1  0  0  0
 29115  1  0  0  0
 30116  1  0  0  0
 31117  1  0  0  0
 34118  1  0  0  0
 34119  1  0  0  0
 35120  1  0  0  0
 36121  1  0  0  0
 36122  1  0  0  0
 37123  1  0  0  0
 37124  1  0  0  0
 38125  1  0  0  0
 38126  1  0  0  0
 39127  1  0  0  0
 39128  1  0  0  0
 40129  1  0  0  0
 40130  1  0  0  0
 41131  1  0  0  0
 42132  1  0  0  0
 45133  1  0  0  0
 45134  1  0  0  0
 46135  1  0  0  0
 47136  1  0  0  0
 47137  1  0  0  0
 47138  1  0  0  0
 48139  1  0  0  0
 48140  1  0  0  0
 48141  1  0  0  0
 50142  1  0  0  0
 53143  1  0  0  0
 53144  1  0  0  0
 54145  1  0  0  0
 54146  1  0  0  0
 55147  1  0  0  0
 55148  1  0  0  0
 56149  1  0  0  0
 57150  1  0  0  0
 60151  1  0  0  0
 60152  1  0  0  0
 61153  1  0  0  0
 61154  1  0  0  0
 62155  1  0  0  0
 62156  1  0  0  0
 63157  1  0  0  0
 65158  1  0  0  0
 65159  1  0  0  0
 66160  1  0  0  0
 68161  1  0  0  0
 71162  1  0  0  0
 71163  1  0  0  0
 72164  1  0  0  0
 72165  1  0  0  0
 73166  1  0  0  0
 73167  1  0  0  0
 74168  1  0  0  0
 75169  1  0  0  0
 76170  1  0  0  0
 78171  1  0  0  0
 79172  1  0  0  0
 80173  1  0  0  0
 80174  1  0  0  0
 80175  1  0  0  0
M  END
$$$$
