4hv3_ligand
  -I-interpret- 

 53 56  0  0  0  0  0  0  0  0999 V2000
  -23.9110    8.5960   -6.3990 C   0  0  0  0  0
  -24.3050    7.8790   -5.3000 N   0  0  0  0  0
  -21.8480    8.1820   -9.1300 O   0  0  0  0  0
  -22.6770    8.6610   -8.3050 C   0  0  0  0  0
  -23.0650    7.9420   -7.2440 N   0  0  0  0  0
  -23.0880    9.9870   -8.5260 C   0  0  0  0  0
  -24.3040    9.8540   -6.4840 N   0  0  0  0  0
  -25.5700   14.2960   -8.2110 O   0  0  0  0  0
  -23.9840   10.5640   -7.5590 C   0  0  0  0  0
  -24.5470   11.7530   -7.7420 N   0  0  0  0  0
  -24.2210   12.4840   -8.8460 C   0  0  0  0  0
  -22.7240   10.8510   -9.6080 N   0  0  0  0  0
  -23.2180   12.0520   -9.7890 C   0  0  0  0  0
  -24.9410   13.7600   -9.0920 C   0  0  0  0  0
  -25.0360   14.1760  -10.4020 N   0  0  0  0  0
  -25.7620   15.3370  -10.7980 C   0  0  0  0  0
  -27.2770   15.0800  -10.8580 C   0  0  0  0  0
  -27.9960   16.0920  -11.0440 O   0  0  0  0  0
  -25.2270   15.8220  -12.1800 C   0  0  0  0  0
  -25.6420   14.8600  -13.1670 O   0  0  0  0  0
  -27.7870   13.8860  -10.5900 N   0  0  0  0  0
  -29.2460   13.7420  -10.5720 C   0  0  0  0  0
  -29.4780   12.7090   -9.4960 C   0  0  0  0  0
  -30.7460   12.5620   -9.0910 O   0  0  0  0  0
  -29.9400   13.3720  -11.9070 C   0  0  0  0  0
  -29.4980   12.0250  -12.4710 C   0  0  0  0  0
  -29.8510   10.7800  -12.0240 C   0  0  0  0  0
  -28.5060   11.7760  -13.5580 C   0  0  0  0  0
  -29.2230    9.7480  -12.6950 N   0  0  0  0  0
  -28.4040   10.3080  -13.6280 C   0  0  0  0  0
  -27.7190   12.6530  -14.3280 C   0  0  0  0  0
  -27.4980    9.7360  -14.5270 C   0  0  0  0  0
  -26.8850   12.0330  -15.2900 C   0  0  0  0  0
  -26.8160   10.6080  -15.3650 C   0  0  0  0  0
  -28.6010   11.9650   -8.9830 O   0  0  0  0  0
  -23.9652    6.9270   -5.1635 H   0  0  0  0  0
  -24.8479   10.2758   -5.7312 H   0  0  0  0  0
  -22.8883   12.6904  -10.6087 H   0  0  0  0  0
  -24.5650   13.6278  -11.1218 H   0  0  0  0  0
  -25.6083   16.1133  -10.0484 H   0  0  0  0  0
  -24.1402   15.9033  -12.1606 H   0  0  0  0  0
  -25.6255   16.8082  -12.4180 H   0  0  0  0  0
  -25.3258   15.1332  -14.0313 H   0  0  0  0  0
  -27.1801   13.0882  -10.4012 H   0  0  0  0  0
  -29.7082   14.7109  -10.3828 H   0  0  0  0  0
  -31.3047   13.1867   -9.5592 H   0  0  0  0  0
  -29.6732   14.1360  -12.6372 H   0  0  0  0  0
  -31.0108   13.3101  -11.7130 H   0  0  0  0  0
  -30.5618   10.6178  -11.2137 H   0  0  0  0  0
  -27.7494   13.7342  -14.1932 H   0  0  0  0  0
  -27.3354    8.6590  -14.5677 H   0  0  0  0  0
  -26.2952   12.6435  -15.9738 H   0  0  0  0  0
  -26.1811   10.1733  -16.1370 H   0  0  0  0  0
  1  2  2  0  0  0
  1  5  4  0  0  0
  7  1  1  0  0  0
  4  3  2  0  0  0
  4  5  1  0  0  0
  6  4  1  0  0  0
  9  6  4  0  0  0
  6 12  4  0  0  0
  9  7  1  0  0  0
 14  8  2  0  0  0
 10  9  4  0  0  0
 11 10  4  0  0  0
 11 13  4  0  0  0
 11 14  1  0  0  0
 12 13  4  0  0  0
 14 15  1  0  0  0
 15 16  1  0  0  0
 16 17  1  0  0  0
 16 19  1  0  0  0
 17 18  2  0  0  0
 17 21  1  0  0  0
 19 20  1  0  0  0
 21 22  1  0  0  0
 22 23  1  0  0  0
 22 25  1  0  0  0
 23 24  1  0  0  0
 23 35  2  0  0  0
 25 26  1  0  0  0
 26 27  4  0  0  0
 26 28  4  0  0  0
 27 29  4  0  0  0
 28 30  4  0  0  0
 28 31  4  0  0  0
 29 30  4  0  0  0
 30 32  4  0  0  0
 31 33  4  0  0  0
 32 34  4  0  0  0
 33 34  4  0  0  0
  2 36  1  0  0  0
  7 37  1  0  0  0
 13 38  1  0  0  0
 15 39  1  0  0  0
 16 40  1  0  0  0
 19 41  1  0  0  0
 19 42  1  0  0  0
 20 43  1  0  0  0
 21 44  1  0  0  0
 22 45  1  0  0  0
 24 46  1  0  0  0
 25 47  1  0  0  0
 25 48  1  0  0  0
 27 49  1  0  0  0
 31 50  1  0  0  0
 32 51  1  0  0  0
 33 52  1  0  0  0
 34 53  1  0  0  0
M  END
$$$$
