3cfv_ligand
  -I-interpret- 

300300  0  0  0  0  0  0  0  0999 V2000
   48.8690   -4.6560   69.5670 N   0  3  0  0  0
   47.6000   -4.6760   68.7830 C   0  0  0  0  0
   46.3890   -4.3120   69.6350 C   0  0  0  0  0
   46.4130   -4.4460   70.8600 O   0  0  0  0  0
   47.3870   -6.0450   68.1310 C   0  0  0  0  0
   48.1090   -6.1770   66.8060 C   0  0  0  0  0
   47.8340   -7.1500   66.0730 O   0  0  0  0  0
   48.9470   -5.3040   66.4930 O   0  0  0  0  0
   45.3310   -3.8540   68.9730 N   0  0  0  0  0
   44.0860   -3.5080   69.6490 C   0  0  0  0  0
   42.9640   -4.4890   69.3200 C   0  0  0  0  0
   43.0610   -5.2600   68.3670 O   0  0  0  0  0
   43.6630   -2.0740   69.3140 C   0  0  0  0  0
   43.2420   -1.9100   67.8680 C   0  0  0  0  0
   42.1610   -1.3960   67.5820 O   0  0  0  0  0
   44.0930   -2.3450   66.9460 N   0  0  0  0  0
   41.8990   -4.4470   70.1150 N   0  0  0  0  0
   40.7890   -5.3890   69.9790 C   0  0  0  0  0
   39.9530   -5.1920   68.7170 C   0  0  0  0  0
   39.3790   -6.1490   68.1980 O   0  0  0  0  0
   39.8690   -5.3480   71.2080 C   0  0  0  0  0
   39.9330   -3.9650   71.8580 C   0  0  0  0  0
   40.2680   -6.4250   72.2030 C   0  0  0  0  0
   39.6140   -3.9690   73.3250 C   0  0  0  0  0
   39.8760   -3.9580   68.2260 N   0  0  0  0  0
   39.1540   -3.6990   66.9870 C   0  0  0  0  0
   39.8540   -4.3980   65.8270 C   0  0  0  0  0
   39.2040   -4.9830   64.9610 O   0  0  0  0  0
   39.0220   -2.1980   66.7140 C   0  0  0  0  0
   38.2290   -1.8750   65.4490 C   0  0  0  0  0
   37.7350   -0.4400   65.4050 C   0  0  0  0  0
   38.2710    0.4380   66.0830 O   0  0  0  0  0
   36.7070   -0.1930   64.6000 N   0  0  0  0  0
   41.1820   -4.3470   65.8290 N   0  0  0  0  0
   41.9830   -5.0220   64.8130 C   0  0  0  0  0
   41.8060   -6.5290   64.8480 C   0  0  0  0  0
   42.0640   -7.2140   63.8590 O   0  0  0  0  0
   41.3640   -7.0430   65.9920 N   0  0  0  0  0
   41.1040   -8.4720   66.1440 C   0  0  0  0  0
   39.7560   -8.8600   65.5400 C   0  0  0  0  0
   39.6340   -9.9010   64.8920 O   0  0  0  0  0
   41.1710   -8.9130   67.6300 C   0  0  0  0  0
   42.5890   -9.3590   67.9950 C   0  0  0  0  0
   40.2150  -10.0700   67.9000 C   0  0  0  0  0
   43.6490   -8.2920   67.8270 C   0  0  0  0  0
   38.7500   -8.0140   65.7430 N   0  0  0  0  0
   37.3980   -8.3180   65.2820 C   0  0  0  0  0
   37.0680   -7.7120   63.9190 C   0  0  0  0  0
   35.9640   -7.8950   63.4110 O   0  0  0  0  0
   36.3310   -7.8820   66.3090 C   0  0  0  0  0
   36.5770   -6.5300   66.7120 O   0  0  0  0  0
   36.3670   -8.7880   67.5330 C   0  0  0  0  0
   38.0210   -6.9980   63.3270 N   0  0  0  0  0
   37.8170   -6.4310   61.9930 C   0  0  0  0  0
   37.7100   -7.5000   60.9060 C   0  0  0  0  0
   36.8070   -7.4440   60.0740 O   0  0  0  0  0
   38.9110   -5.4190   61.6400 C   0  0  0  0  0
   38.5580   -3.9840   61.9810 C   0  0  0  0  0
   39.5850   -3.0190   61.4190 C   0  0  0  0  0
   39.1950   -1.5800   61.6980 C   0  0  0  0  0
   40.2670   -0.6400   61.2770 N   0  3  0  0  0
   38.6340   -8.4770   60.9040 N   0  0  0  0  0
   38.5670   -9.5450   59.9080 C   0  0  0  0  0
   37.3730  -10.4690   60.1400 C   0  0  0  0  0
   36.8610  -11.0680   59.1940 O   0  0  0  0  0
   39.8800  -10.3140   60.1210 C   0  0  0  0  0
   40.7440   -9.4140   60.9600 C   0  0  0  0  0
   39.7910   -8.6400   61.8000 C   0  0  0  0  0
   36.9420  -10.5790   61.3930 N   0  0  0  0  0
   35.8150  -11.4350   61.7490 C   0  0  0  0  0
   34.4940  -10.8240   61.2920 C   0  0  0  0  0
   33.6400  -11.5160   60.7380 O   0  0  0  0  0
   35.7960  -11.6910   63.2500 C   0  0  0  0  0
   34.3360   -9.5250   61.5310 N   0  0  0  0  0
   33.1400   -8.8000   61.1160 C   0  0  0  0  0
   33.0670   -8.6930   59.5920 C   0  0  0  0  0
   32.0020   -8.8760   59.0010 O   0  0  0  0  0
   33.0840   -7.3840   61.7400 C   0  0  0  0  0
   33.1650   -7.4590   63.2680 C   0  0  0  0  0
   31.8180   -6.6510   61.3130 C   0  0  0  0  0
   32.0680   -8.2790   63.9130 C   0  0  0  0  0
   34.2030   -8.4030   58.9630 N   0  0  0  0  0
   34.2650   -8.2820   57.5080 C   0  0  0  0  0
   33.9630   -9.6070   56.8160 C   0  0  0  0  0
   33.4510   -9.6250   55.6980 O   0  0  0  0  0
   35.6200   -7.7270   57.0520 C   0  0  0  0  0
   35.7960   -6.2380   57.3260 C   0  0  0  0  0
   37.1400   -5.7140   56.8360 C   0  0  0  0  0
   37.3620   -4.3310   57.2550 N   0  0  0  0  0
   38.3490   -3.5570   56.8110 C   0  0  0  0  0
   39.2170   -4.0230   55.9220 N   0  0  0  0  0
   38.4650   -2.3110   57.2540 N   0  0  0  0  0
   34.2790  -10.7140   57.4800 N   0  0  0  0  0
   33.9090  -12.0270   56.9630 C   0  0  0  0  0
   32.4160  -12.2670   57.1450 C   0  0  0  0  0
   31.7510  -12.7970   56.2550 O   0  0  0  0  0
   34.7180  -13.1410   57.6330 C   0  0  0  0  0
   36.0170  -13.4700   56.9130 C   0  0  0  0  0
   36.4830  -14.8910   57.2070 C   0  0  0  0  0
   37.3660  -14.9670   58.3670 N   0  0  0  0  0
   36.9830  -15.3560   59.5800 C   0  0  0  0  0
   35.7230  -15.7070   59.8030 N   0  0  0  0  0
   37.8620  -15.3930   60.5720 N   0  0  0  0  0
   31.8960  -11.8650   58.3020 N   0  0  0  0  0
   30.4730  -11.9830   58.5950 C   0  0  0  0  0
   29.6480  -11.1480   57.6180 C   0  0  0  0  0
   28.5250  -11.5100   57.2650 O   0  0  0  0  0
   30.1920  -11.5400   60.0330 C   0  0  0  0  0
   28.7690  -11.7220   60.5660 C   0  0  0  0  0
   28.4200  -13.2000   60.6900 C   0  0  0  0  0
   28.6040  -11.0160   61.9040 C   0  0  0  0  0
   30.2210  -10.0310   57.1800 N   0  0  0  0  0
   29.5510   -9.1240   56.2570 C   0  0  0  0  0
   29.4040   -9.7310   54.8650 C   0  0  0  0  0
   28.4320   -9.4630   54.1590 O   0  0  0  0  0
   30.3060   -7.8060   56.1820 C   0  0  0  0  0
   30.3760  -10.5500   54.4780 N   0  0  0  0  0
   30.4040  -11.1300   53.1400 C   0  0  0  0  0
   29.6700  -12.4670   53.0870 C   0  0  0  0  0
   29.4620  -13.0310   52.0110 O   0  0  0  0  0
   31.8490  -11.2690   52.6550 C   0  0  0  0  0
   32.6110   -9.9510   52.6760 C   0  0  0  0  0
   34.1030  -10.1390   52.4710 C   0  0  0  0  0
   34.4230  -10.4480   51.0820 N   0  0  0  0  0
   34.8190  -11.6410   50.6550 C   0  0  0  0  0
   34.9560  -12.6420   51.5140 N   0  0  0  0  0
   35.0840  -11.8300   49.3700 N   0  0  0  0  0
   29.2800  -12.9670   54.2550 N   0  0  0  0  0
   28.4460  -14.1580   54.3370 C   0  0  0  0  0
   27.0030  -13.7500   54.6030 C   0  0  0  0  0
   26.1080  -14.5940   54.6590 O   0  0  0  0  0
   28.9300  -15.0860   55.4490 C   0  0  0  0  0
   30.3480  -15.5950   55.2770 C   0  0  0  0  0
   30.7120  -16.5290   56.4160 C   0  0  0  0  0
   32.1560  -16.6940   56.5560 N   0  0  0  0  0
   32.7430  -17.2550   57.6090 C   0  0  0  0  0
   32.0100  -17.7040   58.6190 N   0  0  0  0  0
   34.0640  -17.3640   57.6530 N   0  0  0  0  0
   26.7870  -12.4480   54.7740 N   0  0  0  0  0
   25.4560  -11.9080   55.0240 C   0  0  0  0  0
   25.1120  -11.8630   56.5000 C   0  0  0  0  0
   23.9410  -11.9270   56.8750 O   0  0  0  0  0
   26.0857  -11.7532   57.3993 O   0  0  0  0  0
   49.6479   -4.9049   68.9573 H   0  0  0  0  0
   49.0181   -3.7211   69.9465 H   0  0  0  0  0
   48.8057   -5.3284   70.3314 H   0  0  0  0  0
   47.6976   -3.9182   68.0056 H   0  0  0  0  0
   46.3198   -6.1659   67.9452 H   0  0  0  0  0
   47.7830   -6.8036   68.8061 H   0  0  0  0  0
   49.0041   -4.6509   67.1943 H   0  0  0  0  0
   45.3919   -3.7411   67.9611 H   0  0  0  0  0
   44.2740   -3.5748   70.7206 H   0  0  0  0  0
   44.5199   -1.4234   69.4885 H   0  0  0  0  0
   42.8080   -1.8225   69.9416 H   0  0  0  0  0
   43.8607   -2.2591   65.9565 H   0  0  0  0  0
   44.9789   -2.7650   67.2273 H   0  0  0  0  0
   41.8549   -3.7344   70.8435 H   0  0  0  0  0
   41.2629   -6.3672   69.8976 H   0  0  0  0  0
   38.8439   -5.5395   70.8909 H   0  0  0  0  0
   39.1884   -3.3398   71.3654 H   0  0  0  0  0
   40.9549   -3.6017   71.7488 H   0  0  0  0  0
   40.1864   -7.4034   71.7296 H   0  0  0  0  0
   41.2968   -6.2593   72.5227 H   0  0  0  0  0
   39.6060   -6.3820   73.0679 H   0  0  0  0  0
   38.6042   -4.3510   73.4749 H   0  0  0  0  0
   40.3264   -4.6064   73.8487 H   0  0  0  0  0
   39.6806   -2.9525   73.7128 H   0  0  0  0  0
   40.3257   -3.1875   68.7204 H   0  0  0  0  0
   38.1452   -4.0986   67.0903 H   0  0  0  0  0
   40.0279   -1.8001   66.5801 H   0  0  0  0  0
   38.4880   -1.7580   67.5562 H   0  0  0  0  0
   37.3553   -2.5265   65.4307 H   0  0  0  0  0
   38.8915   -2.0232   64.5962 H   0  0  0  0  0
   36.3326    0.7530   64.5264 H   0  0  0  0  0
   36.2923   -0.9494   64.0557 H   0  0  0  0  0
   41.6556   -3.8202   66.5628 H   0  0  0  0  0
   43.0324   -4.8000   65.0069 H   0  0  0  0  0
   41.6590   -4.6659   63.8351 H   0  0  0  0  0
   41.2021   -6.4222   66.7850 H   0  0  0  0  0
   41.8900   -8.9952   65.5994 H   0  0  0  0  0
   40.8838   -8.0549   68.2376 H   0  0  0  0  0
   42.8492  -10.1745   67.3202 H   0  0  0  0  0
   42.5751   -9.6297   69.0508 H   0  0  0  0  0
   39.1956   -9.7579   67.6729 H   0  0  0  0  0
   40.4856  -10.9177   67.2705 H   0  0  0  0  0
   40.2828  -10.3585   68.9489 H   0  0  0  0  0
   43.6768   -7.9700   66.7860 H   0  0  0  0  0
   43.4108   -7.4413   68.4655 H   0  0  0  0  0
   44.6201   -8.6989   68.1089 H   0  0  0  0  0
   38.9263   -7.1355   66.2303 H   0  0  0  0  0
   37.3753   -9.4024   65.1736 H   0  0  0  0  0
   35.3481   -7.9562   65.8437 H   0  0  0  0  0
   35.9122   -6.2616   67.3504 H   0  0  0  0  0
   36.1676   -9.8155   67.2289 H   0  0  0  0  0
   37.3513   -8.7298   67.9977 H   0  0  0  0  0
   35.6078   -8.4647   68.2452 H   0  0  0  0  0
   38.9064   -6.8433   63.8092 H   0  0  0  0  0
   36.8599   -5.9107   62.0301 H   0  0  0  0  0
   39.0601   -5.4675   60.5613 H   0  0  0  0  0
   39.7942   -5.6816   62.2223 H   0  0  0  0  0
   38.5381   -3.8786   63.0657 H   0  0  0  0  0
   37.5864   -3.7514   61.5451 H   0  0  0  0  0
   39.6423   -3.1612   60.3398 H   0  0  0  0  0
   40.5458   -3.2176   61.8939 H   0  0  0  0  0
   39.0335   -1.4653   62.7698 H   0  0  0  0  0
   38.2903   -1.3498   61.1353 H   0  0  0  0  0
   39.9762    0.3170   61.4769 H   0  0  0  0  0
   41.1230   -0.8506   61.7901 H   0  0  0  0  0
   40.4347   -0.7437   60.2762 H   0  0  0  0  0
   38.4436   -9.1553   58.8976 H   0  0  0  0  0
   40.3591  -10.5550   59.1721 H   0  0  0  0  0
   39.7060  -11.2711   60.6128 H   0  0  0  0  0
   41.4490   -9.9817   61.5672 H   0  0  0  0  0
   41.3637   -8.7609   60.3455 H   0  0  0  0  0
   39.5398   -9.1430   62.7338 H   0  0  0  0  0
   40.2004   -7.6905   62.1450 H   0  0  0  0  0
   37.4128  -10.0496   62.1268 H   0  0  0  0  0
   35.9385  -12.3880   61.2345 H   0  0  0  0  0
   36.7230  -12.1826   63.5452 H   0  0  0  0  0
   35.7024  -10.7420   63.7780 H   0  0  0  0  0
   34.9491  -12.3310   63.4974 H   0  0  0  0  0
   35.0748   -9.0196   62.0201 H   0  0  0  0  0
   32.2823   -9.3681   61.4761 H   0  0  0  0  0
   33.9450   -6.8239   61.3752 H   0  0  0  0  0
   33.0662   -6.4406   63.6439 H   0  0  0  0  0
   34.1113   -7.9403   63.5149 H   0  0  0  0  0
   31.8029   -6.5568   60.2272 H   0  0  0  0  0
   30.9449   -7.2144   61.6423 H   0  0  0  0  0
   31.8038   -5.6593   61.7652 H   0  0  0  0  0
   31.0990   -7.8451   63.6663 H   0  0  0  0  0
   32.1146   -9.3025   63.5409 H   0  0  0  0  0
   32.2033   -8.2777   64.9946 H   0  0  0  0  0
   35.0521   -8.2616   59.5102 H   0  0  0  0  0
   33.4915   -7.5726   57.2138 H   0  0  0  0  0
   35.6842   -7.8696   55.9733 H   0  0  0  0  0
   36.3930   -8.2547   57.6107 H   0  0  0  0  0
   35.7462   -6.0846   58.4040 H   0  0  0  0  0
   35.0100   -5.7014   56.7945 H   0  0  0  0  0
   37.1478   -5.7498   55.7466 H   0  0  0  0  0
   37.9283   -6.3344   57.2624 H   0  0  0  0  0
   36.7152   -3.9316   57.9351 H   0  0  0  0  0
   39.1293   -4.9785   55.5760 H   0  0  0  0  0
   39.2191   -1.7159   56.9111 H   0  0  0  0  0
   37.8000   -1.9487   57.9373 H   0  0  0  0  0
   34.7865  -10.6447   58.3621 H   0  0  0  0  0
   34.1406  -12.0444   55.8980 H   0  0  0  0  0
   34.1032  -14.0410   57.6243 H   0  0  0  0  0
   34.9779  -12.7983   58.6345 H   0  0  0  0  0
   36.7853  -12.7789   57.2596 H   0  0  0  0  0
   35.8462  -13.3806   55.8402 H   0  0  0  0  0
   37.0393  -15.2465   56.3397 H   0  0  0  0  0
   35.6007  -15.4951   57.4185 H   0  0  0  0  0
   38.3431  -14.7039   58.2386 H   0  0  0  0  0
   35.4336  -16.0039   60.7349 H   0  0  0  0  0
   35.0438  -15.6799   59.0425 H   0  0  0  0  0
   38.8314  -15.1232   60.4048 H   0  0  0  0  0
   32.5131  -11.4612   59.0066 H   0  0  0  0  0
   30.1852  -13.0283   58.4825 H   0  0  0  0  0
   30.3751  -10.4656   60.0491 H   0  0  0  0  0
   30.8223  -12.1693   60.6613 H   0  0  0  0  0
   28.0790  -11.2710   59.8528 H   0  0  0  0  0
   28.4910  -13.6722   59.7102 H   0  0  0  0  0
   29.1165  -13.6800   61.3774 H   0  0  0  0  0
   27.4037  -13.3013   61.0708 H   0  0  0  0  0
   29.3076  -11.4348   62.6235 H   0  0  0  0  0
   28.8013   -9.9514   61.7784 H   0  0  0  0  0
   27.5854  -11.1579   62.2651 H   0  0  0  0  0
   31.1615   -9.8012   57.5010 H   0  0  0  0  0
   28.5466   -8.9446   56.6405 H   0  0  0  0  0
   30.3392   -7.3509   57.1719 H   0  0  0  0  0
   31.3214   -7.9899   55.8310 H   0  0  0  0  0
   29.7966   -7.1359   55.4895 H   0  0  0  0  0
   31.1226  -10.7793   55.1341 H   0  0  0  0  0
   29.8764  -10.4535   52.4677 H   0  0  0  0  0
   31.8214  -11.6210   51.6238 H   0  0  0  0  0
   32.3601  -11.9596   53.3258 H   0  0  0  0  0
   32.4610   -9.4913   53.6529 H   0  0  0  0  0
   32.2349   -9.3321   51.8614 H   0  0  0  0  0
   34.4324  -10.9718   53.0924 H   0  0  0  0  0
   34.6060   -9.2103   52.7405 H   0  0  0  0  0
   34.3370   -9.6994   50.3945 H   0  0  0  0  0
   35.2652  -13.5569   51.1858 H   0  0  0  0  0
   34.7522  -12.4970   52.5029 H   0  0  0  0  0
   34.9836  -11.0590   48.7098 H   0  0  0  0  0
   29.5723  -12.5047   55.1160 H   0  0  0  0  0
   28.5107  -14.6930   53.3896 H   0  0  0  0  0
   28.2766  -15.9584   55.4411 H   0  0  0  0  0
   28.9096  -14.5101   56.3742 H   0  0  0  0  0
   31.0336  -14.7476   55.2779 H   0  0  0  0  0
   30.4202  -16.1373   54.3343 H   0  0  0  0  0
   30.2785  -17.5064   56.2041 H   0  0  0  0  0
   30.3290  -16.0994   57.3417 H   0  0  0  0  0
   32.7514  -16.3581   55.7990 H   0  0  0  0  0
   32.4625  -18.1318   59.4269 H   0  0  0  0  0
   30.9938  -17.6215   58.5879 H   0  0  0  0  0
   34.6304  -17.0174   56.8788 H   0  0  0  0  0
   27.5788  -11.8066   54.7287 H   0  0  0  0  0
   24.7327  -12.5575   54.5310 H   0  0  0  0  0
   25.4315  -10.8871   54.6429 H   0  0  0  0  0
   26.9328  -11.7153   56.9491 H   0  0  0  0  0
  2  1  1  0  0  0
  2  5  1  0  0  0
  3  2  1  0  0  0
  3  4  2  0  0  0
  5  6  1  0  0  0
  6  7  2  0  0  0
  6  8  1  0  0  0
 10  9  1  0  0  0
 10 13  1  0  0  0
 11 10  1  0  0  0
 11 12  2  0  0  0
 13 14  1  0  0  0
 14 16  1  0  0  0
 14 15  2  0  0  0
  9  3  1  0  0  0
 18 17  1  0  0  0
 18 21  1  0  0  0
 19 18  1  0  0  0
 19 20  2  0  0  0
 21 23  1  0  0  0
 21 22  1  0  0  0
 22 24  1  0  0  0
 17 11  1  0  0  0
 26 25  1  0  0  0
 26 29  1  0  0  0
 27 26  1  0  0  0
 27 28  2  0  0  0
 29 30  1  0  0  0
 30 31  1  0  0  0
 31 33  1  0  0  0
 31 32  2  0  0  0
 25 19  1  0  0  0
 35 34  1  0  0  0
 36 35  1  0  0  0
 36 37  2  0  0  0
 34 27  1  0  0  0
 39 38  1  0  0  0
 39 42  1  0  0  0
 40 39  1  0  0  0
 40 41  2  0  0  0
 42 44  1  0  0  0
 42 43  1  0  0  0
 43 45  1  0  0  0
 38 36  1  0  0  0
 47 46  1  0  0  0
 47 50  1  0  0  0
 48 47  1  0  0  0
 48 49  2  0  0  0
 50 52  1  0  0  0
 50 51  1  0  0  0
 46 40  1  0  0  0
 54 53  1  0  0  0
 54 57  1  0  0  0
 55 54  1  0  0  0
 55 56  2  0  0  0
 57 58  1  0  0  0
 58 59  1  0  0  0
 59 60  1  0  0  0
 60 61  1  0  0  0
 53 48  1  0  0  0
 64 63  1  0  0  0
 63 66  1  0  0  0
 63 62  1  0  0  0
 62 68  1  0  0  0
 68 67  1  0  0  0
 66 67  1  0  0  0
 64 65  2  0  0  0
 62 55  1  0  0  0
 70 69  1  0  0  0
 70 73  1  0  0  0
 71 70  1  0  0  0
 71 72  2  0  0  0
 69 64  1  0  0  0
 75 74  1  0  0  0
 75 78  1  0  0  0
 76 75  1  0  0  0
 76 77  2  0  0  0
 78 80  1  0  0  0
 78 79  1  0  0  0
 79 81  1  0  0  0
 74 71  1  0  0  0
 83 82  1  0  0  0
 83 86  1  0  0  0
 84 83  1  0  0  0
 84 85  2  0  0  0
 86 87  1  0  0  0
 87 88  1  0  0  0
 88 89  1  0  0  0
 89 90  1  0  0  0
 90 92  1  0  0  0
 90 91  2  0  0  0
 82 76  1  0  0  0
 94 93  1  0  0  0
 94 97  1  0  0  0
 95 94  1  0  0  0
 95 96  2  0  0  0
 97 98  1  0  0  0
 98 99  1  0  0  0
 99100  1  0  0  0
100101  1  0  0  0
101103  2  0  0  0
101102  1  0  0  0
 93 84  1  0  0  0
105104  1  0  0  0
105108  1  0  0  0
106105  1  0  0  0
106107  2  0  0  0
108109  1  0  0  0
109110  1  0  0  0
109111  1  0  0  0
104 95  1  0  0  0
113112  1  0  0  0
113116  1  0  0  0
114113  1  0  0  0
114115  2  0  0  0
112106  1  0  0  0
118117  1  0  0  0
118121  1  0  0  0
119118  1  0  0  0
119120  2  0  0  0
121122  1  0  0  0
122123  1  0  0  0
123124  1  0  0  0
124125  1  0  0  0
125127  2  0  0  0
125126  1  0  0  0
117114  1  0  0  0
129128  1  0  0  0
129132  1  0  0  0
130129  1  0  0  0
130131  2  0  0  0
132133  1  0  0  0
133134  1  0  0  0
134135  1  0  0  0
135136  1  0  0  0
136138  2  0  0  0
136137  1  0  0  0
128119  1  0  0  0
139140  1  0  0  0
140141  1  0  0  0
141142  2  0  0  0
130139  1  0  0  0
141143  1  0  0  0
  1144  1  0  0  0
  1145  1  0  0  0
  1146  1  0  0  0
  2147  1  0  0  0
  5148  1  0  0  0
  5149  1  0  0  0
  8150  1  0  0  0
  9151  1  0  0  0
 10152  1  0  0  0
 13153  1  0  0  0
 13154  1  0  0  0
 16155  1  0  0  0
 16156  1  0  0  0
 17157  1  0  0  0
 18158  1  0  0  0
 21159  1  0  0  0
 22160  1  0  0  0
 22161  1  0  0  0
 23162  1  0  0  0
 23163  1  0  0  0
 23164  1  0  0  0
 24165  1  0  0  0
 24166  1  0  0  0
 24167  1  0  0  0
 25168  1  0  0  0
 26169  1  0  0  0
 29170  1  0  0  0
 29171  1  0  0  0
 30172  1  0  0  0
 30173  1  0  0  0
 33174  1  0  0  0
 33175  1  0  0  0
 34176  1  0  0  0
 35177  1  0  0  0
 35178  1  0  0  0
 38179  1  0  0  0
 39180  1  0  0  0
 42181  1  0  0  0
 43182  1  0  0  0
 43183  1  0  0  0
 44184  1  0  0  0
 44185  1  0  0  0
 44186  1  0  0  0
 45187  1  0  0  0
 45188  1  0  0  0
 45189  1  0  0  0
 46190  1  0  0  0
 47191  1  0  0  0
 50192  1  0  0  0
 51193  1  0  0  0
 52194  1  0  0  0
 52195  1  0  0  0
 52196  1  0  0  0
 53197  1  0  0  0
 54198  1  0  0  0
 57199  1  0  0  0
 57200  1  0  0  0
 58201  1  0  0  0
 58202  1  0  0  0
 59203  1  0  0  0
 59204  1  0  0  0
 60205  1  0  0  0
 60206  1  0  0  0
 61207  1  0  0  0
 61208  1  0  0  0
 61209  1  0  0  0
 63210  1  0  0  0
 66211  1  0  0  0
 66212  1  0  0  0
 67213  1  0  0  0
 67214  1  0  0  0
 68215  1  0  0  0
 68216  1  0  0  0
 69217  1  0  0  0
 70218  1  0  0  0
 73219  1  0  0  0
 73220  1  0  0  0
 73221  1  0  0  0
 74222  1  0  0  0
 75223  1  0  0  0
 78224  1  0  0  0
 79225  1  0  0  0
 79226  1  0  0  0
 80227  1  0  0  0
 80228  1  0  0  0
 80229  1  0  0  0
 81230  1  0  0  0
 81231  1  0  0  0
 81232  1  0  0  0
 82233  1  0  0  0
 83234  1  0  0  0
 86235  1  0  0  0
 86236  1  0  0  0
 87237  1  0  0  0
 87238  1  0  0  0
 88239  1  0  0  0
 88240  1  0  0  0
 89241  1  0  0  0
 91242  1  0  0  0
 92243  1  0  0  0
 92244  1  0  0  0
 93245  1  0  0  0
 94246  1  0  0  0
 97247  1  0  0  0
 97248  1  0  0  0
 98249  1  0  0  0
 98250  1  0  0  0
 99251  1  0  0  0
 99252  1  0  0  0
100253  1  0  0  0
102254  1  0  0  0
102255  1  0  0  0
103256  1  0  0  0
104257  1  0  0  0
105258  1  0  0  0
108259  1  0  0  0
108260  1  0  0  0
109261  1  0  0  0
110262  1  0  0  0
110263  1  0  0  0
110264  1  0  0  0
111265  1  0  0  0
111266  1  0  0  0
111267  1  0  0  0
112268  1  0  0  0
113269  1  0  0  0
116270  1  0  0  0
116271  1  0  0  0
116272  1  0  0  0
117273  1  0  0  0
118274  1  0  0  0
121275  1  0  0  0
121276  1  0  0  0
122277  1  0  0  0
122278  1  0  0  0
123279  1  0  0  0
123280  1  0  0  0
124281  1  0  0  0
126282  1  0  0  0
126283  1  0  0  0
127284  1  0  0  0
128285  1  0  0  0
129286  1  0  0  0
132287  1  0  0  0
132288  1  0  0  0
133289  1  0  0  0
133290  1  0  0  0
134291  1  0  0  0
134292  1  0  0  0
135293  1  0  0  0
137294  1  0  0  0
137295  1  0  0  0
138296  1  0  0  0
139297  1  0  0  0
140298  1  0  0  0
140299  1  0  0  0
143300  1  0  0  0
M  END
$$$$
