### 
### Created by X-TOOL on Mon Sep 10 21:12:58 2018
### 

@<TRIPOS>MOLECULE
3cfv_ligand
  303   303     1     0     0
SMALL
GAST_HUCK


@<TRIPOS>ATOM
      1 N          48.8690   -4.6560   69.5670 N.4       1 ASP         0.2391
      2 CA         47.6000   -4.6760   68.7830 C.3       1 ASP         0.0765
      3 C          46.3890   -4.3120   69.6350 C.2       1 ASP         0.2285
      4 O          46.4130   -4.4460   70.8600 O.2       1 ASP        -0.3906
      5 CB         47.3870   -6.0450   68.1310 C.3       1 ASP         0.0607
      6 CG         48.1090   -6.1770   66.8060 C.2       1 ASP         0.0425
      7 OD1        47.8340   -7.1500   66.0730 O.co2     1 ASP        -0.5686
      8 OD2        48.9470   -5.3040   66.4930 O.co2     1 ASP        -0.5686
      9 N          45.3310   -3.8540   68.9730 N.am      1 ASN        -0.2588
     10 CA         44.0860   -3.5080   69.6490 C.3       1 ASN         0.1477
     11 C          42.9640   -4.4890   69.3200 C.2       1 ASN         0.2063
     12 O          43.0610   -5.2600   68.3670 O.2       1 ASN        -0.3942
     13 CB         43.6630   -2.0740   69.3140 C.3       1 ASN         0.0773
     14 CG         43.2420   -1.9100   67.8680 C.2       1 ASN         0.1780
     15 OD1        42.1610   -1.3960   67.5820 O.2       1 ASN        -0.3970
     16 ND2        44.0930   -2.3450   66.9460 N.am      1 ASN        -0.3007
     17 N          41.8990   -4.4470   70.1150 N.am      1 ILE        -0.2633
     18 CA         40.7890   -5.3890   69.9790 C.3       1 ILE         0.1335
     19 C          39.9530   -5.1920   68.7170 C.2       1 ILE         0.2042
     20 O          39.3790   -6.1490   68.1980 O.2       1 ILE        -0.3944
     21 CB         39.8690   -5.3480   71.2080 C.3       1 ILE        -0.0037
     22 CG1        39.9330   -3.9650   71.8580 C.3       1 ILE        -0.0491
     23 CG2        40.2680   -6.4250   72.2030 C.3       1 ILE        -0.0582
     24 CD1        39.6140   -3.9690   73.3250 C.3       1 ILE        -0.0648
     25 N          39.8760   -3.9580   68.2260 N.am      1 GLN        -0.2636
     26 CA         39.1540   -3.6990   66.9870 C.3       1 GLN         0.1330
     27 C          39.8540   -4.3980   65.8270 C.2       1 GLN         0.2038
     28 O          39.2040   -4.9830   64.9610 O.2       1 GLN        -0.3944
     29 CB         39.0220   -2.1980   66.7140 C.3       1 GLN         0.0045
     30 CG         38.2290   -1.8750   65.4490 C.3       1 GLN         0.0412
     31 CD         37.7350   -0.4400   65.4050 C.2       1 GLN         0.1737
     32 OE1        38.2710    0.4380   66.0830 O.2       1 GLN        -0.3973
     33 NE2        36.7070   -0.1930   64.6000 N.am      1 GLN        -0.3009
     34 N          41.1820   -4.3470   65.8290 N.am      1 GLY        -0.2664
     35 CA         41.9830   -5.0220   64.8130 C.3       1 GLY         0.1201
     36 C          41.8060   -6.5290   64.8480 C.2       1 GLY         0.2008
     37 O          42.0640   -7.2140   63.8590 O.2       1 GLY        -0.3947
     38 N          41.3640   -7.0430   65.9920 N.am      1 ILE        -0.2637
     39 CA         41.1040   -8.4720   66.1440 C.3       1 ILE         0.1335
     40 C          39.7560   -8.8600   65.5400 C.2       1 ILE         0.2042
     41 O          39.6340   -9.9010   64.8920 O.2       1 ILE        -0.3944
     42 CB         41.1710   -8.9130   67.6300 C.3       1 ILE        -0.0037
     43 CG1        42.5890   -9.3590   67.9950 C.3       1 ILE        -0.0491
     44 CG2        40.2150  -10.0700   67.9000 C.3       1 ILE        -0.0582
     45 CD1        43.6490   -8.2920   67.8270 C.3       1 ILE        -0.0648
     46 N          38.7500   -8.0140   65.7430 N.am      1 THR        -0.2613
     47 CA         37.3980   -8.3180   65.2820 C.3       1 THR         0.1565
     48 C          37.0680   -7.7120   63.9190 C.2       1 THR         0.2065
     49 O          35.9640   -7.8950   63.4110 O.2       1 THR        -0.3943
     50 CB         36.3310   -7.8820   66.3090 C.3       1 THR         0.0924
     51 OG1        36.5770   -6.5300   66.7120 O.3       1 THR        -0.3874
     52 CG2        36.3670   -8.7880   67.5330 C.3       1 THR        -0.0346
     53 N          38.0210   -6.9980   63.3270 N.am      1 LYS        -0.2636
     54 CA         37.8170   -6.4310   61.9930 C.3       1 LYS         0.1312
     55 C          37.7100   -7.5000   60.9060 C.2       1 LYS         0.2064
     56 O          36.8070   -7.4440   60.0740 O.2       1 LYS        -0.3942
     57 CB         38.9110   -5.4190   61.6400 C.3       1 LYS        -0.0122
     58 CG         38.5580   -3.9840   61.9810 C.3       1 LYS        -0.0440
     59 CD         39.5850   -3.0190   61.4190 C.3       1 LYS        -0.0124
     60 CE         39.1950   -1.5800   61.6980 C.3       1 LYS        -0.0354
     61 NZ         40.2670   -0.6400   61.2770 N.4       1 LYS         0.2185
     62 N          38.6340   -8.4770   60.9040 N.am      1 PRO        -0.2498
     63 CA         38.5670   -9.5450   59.9080 C.3       1 PRO         0.1338
     64 C          37.3730  -10.4690   60.1400 C.2       1 PRO         0.2041
     65 O          36.8610  -11.0680   59.1940 O.2       1 PRO        -0.3944
     66 CB         39.8800  -10.3140   60.1210 C.3       1 PRO        -0.0104
     67 CG         40.7440   -9.4140   60.9600 C.3       1 PRO        -0.0281
     68 CD         39.7910   -8.6400   61.8000 C.3       1 PRO         0.0369
     69 N          36.9420  -10.5790   61.3930 N.am      1 ALA        -0.2640
     70 CA         35.8150  -11.4350   61.7490 C.3       1 ALA         0.1282
     71 C          34.4940  -10.8240   61.2920 C.2       1 ALA         0.2036
     72 O          33.6400  -11.5160   60.7380 O.2       1 ALA        -0.3944
     73 CB         35.7960  -11.6910   63.2500 C.3       1 ALA        -0.0244
     74 N          34.3360   -9.5250   61.5310 N.am      1 ILE        -0.2635
     75 CA         33.1400   -8.8000   61.1160 C.3       1 ILE         0.1335
     76 C          33.0670   -8.6930   59.5920 C.2       1 ILE         0.2042
     77 O          32.0020   -8.8760   59.0010 O.2       1 ILE        -0.3944
     78 CB         33.0840   -7.3840   61.7400 C.3       1 ILE        -0.0037
     79 CG1        33.1650   -7.4590   63.2680 C.3       1 ILE        -0.0491
     80 CG2        31.8180   -6.6510   61.3130 C.3       1 ILE        -0.0582
     81 CD1        32.0680   -8.2790   63.9130 C.3       1 ILE        -0.0648
     82 N          34.2030   -8.4030   58.9630 N.am      1 ARG        -0.2637
     83 CA         34.2650   -8.2820   57.5080 C.3       1 ARG         0.1311
     84 C          33.9630   -9.6070   56.8160 C.2       1 ARG         0.2039
     85 O          33.4510   -9.6250   55.6980 O.2       1 ARG        -0.3944
     86 CB         35.6200   -7.7270   57.0520 C.3       1 ARG        -0.0092
     87 CG         35.7960   -6.2380   57.3260 C.3       1 ARG        -0.0156
     88 CD         37.1400   -5.7140   56.8360 C.3       1 ARG         0.0627
     89 NE         37.3620   -4.3310   57.2550 N.pl3     1 ARG        -0.2723
     90 CZ         38.3490   -3.5570   56.8110 C.cat     1 ARG         0.2882
     91 NH1        39.2170   -4.0230   55.9220 N.pl3     1 ARG        -0.2849
     92 NH2        38.4650   -2.3110   57.2540 N.pl3     1 ARG        -0.2849
     93 N          34.2790  -10.7140   57.4800 N.am      1 ARG        -0.2637
     94 CA         33.9090  -12.0270   56.9630 C.3       1 ARG         0.1311
     95 C          32.4160  -12.2670   57.1450 C.2       1 ARG         0.2039
     96 O          31.7510  -12.7970   56.2550 O.2       1 ARG        -0.3944
     97 CB         34.7180  -13.1410   57.6330 C.3       1 ARG        -0.0092
     98 CG         36.0170  -13.4700   56.9130 C.3       1 ARG        -0.0156
     99 CD         36.4830  -14.8910   57.2070 C.3       1 ARG         0.0627
    100 NE         37.3660  -14.9670   58.3670 N.pl3     1 ARG        -0.2723
    101 CZ         36.9830  -15.3560   59.5800 C.cat     1 ARG         0.2882
    102 NH1        35.7230  -15.7070   59.8030 N.pl3     1 ARG        -0.2849
    103 NH2        37.8620  -15.3930   60.5720 N.pl3     1 ARG        -0.2849
    104 N          31.8960  -11.8650   58.3020 N.am      1 LEU        -0.2637
    105 CA         30.4730  -11.9830   58.5950 C.3       1 LEU         0.1312
    106 C          29.6480  -11.1480   57.6180 C.2       1 LEU         0.2039
    107 O          28.5250  -11.5100   57.2650 O.2       1 LEU        -0.3944
    108 CB         30.1920  -11.5400   60.0330 C.3       1 LEU        -0.0101
    109 CG         28.7690  -11.7220   60.5660 C.3       1 LEU        -0.0425
    110 CD1        28.4200  -13.2000   60.6900 C.3       1 LEU        -0.0625
    111 CD2        28.6040  -11.0160   61.9040 C.3       1 LEU        -0.0625
    112 N          30.2210  -10.0310   57.1800 N.am      1 ALA        -0.2640
    113 CA         29.5510   -9.1240   56.2570 C.3       1 ALA         0.1282
    114 C          29.4040   -9.7310   54.8650 C.2       1 ALA         0.2036
    115 O          28.4320   -9.4630   54.1590 O.2       1 ALA        -0.3944
    116 CB         30.3060   -7.8060   56.1820 C.3       1 ALA        -0.0244
    117 N          30.3760  -10.5500   54.4780 N.am      1 ARG        -0.2637
    118 CA         30.4040  -11.1300   53.1400 C.3       1 ARG         0.1311
    119 C          29.6700  -12.4670   53.0870 C.2       1 ARG         0.2039
    120 O          29.4620  -13.0310   52.0110 O.2       1 ARG        -0.3944
    121 CB         31.8490  -11.2690   52.6550 C.3       1 ARG        -0.0092
    122 CG         32.6110   -9.9510   52.6760 C.3       1 ARG        -0.0156
    123 CD         34.1030  -10.1390   52.4710 C.3       1 ARG         0.0627
    124 NE         34.4230  -10.4480   51.0820 N.pl3     1 ARG        -0.2723
    125 CZ         34.8190  -11.6410   50.6550 C.cat     1 ARG         0.2882
    126 NH1        34.9560  -12.6420   51.5140 N.pl3     1 ARG        -0.2849
    127 NH2        35.0840  -11.8300   49.3700 N.pl3     1 ARG        -0.2849
    128 N          29.2800  -12.9670   54.2550 N.am      1 ARG        -0.2637
    129 CA         28.4460  -14.1580   54.3370 C.3       1 ARG         0.1311
    130 C          27.0030  -13.7500   54.6030 C.2       1 ARG         0.2038
    131 O          26.1080  -14.5940   54.6590 O.2       1 ARG        -0.3944
    132 CB         28.9300  -15.0860   55.4490 C.3       1 ARG        -0.0092
    133 CG         30.3480  -15.5950   55.2770 C.3       1 ARG        -0.0156
    134 CD         30.7120  -16.5290   56.4160 C.3       1 ARG         0.0627
    135 NE         32.1560  -16.6940   56.5560 N.pl3     1 ARG        -0.2723
    136 CZ         32.7430  -17.2550   57.6090 C.cat     1 ARG         0.2882
    137 NH1        32.0100  -17.7040   58.6190 N.pl3     1 ARG        -0.2849
    138 NH2        34.0640  -17.3640   57.6530 N.pl3     1 ARG        -0.2849
    139 N          26.7870  -12.4480   54.7740 N.am      1 GLY        -0.2650
    140 CA         25.4560  -11.9080   55.0240 C.3       1 GLY         0.1312
    141 C          25.1120  -11.8630   56.5000 C.2       1 GLY         0.2539
    142 O          23.9410  -11.9270   56.8750 O.2       1 GLY        -0.3683
    143 O1         26.0857  -11.7532   57.3993 O.3       1 GLY        -0.2912
    144 H1         49.6395   -4.9018   68.9654 H         1 ASP         0.2016
    145 H2         48.8076   -5.3202   70.3227 H         1 ASP         0.2016
    146 H3         49.0174   -3.7324   69.9426 H         1 ASP         0.2016
    147 H4         47.6884   -3.9253   67.9838 H         1 ASP         0.1117
    148 H5         46.3100   -6.1909   67.9615 H         1 ASP         0.0512
    149 H6         47.7594   -6.8225   68.8142 H         1 ASP         0.0512
    150 H7         45.3907   -3.7433   67.9809 H         1 ASN         0.1886
    151 H8         44.2695   -3.5619   70.7322 H         1 ASN         0.0826
    152 H9         44.5110   -1.4019   69.5117 H         1 ASN         0.0551
    153 H10        42.8170   -1.7968   69.9601 H         1 ASN         0.0551
    154 H11        43.8651   -2.2612   65.9759 H         1 ASN         0.1814
    155 H12        44.9618   -2.7563   67.2218 H         1 ASN         0.1814
    156 H13        41.8558   -3.7484   70.8292 H         1 ILE         0.1883
    157 H14        41.2304   -6.3950   69.9231 H         1 ILE         0.0803
    158 H15        38.8355   -5.5370   70.8823 H         1 ILE         0.0345
    159 H16        39.2123   -3.3087   71.3483 H         1 ILE         0.0267
    160 H17        40.9496   -3.5663   71.7254 H         1 ILE         0.0267
    161 H18        40.2156   -7.4105   71.7172 H         1 ILE         0.0235
    162 H19        39.5816   -6.4029   73.0622 H         1 ILE         0.0235
    163 H20        41.2956   -6.2413   72.5498 H         1 ILE         0.0235
    164 H21        39.6809   -2.9436   73.7175 H         1 ILE         0.0230
    165 H22        40.3324   -4.6119   73.8547 H         1 ILE         0.0230
    166 H23        38.5951   -4.3543   73.4777 H         1 ILE         0.0230
    167 H24        40.3168   -3.2026   68.7107 H         1 GLN         0.1883
    168 H25        38.1416   -4.1177   67.0848 H         1 GLN         0.0801
    169 H26        40.0313   -1.7732   66.6099 H         1 GLN         0.0337
    170 H27        38.5145   -1.7317   67.5713 H         1 GLN         0.0337
    171 H28        37.3589   -2.5462   65.4005 H         1 GLN         0.0504
    172 H29        38.8757   -2.0493   64.5765 H         1 GLN         0.0504
    173 H30        36.3384    0.7339   64.5297 H         1 GLN         0.1814
    174 H31        36.3020   -0.9341   64.0645 H         1 GLN         0.1814
    175 H32        41.6464   -3.8305   66.5484 H         1 GLY         0.1881
    176 H33        43.0437   -4.7863   64.9844 H         1 GLY         0.0763
    177 H34        41.6810   -4.6532   63.8217 H         1 GLY         0.0763
    178 H35        41.2053   -6.4344   66.7695 H         1 ILE         0.1883
    179 H36        41.8890   -9.0134   65.5957 H         1 ILE         0.0803
    180 H37        40.8881   -8.0590   68.2629 H         1 ILE         0.0345
    181 H38        42.8561  -10.2117   67.3534 H         1 ILE         0.0267
    182 H39        42.5878   -9.6783   69.0476 H         1 ILE         0.0267
    183 H40        39.1896   -9.7661   67.6426 H         1 ILE         0.0235
    184 H41        40.2603  -10.3423   68.9648 H         1 ILE         0.0235
    185 H42        40.5053  -10.9362   67.2873 H         1 ILE         0.0235
    186 H43        44.6296   -8.7014   68.1112 H         1 ILE         0.0230
    187 H44        43.4098   -7.4329   68.4709 H         1 ILE         0.0230
    188 H45        43.6781   -7.9662   66.7768 H         1 ILE         0.0230
    189 H46        38.9228   -7.1527   66.2208 H         1 THR         0.1884
    190 H47        37.3345   -9.4113   65.1783 H         1 THR         0.0826
    191 H48        35.3368   -7.9466   65.8429 H         1 THR         0.0639
    192 H49        37.4311   -6.4740   67.1243 H         1 THR         0.2101
    193 H50        35.6012   -8.4627   68.2526 H         1 THR         0.0257
    194 H51        37.3598   -8.7301   68.0030 H         1 THR         0.0257
    195 H52        36.1658   -9.8254   67.2274 H         1 THR         0.0257
    196 H53        38.8891   -6.8463   63.7997 H         1 LYS         0.1883
    197 H54        36.8595   -5.8901   62.0149 H         1 LYS         0.0800
    198 H55        39.1028   -5.4802   60.5586 H         1 LYS         0.0312
    199 H56        39.8239   -5.6906   62.1903 H         1 LYS         0.0312
    200 H57        38.5223   -3.8733   63.0748 H         1 LYS         0.0269
    201 H58        37.5717   -3.7462   61.5560 H         1 LYS         0.0269
    202 H59        39.6586   -3.1664   60.3314 H         1 LYS         0.0317
    203 H60        40.5610   -3.2228   61.8836 H         1 LYS         0.0317
    204 H61        39.0159   -1.4597   62.7766 H         1 LYS         0.0813
    205 H62        38.2739   -1.3444   61.1448 H         1 LYS         0.0813
    206 H63        39.9806    0.3062   61.4741 H         1 LYS         0.1994
    207 H64        40.4336   -0.7415   60.2881 H         1 LYS         0.1994
    208 H65        41.1135   -0.8472   61.7834 H         1 LYS         0.1994
    209 H66        38.5133   -9.1267   58.8921 H         1 PRO         0.0802
    210 H67        40.3649  -10.5208   59.1555 H         1 PRO         0.0313
    211 H68        39.6892  -11.2616   60.6460 H         1 PRO         0.0313
    212 H69        41.4221  -10.0073   61.5911 H         1 PRO         0.0287
    213 H70        41.3334   -8.7391   60.3220 H         1 PRO         0.0287
    214 H71        39.5159   -9.1991   62.7065 H         1 PRO         0.0524
    215 H72        40.2136   -7.6651   62.0846 H         1 PRO         0.0524
    216 H73        37.4036  -10.0600   62.1124 H         1 ALA         0.1883
    217 H74        35.9415  -12.3998   61.2360 H         1 ALA         0.0797
    218 H75        34.9417  -12.3368   63.5010 H         1 ALA         0.0277
    219 H76        35.7015  -10.7340   63.7840 H         1 ALA         0.0277
    220 H77        36.7310  -12.1871   63.5492 H         1 ALA         0.0277
    221 H78        35.0603   -9.0295   62.0105 H         1 ILE         0.1883
    222 H79        32.2631   -9.3645   61.4658 H         1 ILE         0.0803
    223 H80        33.9517   -6.8143   61.3760 H         1 ILE         0.0345
    224 H81        33.1085   -6.4352   63.6662 H         1 ILE         0.0267
    225 H82        34.1330   -7.9052   63.5397 H         1 ILE         0.0267
    226 H83        31.7737   -6.6050   60.2149 H         1 ILE         0.0235
    227 H84        31.8295   -5.6301   61.7225 H         1 ILE         0.0235
    228 H85        30.9370   -7.1887   61.6933 H         1 ILE         0.0235
    229 H86        32.2035   -8.2785   65.0046 H         1 ILE         0.0230
    230 H87        32.1140   -9.3122   63.5383 H         1 ILE         0.0230
    231 H88        31.0895   -7.8421   63.6648 H         1 ILE         0.0230
    232 H89        35.0354   -8.2643   59.4995 H         1 ARG         0.1883
    233 H90        33.4899   -7.5636   57.2029 H         1 ARG         0.0800
    234 H91        35.7173   -7.8947   55.9692 H         1 ARG         0.0313
    235 H92        36.4148   -8.2736   57.5806 H         1 ARG         0.0313
    236 H93        35.7239   -6.0670   58.4102 H         1 ARG         0.0301
    237 H94        34.9936   -5.6869   56.8137 H         1 ARG         0.0301
    238 H95        37.1633   -5.7625   55.7373 H         1 ARG         0.0689
    239 H96        37.9412   -6.3451   57.2480 H         1 ARG         0.0689
    240 H97        36.7088   -3.9277   57.9418 H         1 ARG         0.2642
    241 H98        39.9793   -3.4198   55.5814 H         1 ARG         0.2615
    242 H99        39.1284   -4.9879   55.5726 H         1 ARG         0.2615
    243 H100       37.7935   -1.9451   57.9440 H         1 ARG         0.2615
    244 H101       39.2265   -1.7101   56.9077 H         1 ARG         0.2615
    245 H102       34.7766  -10.6461   58.3448 H         1 ARG         0.1883
    246 H103       34.1319  -12.0448   55.8860 H         1 ARG         0.0800
    247 H104       34.0986  -14.0495   57.6645 H         1 ARG         0.0313
    248 H105       34.9596  -12.8261   58.6589 H         1 ARG         0.0313
    249 H106       36.7948  -12.7651   57.2419 H         1 ARG         0.0301
    250 H107       35.8603  -13.3638   55.8294 H         1 ARG         0.0301
    251 H108       37.0233  -15.2728   56.3282 H         1 ARG         0.0689
    252 H109       35.5997  -15.5188   57.3957 H         1 ARG         0.0689
    253 H110       38.3527  -14.7013   58.2374 H         1 ARG         0.2642
    254 H111       35.4309  -16.0076   60.7439 H         1 ARG         0.2615
    255 H112       35.0370  -15.6789   59.0352 H         1 ARG         0.2615
    256 H113       38.8410  -15.1213   60.4030 H         1 ARG         0.2615
    257 H114       37.5658  -15.6934   61.5116 H         1 ARG         0.2615
    258 H115       32.5010  -11.4691   58.9928 H         1 LEU         0.1883
    259 H116       30.1801  -13.0378   58.4878 H         1 LEU         0.0800
    260 H117       30.4341  -10.4691   60.1006 H         1 LEU         0.0315
    261 H118       30.8649  -12.1102   60.6903 H         1 LEU         0.0315
    262 H119       28.0726  -11.2646   59.8479 H         1 LEU         0.0298
    263 H120       27.3945  -13.3036   61.0742 H         1 LEU         0.0232
    264 H121       29.1222  -13.6857   61.3836 H         1 LEU         0.0232
    265 H122       28.4912  -13.6778   59.7017 H         1 LEU         0.0232
    266 H123       28.8607   -9.9523   61.7914 H         1 LEU         0.0232
    267 H124       29.2712  -11.4775   62.6469 H         1 LEU         0.0232
    268 H125       27.5609  -11.1077   62.2408 H         1 LEU         0.0232
    269 H126       31.1431   -9.8057   57.4947 H         1 ALA         0.1883
    270 H127       28.5425   -8.9239   56.6481 H         1 ALA         0.0797
    271 H128       29.7929   -7.1288   55.4834 H         1 ALA         0.0277
    272 H129       31.3310   -7.9902   55.8278 H         1 ALA         0.0277
    273 H130       30.3402   -7.3456   57.1804 H         1 ALA         0.0277
    274 H131       31.1079  -10.7748   55.1212 H         1 ARG         0.1883
    275 H132       29.8841  -10.4377   52.4615 H         1 ARG         0.0800
    276 H133       31.8377  -11.6513   51.6237 H         1 ARG         0.0313
    277 H134       32.3703  -11.9860   53.3062 H         1 ARG         0.0313
    278 H135       32.4472   -9.4642   53.6487 H         1 ARG         0.0301
    279 H136       32.2232   -9.3064   51.8735 H         1 ARG         0.0301
    280 H137       34.4489  -10.9659   53.1087 H         1 ARG         0.0689
    281 H138       34.6217   -9.2125   52.7584 H         1 ARG         0.0689
    282 H139       34.3362   -9.6921   50.3878 H         1 ARG         0.2642
    283 H140       35.2633  -13.5673   51.1818 H         1 ARG         0.2615
    284 H141       34.7551  -12.4942   52.5134 H         1 ARG         0.2615
    285 H142       34.9777  -11.0528   48.7025 H         1 ARG         0.2615
    286 H143       35.3962  -12.7541   49.0390 H         1 ARG         0.2615
    287 H144       29.5666  -12.5138   55.0991 H         1 ARG         0.1883
    288 H145       28.4976  -14.6952   53.3785 H         1 ARG         0.0800
    289 H146       28.2565  -15.9548   55.4877 H         1 ARG         0.0313
    290 H147       28.8760  -14.5374   56.4009 H         1 ARG         0.0313
    291 H148       31.0421  -14.7416   55.2712 H         1 ARG         0.0301
    292 H149       30.4260  -16.1376   54.3233 H         1 ARG         0.0301
    293 H150       30.2602  -17.5135   56.2246 H         1 ARG         0.0689
    294 H151       30.3103  -16.1172   57.3536 H         1 ARG         0.0689
    295 H152       32.7573  -16.3548   55.7916 H         1 ARG         0.2642
    296 H153       32.4667  -18.1382   59.4337 H         1 ARG         0.2615
    297 H154       30.9840  -17.6185   58.5887 H         1 ARG         0.2615
    298 H155       34.6358  -17.0162   56.8701 H         1 ARG         0.2615
    299 H156       34.5181  -17.7965   58.4701 H         1 ARG         0.2615
    300 H157       27.5633  -11.8192   54.7295 H         1 GLY         0.1882
    301 H158       24.7172  -12.5399   54.5094 H         1 GLY         0.0780
    302 H159       25.4091  -10.8859   54.6202 H         1 GLY         0.0780
    303 H160       26.9239  -11.7157   56.9538 H         1 GLY         0.2540
@<TRIPOS>BOND
     1    2    1 1  
     2    2    5 1  
     3    3    2 1  
     4    3    4 2  
     5    5    6 1  
     6    6    7 ar 
     7    6    8 ar 
     8   10    9 1  
     9   10   13 1  
    10   11   10 1  
    11   11   12 2  
    12   13   14 1  
    13   14   16 am 
    14   14   15 2  
    15    9    3 am 
    16   18   17 1  
    17   18   21 1  
    18   19   18 1  
    19   19   20 2  
    20   21   23 1  
    21   21   22 1  
    22   22   24 1  
    23   17   11 am 
    24   26   25 1  
    25   26   29 1  
    26   27   26 1  
    27   27   28 2  
    28   29   30 1  
    29   30   31 1  
    30   31   33 am 
    31   31   32 2  
    32   25   19 am 
    33   35   34 1  
    34   36   35 1  
    35   36   37 2  
    36   34   27 am 
    37   39   38 1  
    38   39   42 1  
    39   40   39 1  
    40   40   41 2  
    41   42   44 1  
    42   42   43 1  
    43   43   45 1  
    44   38   36 am 
    45   47   46 1  
    46   47   50 1  
    47   48   47 1  
    48   48   49 2  
    49   50   52 1  
    50   50   51 1  
    51   46   40 am 
    52   54   53 1  
    53   54   57 1  
    54   55   54 1  
    55   55   56 2  
    56   57   58 1  
    57   58   59 1  
    58   59   60 1  
    59   60   61 1  
    60   53   48 am 
    61   64   63 1  
    62   63   66 1  
    63   63   62 1  
    64   62   68 1  
    65   68   67 1  
    66   66   67 1  
    67   64   65 2  
    68   62   55 am 
    69   70   69 1  
    70   70   73 1  
    71   71   70 1  
    72   71   72 2  
    73   69   64 am 
    74   75   74 1  
    75   75   78 1  
    76   76   75 1  
    77   76   77 2  
    78   78   80 1  
    79   78   79 1  
    80   79   81 1  
    81   74   71 am 
    82   83   82 1  
    83   83   86 1  
    84   84   83 1  
    85   84   85 2  
    86   86   87 1  
    87   87   88 1  
    88   88   89 1  
    89   89   90 ar 
    90   90   92 ar 
    91   90   91 ar 
    92   82   76 am 
    93   94   93 1  
    94   94   97 1  
    95   95   94 1  
    96   95   96 2  
    97   97   98 1  
    98   98   99 1  
    99   99  100 1  
   100  100  101 ar 
   101  101  103 ar 
   102  101  102 ar 
   103   93   84 am 
   104  105  104 1  
   105  105  108 1  
   106  106  105 1  
   107  106  107 2  
   108  108  109 1  
   109  109  110 1  
   110  109  111 1  
   111  104   95 am 
   112  113  112 1  
   113  113  116 1  
   114  114  113 1  
   115  114  115 2  
   116  112  106 am 
   117  118  117 1  
   118  118  121 1  
   119  119  118 1  
   120  119  120 2  
   121  121  122 1  
   122  122  123 1  
   123  123  124 1  
   124  124  125 ar 
   125  125  127 ar 
   126  125  126 ar 
   127  117  114 am 
   128  129  128 1  
   129  129  132 1  
   130  130  129 1  
   131  130  131 2  
   132  132  133 1  
   133  133  134 1  
   134  134  135 1  
   135  135  136 ar 
   136  136  138 ar 
   137  136  137 ar 
   138  128  119 am 
   139  139  140 1  
   140  140  141 1  
   141  141  142 2  
   142  130  139 am 
   143  141  143 1  
   144    1  144 1  
   145    1  145 1  
   146    1  146 1  
   147    2  147 1  
   148    5  148 1  
   149    5  149 1  
   150    9  150 1  
   151   10  151 1  
   152   13  152 1  
   153   13  153 1  
   154   16  154 1  
   155   16  155 1  
   156   17  156 1  
   157   18  157 1  
   158   21  158 1  
   159   22  159 1  
   160   22  160 1  
   161   23  161 1  
   162   23  162 1  
   163   23  163 1  
   164   24  164 1  
   165   24  165 1  
   166   24  166 1  
   167   25  167 1  
   168   26  168 1  
   169   29  169 1  
   170   29  170 1  
   171   30  171 1  
   172   30  172 1  
   173   33  173 1  
   174   33  174 1  
   175   34  175 1  
   176   35  176 1  
   177   35  177 1  
   178   38  178 1  
   179   39  179 1  
   180   42  180 1  
   181   43  181 1  
   182   43  182 1  
   183   44  183 1  
   184   44  184 1  
   185   44  185 1  
   186   45  186 1  
   187   45  187 1  
   188   45  188 1  
   189   46  189 1  
   190   47  190 1  
   191   50  191 1  
   192   51  192 1  
   193   52  193 1  
   194   52  194 1  
   195   52  195 1  
   196   53  196 1  
   197   54  197 1  
   198   57  198 1  
   199   57  199 1  
   200   58  200 1  
   201   58  201 1  
   202   59  202 1  
   203   59  203 1  
   204   60  204 1  
   205   60  205 1  
   206   61  206 1  
   207   61  207 1  
   208   61  208 1  
   209   63  209 1  
   210   66  210 1  
   211   66  211 1  
   212   67  212 1  
   213   67  213 1  
   214   68  214 1  
   215   68  215 1  
   216   69  216 1  
   217   70  217 1  
   218   73  218 1  
   219   73  219 1  
   220   73  220 1  
   221   74  221 1  
   222   75  222 1  
   223   78  223 1  
   224   79  224 1  
   225   79  225 1  
   226   80  226 1  
   227   80  227 1  
   228   80  228 1  
   229   81  229 1  
   230   81  230 1  
   231   81  231 1  
   232   82  232 1  
   233   83  233 1  
   234   86  234 1  
   235   86  235 1  
   236   87  236 1  
   237   87  237 1  
   238   88  238 1  
   239   88  239 1  
   240   89  240 1  
   241   91  241 1  
   242   91  242 1  
   243   92  243 1  
   244   92  244 1  
   245   93  245 1  
   246   94  246 1  
   247   97  247 1  
   248   97  248 1  
   249   98  249 1  
   250   98  250 1  
   251   99  251 1  
   252   99  252 1  
   253  100  253 1  
   254  102  254 1  
   255  102  255 1  
   256  103  256 1  
   257  103  257 1  
   258  104  258 1  
   259  105  259 1  
   260  108  260 1  
   261  108  261 1  
   262  109  262 1  
   263  110  263 1  
   264  110  264 1  
   265  110  265 1  
   266  111  266 1  
   267  111  267 1  
   268  111  268 1  
   269  112  269 1  
   270  113  270 1  
   271  116  271 1  
   272  116  272 1  
   273  116  273 1  
   274  117  274 1  
   275  118  275 1  
   276  121  276 1  
   277  121  277 1  
   278  122  278 1  
   279  122  279 1  
   280  123  280 1  
   281  123  281 1  
   282  124  282 1  
   283  126  283 1  
   284  126  284 1  
   285  127  285 1  
   286  127  286 1  
   287  128  287 1  
   288  129  288 1  
   289  132  289 1  
   290  132  290 1  
   291  133  291 1  
   292  133  292 1  
   293  134  293 1  
   294  134  294 1  
   295  135  295 1  
   296  137  296 1  
   297  137  297 1  
   298  138  298 1  
   299  138  299 1  
   300  139  300 1  
   301  140  301 1  
   302  140  302 1  
   303  143  303 1  
@<TRIPOS>SUBSTRUCTURE
     1 ASP         1

