5u6k_ligand
  -I-interpret- 

 98101  0  0  0  0  0  0  0  0999 V2000
   16.2070   84.4090   40.9320 N   0  3  0  0  0
   17.5850   84.0930   41.2920 C   0  0  0  0  0
   18.5290   85.2410   40.9290 C   0  0  0  0  0
   18.6720   85.6030   39.7620 O   0  0  0  0  0
   18.0360   82.7850   40.6210 C   0  0  0  0  0
   17.9640   82.8030   39.1160 C   0  0  0  0  0
   16.7490   82.6670   38.4600 C   0  0  0  0  0
   19.1170   82.9310   38.3580 C   0  0  0  0  0
   16.6850   82.6780   37.0790 C   0  0  0  0  0
   19.0590   82.9430   36.9770 C   0  0  0  0  0
   17.8410   82.8150   36.3370 C   0  0  0  0  0
   19.1570   85.8200   41.9440 N   0  0  0  0  0
   20.0730   86.9440   41.7320 C   0  0  0  0  0
   21.4200   86.4000   41.2630 C   0  0  0  0  0
   21.9810   85.5090   41.9200 O   0  0  0  0  0
   20.2270   87.7630   43.0090 C   0  0  0  0  0
   21.2510   88.8700   42.8080 C   0  0  0  0  0
   18.8900   88.3450   43.4210 C   0  0  0  0  0
   21.9650   86.8990   40.1580 N   0  0  0  0  0
   23.2810   86.4410   39.7040 C   0  0  0  0  0
   24.3710   86.9170   40.6470 C   0  0  0  0  0
   24.1560   87.8490   41.4370 O   0  0  0  0  0
   23.4190   87.0880   38.3180 C   0  0  0  0  0
   22.5550   88.3010   38.3900 C   0  0  0  0  0
   21.3910   87.9180   39.2610 C   0  0  0  0  0
   25.5640   86.3020   40.5980 N   0  0  0  0  0
   26.6610   86.7410   41.4650 C   0  0  0  0  0
   27.2730   88.0610   41.0110 C   0  0  0  0  0
   27.2620   88.3730   39.8190 O   0  0  0  0  0
   27.6740   85.6000   41.3480 C   0  0  0  0  0
   27.4120   85.0110   40.0080 C   0  0  0  0  0
   25.9240   85.1040   39.8190 C   0  0  0  0  0
   27.7980   88.8250   41.9630 N   0  0  0  0  0
   28.4090   90.1170   41.6720 C   0  0  0  0  0
   28.5760   90.9200   42.9620 C   0  0  0  0  0
   27.3700   90.9250   43.7030 O   0  0  0  0  0
   29.7580   89.9490   40.9840 C   0  0  0  0  0
   30.5580   89.1000   41.3780 O   0  0  0  0  0
   27.6590   90.6500   45.2620 P   0  0  0  0  0
   27.6520   89.0640   45.5300 O   0  0  0  0  0
   29.0860   91.2620   45.6720 O   0  0  0  0  0
   26.5060   91.3530   46.1370 O   0  0  0  0  0
   30.0140   90.7640   39.9510 N   0  0  0  0  0
   31.2680   90.7030   39.1920 C   0  0  0  0  0
   32.4850   91.1080   40.0200 C   0  0  0  0  0
   32.3200   91.7140   41.0790 O   0  0  0  0  0
   31.0320   91.6960   38.0510 C   0  0  0  0  0
   30.0260   92.6520   38.5950 C   0  0  0  0  0
   29.1150   91.8150   39.4430 C   0  0  0  0  0
   33.6120   90.8220   39.6160 O   0  0  0  0  0
   15.9288   85.2785   41.3870 H   0  0  0  0  0
   16.1372   84.5159   39.9200 H   0  0  0  0  0
   15.5949   83.6527   41.2382 H   0  0  0  0  0
   17.6252   83.9564   42.3727 H   0  0  0  0  0
   17.3629   81.9996   40.9648 H   0  0  0  0  0
   19.0808   82.6302   40.8902 H   0  0  0  0  0
   15.8339   82.5501   39.0405 H   0  0  0  0  0
   20.0817   83.0234   38.8570 H   0  0  0  0  0
   15.7228   82.5786   36.5766 H   0  0  0  0  0
   19.9730   83.0533   36.3935 H   0  0  0  0  0
   17.7931   82.8222   35.2481 H   0  0  0  0  0
   18.9991   85.4759   42.8911 H   0  0  0  0  0
   19.6675   87.6075   40.9682 H   0  0  0  0  0
   20.5809   87.1075   43.8048 H   0  0  0  0  0
   22.2140   88.4298   42.5493 H   0  0  0  0  0
   20.9216   89.5259   42.0021 H   0  0  0  0  0
   21.3485   89.4447   43.7291 H   0  0  0  0  0
   18.5152   88.9894   42.6258 H   0  0  0  0  0
   18.1820   87.5355   43.5985 H   0  0  0  0  0
   19.0145   88.9273   44.3340 H   0  0  0  0  0
   23.3743   85.3554   39.6744 H   0  0  0  0  0
   23.1136   86.4135   37.5181 H   0  0  0  0  0
   24.4540   87.3349   38.0816 H   0  0  0  0  0
   22.2250   88.6142   37.3995 H   0  0  0  0  0
   23.0972   89.1522   38.8017 H   0  0  0  0  0
   20.9720   88.7669   39.8014 H   0  0  0  0  0
   20.5416   87.5450   38.6888 H   0  0  0  0  0
   26.3282   86.9302   42.4856 H   0  0  0  0  0
   27.5607   84.8675   42.1472 H   0  0  0  0  0
   28.7009   85.9515   41.4477 H   0  0  0  0  0
   27.7608   83.9801   39.9474 H   0  0  0  0  0
   27.9504   85.5427   39.2235 H   0  0  0  0  0
   25.6357   85.1800   38.7706 H   0  0  0  0  0
   25.3993   84.2093   40.1542 H   0  0  0  0  0
   27.7729   88.4973   42.9286 H   0  0  0  0  0
   27.7488   90.6569   40.9933 H   0  0  0  0  0
   28.8397   91.9467   42.7082 H   0  0  0  0  0
   29.3600   90.4620   43.5650 H   0  0  0  0  0
   26.7974   88.7027   45.2836 H   0  0  0  0  0
   25.6526   90.9876   45.8924 H   0  0  0  0  0
   31.4925   89.6898   38.8586 H   0  0  0  0  0
   31.3809   91.8463   41.2277 H   0  0  0  0  0
   30.6805   91.2029   37.1447 H   0  0  0  0  0
   31.9511   92.1971   37.7471 H   0  0  0  0  0
   29.4824   93.1626   37.8001 H   0  0  0  0  0
   30.4960   93.4488   39.1715 H   0  0  0  0  0
   28.6358   92.3842   40.2395 H   0  0  0  0  0
   28.2671   91.4151   38.8869 H   0  0  0  0  0
  1  2  1  0  0  0
  2  3  1  0  0  0
  2  5  1  0  0  0
  3  4  2  0  0  0
  3 12  1  0  0  0
  5  6  1  0  0  0
  6  7  4  0  0  0
  6  8  4  0  0  0
  7  9  4  0  0  0
  8 10  4  0  0  0
  9 11  4  0  0  0
 10 11  4  0  0  0
 12 13  1  0  0  0
 13 14  1  0  0  0
 13 16  1  0  0  0
 14 15  2  0  0  0
 14 19  1  0  0  0
 16 17  1  0  0  0
 16 18  1  0  0  0
 19 20  1  0  0  0
 19 25  1  0  0  0
 20 21  1  0  0  0
 20 23  1  0  0  0
 21 22  2  0  0  0
 21 26  1  0  0  0
 23 24  1  0  0  0
 24 25  1  0  0  0
 26 27  1  0  0  0
 26 32  1  0  0  0
 27 28  1  0  0  0
 27 30  1  0  0  0
 28 29  2  0  0  0
 28 33  1  0  0  0
 30 31  1  0  0  0
 31 32  1  0  0  0
 33 34  1  0  0  0
 34 35  1  0  0  0
 34 37  1  0  0  0
 35 36  1  0  0  0
 36 39  1  0  0  0
 37 38  2  0  0  0
 37 43  1  0  0  0
 39 40  1  0  0  0
 39 41  2  0  0  0
 39 42  1  0  0  0
 43 44  1  0  0  0
 43 49  1  0  0  0
 44 45  1  0  0  0
 44 47  1  0  0  0
 45 46  1  0  0  0
 45 50  2  0  0  0
 47 48  1  0  0  0
 48 49  1  0  0  0
  1 51  1  0  0  0
  1 52  1  0  0  0
  1 53  1  0  0  0
  2 54  1  0  0  0
  5 55  1  0  0  0
  5 56  1  0  0  0
  7 57  1  0  0  0
  8 58  1  0  0  0
  9 59  1  0  0  0
 10 60  1  0  0  0
 11 61  1  0  0  0
 12 62  1  0  0  0
 13 63  1  0  0  0
 16 64  1  0  0  0
 17 65  1  0  0  0
 17 66  1  0  0  0
 17 67  1  0  0  0
 18 68  1  0  0  0
 18 69  1  0  0  0
 18 70  1  0  0  0
 20 71  1  0  0  0
 23 72  1  0  0  0
 23 73  1  0  0  0
 24 74  1  0  0  0
 24 75  1  0  0  0
 25 76  1  0  0  0
 25 77  1  0  0  0
 27 78  1  0  0  0
 30 79  1  0  0  0
 30 80  1  0  0  0
 31 81  1  0  0  0
 31 82  1  0  0  0
 32 83  1  0  0  0
 32 84  1  0  0  0
 33 85  1  0  0  0
 34 86  1  0  0  0
 35 87  1  0  0  0
 35 88  1  0  0  0
 40 89  1  0  0  0
 42 90  1  0  0  0
 44 91  1  0  0  0
 46 92  1  0  0  0
 47 93  1  0  0  0
 47 94  1  0  0  0
 48 95  1  0  0  0
 48 96  1  0  0  0
 49 97  1  0  0  0
 49 98  1  0  0  0
M  END
$$$$
