### 
### Created by X-TOOL on Mon Sep 10 21:13:34 2018
### 

@<TRIPOS>MOLECULE
5u6k_ligand
   95    98     1     0     0
SMALL
GAST_HUCK


@<TRIPOS>ATOM
      1 N          16.2070   84.4090   40.9320 N.4       1 PHE         0.2394
      2 CA         17.5850   84.0930   41.2920 C.3       1 PHE         0.0744
      3 C          18.5290   85.2410   40.9290 C.2       1 PHE         0.2288
      4 O          18.6720   85.6030   39.7620 O.2       1 PHE        -0.3905
      5 CB         18.0360   82.7850   40.6210 C.3       1 PHE         0.0416
      6 CG         17.9640   82.8030   39.1160 C.ar      1 PHE        -0.0353
      7 CD1        16.7490   82.6670   38.4600 C.ar      1 PHE        -0.0600
      8 CD2        19.1170   82.9310   38.3580 C.ar      1 PHE        -0.0600
      9 CE1        16.6850   82.6780   37.0790 C.ar      1 PHE        -0.0686
     10 CE2        19.0590   82.9430   36.9770 C.ar      1 PHE        -0.0686
     11 CZ         17.8410   82.8150   36.3370 C.ar      1 PHE        -0.0687
     12 N          19.1570   85.8200   41.9440 N.am      1 VAL        -0.2606
     13 CA         20.0730   86.9440   41.7320 C.3       1 VAL         0.1336
     14 C          21.4200   86.4000   41.2630 C.2       1 VAL         0.2067
     15 O          21.9810   85.5090   41.9200 O.2       1 VAL        -0.3942
     16 CB         20.2270   87.7630   43.0090 C.3       1 VAL        -0.0062
     17 CG1        21.2510   88.8700   42.8080 C.3       1 VAL        -0.0584
     18 CG2        18.8900   88.3450   43.4210 C.3       1 VAL        -0.0584
     19 N          21.9650   86.8990   40.1580 N.am      1 PRO        -0.2498
     20 CA         23.2810   86.4410   39.7040 C.3       1 PRO         0.1340
     21 C          24.3710   86.9170   40.6470 C.2       1 PRO         0.2066
     22 O          24.1560   87.8490   41.4370 O.2       1 PRO        -0.3942
     23 CB         23.4190   87.0880   38.3180 C.3       1 PRO        -0.0104
     24 CG         22.5550   88.3010   38.3900 C.3       1 PRO        -0.0281
     25 CD         21.3910   87.9180   39.2610 C.3       1 PRO         0.0369
     26 N          25.5640   86.3020   40.5980 N.am      1 PRO        -0.2498
     27 CA         26.6610   86.7410   41.4650 C.3       1 PRO         0.1338
     28 C          27.2730   88.0610   41.0110 C.2       1 PRO         0.2042
     29 O          27.2620   88.3730   39.8190 O.2       1 PRO        -0.3944
     30 CB         27.6740   85.6000   41.3480 C.3       1 PRO        -0.0104
     31 CG         27.4120   85.0110   40.0080 C.3       1 PRO        -0.0281
     32 CD         25.9240   85.1040   39.8190 C.3       1 PRO         0.0369
     33 N          27.7980   88.8250   41.9630 N.am      1 SEP        -0.2613
     34 CA         28.4090   90.1170   41.6720 C.3       1 SEP         0.1587
     35 CB         28.5760   90.9200   42.9620 C.3       1 SEP         0.1184
     36 OG         27.3700   90.9250   43.7030 O.3       1 SEP        -0.2714
     37 C          29.7580   89.9490   40.9840 C.2       1 SEP         0.2085
     38 O          30.5580   89.1000   41.3780 O.2       1 SEP        -0.3941
     39 P          27.6590   90.6500   45.2620 P.3       1 SEP         0.2010
     40 O1P        27.6520   89.0640   45.5300 O.co2     1 SEP        -0.5537
     41 O2P        29.0860   91.2620   45.6720 O.co2     1 SEP        -0.5537
     42 O3P        26.5060   91.3530   46.1370 O.co2     1 SEP        -0.5537
     43 N          30.0140   90.7640   39.9510 N.am      1 PRO        -0.2555
     44 CA         31.2680   90.7030   39.1920 C.3       1 PRO         0.0972
     45 C          32.4850   91.1080   40.0200 C.2       1 PRO         0.0603
     46 O          32.3200   91.7140   41.0790 O.co2     1 PRO        -0.5666
     47 CB         31.0320   91.6960   38.0510 C.3       1 PRO        -0.0159
     48 CG         30.0260   92.6520   38.5950 C.3       1 PRO        -0.0288
     49 CD         29.1150   91.8150   39.4430 C.3       1 PRO         0.0362
     50 OXT        33.6120   90.8220   39.6160 O.co2     1 PRO        -0.5666
     51 H1         15.6090   83.6370   41.1819 H         1 PHE         0.2017
     52 H2         16.1480   84.5719   39.9390 H         1 PHE         0.2017
     53 H3         15.9118   85.2364   41.4263 H         1 PHE         0.2017
     54 H4         17.6273   83.9500   42.3818 H         1 PHE         0.1122
     55 H5         17.3933   81.9707   40.9868 H         1 PHE         0.0507
     56 H6         19.0781   82.5892   40.9136 H         1 PHE         0.0507
     57 H7         15.8389   82.5507   39.0373 H         1 PHE         0.0557
     58 H8         20.0764   83.0229   38.8543 H         1 PHE         0.0557
     59 H9         15.7281   82.5792   36.5794 H         1 PHE         0.0599
     60 H10        19.9680   83.0527   36.3967 H         1 PHE         0.0599
     61 H11        17.7934   82.8222   35.2541 H         1 PHE         0.0559
     62 H12        19.0022   85.4826   42.8726 H         1 VAL         0.1885
     63 H13        19.6611   87.5962   40.9478 H         1 VAL         0.0803
     64 H14        20.5823   87.0992   43.8110 H         1 VAL         0.0343
     65 H15        21.3503   89.4507   43.7369 H         1 VAL         0.0234
     66 H16        20.9198   89.5327   41.9950 H         1 VAL         0.0234
     67 H17        22.2234   88.4270   42.5469 H         1 VAL         0.0234
     68 H18        18.1635   87.5311   43.5615 H         1 VAL         0.0234
     69 H19        18.5295   89.0269   42.6367 H         1 VAL         0.0234
     70 H20        19.0063   88.8994   44.3639 H         1 VAL         0.0234
     71 H21        23.3139   85.3440   39.6304 H         1 PRO         0.0802
     72 H22        23.0660   86.4043   37.5319 H         1 PRO         0.0313
     73 H23        24.4648   87.3657   38.1200 H         1 PRO         0.0313
     74 H24        22.2062   88.5840   37.3859 H         1 PRO         0.0287
     75 H25        23.1083   89.1405   38.8362 H         1 PRO         0.0287
     76 H26        21.0230   88.7837   39.8312 H         1 PRO         0.0524
     77 H27        20.5702   87.4984   38.6609 H         1 PRO         0.0524
     78 H28        26.3116   86.8480   42.5025 H         1 PRO         0.0802
     79 H29        27.5131   84.8535   42.1398 H         1 PRO         0.0313
     80 H30        28.7027   85.9845   41.4101 H         1 PRO         0.0313
     81 H31        27.7395   83.9613   39.9776 H         1 PRO         0.0287
     82 H32        27.9361   85.5814   39.2270 H         1 PRO         0.0287
     83 H33        25.6678   85.2316   38.7569 H         1 PRO         0.0524
     84 H34        25.4190   84.2098   40.2132 H         1 PRO         0.0524
     85 H35        27.7734   88.5037   42.9097 H         1 SEP         0.1884
     86 H36        27.7417   90.6720   40.9963 H         1 SEP         0.0827
     87 H37        28.8508   91.9551   42.7110 H         1 SEP         0.0662
     88 H38        29.3725   90.4664   43.5701 H         1 SEP         0.0662
     89 H39        31.4278   89.6881   38.7990 H         1 PRO         0.0728
     90 H40        30.6390   91.1813   37.1618 H         1 PRO         0.0306
     91 H41        31.9643   92.2183   37.7902 H         1 PRO         0.0306
     92 H42        29.4643   93.1287   37.7782 H         1 PRO         0.0286
     93 H43        30.5172   93.4261   39.2028 H         1 PRO         0.0286
     94 H44        28.6893   92.4048   40.2681 H         1 PRO         0.0524
     95 H45        28.3007   91.3834   38.8425 H         1 PRO         0.0524
@<TRIPOS>BOND
     1    1    2 1  
     2    2    3 1  
     3    2    5 1  
     4    3    4 2  
     5    3   12 am 
     6    5    6 1  
     7    6    7 ar 
     8    6    8 ar 
     9    7    9 ar 
    10    8   10 ar 
    11    9   11 ar 
    12   10   11 ar 
    13   12   13 1  
    14   13   14 1  
    15   13   16 1  
    16   14   15 2  
    17   14   19 am 
    18   16   17 1  
    19   16   18 1  
    20   19   20 1  
    21   19   25 1  
    22   20   21 1  
    23   20   23 1  
    24   21   22 2  
    25   21   26 am 
    26   23   24 1  
    27   24   25 1  
    28   26   27 1  
    29   26   32 1  
    30   27   28 1  
    31   27   30 1  
    32   28   29 2  
    33   28   33 am 
    34   30   31 1  
    35   31   32 1  
    36   33   34 1  
    37   34   35 1  
    38   34   37 1  
    39   35   36 1  
    40   36   39 1  
    41   37   38 2  
    42   37   43 am 
    43   39   40 ar 
    44   39   41 ar 
    45   39   42 ar 
    46   43   44 1  
    47   43   49 1  
    48   44   45 1  
    49   44   47 1  
    50   45   46 ar 
    51   45   50 ar 
    52   47   48 1  
    53   48   49 1  
    54    1   51 1  
    55    1   52 1  
    56    1   53 1  
    57    2   54 1  
    58    5   55 1  
    59    5   56 1  
    60    7   57 1  
    61    8   58 1  
    62    9   59 1  
    63   10   60 1  
    64   11   61 1  
    65   12   62 1  
    66   13   63 1  
    67   16   64 1  
    68   17   65 1  
    69   17   66 1  
    70   17   67 1  
    71   18   68 1  
    72   18   69 1  
    73   18   70 1  
    74   20   71 1  
    75   23   72 1  
    76   23   73 1  
    77   24   74 1  
    78   24   75 1  
    79   25   76 1  
    80   25   77 1  
    81   27   78 1  
    82   30   79 1  
    83   30   80 1  
    84   31   81 1  
    85   31   82 1  
    86   32   83 1  
    87   32   84 1  
    88   33   85 1  
    89   34   86 1  
    90   35   87 1  
    91   35   88 1  
    92   44   89 1  
    93   47   90 1  
    94   47   91 1  
    95   48   92 1  
    96   48   93 1  
    97   49   94 1  
    98   49   95 1  
@<TRIPOS>SUBSTRUCTURE
     1 PHE         1

