5amd_ligand
  -I-interpret- 

 41 42  0  0  0  0  0  0  0  0999 V2000
   -3.2830    4.6210   11.5130 O   0  0  0  0  0
   -4.1970    3.8140   11.5910 C   0  0  0  0  0
   -4.9360    3.5660   10.5540 O   0  0  0  0  0
   -4.6020    3.1450   12.8460 C   0  0  0  0  0
   -4.3310    1.7960   13.0080 C   0  0  0  0  0
   -4.7270    1.1050   14.1700 C   0  0  0  0  0
   -5.4430    1.7470   15.2210 C   0  0  0  0  0
   -5.9680    0.9880   16.6220 S   0  0  0  0  0
   -7.3720    1.2830   16.7910 O   0  0  0  0  0
   -5.7650   -0.5630   16.4590 N   0  0  0  0  0
   -5.1390    1.4140   17.6830 O   0  0  0  0  0
   -5.7440    3.1110   15.0450 C   0  0  0  0  0
   -5.3820    3.8380   13.8920 C   0  0  0  0  0
   -5.7100    5.4360   13.7730 S   0  0  0  0  0
   -6.0530    5.9620   15.0450 O   0  0  0  0  0
   -6.4740    5.9030   12.6350 O   0  0  0  0  0
   -4.3290    6.1490   13.4110 N   0  0  0  0  0
   -3.2410    6.1690   14.3940 C   0  0  0  0  0
   -1.9020    6.5410   13.7650 C   0  0  0  0  0
   -1.8250    8.0100   13.4830 C   0  0  0  0  0
   -1.3400    8.8760   14.4620 C   0  0  0  0  0
   -1.2690   10.2480   14.1970 C   0  0  0  0  0
   -1.6610   10.7440   12.9470 C   0  0  0  0  0
   -2.1510    9.8670   11.9670 C   0  0  0  0  0
   -2.2210    8.4990   12.2340 C   0  0  0  0  0
   -5.6017    2.9141   10.7854 H   0  0  0  0  0
   -3.8012    1.2590   12.2212 H   0  0  0  0  0
   -4.4783    0.0483   14.2678 H   0  0  0  0  0
   -6.5706   -1.1881   16.4830 H   0  0  0  0  0
   -4.8277   -0.9438   16.3293 H   0  0  0  0  0
   -6.2826    3.6300   15.8378 H   0  0  0  0  0
   -4.2036    6.5891   12.4994 H   0  0  0  0  0
   -3.1498    5.1694   14.8189 H   0  0  0  0  0
   -3.4803    6.9177   15.1492 H   0  0  0  0  0
   -1.7975    6.0004   12.8243 H   0  0  0  0  0
   -1.1057    6.2784   14.4615 H   0  0  0  0  0
   -1.0181    8.4867   15.4279 H   0  0  0  0  0
   -0.9079   10.9323   14.9648 H   0  0  0  0  0
   -1.5855   11.8106   12.7356 H   0  0  0  0  0
   -2.4757   10.2530   11.0007 H   0  0  0  0  0
   -2.5841    7.8121   11.4696 H   0  0  0  0  0
  1  2  2  0  0  0
  2  3  1  0  0  0
  2  4  1  0  0  0
  4  5  4  0  0  0
  4 13  4  0  0  0
  5  6  4  0  0  0
  6  7  4  0  0  0
  7  8  1  0  0  0
  7 12  4  0  0  0
  8  9  2  0  0  0
  8 10  1  0  0  0
  8 11  2  0  0  0
 12 13  4  0  0  0
 13 14  1  0  0  0
 14 15  2  0  0  0
 14 16  2  0  0  0
 14 17  1  0  0  0
 17 18  1  0  0  0
 18 19  1  0  0  0
 19 20  1  0  0  0
 20 21  4  0  0  0
 20 25  4  0  0  0
 21 22  4  0  0  0
 22 23  4  0  0  0
 23 24  4  0  0  0
 24 25  4  0  0  0
  3 26  1  0  0  0
  5 27  1  0  0  0
  6 28  1  0  0  0
 10 29  1  0  0  0
 10 30  1  0  0  0
 12 31  1  0  0  0
 17 32  1  0  0  0
 18 33  1  0  0  0
 18 34  1  0  0  0
 19 35  1  0  0  0
 19 36  1  0  0  0
 21 37  1  0  0  0
 22 38  1  0  0  0
 23 39  1  0  0  0
 24 40  1  0  0  0
 25 41  1  0  0  0
M  END
$$$$
