2psv_ligand
  -I-interpret- 

 64 66  0  0  0  0  0  0  0  0999 V2000
   23.6790   25.1250   11.5560 O   0  0  0  0  0
   22.9250   25.7410   10.8070 C   0  0  0  0  0
   22.9470   25.5900    9.4790 N   0  0  0  0  0
   23.8490   24.6740    8.8030 C   0  0  0  0  0
   21.9070   26.6880   11.4080 C   0  0  0  0  0
   22.6170   27.7090   12.2780 C   0  0  0  0  0
   21.5230   28.6390   12.7800 C   0  0  0  0  0
   21.3950   29.7300   12.2460 O   0  0  0  0  0
   20.7320   28.2140   13.7660 N   0  0  0  0  0
   19.6360   28.9880   14.3450 C   0  0  0  0  0
   18.3700   28.1310   14.2540 C   0  0  0  0  0
   18.1040   27.7700   12.7980 C   0  0  0  0  0
   17.5650   28.7160   11.9310 C   0  0  0  0  0
   17.3200   28.3920   10.5950 C   0  0  0  0  0
   17.6200   27.1180   10.1230 C   0  0  0  0  0
   18.1490   26.1710   10.9900 C   0  0  0  0  0
   18.3920   26.4970   12.3180 C   0  0  0  0  0
   20.0070   29.3580   15.7910 C   0  0  0  0  0
   20.0510   28.1880   16.6180 O   0  0  0  0  0
   19.0580   30.4050   16.3950 C   0  0  0  0  0
   19.3530   31.6990   15.7310 N   0  0  0  0  0
   20.0950   32.6440   16.5880 C   0  0  0  0  0
   21.5440   32.1580   16.6800 C   0  0  0  0  0
   22.4220   32.3340   15.4410 C   0  0  0  0  0
   22.6320   33.2310   16.6520 C   0  0  0  0  0
   18.0870   32.3400   14.9480 S   0  0  0  0  0
   18.6330   33.3030   14.0350 O   0  0  0  0  0
   17.4160   31.2880   14.2590 O   0  0  0  0  0
   16.9610   33.1090   15.9000 C   0  0  0  0  0
   16.7390   34.4600   15.9210 O   0  0  0  0  0
   15.6930   34.6580   16.8190 C   0  0  0  0  0
   15.2890   33.4230   17.3250 C   0  0  0  0  0
   16.1050   32.4180   16.7070 C   0  0  0  0  0
   22.3014   26.1428    8.9151 H   0  0  0  0  0
   24.8796   24.9512    9.0246 H   0  0  0  0  0
   23.6617   23.6583    9.1514 H   0  0  0  0  0
   23.6802   24.7275    7.7275 H   0  0  0  0  0
   21.1994   26.1231   12.0149 H   0  0  0  0  0
   21.3721   27.2011   10.6088 H   0  0  0  0  0
   23.3793   28.2515   11.7189 H   0  0  0  0  0
   23.1485   27.2333   13.1022 H   0  0  0  0  0
   20.9043   27.2820   14.1430 H   0  0  0  0  0
   19.4550   29.9214   13.8120 H   0  0  0  0  0
   17.5230   28.6913   14.6498 H   0  0  0  0  0
   18.5063   27.2190   14.8352 H   0  0  0  0  0
   17.3327   29.7160   12.2972 H   0  0  0  0  0
   16.8941   29.1366    9.9224 H   0  0  0  0  0
   17.4407   26.8646    9.0781 H   0  0  0  0  0
   18.3743   25.1682   10.6270 H   0  0  0  0  0
   18.8121   25.7485   12.9899 H   0  0  0  0  0
   20.9992   29.8079   15.7553 H   0  0  0  0  0
   20.2838   28.4399   17.5146 H   0  0  0  0  0
   19.2077   30.4831   17.4718 H   0  0  0  0  0
   18.0185   30.1191   16.2343 H   0  0  0  0  0
   19.6469   32.6850   17.5808 H   0  0  0  0  0
   20.0596   33.6470   16.1627 H   0  0  0  0  0
   21.2939   31.3229   17.3343 H   0  0  0  0  0
   22.3012   32.4338   14.3623 H   0  0  0  0  0
   23.0184   31.7172   14.7687 H   0  0  0  0  0
   23.4539   33.5765   17.2791 H   0  0  0  0  0
   22.7365   34.2933   16.8725 H   0  0  0  0  0
   15.2600   35.6227   17.0836 H   0  0  0  0  0
   14.4984   33.2526   18.0558 H   0  0  0  0  0
   16.0526   31.3388   16.8507 H   0  0  0  0  0
  1  2  2  0  0  0
  2  3  1  0  0  0
  2  5  1  0  0  0
  3  4  1  0  0  0
  5  6  1  0  0  0
  6  7  1  0  0  0
  7  8  2  0  0  0
  7  9  1  0  0  0
  9 10  1  0  0  0
 10 11  1  0  0  0
 10 18  1  0  0  0
 11 12  1  0  0  0
 12 13  4  0  0  0
 12 17  4  0  0  0
 13 14  4  0  0  0
 14 15  4  0  0  0
 15 16  4  0  0  0
 16 17  4  0  0  0
 18 19  1  0  0  0
 18 20  1  0  0  0
 20 21  1  0  0  0
 21 22  1  0  0  0
 21 26  1  0  0  0
 22 23  1  0  0  0
 23 24  1  0  0  0
 23 25  1  0  0  0
 24 25  1  0  0  0
 26 27  2  0  0  0
 26 28  2  0  0  0
 26 29  1  0  0  0
 29 30  4  0  0  0
 29 33  4  0  0  0
 30 31  4  0  0  0
 31 32  4  0  0  0
 32 33  4  0  0  0
  3 34  1  0  0  0
  4 35  1  0  0  0
  4 36  1  0  0  0
  4 37  1  0  0  0
  5 38  1  0  0  0
  5 39  1  0  0  0
  6 40  1  0  0  0
  6 41  1  0  0  0
  9 42  1  0  0  0
 10 43  1  0  0  0
 11 44  1  0  0  0
 11 45  1  0  0  0
 13 46  1  0  0  0
 14 47  1  0  0  0
 15 48  1  0  0  0
 16 49  1  0  0  0
 17 50  1  0  0  0
 18 51  1  0  0  0
 19 52  1  0  0  0
 20 53  1  0  0  0
 20 54  1  0  0  0
 22 55  1  0  0  0
 22 56  1  0  0  0
 23 57  1  0  0  0
 24 58  1  0  0  0
 24 59  1  0  0  0
 25 60  1  0  0  0
 25 61  1  0  0  0
 31 62  1  0  0  0
 32 63  1  0  0  0
 33 64  1  0  0  0
M  END
$$$$
