### 
### Created by X-TOOL on Mon Sep 10 21:13:19 2018
### 

@<TRIPOS>MOLECULE
4oyk_ligand
  205   205     1     0     0
SMALL
GAST_HUCK


@<TRIPOS>ATOM
      1 N           7.2930  -15.0720   -5.1570 N.4       1 GLU         0.2380
      2 CA          6.9680  -13.8370   -4.4510 C.3       1 GLU         0.0665
      3 C           8.1580  -13.3240   -3.6450 C.2       1 GLU         0.2269
      4 O           9.1540  -14.0260   -3.4740 O.2       1 GLU        -0.3907
      5 CB          5.7550  -14.0410   -3.5410 C.3       1 GLU         0.0194
      6 CG          5.8460  -15.2660   -2.6470 C.3       1 GLU         0.0075
      7 CD          4.6360  -15.4210   -1.7460 C.2       1 GLU         0.0351
      8 OE1         4.3030  -16.5710   -1.3880 O.co2     1 GLU        -0.5690
      9 OE2         4.0200  -14.3930   -1.3920 O.co2     1 GLU        -0.5690
     10 N           8.0450  -12.0940   -3.1540 N.am      1 ASP        -0.2595
     11 CA          9.1210  -11.4680   -2.3940 C.3       1 ASP         0.1424
     12 C           9.2710  -12.1050   -1.0160 C.2       1 ASP         0.2056
     13 O           8.2880  -12.2960   -0.2990 O.2       1 ASP        -0.3943
     14 CB          8.8730   -9.9640   -2.2560 C.3       1 ASP         0.0406
     15 CG         10.0550   -9.2320   -1.6530 C.2       1 ASP         0.0393
     16 OD1        10.8950   -8.7230   -2.4240 O.co2     1 ASP        -0.5688
     17 OD2        10.1440   -9.1630   -0.4090 O.co2     1 ASP        -0.5688
     18 N          10.5080  -12.4260   -0.6500 N.am      1 MET        -0.2636
     19 CA         10.7870  -13.0990    0.6120 C.3       1 MET         0.1317
     20 C          11.5730  -12.2070    1.5660 C.2       1 MET         0.2040
     21 O          11.9920  -12.6530    2.6350 O.2       1 MET        -0.3944
     22 CB         11.5900  -14.3760    0.3590 C.3       1 MET        -0.0034
     23 CG         11.0470  -15.2580   -0.7500 C.3       1 MET        -0.0024
     24 SD         12.1610  -16.6270   -1.1230 S.3       1 MET        -0.1639
     25 CE         12.2970  -17.3980    0.4870 C.3       1 MET        -0.0181
     26 N          11.7700  -10.9490    1.1850 N.am      1 TYR        -0.2621
     27 CA         12.6750  -10.0780    1.9300 C.3       1 TYR         0.1390
     28 C          12.0120   -8.8350    2.5180 C.2       1 TYR         0.2057
     29 O          12.2360   -8.4980    3.6800 O.2       1 TYR        -0.3942
     30 CB         13.8610   -9.6810    1.0480 C.3       1 TYR         0.0163
     31 CG         14.6260  -10.8690    0.5100 C.ar      1 TYR        -0.0493
     32 CD1        15.5570  -11.5330    1.2990 C.ar      1 TYR        -0.0685
     33 CD2        14.4130  -11.3310   -0.7820 C.ar      1 TYR        -0.0685
     34 CE1        16.2560  -12.6220    0.8150 C.ar      1 TYR        -0.0398
     35 CE2        15.1070  -12.4190   -1.2750 C.ar      1 TYR        -0.0398
     36 CZ         16.0280  -13.0610   -0.4720 C.ar      1 TYR         0.0805
     37 OH         16.7220  -14.1450   -0.9580 O.3       1 TYR        -0.3376
     38 N          11.2020   -8.1540    1.7140 N.am      1 ARG        -0.2636
     39 CA         10.5790   -6.9070    2.1450 C.3       1 ARG         0.1311
     40 C           9.3760   -7.1430    3.0500 C.2       1 ARG         0.2039
     41 O           8.7610   -8.2090    3.0170 O.2       1 ARG        -0.3944
     42 CB         10.1590   -6.0710    0.9350 C.3       1 ARG        -0.0092
     43 CG         11.3170   -5.5320    0.1170 C.3       1 ARG        -0.0156
     44 CD         10.8060   -4.7160   -1.0570 C.3       1 ARG         0.0627
     45 NE          9.9670   -5.5170   -1.9430 N.pl3     1 ARG        -0.2723
     46 CZ          9.3080   -5.0300   -2.9890 C.cat     1 ARG         0.2882
     47 NH1         9.3850   -3.7390   -3.2820 N.pl3     1 ARG        -0.2849
     48 NH2         8.5690   -5.8340   -3.7410 N.pl3     1 ARG        -0.2849
     49 N           9.0460   -6.1380    3.8550 N.am      1 ALA        -0.2640
     50 CA          7.8800   -6.2030    4.7250 C.3       1 ALA         0.1282
     51 C           6.6020   -6.2040    3.8970 C.2       1 ALA         0.2036
     52 O           6.5910   -5.7310    2.7610 O.2       1 ALA        -0.3944
     53 CB          7.8800   -5.0400    5.7000 C.3       1 ALA        -0.0244
     54 N           5.5280   -6.7350    4.4740 N.am      1 ALA        -0.2640
     55 CA          4.2590   -6.8840    3.7660 C.3       1 ALA         0.1282
     56 C           3.7030   -5.5570    3.2530 C.2       1 ALA         0.2037
     57 O           3.1460   -5.4960    2.1580 O.2       1 ALA        -0.3944
     58 CB          3.2360   -7.5820    4.6540 C.3       1 ALA        -0.0244
     59 N           3.8600   -4.4990    4.0430 N.am      1 ASP        -0.2622
     60 CA          3.3400   -3.1890    3.6620 C.3       1 ASP         0.1423
     61 C           4.1270   -2.5660    2.5080 C.2       1 ASP         0.2056
     62 O           3.5430   -1.9580    1.6130 O.2       1 ASP        -0.3943
     63 CB          3.2900   -2.2420    4.8670 C.3       1 ASP         0.0406
     64 CG          4.6360   -2.0840    5.5430 C.2       1 ASP         0.0393
     65 OD1         4.9330   -0.9710    6.0280 O.co2     1 ASP        -0.5688
     66 OD2         5.3970   -3.0710    5.5940 O.co2     1 ASP        -0.5688
     67 N           5.4480   -2.7260    2.5310 N.am      1 GLU        -0.2635
     68 CA          6.3020   -2.2250    1.4550 C.3       1 GLU         0.1325
     69 C           6.0290   -2.9550    0.1430 C.2       1 GLU         0.2040
     70 O           6.1550   -2.3770   -0.9370 O.2       1 GLU        -0.3944
     71 CB          7.7810   -2.3440    1.8330 C.3       1 GLU        -0.0008
     72 CG          8.3780   -1.0760    2.4250 C.3       1 GLU         0.0044
     73 CD          8.5010    0.0410    1.4050 C.2       1 GLU         0.0350
     74 OE1         8.3440    1.2200    1.7900 O.co2     1 GLU        -0.5690
     75 OE2         8.7590   -0.2590    0.2200 O.co2     1 GLU        -0.5690
     76 N           5.6580   -4.2270    0.2450 N.am      1 ILE        -0.2635
     77 CA          5.2560   -5.0050   -0.9210 C.3       1 ILE         0.1335
     78 C           3.8560   -4.5740   -1.3650 C.2       1 ILE         0.2041
     79 O           3.5380   -4.5860   -2.5540 O.2       1 ILE        -0.3944
     80 CB          5.2820   -6.5270   -0.6270 C.3       1 ILE        -0.0037
     81 CG1         6.6710   -6.9590   -0.1500 C.3       1 ILE        -0.0491
     82 CG2         4.8900   -7.3280   -1.8600 C.3       1 ILE        -0.0582
     83 CD1         6.7460   -8.4090    0.2940 C.3       1 ILE        -0.0648
     84 N           3.0320   -4.1740   -0.3990 N.am      1 GLU        -0.2640
     85 CA          1.6730   -3.7160   -0.6810 C.3       1 GLU         0.1282
     86 C           1.6580   -2.3400   -1.3440 C.2       1 GLU         0.2036
     87 O           0.6810   -1.9670   -1.9950 O.2       1 GLU        -0.3944
     88 CB          0.8380   -3.6870    0.6030 C.3       1 GLU        -0.0244
     89 N           2.7400   -1.5870   -1.1700 N.am      1 LYS        -0.2637
     90 CA          2.8700   -0.2710   -1.7890 C.3       1 LYS         0.1309
     91 C           3.0600   -0.4020   -3.2960 C.2       1 LYS         0.2034
     92 O           2.7650    0.5230   -4.0520 O.2       1 LYS        -0.3944
     93 CB          4.0500    0.4980   -1.1860 C.3       1 LYS        -0.0122
     94 CG          3.8830    0.8830    0.2770 C.3       1 LYS        -0.0440
     95 CD          3.0550    2.1490    0.4430 C.3       1 LYS        -0.0124
     96 CE          3.7690    3.3600   -0.1430 C.3       1 LYS        -0.0354
     97 NZ          3.0180    4.6240    0.0990 N.4       1 LYS         0.2185
     98 N           3.5520   -1.5600   -3.7240 N.am      1 GLU        -0.2669
     99 CA          3.8550   -1.8000   -5.1310 C.3       1 GLU         0.1241
    100 C           2.7870   -2.6580   -5.8020 C.2       1 GLU         0.2150
    101 O           1.9060   -3.2040   -5.1380 O.co2     1 GLU        -0.4120
    102 CB          5.2260   -2.4660   -5.2630 C.3       1 GLU        -0.0040
    103 CG          5.6460   -2.7710   -6.6900 C.3       1 GLU         0.0039
    104 CD          7.0120   -3.4260   -6.7600 C.2       1 GLU         0.0350
    105 OE1         7.6390   -3.6030   -5.6940 O.co2     1 GLU        -0.5690
    106 OE2         7.4580   -3.7640   -7.8760 O.co2     1 GLU        -0.5690
    107 H           6.4880  -15.3830   -5.6779 H         1 GLU         0.2015
    108 H           7.5562  -15.7808   -4.4904 H         1 GLU         0.2015
    109 H           8.0592  -14.9053   -5.7904 H         1 GLU         0.2015
    110 H           6.7107  -13.0745   -5.2009 H         1 GLU         0.1099
    111 H           4.8615  -14.1420   -4.1746 H         1 GLU         0.0363
    112 H           5.6515  -13.1531   -2.9000 H         1 GLU         0.0363
    113 H           6.7444  -15.1776   -2.0184 H         1 GLU         0.0434
    114 H           5.9293  -16.1603   -3.2820 H         1 GLU         0.0434
    115 H           7.1991  -11.5839   -3.3099 H         1 ASP         0.1886
    116 H          10.0613  -11.6157   -2.9454 H         1 ASP         0.0819
    117 H           7.9960   -9.8092   -1.6104 H         1 ASP         0.0478
    118 H           8.6720   -9.5469   -3.2538 H         1 ASP         0.0478
    119 H          11.2688  -12.1992   -1.2581 H         1 MET         0.1883
    120 H           9.8297  -13.3643    1.0845 H         1 MET         0.0800
    121 H          11.6015  -14.9633    1.2890 H         1 MET         0.0320
    122 H          12.6181  -14.0875    0.0947 H         1 MET         0.0320
    123 H          10.9149  -14.6493   -1.6567 H         1 MET         0.0378
    124 H          10.0744  -15.6655   -0.4370 H         1 MET         0.0378
    125 H          12.9618  -18.2718    0.4201 H         1 MET         0.0340
    126 H          11.3009  -17.7202    0.8246 H         1 MET         0.0340
    127 H          12.7119  -16.6758    1.2055 H         1 MET         0.0340
    128 H          11.2937  -10.5953    0.3800 H         1 TYR         0.1885
    129 H          13.0645  -10.6646    2.7751 H         1 TYR         0.0821
    130 H          14.5487   -9.0630    1.6439 H         1 TYR         0.0453
    131 H          13.4836   -9.0939    0.1978 H         1 TYR         0.0453
    132 H          15.7380  -11.1908    2.3115 H         1 TYR         0.0530
    133 H          13.6897  -10.8293   -1.4147 H         1 TYR         0.0530
    134 H          16.9796  -13.1284    1.4435 H         1 TYR         0.0525
    135 H          14.9293  -12.7664   -2.2863 H         1 TYR         0.0525
    136 H          17.3112  -14.4691   -0.2870 H         1 TYR         0.2458
    137 H          11.0158   -8.5031    0.7956 H         1 ARG         0.1883
    138 H          11.3267   -6.3372    2.7162 H         1 ARG         0.0800
    139 H           9.5650   -5.2180    1.2949 H         1 ARG         0.0313
    140 H           9.5381   -6.7001    0.2803 H         1 ARG         0.0313
    141 H          11.9157   -6.3738   -0.2609 H         1 ARG         0.0301
    142 H          11.9447   -4.8931    0.7557 H         1 ARG         0.0301
    143 H          11.6655   -4.3345   -1.6277 H         1 ARG         0.0689
    144 H          10.2156   -3.8705   -0.6741 H         1 ARG         0.0689
    145 H           9.8803   -6.5240   -1.7447 H         1 ARG         0.2642
    146 H           8.8733   -3.3636   -4.0933 H         1 ARG         0.2615
    147 H           9.9565   -3.1116   -2.6983 H         1 ARG         0.2615
    148 H           8.5073   -6.8372   -3.5158 H         1 ARG         0.2615
    149 H           8.0566   -5.4554   -4.5503 H         1 ARG         0.2615
    150 H           9.6139   -5.3149    3.8634 H         1 ALA         0.1883
    151 H           7.9246   -7.1399    5.2997 H         1 ALA         0.0797
    152 H           6.9937   -5.1050    6.3482 H         1 ALA         0.0277
    153 H           7.8567   -4.0929    5.1411 H         1 ALA         0.0277
    154 H           8.7895   -5.0791    6.3175 H         1 ALA         0.0277
    155 H           5.5911   -7.0423    5.4235 H         1 ALA         0.1883
    156 H           4.4423   -7.5250    2.8911 H         1 ALA         0.0797
    157 H           2.2870   -7.6867    4.1076 H         1 ALA         0.0277
    158 H           3.0716   -6.9850    5.5632 H         1 ALA         0.0277
    159 H           3.6108   -8.5781    4.9321 H         1 ALA         0.0277
    160 H           4.3424   -4.6023    4.9128 H         1 ASP         0.1884
    161 H           2.3074   -3.3360    3.3126 H         1 ASP         0.0819
    162 H           2.5733   -2.6420    5.5994 H         1 ASP         0.0478
    163 H           2.9505   -1.2536    4.5239 H         1 ASP         0.0478
    164 H           5.8675   -3.2013    3.3044 H         1 GLU         0.1883
    165 H           6.0709   -1.1598    1.3068 H         1 GLU         0.0801
    166 H           8.3488   -2.6020    0.9269 H         1 GLU         0.0330
    167 H           7.8840   -3.1516    2.5727 H         1 GLU         0.0330
    168 H           9.3795   -1.3074    2.8168 H         1 GLU         0.0433
    169 H           7.7328   -0.7331    3.2472 H         1 GLU         0.0433
    170 H           5.6544   -4.6622    1.1453 H         1 ILE         0.1883
    171 H           5.9638   -4.7992   -1.7375 H         1 ILE         0.0803
    172 H           4.5556   -6.7377    0.1717 H         1 ILE         0.0345
    173 H           6.9594   -6.3216    0.6989 H         1 ILE         0.0267
    174 H           7.3820   -6.8128   -0.9765 H         1 ILE         0.0267
    175 H           3.8917   -7.0142   -2.1989 H         1 ILE         0.0235
    176 H           4.8727   -8.3993   -1.6111 H         1 ILE         0.0235
    177 H           5.6221   -7.1494   -2.6613 H         1 ILE         0.0235
    178 H           7.7708   -8.6400    0.6202 H         1 ILE         0.0230
    179 H           6.4721   -9.0643   -0.5459 H         1 ILE         0.0230
    180 H           6.0495   -8.5732    1.1294 H         1 ILE         0.0230
    181 H           3.3525   -4.1873    0.5482 H         1 GLU         0.1883
    182 H           1.2123   -4.4332   -1.3762 H         1 GLU         0.0797
    183 H          -0.1798   -3.3403    0.3707 H         1 GLU         0.0277
    184 H           1.3025   -3.0015    1.3271 H         1 GLU         0.0277
    185 H           0.7916   -4.6983    1.0332 H         1 GLU         0.0277
    186 H           3.4854   -1.9316   -0.5993 H         1 LYS         0.1883
    187 H           1.9468    0.2959   -1.5986 H         1 LYS         0.0800
    188 H           4.1901    1.4206   -1.7683 H         1 LYS         0.0312
    189 H           4.9483   -0.1308   -1.2735 H         1 LYS         0.0312
    190 H           4.8777    1.0493    0.7162 H         1 LYS         0.0269
    191 H           3.3817    0.0591    0.8060 H         1 LYS         0.0269
    192 H           2.8768    2.3224    1.5145 H         1 LYS         0.0317
    193 H           2.0921    2.0172   -0.0722 H         1 LYS         0.0317
    194 H           3.8804    3.2157   -1.2278 H         1 LYS         0.0813
    195 H           4.7634    3.4440    0.3198 H         1 LYS         0.0813
    196 H           3.5236    5.3975   -0.3036 H         1 LYS         0.1994
    197 H           2.9157    4.7694    1.0912 H         1 LYS         0.1994
    198 H           2.1067    4.5602   -0.3270 H         1 LYS         0.1994
    199 H           3.7198   -2.2896   -3.0611 H         1 GLU         0.1876
    200 H           3.8875   -0.8285   -5.6459 H         1 GLU         0.0752
    201 O1          2.8069   -2.8098   -7.0527 O.co2     1 GLU        -0.4120
    202 H           5.2032   -3.4122   -4.7025 H         1 GLU         0.0324
    203 H           5.9772   -1.7955   -4.8202 H         1 GLU         0.0324
    204 H           5.6753   -1.8301   -7.2590 H         1 GLU         0.0432
    205 H           4.9053   -3.4486   -7.1397 H         1 GLU         0.0432
@<TRIPOS>BOND
     1    1    2 1  
     2    2    3 1  
     3    2    5 1  
     4    3    4 2  
     5    3   10 am 
     6    5    6 1  
     7    6    7 1  
     8    7    8 ar 
     9    7    9 ar 
    10   10   11 1  
    11   11   12 1  
    12   11   14 1  
    13   12   13 2  
    14   12   18 am 
    15   14   15 1  
    16   15   16 ar 
    17   15   17 ar 
    18   18   19 1  
    19   19   20 1  
    20   19   22 1  
    21   20   21 2  
    22   20   26 am 
    23   22   23 1  
    24   23   24 1  
    25   24   25 1  
    26   26   27 1  
    27   27   28 1  
    28   27   30 1  
    29   28   29 2  
    30   28   38 am 
    31   30   31 1  
    32   31   32 ar 
    33   31   33 ar 
    34   32   34 ar 
    35   33   35 ar 
    36   34   36 ar 
    37   35   36 ar 
    38   36   37 1  
    39   38   39 1  
    40   39   40 1  
    41   39   42 1  
    42   40   41 2  
    43   40   49 am 
    44   42   43 1  
    45   43   44 1  
    46   44   45 1  
    47   45   46 ar 
    48   46   47 ar 
    49   46   48 ar 
    50   49   50 1  
    51   50   51 1  
    52   50   53 1  
    53   51   52 2  
    54   51   54 am 
    55   54   55 1  
    56   55   56 1  
    57   55   58 1  
    58   56   57 2  
    59   56   59 am 
    60   59   60 1  
    61   60   61 1  
    62   60   63 1  
    63   61   62 2  
    64   61   67 am 
    65   63   64 1  
    66   64   65 ar 
    67   64   66 ar 
    68   67   68 1  
    69   68   69 1  
    70   68   71 1  
    71   69   70 2  
    72   69   76 am 
    73   71   72 1  
    74   72   73 1  
    75   73   74 ar 
    76   73   75 ar 
    77   76   77 1  
    78   77   78 1  
    79   77   80 1  
    80   78   79 2  
    81   78   84 am 
    82   80   81 1  
    83   80   82 1  
    84   81   83 1  
    85   84   85 1  
    86   85   86 1  
    87   85   88 1  
    88   86   87 2  
    89   86   89 am 
    90   89   90 1  
    91   90   91 1  
    92   90   93 1  
    93   91   92 2  
    94   91   98 am 
    95   93   94 1  
    96   94   95 1  
    97   95   96 1  
    98   96   97 1  
    99   98   99 1  
   100   99  100 1  
   101   99  102 1  
   102  100  101 ar 
   103  102  103 1  
   104  103  104 1  
   105  104  105 ar 
   106  104  106 ar 
   107    1  107 1  
   108    1  108 1  
   109    1  109 1  
   110    2  110 1  
   111    5  111 1  
   112    5  112 1  
   113    6  113 1  
   114    6  114 1  
   115   10  115 1  
   116   11  116 1  
   117   14  117 1  
   118   14  118 1  
   119   18  119 1  
   120   19  120 1  
   121   22  121 1  
   122   22  122 1  
   123   23  123 1  
   124   23  124 1  
   125   25  125 1  
   126   25  126 1  
   127   25  127 1  
   128   26  128 1  
   129   27  129 1  
   130   30  130 1  
   131   30  131 1  
   132   32  132 1  
   133   33  133 1  
   134   34  134 1  
   135   35  135 1  
   136   37  136 1  
   137   38  137 1  
   138   39  138 1  
   139   42  139 1  
   140   42  140 1  
   141   43  141 1  
   142   43  142 1  
   143   44  143 1  
   144   44  144 1  
   145   45  145 1  
   146   47  146 1  
   147   47  147 1  
   148   48  148 1  
   149   48  149 1  
   150   49  150 1  
   151   50  151 1  
   152   53  152 1  
   153   53  153 1  
   154   53  154 1  
   155   54  155 1  
   156   55  156 1  
   157   58  157 1  
   158   58  158 1  
   159   58  159 1  
   160   59  160 1  
   161   60  161 1  
   162   63  162 1  
   163   63  163 1  
   164   67  164 1  
   165   68  165 1  
   166   71  166 1  
   167   71  167 1  
   168   72  168 1  
   169   72  169 1  
   170   76  170 1  
   171   77  171 1  
   172   80  172 1  
   173   81  173 1  
   174   81  174 1  
   175   82  175 1  
   176   82  176 1  
   177   82  177 1  
   178   83  178 1  
   179   83  179 1  
   180   83  180 1  
   181   84  181 1  
   182   85  182 1  
   183   88  183 1  
   184   88  184 1  
   185   88  185 1  
   186   89  186 1  
   187   90  187 1  
   188   93  188 1  
   189   93  189 1  
   190   94  190 1  
   191   94  191 1  
   192   95  192 1  
   193   95  193 1  
   194   96  194 1  
   195   96  195 1  
   196   97  196 1  
   197   97  197 1  
   198   97  198 1  
   199   98  199 1  
   200   99  200 1  
   201  100  201 ar 
   202  102  202 1  
   203  102  203 1  
   204  103  204 1  
   205  103  205 1  
@<TRIPOS>SUBSTRUCTURE
     1 GLU         1

