4oyk_ligand
  -I-interpret- 

210210  0  0  0  0  0  0  0  0999 V2000
    7.2930  -15.0720   -5.1570 N   0  3  0  0  0
    6.9680  -13.8370   -4.4510 C   0  0  0  0  0
    8.1580  -13.3240   -3.6450 C   0  0  0  0  0
    9.1540  -14.0260   -3.4740 O   0  0  0  0  0
    5.7550  -14.0410   -3.5410 C   0  0  0  0  0
    5.8460  -15.2660   -2.6470 C   0  0  0  0  0
    4.6360  -15.4210   -1.7460 C   0  0  0  0  0
    4.3030  -16.5710   -1.3880 O   0  0  0  0  0
    4.0200  -14.3930   -1.3920 O   0  0  0  0  0
    8.0450  -12.0940   -3.1540 N   0  0  0  0  0
    9.1210  -11.4680   -2.3940 C   0  0  0  0  0
    9.2710  -12.1050   -1.0160 C   0  0  0  0  0
    8.2880  -12.2960   -0.2990 O   0  0  0  0  0
    8.8730   -9.9640   -2.2560 C   0  0  0  0  0
   10.0550   -9.2320   -1.6530 C   0  0  0  0  0
   10.8950   -8.7230   -2.4240 O   0  0  0  0  0
   10.1440   -9.1630   -0.4090 O   0  0  0  0  0
   10.5080  -12.4260   -0.6500 N   0  0  0  0  0
   10.7870  -13.0990    0.6120 C   0  0  0  0  0
   11.5730  -12.2070    1.5660 C   0  0  0  0  0
   11.9920  -12.6530    2.6350 O   0  0  0  0  0
   11.5900  -14.3760    0.3590 C   0  0  0  0  0
   11.0470  -15.2580   -0.7500 C   0  0  0  0  0
   12.1610  -16.6270   -1.1230 S   0  0  0  0  0
   12.2970  -17.3980    0.4870 C   0  0  0  0  0
   11.7700  -10.9490    1.1850 N   0  0  0  0  0
   12.6750  -10.0780    1.9300 C   0  0  0  0  0
   12.0120   -8.8350    2.5180 C   0  0  0  0  0
   12.2360   -8.4980    3.6800 O   0  0  0  0  0
   13.8610   -9.6810    1.0480 C   0  0  0  0  0
   14.6260  -10.8690    0.5100 C   0  0  0  0  0
   15.5570  -11.5330    1.2990 C   0  0  0  0  0
   14.4130  -11.3310   -0.7820 C   0  0  0  0  0
   16.2560  -12.6220    0.8150 C   0  0  0  0  0
   15.1070  -12.4190   -1.2750 C   0  0  0  0  0
   16.0280  -13.0610   -0.4720 C   0  0  0  0  0
   16.7220  -14.1450   -0.9580 O   0  0  0  0  0
   11.2020   -8.1540    1.7140 N   0  0  0  0  0
   10.5790   -6.9070    2.1450 C   0  0  0  0  0
    9.3760   -7.1430    3.0500 C   0  0  0  0  0
    8.7610   -8.2090    3.0170 O   0  0  0  0  0
   10.1590   -6.0710    0.9350 C   0  0  0  0  0
   11.3170   -5.5320    0.1170 C   0  0  0  0  0
   10.8060   -4.7160   -1.0570 C   0  0  0  0  0
    9.9670   -5.5170   -1.9430 N   0  0  0  0  0
    9.3080   -5.0300   -2.9890 C   0  0  0  0  0
    9.3850   -3.7390   -3.2820 N   0  0  0  0  0
    8.5690   -5.8340   -3.7410 N   0  0  0  0  0
    9.0460   -6.1380    3.8550 N   0  0  0  0  0
    7.8800   -6.2030    4.7250 C   0  0  0  0  0
    6.6020   -6.2040    3.8970 C   0  0  0  0  0
    6.5910   -5.7310    2.7610 O   0  0  0  0  0
    7.8800   -5.0400    5.7000 C   0  0  0  0  0
    5.5280   -6.7350    4.4740 N   0  0  0  0  0
    4.2590   -6.8840    3.7660 C   0  0  0  0  0
    3.7030   -5.5570    3.2530 C   0  0  0  0  0
    3.1460   -5.4960    2.1580 O   0  0  0  0  0
    3.2360   -7.5820    4.6540 C   0  0  0  0  0
    3.8600   -4.4990    4.0430 N   0  0  0  0  0
    3.3400   -3.1890    3.6620 C   0  0  0  0  0
    4.1270   -2.5660    2.5080 C   0  0  0  0  0
    3.5430   -1.9580    1.6130 O   0  0  0  0  0
    3.2900   -2.2420    4.8670 C   0  0  0  0  0
    4.6360   -2.0840    5.5430 C   0  0  0  0  0
    4.9330   -0.9710    6.0280 O   0  0  0  0  0
    5.3970   -3.0710    5.5940 O   0  0  0  0  0
    5.4480   -2.7260    2.5310 N   0  0  0  0  0
    6.3020   -2.2250    1.4550 C   0  0  0  0  0
    6.0290   -2.9550    0.1430 C   0  0  0  0  0
    6.1550   -2.3770   -0.9370 O   0  0  0  0  0
    7.7810   -2.3440    1.8330 C   0  0  0  0  0
    8.3780   -1.0760    2.4250 C   0  0  0  0  0
    8.5010    0.0410    1.4050 C   0  0  0  0  0
    8.3440    1.2200    1.7900 O   0  0  0  0  0
    8.7590   -0.2590    0.2200 O   0  0  0  0  0
    5.6580   -4.2270    0.2450 N   0  0  0  0  0
    5.2560   -5.0050   -0.9210 C   0  0  0  0  0
    3.8560   -4.5740   -1.3650 C   0  0  0  0  0
    3.5380   -4.5860   -2.5540 O   0  0  0  0  0
    5.2820   -6.5270   -0.6270 C   0  0  0  0  0
    6.6710   -6.9590   -0.1500 C   0  0  0  0  0
    4.8900   -7.3280   -1.8600 C   0  0  0  0  0
    6.7460   -8.4090    0.2940 C   0  0  0  0  0
    3.0320   -4.1740   -0.3990 N   0  0  0  0  0
    1.6730   -3.7160   -0.6810 C   0  0  0  0  0
    1.6580   -2.3400   -1.3440 C   0  0  0  0  0
    0.6810   -1.9670   -1.9950 O   0  0  0  0  0
    0.8380   -3.6870    0.6030 C   0  0  0  0  0
    2.7400   -1.5870   -1.1700 N   0  0  0  0  0
    2.8700   -0.2710   -1.7890 C   0  0  0  0  0
    3.0600   -0.4020   -3.2960 C   0  0  0  0  0
    2.7650    0.5230   -4.0520 O   0  0  0  0  0
    4.0500    0.4980   -1.1860 C   0  0  0  0  0
    3.8830    0.8830    0.2770 C   0  0  0  0  0
    3.0550    2.1490    0.4430 C   0  0  0  0  0
    3.7690    3.3600   -0.1430 C   0  0  0  0  0
    3.0180    4.6240    0.0990 N   0  3  0  0  0
    3.5520   -1.5600   -3.7240 N   0  0  0  0  0
    3.8550   -1.8000   -5.1310 C   0  0  0  0  0
    2.7870   -2.6580   -5.8020 C   0  0  0  0  0
    1.9060   -3.2040   -5.1380 O   0  0  0  0  0
    5.2260   -2.4660   -5.2630 C   0  0  0  0  0
    5.6460   -2.7710   -6.6900 C   0  0  0  0  0
    7.0120   -3.4260   -6.7600 C   0  0  0  0  0
    7.6390   -3.6030   -5.6940 O   0  0  0  0  0
    7.4580   -3.7640   -7.8760 O   0  0  0  0  0
    2.8069   -2.8098   -7.0527 O   0  0  0  0  0
    8.1027  -14.9160   -5.7574 H   0  0  0  0  0
    7.5067  -15.8036   -4.4791 H   0  0  0  0  0
    6.4959  -15.3566   -5.7263 H   0  0  0  0  0
    6.7224  -13.0835   -5.1993 H   0  0  0  0  0
    4.8878  -14.1781   -4.1870 H   0  0  0  0  0
    5.6928  -13.1704   -2.8881 H   0  0  0  0  0
    6.7249  -15.1536   -2.0122 H   0  0  0  0  0
    5.9020  -16.1458   -3.2880 H   0  0  0  0  0
    4.4403  -13.6208   -1.7775 H   0  0  0  0  0
    7.1822  -11.5737   -3.3131 H   0  0  0  0  0
   10.0502  -11.6255   -2.9417 H   0  0  0  0  0
    8.0184   -9.8241   -1.5941 H   0  0  0  0  0
    8.7009   -9.5593   -3.2533 H   0  0  0  0  0
    9.3986   -9.6179   -0.0103 H   0  0  0  0  0
   11.2840  -12.1946   -1.2702 H   0  0  0  0  0
    9.8275  -13.3387    1.0703 H   0  0  0  0  0
   11.5517  -14.9618    1.2774 H   0  0  0  0  0
   12.5906  -14.0667    0.0569 H   0  0  0  0  0
   10.9377  -14.6506   -1.6484 H   0  0  0  0  0
   10.0932  -15.6718   -0.4228 H   0  0  0  0  0
   12.7082  -16.6814    1.1980 H   0  0  0  0  0
   11.3094  -17.7167    0.8204 H   0  0  0  0  0
   12.9560  -18.2636    0.4194 H   0  0  0  0  0
   11.2841  -10.5883    0.3639 H   0  0  0  0  0
   13.0156  -10.6605    2.7860 H   0  0  0  0  0
   14.5471   -9.0957    1.6603 H   0  0  0  0  0
   13.4682   -9.1271    0.1954 H   0  0  0  0  0
   15.7390  -11.1890    2.3171 H   0  0  0  0  0
   13.6857  -10.8265   -1.4182 H   0  0  0  0  0
   16.9836  -13.1312    1.4470 H   0  0  0  0  0
   14.9284  -12.7684   -2.2919 H   0  0  0  0  0
   16.4485  -14.3197   -1.8615 H   0  0  0  0  0
   11.0121   -8.5101    0.7772 H   0  0  0  0  0
   11.3266   -6.3638    2.7230 H   0  0  0  0  0
    9.6070   -5.2114    1.3149 H   0  0  0  0  0
    9.5796   -6.7222    0.2806 H   0  0  0  0  0
   11.9021   -6.3697   -0.2625 H   0  0  0  0  0
   11.9309   -4.8928    0.7515 H   0  0  0  0  0
   11.6634   -4.3568   -1.6261 H   0  0  0  0  0
   10.2082   -3.8912   -0.6691 H   0  0  0  0  0
    9.8811   -6.5142   -1.7467 H   0  0  0  0  0
    8.8765   -3.3669   -4.0841 H   0  0  0  0  0
    9.9527   -3.1181   -2.7053 H   0  0  0  0  0
    8.5061   -6.8270   -3.5167 H   0  0  0  0  0
    9.6252   -5.2985    3.8636 H   0  0  0  0  0
    7.9241   -7.1305    5.2959 H   0  0  0  0  0
    8.7817   -5.0799    6.3112 H   0  0  0  0  0
    7.8570   -4.1022    5.1449 H   0  0  0  0  0
    7.0014   -5.1055    6.3417 H   0  0  0  0  0
    5.5924   -7.0485    5.4425 H   0  0  0  0  0
    4.4588   -7.4990    2.8885 H   0  0  0  0  0
    3.6086   -8.5688    4.9289 H   0  0  0  0  0
    3.0741   -6.9895    5.5545 H   0  0  0  0  0
    2.2962   -7.6852    4.1116 H   0  0  0  0  0
    4.3521   -4.6044    4.9302 H   0  0  0  0  0
    2.3213   -3.3442    3.3067 H   0  0  0  0  0
    2.5973   -2.6637    5.5953 H   0  0  0  0  0
    2.9784   -1.2609    4.5087 H   0  0  0  0  0
    4.2111   -0.3558    5.8800 H   0  0  0  0  0
    5.8759   -3.2108    3.3198 H   0  0  0  0  0
    6.0640   -1.1711    1.3108 H   0  0  0  0  0
    8.3304   -2.5606    0.9169 H   0  0  0  0  0
    7.8567   -3.1206    2.5941 H   0  0  0  0  0
    9.3788   -1.3128    2.7861 H   0  0  0  0  0
    7.7166   -0.7330    3.2206 H   0  0  0  0  0
    8.1548    1.2256    2.7312 H   0  0  0  0  0
    5.6543   -4.6709    1.1633 H   0  0  0  0  0
    5.9694   -4.8140   -1.7227 H   0  0  0  0  0
    4.5565   -6.7254    0.1619 H   0  0  0  0  0
    6.9236   -6.3425    0.7127 H   0  0  0  0  0
    7.3535   -6.8422   -0.9918 H   0  0  0  0  0
    3.8826   -7.0483   -2.1683 H   0  0  0  0  0
    5.5906   -7.1156   -2.6676 H   0  0  0  0  0
    4.9170   -8.3919   -1.6243 H   0  0  0  0  0
    6.0554   -8.5704    1.1218 H   0  0  0  0  0
    6.4744   -9.0573   -0.5391 H   0  0  0  0  0
    7.7619   -8.6367    0.6170 H   0  0  0  0  0
    3.3589   -4.1876    0.5671 H   0  0  0  0  0
    1.2335   -4.4268   -1.3808 H   0  0  0  0  0
    0.7929   -4.6896    1.0282 H   0  0  0  0  0
    1.2993   -3.0075    1.3196 H   0  0  0  0  0
   -0.1702   -3.3434    0.3716 H   0  0  0  0  0
    3.5003   -1.9385   -0.5879 H   0  0  0  0  0
    1.9513    0.2823   -1.5941 H   0  0  0  0  0
    4.1418    1.4272   -1.7484 H   0  0  0  0  0
    4.9173   -0.1598   -1.2423 H   0  0  0  0  0
    4.8724    1.0657    0.6962 H   0  0  0  0  0
    3.3670    0.0693    0.7866 H   0  0  0  0  0
    2.8963    2.3220    1.5074 H   0  0  0  0  0
    2.1097    2.0161   -0.0831 H   0  0  0  0  0
    3.8548    3.2161   -1.2200 H   0  0  0  0  0
    4.7435    3.4459    0.3376 H   0  0  0  0  0
    3.5305    5.4060   -0.3088 H   0  0  0  0  0
    2.0961    4.5582   -0.3324 H   0  0  0  0  0
    2.9151    4.7700    1.1032 H   0  0  0  0  0
    3.7231   -2.3042   -3.0478 H   0  0  0  0  0
    3.8685   -0.8353   -5.6382 H   0  0  0  0  0
    5.1684   -3.4193   -4.7377 H   0  0  0  0  0
    5.9589   -1.7682   -4.8580 H   0  0  0  0  0
    5.6938   -1.8295   -7.2371 H   0  0  0  0  0
    4.9178   -3.4607   -7.1169 H   0  0  0  0  0
    7.1177   -3.2724   -4.9588 H   0  0  0  0  0
    3.5489   -2.3246   -7.4210 H   0  0  0  0  0
  1  2  1  0  0  0
  2  3  1  0  0  0
  2  5  1  0  0  0
  3  4  2  0  0  0
  3 10  1  0  0  0
  5  6  1  0  0  0
  6  7  1  0  0  0
  7  8  2  0  0  0
  7  9  1  0  0  0
 10 11  1  0  0  0
 11 12  1  0  0  0
 11 14  1  0  0  0
 12 13  2  0  0  0
 12 18  1  0  0  0
 14 15  1  0  0  0
 15 16  2  0  0  0
 15 17  1  0  0  0
 18 19  1  0  0  0
 19 20  1  0  0  0
 19 22  1  0  0  0
 20 21  2  0  0  0
 20 26  1  0  0  0
 22 23  1  0  0  0
 23 24  1  0  0  0
 24 25  1  0  0  0
 26 27  1  0  0  0
 27 28  1  0  0  0
 27 30  1  0  0  0
 28 29  2  0  0  0
 28 38  1  0  0  0
 30 31  1  0  0  0
 31 32  4  0  0  0
 31 33  4  0  0  0
 32 34  4  0  0  0
 33 35  4  0  0  0
 34 36  4  0  0  0
 35 36  4  0  0  0
 36 37  1  0  0  0
 38 39  1  0  0  0
 39 40  1  0  0  0
 39 42  1  0  0  0
 40 41  2  0  0  0
 40 49  1  0  0  0
 42 43  1  0  0  0
 43 44  1  0  0  0
 44 45  1  0  0  0
 45 46  1  0  0  0
 46 47  1  0  0  0
 46 48  2  0  0  0
 49 50  1  0  0  0
 50 51  1  0  0  0
 50 53  1  0  0  0
 51 52  2  0  0  0
 51 54  1  0  0  0
 54 55  1  0  0  0
 55 56  1  0  0  0
 55 58  1  0  0  0
 56 57  2  0  0  0
 56 59  1  0  0  0
 59 60  1  0  0  0
 60 61  1  0  0  0
 60 63  1  0  0  0
 61 62  2  0  0  0
 61 67  1  0  0  0
 63 64  1  0  0  0
 64 65  1  0  0  0
 64 66  2  0  0  0
 67 68  1  0  0  0
 68 69  1  0  0  0
 68 71  1  0  0  0
 69 70  2  0  0  0
 69 76  1  0  0  0
 71 72  1  0  0  0
 72 73  1  0  0  0
 73 74  1  0  0  0
 73 75  2  0  0  0
 76 77  1  0  0  0
 77 78  1  0  0  0
 77 80  1  0  0  0
 78 79  2  0  0  0
 78 84  1  0  0  0
 80 81  1  0  0  0
 80 82  1  0  0  0
 81 83  1  0  0  0
 84 85  1  0  0  0
 85 86  1  0  0  0
 85 88  1  0  0  0
 86 87  2  0  0  0
 86 89  1  0  0  0
 89 90  1  0  0  0
 90 91  1  0  0  0
 90 93  1  0  0  0
 91 92  2  0  0  0
 91 98  1  0  0  0
 93 94  1  0  0  0
 94 95  1  0  0  0
 95 96  1  0  0  0
 96 97  1  0  0  0
 98 99  1  0  0  0
 99100  1  0  0  0
 99102  1  0  0  0
100101  2  0  0  0
102103  1  0  0  0
103104  1  0  0  0
104105  1  0  0  0
104106  2  0  0  0
100107  1  0  0  0
  1108  1  0  0  0
  1109  1  0  0  0
  1110  1  0  0  0
  2111  1  0  0  0
  5112  1  0  0  0
  5113  1  0  0  0
  6114  1  0  0  0
  6115  1  0  0  0
  9116  1  0  0  0
 10117  1  0  0  0
 11118  1  0  0  0
 14119  1  0  0  0
 14120  1  0  0  0
 17121  1  0  0  0
 18122  1  0  0  0
 19123  1  0  0  0
 22124  1  0  0  0
 22125  1  0  0  0
 23126  1  0  0  0
 23127  1  0  0  0
 25128  1  0  0  0
 25129  1  0  0  0
 25130  1  0  0  0
 26131  1  0  0  0
 27132  1  0  0  0
 30133  1  0  0  0
 30134  1  0  0  0
 32135  1  0  0  0
 33136  1  0  0  0
 34137  1  0  0  0
 35138  1  0  0  0
 37139  1  0  0  0
 38140  1  0  0  0
 39141  1  0  0  0
 42142  1  0  0  0
 42143  1  0  0  0
 43144  1  0  0  0
 43145  1  0  0  0
 44146  1  0  0  0
 44147  1  0  0  0
 45148  1  0  0  0
 47149  1  0  0  0
 47150  1  0  0  0
 48151  1  0  0  0
 49152  1  0  0  0
 50153  1  0  0  0
 53154  1  0  0  0
 53155  1  0  0  0
 53156  1  0  0  0
 54157  1  0  0  0
 55158  1  0  0  0
 58159  1  0  0  0
 58160  1  0  0  0
 58161  1  0  0  0
 59162  1  0  0  0
 60163  1  0  0  0
 63164  1  0  0  0
 63165  1  0  0  0
 65166  1  0  0  0
 67167  1  0  0  0
 68168  1  0  0  0
 71169  1  0  0  0
 71170  1  0  0  0
 72171  1  0  0  0
 72172  1  0  0  0
 74173  1  0  0  0
 76174  1  0  0  0
 77175  1  0  0  0
 80176  1  0  0  0
 81177  1  0  0  0
 81178  1  0  0  0
 82179  1  0  0  0
 82180  1  0  0  0
 82181  1  0  0  0
 83182  1  0  0  0
 83183  1  0  0  0
 83184  1  0  0  0
 84185  1  0  0  0
 85186  1  0  0  0
 88187  1  0  0  0
 88188  1  0  0  0
 88189  1  0  0  0
 89190  1  0  0  0
 90191  1  0  0  0
 93192  1  0  0  0
 93193  1  0  0  0
 94194  1  0  0  0
 94195  1  0  0  0
 95196  1  0  0  0
 95197  1  0  0  0
 96198  1  0  0  0
 96199  1  0  0  0
 97200  1  0  0  0
 97201  1  0  0  0
 97202  1  0  0  0
 98203  1  0  0  0
 99204  1  0  0  0
102205  1  0  0  0
102206  1  0  0  0
103207  1  0  0  0
103208  1  0  0  0
105209  1  0  0  0
107210  1  0  0  0
M  END
$$$$
