3c52_ligand
  -I-interpret- 

 16 15  0  0  0  0  0  0  0  0999 V2000
    2.5700    1.6100    5.0970 C   0  0  0  0  0
    1.9770    2.7250    5.9670 C   0  0  0  0  0
    2.9480    0.3380    5.7000 N   0  0  0  0  0
    4.1540   -0.2820    5.3340 O   0  0  0  0  0
    2.7210    1.7830    3.9320 O   0  0  0  0  0
    1.7490    3.8650    5.1780 O   0  0  0  0  0
    0.2310    6.0680    4.8180 O   0  0  0  0  0
    0.3060    4.8640    7.2280 O   0  0  0  0  0
    2.3180    6.0950    6.2730 O   0  0  0  0  0
    1.1870    5.2510    5.8870 P   0  0  0  0  0
    2.6751    2.9711    6.7671 H   0  0  0  0  0
    1.0343    2.3870    6.3973 H   0  0  0  0  0
    2.3367   -0.1019    6.3878 H   0  0  0  0  0
    4.2500   -1.1045    5.8198 H   0  0  0  0  0
   -0.5108    5.5135    4.5653 H   0  0  0  0  0
   -0.4357    4.3103    6.9734 H   0  0  0  0  0
  1  2  1  0  0  0
  1  3  1  0  0  0
  1  5  2  0  0  0
  2  6  1  0  0  0
  3  4  1  0  0  0
  6 10  1  0  0  0
 10  7  1  0  0  0
 10  8  1  0  0  0
 10  9  2  0  0  0
  2 11  1  0  0  0
  2 12  1  0  0  0
  3 13  1  0  0  0
  4 14  1  0  0  0
  7 15  1  0  0  0
  8 16  1  0  0  0
M  END
$$$$
