5eym_ligand
  -I-interpret- 

 64 67  0  0  0  0  0  0  0  0999 V2000
  -62.9330  -30.5450   76.9070 C   0  0  0  0  0
  -63.5400  -31.7920   76.9400 C   0  0  0  0  0
  -62.7800  -32.9450   76.9020 C   0  0  0  0  0
  -64.8980  -33.6360   77.0070 C   0  0  0  0  0
  -67.2600  -32.1930   77.1480 N   0  0  0  0  0
  -66.0600  -29.9720   77.0780 C   0  0  0  0  0
  -66.0980  -27.8910   78.2810 C   0  0  0  0  0
  -66.0220  -27.8890   75.8870 C   0  0  0  0  0
  -69.5450  -32.9510   77.2470 C   0  0  0  0  0
  -70.9100  -32.7390   77.2810 C   0  0  0  0  0
  -71.4070  -31.4540   77.2520 C   0  0  0  0  0
  -69.1490  -30.5940   77.1540 C   0  0  0  0  0
  -58.1580  -31.2930   76.6490 C   0  0  0  0  0
  -56.3740  -29.9310   76.2320 O   0  0  0  0  0
  -56.7520  -31.0320   76.5810 C   0  0  0  0  0
  -55.8230  -31.9950   76.9180 N   0  0  0  0  0
  -54.3660  -31.8030   76.8750 C   0  0  0  0  0
  -53.8620  -31.6750   75.4560 C   0  0  0  0  0
  -59.3540  -31.4830   76.7150 C   0  0  0  0  0
  -60.7740  -31.6630   76.7840 C   0  0  0  0  0
  -61.3930  -32.9130   76.8260 C   0  0  0  0  0
  -63.5930  -34.0970   76.9430 N   0  0  0  0  0
  -65.8770  -34.3480   77.0600 O   0  0  0  0  0
  -64.9400  -32.1770   77.0140 C   0  0  0  0  0
  -61.5460  -30.4960   76.8310 C   0  0  0  0  0
  -66.0810  -31.4490   77.0750 C   0  0  0  0  0
  -66.0250  -29.2750   75.8850 C   0  0  0  0  0
  -66.0580  -27.1970   77.0860 C   0  0  0  0  0
  -66.0980  -29.2770   78.2760 C   0  0  0  0  0
  -68.6460  -31.8900   77.1970 C   0  0  0  0  0
  -70.5210  -30.3810   77.1890 C   0  0  0  0  0
  -72.9070  -31.2850   77.2980 C   0  0  0  0  0
  -73.3080  -29.8770   77.4320 N   0  3  0  0  0
  -74.5770  -29.8000   78.1730 C   0  0  0  0  0
  -73.4320  -29.1990   76.1240 C   0  0  0  0  0
  -63.5260  -29.6310   76.9397 H   0  0  0  0  0
  -66.1295  -27.3488   79.2260 H   0  0  0  0  0
  -65.9913  -27.3432   74.9440 H   0  0  0  0  0
  -69.1639  -33.9721   77.2596 H   0  0  0  0  0
  -71.5928  -33.5871   77.3307 H   0  0  0  0  0
  -68.4669  -29.7460   77.0929 H   0  0  0  0  0
  -56.1720  -32.9051   77.2184 H   0  0  0  0  0
  -53.8911  -32.6714   77.3316 H   0  0  0  0  0
  -54.1242  -30.8846   77.4100 H   0  0  0  0  0
  -54.1062  -32.5813   74.9019 H   0  0  0  0  0
  -54.3364  -30.8172   74.9793 H   0  0  0  0  0
  -52.7812  -31.5344   75.4670 H   0  0  0  0  0
  -60.8085  -33.8327   76.8001 H   0  0  0  0  0
  -63.2839  -35.0689   76.9285 H   0  0  0  0  0
  -65.5976  -31.3090   77.0609 H   0  0  0  0  0
  -61.0479  -29.5267   76.8075 H   0  0  0  0  0
  -65.9997  -29.8170   74.9396 H   0  0  0  0  0
  -66.0548  -26.1070   77.0875 H   0  0  0  0  0
  -66.1280  -29.8228   79.2190 H   0  0  0  0  0
  -70.9089  -29.3626   77.1669 H   0  0  0  0  0
  -73.2811  -31.8265   78.1669 H   0  0  0  0  0
  -73.3182  -31.6654   76.3630 H   0  0  0  0  0
  -72.5742  -29.3901   77.9466 H   0  0  0  0  0
  -75.3469  -30.3488   77.6306 H   0  0  0  0  0
  -74.4456  -30.2380   79.1625 H   0  0  0  0  0
  -74.8752  -28.7563   78.2729 H   0  0  0  0  0
  -72.4721  -29.2285   75.6085 H   0  0  0  0  0
  -74.1849  -29.7081   75.5222 H   0  0  0  0  0
  -73.7302  -28.1623   76.2804 H   0  0  0  0  0
  2  1  4  0  0  0
  1 25  4  0  0  0
  2  3  4  0  0  0
 24  2  1  0  0  0
  3 21  4  0  0  0
 22  3  1  0  0  0
  4 22  1  0  0  0
  4 23  2  0  0  0
 24  4  1  0  0  0
 26  5  2  0  0  0
  5 30  1  0  0  0
 26  6  1  0  0  0
  6 27  4  0  0  0
  6 29  4  0  0  0
  7 28  4  0  0  0
 29  7  4  0  0  0
 27  8  4  0  0  0
  8 28  4  0  0  0
  9 10  4  0  0  0
 30  9  4  0  0  0
 10 11  4  0  0  0
 31 11  4  0  0  0
 11 32  1  0  0  0
 30 12  4  0  0  0
 12 31  4  0  0  0
 13 15  1  0  0  0
 19 13  3  0  0  0
 15 14  2  0  0  0
 15 16  1  0  0  0
 16 17  1  0  0  0
 17 18  1  0  0  0
 20 19  1  0  0  0
 21 20  4  0  0  0
 25 20  4  0  0  0
 24 26  1  0  0  0
 32 33  1  0  0  0
 33 34  1  0  0  0
 33 35  1  0  0  0
  1 36  1  0  0  0
  7 37  1  0  0  0
  8 38  1  0  0  0
  9 39  1  0  0  0
 10 40  1  0  0  0
 12 41  1  0  0  0
 16 42  1  0  0  0
 17 43  1  0  0  0
 17 44  1  0  0  0
 18 45  1  0  0  0
 18 46  1  0  0  0
 18 47  1  0  0  0
 21 48  1  0  0  0
 22 49  1  0  0  0
 24 50  1  0  0  0
 25 51  1  0  0  0
 27 52  1  0  0  0
 28 53  1  0  0  0
 29 54  1  0  0  0
 31 55  1  0  0  0
 32 56  1  0  0  0
 32 57  1  0  0  0
 33 58  1  0  0  0
 34 59  1  0  0  0
 34 60  1  0  0  0
 34 61  1  0  0  0
 35 62  1  0  0  0
 35 63  1  0  0  0
 35 64  1  0  0  0
M  END
$$$$
