### 
### Created by X-TOOL on Mon Sep 10 21:12:59 2018
### 

@<TRIPOS>MOLECULE
3g3m_ligand
   32    33     1     0     0
SMALL
GAST_HUCK


@<TRIPOS>ATOM
      1 F5        -16.6490   -8.2610    3.1900 F         1 5FU        -0.2165
      2 C5        -16.2140   -8.9210    4.2820 C.2       1 5FU         0.1931
      3 C4        -17.1700   -9.4640    5.1540 C.2       1 5FU         0.2212
      4 O4        -18.4020   -9.4880    4.9120 O.2       1 5FU        -0.4071
      5 N3        -16.7170  -10.0120    6.3220 N.am      1 5FU        -0.1842
      6 C2        -15.4060  -10.0880    6.6240 C.2       1 5FU         0.3295
      7 O2        -15.0330  -10.5560    7.7290 O.2       1 5FU        -0.3830
      8 C6        -14.8550   -8.9090    4.5820 C.2       1 5FU         0.0880
      9 N1        -14.4190   -9.5110    5.8050 N.am      1 5FU        -0.1635
     10 C1'       -13.0370  -10.0300    5.9220 C.3       1 5FU         0.2035
     11 O4'       -13.0460  -11.4580    6.1730 O.3       1 5FU        -0.3367
     12 C2'       -12.2970   -9.4460    7.1200 C.3       1 5FU         0.1382
     13 O2'       -11.5550   -8.2830    6.7240 O.3       1 5FU        -0.3837
     14 C3'       -11.3400  -10.5480    7.5500 C.3       1 5FU         0.1148
     15 O3'       -10.1220  -10.5230    6.7930 O.3       1 5FU        -0.3864
     16 C4'       -12.1310  -11.8060    7.2150 C.3       1 5FU         0.1181
     17 C5'       -12.8420  -12.3570    8.4660 C.3       1 5FU         0.1071
     18 O5'       -11.8000  -12.8180    9.3210 O.3       1 5FU        -0.2734
     19 P         -12.1760  -13.4260   10.7870 P.3       1 5FU         0.2008
     20 O1P       -12.5500  -14.8800   10.5390 O.co2     1 5FU        -0.5537
     21 O2P       -10.8700  -13.2950   11.5050 O.co2     1 5FU        -0.5537
     22 O3P       -13.3330  -12.6620   11.3770 O.co2     1 5FU        -0.5537
     23 H1        -17.3833  -10.3696    6.9763 H         1 5FU         0.2260
     24 H2        -14.1389   -8.4515    3.9009 H         1 5FU         0.1107
     25 H3        -12.4922   -9.8050    4.9933 H         1 5FU         0.0991
     26 H4        -12.9957   -9.1890    7.9298 H         1 5FU         0.0676
     27 H5        -12.1523   -7.6304    6.3779 H         1 5FU         0.2101
     28 H6        -11.1125  -10.4836    8.6243 H         1 5FU         0.0648
     29 H7         -9.5521  -11.2230    7.0890 H         1 5FU         0.2100
     30 H8        -11.4431  -12.5794    6.8427 H         1 5FU         0.0650
     31 H9        -13.5119  -13.1861    8.1942 H         1 5FU         0.0639
     32 H10       -13.4222  -11.5636    8.9598 H         1 5FU         0.0639
@<TRIPOS>BOND
     1    1    2 1  
     2    2    3 1  
     3    2    8 2  
     4    3    4 2  
     5    3    5 am 
     6    5    6 am 
     7    6    7 2  
     8    6    9 am 
     9    8    9 1  
    10    9   10 1  
    11   10   11 1  
    12   10   12 1  
    13   11   16 1  
    14   12   13 1  
    15   12   14 1  
    16   14   15 1  
    17   14   16 1  
    18   16   17 1  
    19   17   18 1  
    20   18   19 1  
    21   19   20 ar 
    22   19   21 ar 
    23   19   22 ar 
    24    5   23 1  
    25    8   24 1  
    26   10   25 1  
    27   12   26 1  
    28   13   27 1  
    29   14   28 1  
    30   15   29 1  
    31   16   30 1  
    32   17   31 1  
    33   17   32 1  
@<TRIPOS>SUBSTRUCTURE
     1 5FU         1

