3g3m_ligand
  -I-interpret- 

 34 35  0  0  0  0  0  0  0  0999 V2000
  -16.6490   -8.2610    3.1900 F   0  0  0  0  0
  -16.2140   -8.9210    4.2820 C   0  0  0  0  0
  -17.1700   -9.4640    5.1540 C   0  0  0  0  0
  -18.4020   -9.4880    4.9120 O   0  0  0  0  0
  -16.7170  -10.0120    6.3220 N   0  0  0  0  0
  -15.4060  -10.0880    6.6240 C   0  0  0  0  0
  -15.0330  -10.5560    7.7290 O   0  0  0  0  0
  -14.8550   -8.9090    4.5820 C   0  0  0  0  0
  -14.4190   -9.5110    5.8050 N   0  0  0  0  0
  -13.0370  -10.0300    5.9220 C   0  0  0  0  0
  -13.0460  -11.4580    6.1730 O   0  0  0  0  0
  -12.2970   -9.4460    7.1200 C   0  0  0  0  0
  -11.5550   -8.2830    6.7240 O   0  0  0  0  0
  -11.3400  -10.5480    7.5500 C   0  0  0  0  0
  -10.1220  -10.5230    6.7930 O   0  0  0  0  0
  -12.1310  -11.8060    7.2150 C   0  0  0  0  0
  -12.8420  -12.3570    8.4660 C   0  0  0  0  0
  -11.8000  -12.8180    9.3210 O   0  0  0  0  0
  -12.1760  -13.4260   10.7870 P   0  0  0  0  0
  -12.5500  -14.8800   10.5390 O   0  0  0  0  0
  -10.8700  -13.2950   11.5050 O   0  0  0  0  0
  -13.3330  -12.6620   11.3770 O   0  0  0  0  0
  -17.3967  -10.3768    6.9894 H   0  0  0  0  0
  -14.1383   -8.4511    3.9003 H   0  0  0  0  0
  -12.5526   -9.7619    4.9831 H   0  0  0  0  0
  -12.9738   -9.1416    7.9184 H   0  0  0  0  0
  -11.0937   -7.9244    7.4857 H   0  0  0  0  0
  -11.0371  -10.4628    8.5936 H   0  0  0  0  0
   -9.5461  -11.2304    7.0921 H   0  0  0  0  0
  -11.4755  -12.6073    6.8738 H   0  0  0  0  0
  -13.5354  -13.1587    8.2118 H   0  0  0  0  0
  -13.4489  -11.5924    8.9509 H   0  0  0  0  0
  -13.3911  -14.9187   10.0779 H   0  0  0  0  0
  -14.1184  -12.8122   10.8457 H   0  0  0  0  0
  1  2  1  0  0  0
  2  3  1  0  0  0
  2  8  2  0  0  0
  3  4  2  0  0  0
  3  5  1  0  0  0
  5  6  1  0  0  0
  6  7  2  0  0  0
  6  9  1  0  0  0
  8  9  1  0  0  0
  9 10  1  0  0  0
 10 11  1  0  0  0
 10 12  1  0  0  0
 11 16  1  0  0  0
 12 13  1  0  0  0
 12 14  1  0  0  0
 14 15  1  0  0  0
 14 16  1  0  0  0
 16 17  1  0  0  0
 17 18  1  0  0  0
 18 19  1  0  0  0
 19 20  1  0  0  0
 19 21  2  0  0  0
 19 22  1  0  0  0
  5 23  1  0  0  0
  8 24  1  0  0  0
 10 25  1  0  0  0
 12 26  1  0  0  0
 13 27  1  0  0  0
 14 28  1  0  0  0
 15 29  1  0  0  0
 16 30  1  0  0  0
 17 31  1  0  0  0
 17 32  1  0  0  0
 20 33  1  0  0  0
 22 34  1  0  0  0
M  END
$$$$
