5nk9_ligand
  -I-interpret- 

 61 64  0  0  0  0  0  0  0  0999 V2000
  -80.1020  -10.7150    9.3500 C   0  0  0  0  0
  -78.8350  -11.4100    9.5010 C   0  0  0  0  0
  -78.7030  -11.7760   10.9330 C   0  0  0  0  0
  -78.5360  -10.5290   11.7520 C   0  0  0  0  0
  -77.5450  -12.5570   10.9180 O   0  0  0  0  0
  -79.9390  -12.4740   11.5290 C   0  0  0  0  0
  -81.3070  -11.9400   10.9700 C   0  0  0  0  0
  -81.0220  -11.8380    9.5650 C   0  0  0  0  0
  -82.0750  -11.6830    8.6020 N   0  0  0  0  0
  -83.1590  -10.9880    8.4690 C   0  0  0  0  0
  -83.6850  -10.4210    9.3740 O   0  0  0  0  0
  -83.6660  -11.0480    7.1690 C   0  0  0  0  0
  -85.0150  -11.1050    6.8770 C   0  0  0  0  0
  -82.7880  -11.0770    6.1150 C   0  0  0  0  0
  -83.1850  -11.1410    4.8350 C   0  0  0  0  0
  -84.5220  -11.1970    4.6090 C   0  0  0  0  0
  -85.4570  -11.1770    5.5630 C   0  0  0  0  0
  -86.6860  -11.2060    5.1320 N   0  0  0  0  0
  -87.6840  -11.7000    5.7910 C   0  0  0  0  0
  -87.7000  -12.4630    7.2840 S   0  0  0  0  0
  -88.8980  -11.6560    5.3500 N   0  0  0  0  0
  -89.8030  -12.1860    6.1650 C   0  0  0  0  0
  -89.3680  -12.7360    7.2960 C   0  0  0  0  0
  -90.0120  -13.3680    8.3480 C   0  0  0  0  0
  -89.4020  -13.5480    9.3390 O   0  0  0  0  0
  -91.2830  -13.7590    8.2330 N   0  0  0  0  0
  -91.9590  -14.3850    9.2390 C   0  0  0  0  0
  -92.4870  -13.6630   10.3030 C   0  0  0  0  0
  -92.2670  -11.9860   10.4390 Cl  0  0  0  0  0
  -93.1880  -14.2950   11.3100 C   0  0  0  0  0
  -93.4070  -15.6570   11.2460 C   0  0  0  0  0
  -92.9110  -16.3650   10.1720 C   0  0  0  0  0
  -92.1940  -15.7560    9.1670 C   0  0  0  0  0
  -91.6900  -16.5530    8.1290 C   0  0  0  0  0
  -80.2276  -10.2000    8.3976 H   0  0  0  0  0
  -80.2436   -9.8745   10.0295 H   0  0  0  0  0
  -78.0078  -10.7718    9.1902 H   0  0  0  0  0
  -78.8087  -12.3007    8.8732 H   0  0  0  0  0
  -79.4313   -9.9139   11.6616 H   0  0  0  0  0
  -78.3836  -10.7997   12.7968 H   0  0  0  0  0
  -77.6723   -9.9712   11.3902 H   0  0  0  0  0
  -76.8248  -12.0520   10.5335 H   0  0  0  0  0
  -79.9318  -12.2830   12.6021 H   0  0  0  0  0
  -79.8723  -13.5296   11.2656 H   0  0  0  0  0
  -81.6252  -10.9997   11.4202 H   0  0  0  0  0
  -82.1539  -12.5873   11.1976 H   0  0  0  0  0
  -80.6412  -12.8395    9.3651 H   0  0  0  0  0
  -81.9279  -12.2911    7.7964 H   0  0  0  0  0
  -85.7420  -11.0933    7.6891 H   0  0  0  0  0
  -81.7193  -11.0467    6.3273 H   0  0  0  0  0
  -82.4671  -11.1477    4.0148 H   0  0  0  0  0
  -84.8573  -11.2631    3.5740 H   0  0  0  0  0
  -86.8748  -10.8117    4.2105 H   0  0  0  0  0
  -90.8641  -12.1710    5.9163 H   0  0  0  0  0
  -91.7701  -13.5820    7.3545 H   0  0  0  0  0
  -93.5681  -13.7201   12.1544 H   0  0  0  0  0
  -93.9640  -16.1650   12.0333 H   0  0  0  0  0
  -93.0919  -17.4385   10.1170 H   0  0  0  0  0
  -92.0774  -16.1935    7.1757 H   0  0  0  0  0
  -90.6015  -16.4963    8.1249 H   0  0  0  0  0
  -92.0007  -17.5864    8.2825 H   0  0  0  0  0
  1  2  1  0  0  0
  1  8  1  0  0  0
  2  3  1  0  0  0
  3  4  1  0  0  0
  3  5  1  0  0  0
  3  6  1  0  0  0
  6  7  1  0  0  0
  7  8  1  0  0  0
  8  9  1  0  0  0
  9 10  1  0  0  0
 10 11  2  0  0  0
 10 12  1  0  0  0
 12 13  4  0  0  0
 12 14  4  0  0  0
 13 17  4  0  0  0
 14 15  4  0  0  0
 15 16  4  0  0  0
 16 17  4  0  0  0
 17 18  1  0  0  0
 18 19  1  0  0  0
 19 20  4  0  0  0
 19 21  4  0  0  0
 20 23  4  0  0  0
 21 22  4  0  0  0
 22 23  4  0  0  0
 23 24  1  0  0  0
 24 25  2  0  0  0
 24 26  1  0  0  0
 26 27  1  0  0  0
 27 28  4  0  0  0
 27 33  4  0  0  0
 28 29  1  0  0  0
 28 30  4  0  0  0
 30 31  4  0  0  0
 31 32  4  0  0  0
 32 33  4  0  0  0
 33 34  1  0  0  0
  1 35  1  0  0  0
  1 36  1  0  0  0
  2 37  1  0  0  0
  2 38  1  0  0  0
  4 39  1  0  0  0
  4 40  1  0  0  0
  4 41  1  0  0  0
  5 42  1  0  0  0
  6 43  1  0  0  0
  6 44  1  0  0  0
  7 45  1  0  0  0
  7 46  1  0  0  0
  8 47  1  0  0  0
  9 48  1  0  0  0
 13 49  1  0  0  0
 14 50  1  0  0  0
 15 51  1  0  0  0
 16 52  1  0  0  0
 18 53  1  0  0  0
 22 54  1  0  0  0
 26 55  1  0  0  0
 30 56  1  0  0  0
 31 57  1  0  0  0
 32 58  1  0  0  0
 34 59  1  0  0  0
 34 60  1  0  0  0
 34 61  1  0  0  0
M  END
$$$$
