3f70_ligand
  -I-interpret- 

 29 28  0  0  0  0  0  0  0  0999 V2000
   30.0160   21.8440  -56.9690 N   0  3  0  0  0
   29.5160   20.9120  -55.9250 C   0  0  0  0  0
   29.3400   19.5140  -56.5190 C   0  0  0  0  0
   29.0710   18.3960  -55.4940 C   0  0  0  0  0
   28.1100   17.3820  -56.1140 C   0  0  0  0  0
   28.2780   15.9960  -55.5150 C   0  0  0  0  0
   27.2820   15.0470  -56.0130 N   0  3  0  0  0
   27.0490   13.8980  -55.1360 C   0  0  0  0  0
   30.4380   20.9270  -54.7220 C   0  0  0  0  0
   29.9110   20.9895  -53.5792 O   0  0  0  0  0
   31.6895   20.8786  -54.8602 O   0  0  0  0  0
   29.3864   21.8233  -57.7713 H   0  0  0  0  0
   30.0535   22.7898  -56.5890 H   0  0  0  0  0
   30.9501   21.5563  -57.2608 H   0  0  0  0  0
   28.5372   21.2391  -55.5742 H   0  0  0  0  0
   30.2775   19.2645  -57.0160 H   0  0  0  0  0
   28.4674   19.5581  -57.1707 H   0  0  0  0  0
   28.6300   18.8197  -54.5917 H   0  0  0  0  0
   30.0070   17.9043  -55.2288 H   0  0  0  0  0
   28.3233   17.3196  -57.1811 H   0  0  0  0  0
   27.0909   17.7157  -55.9188 H   0  0  0  0  0
   28.1540   16.0786  -54.4352 H   0  0  0  0  0
   29.2646   15.6260  -55.7940 H   0  0  0  0  0
   27.6334   14.6814  -56.8980 H   0  0  0  0  0
   26.3985   15.5515  -56.0862 H   0  0  0  0  0
   27.9797   13.3452  -55.0086 H   0  0  0  0  0
   26.6974   14.2486  -54.1656 H   0  0  0  0  0
   26.2970   13.2479  -55.5831 H   0  0  0  0  0
   31.9057   20.8349  -55.7945 H   0  0  0  0  0
  1  2  1  0  0  0
  2  3  1  0  0  0
  2  9  1  0  0  0
  3  4  1  0  0  0
  4  5  1  0  0  0
  5  6  1  0  0  0
  6  7  1  0  0  0
  7  8  1  0  0  0
  9 10  2  0  0  0
  9 11  1  0  0  0
  1 12  1  0  0  0
  1 13  1  0  0  0
  1 14  1  0  0  0
  2 15  1  0  0  0
  3 16  1  0  0  0
  3 17  1  0  0  0
  4 18  1  0  0  0
  4 19  1  0  0  0
  5 20  1  0  0  0
  5 21  1  0  0  0
  6 22  1  0  0  0
  6 23  1  0  0  0
  7 24  1  0  0  0
  7 25  1  0  0  0
  8 26  1  0  0  0
  8 27  1  0  0  0
  8 28  1  0  0  0
 11 29  1  0  0  0
M  END
$$$$
