1azl_ligand
  -I-interpret- 

 52 54  0  0  0  0  0  0  0  0999 V2000
   -4.2060   36.1330   18.1220 N   0  0  0  0  0
   -3.2350   36.8290   18.7900 C   0  0  0  0  0
   -2.3910   37.6290   18.1270 O   0  0  0  0  0
   -3.1620   36.7520   20.1820 N   0  0  0  0  0
   -4.0430   35.9410   20.8770 C   0  0  0  0  0
   -3.8870   35.8400   22.2350 O   0  0  0  0  0
   -5.0330   35.2000   20.1620 C   0  0  0  0  0
   -5.8850   34.3840   20.8600 N   0  0  0  0  0
   -6.8970   33.7740   20.1290 C   0  0  0  0  0
   -7.8510   33.0520   20.9180 C   0  0  0  0  0
   -8.9040   32.4820   20.1630 C   0  0  0  0  0
   -9.9770   31.7140   20.7850 C   0  0  0  0  0
   -8.9630   32.5950   18.7470 C   0  0  0  0  0
  -10.0520   31.9630   18.0590 C   0  0  0  0  0
   -8.0160   33.3270   18.0110 C   0  0  0  0  0
   -6.9350   33.9120   18.7320 C   0  0  0  0  0
   -6.0120   34.6160   17.9740 N   0  0  0  0  0
   -5.0840   35.3040   18.7450 C   0  0  0  0  0
   -5.9350   34.8040   16.5760 C   0  0  0  0  0
   -5.3150   33.5190   15.9980 C   0  0  0  0  0
   -3.9430   33.3800   16.3700 O   0  0  0  0  0
   -5.3040   33.6900   14.4550 C   0  0  0  0  0
   -6.6590   33.3250   14.1260 O   0  0  0  0  0
   -4.3530   32.8860   13.6820 C   0  0  0  0  0
   -4.5330   33.1980   12.2700 O   0  0  0  0  0
   -4.5000   31.4520   13.8750 C   0  0  0  0  0
   -3.3970   30.8340   13.1780 O   0  0  0  0  0
   -3.2980   29.2470   12.7800 P   0  0  0  0  0
   -3.3820   28.4150   14.1430 O   0  0  0  0  0
   -1.8910   28.9860   11.9650 O   0  0  0  0  0
   -4.5130   28.8530   11.7270 O   0  0  0  0  0
   -2.4599   37.2930   20.6868 H   0  0  0  0  0
   -7.7729   32.9510   22.0005 H   0  0  0  0  0
   -9.5535   30.8520   21.3004 H   0  0  0  0  0
  -10.5049   32.3438   21.5011 H   0  0  0  0  0
  -10.6716   31.3744   20.0166 H   0  0  0  0  0
  -10.0305   30.8909   18.2547 H   0  0  0  0  0
  -10.9948   32.3795   18.4136 H   0  0  0  0  0
   -9.9551   32.1402   16.9879 H   0  0  0  0  0
   -8.1048   33.4428   16.9308 H   0  0  0  0  0
   -5.3277   35.6755   16.3315 H   0  0  0  0  0
   -6.9219   34.9874   16.1511 H   0  0  0  0  0
   -5.8853   32.6633   16.3594 H   0  0  0  0  0
   -3.5908   32.5704   15.9930 H   0  0  0  0  0
   -4.9751   34.6954   14.1923 H   0  0  0  0  0
   -6.7854   33.3908   13.1766 H   0  0  0  0  0
   -3.3540   33.1415   14.0353 H   0  0  0  0  0
   -3.9168   32.6792   11.7477 H   0  0  0  0  0
   -5.4557   31.1001   13.4865 H   0  0  0  0  0
   -4.4872   31.1957   14.9344 H   0  0  0  0  0
   -1.8890   29.5055   11.1577 H   0  0  0  0  0
   -4.4228   29.3749   10.9263 H   0  0  0  0  0
  1  2  1  0  0  0
  1 18  2  0  0  0
  2  3  2  0  0  0
  2  4  1  0  0  0
  4  5  1  0  0  0
  5  6  2  0  0  0
  5  7  1  0  0  0
  7  8  2  0  0  0
  7 18  1  0  0  0
  8  9  1  0  0  0
  9 10  4  0  0  0
  9 16  4  0  0  0
 10 11  4  0  0  0
 11 12  1  0  0  0
 11 13  4  0  0  0
 13 14  1  0  0  0
 13 15  4  0  0  0
 15 16  4  0  0  0
 16 17  1  0  0  0
 17 18  1  0  0  0
 17 19  1  0  0  0
 19 20  1  0  0  0
 20 21  1  0  0  0
 20 22  1  0  0  0
 22 23  1  0  0  0
 22 24  1  0  0  0
 24 25  1  0  0  0
 24 26  1  0  0  0
 26 27  1  0  0  0
 27 28  1  0  0  0
 28 29  2  0  0  0
 28 30  1  0  0  0
 28 31  1  0  0  0
  4 32  1  0  0  0
 10 33  1  0  0  0
 12 34  1  0  0  0
 12 35  1  0  0  0
 12 36  1  0  0  0
 14 37  1  0  0  0
 14 38  1  0  0  0
 14 39  1  0  0  0
 15 40  1  0  0  0
 19 41  1  0  0  0
 19 42  1  0  0  0
 20 43  1  0  0  0
 21 44  1  0  0  0
 22 45  1  0  0  0
 23 46  1  0  0  0
 24 47  1  0  0  0
 25 48  1  0  0  0
 26 49  1  0  0  0
 26 50  1  0  0  0
 30 51  1  0  0  0
 31 52  1  0  0  0
M  END
$$$$
