6dpz_ligand
  -I-interpret- 

 44 45  0  0  0  0  0  0  0  0999 V2000
   19.7420    6.3510  -24.9230 N   0  0  0  0  0
   17.8220    6.6190  -22.6800 C   0  0  0  0  0
   16.7980    6.7660  -22.0370 O   0  0  0  0  0
   18.6360    7.7920  -23.1530 C   0  0  0  0  0
   22.4290    5.5360  -28.1630 C   0  0  0  0  0
   23.2160    6.8090  -27.8810 C   0  0  0  0  0
   22.7100    7.3100  -26.5350 C   0  0  0  0  0
   17.8300    9.0650  -22.9050 C   0  0  0  0  0
   18.6960   10.2700  -23.2470 C   0  0  0  0  0
   18.1250   11.1230  -24.3800 C   0  0  0  0  0
   17.4540   10.3630  -25.5170 C   0  0  0  0  0
   18.3590    9.3780  -26.2490 C   0  0  0  0  0
   18.1200    7.9730  -25.6990 C   0  0  0  0  0
   19.1490    7.6700  -24.6120 C   0  0  0  0  0
   21.6440    5.2420  -26.8900 C   0  0  0  0  0
   22.2690    6.0830  -25.8590 N   0  0  0  0  0
   18.2530    5.4040  -22.9170 O   0  0  0  0  0
   21.5470    5.3420  -23.6090 O   0  0  0  0  0
   21.6530    7.6580  -24.0380 O   0  0  0  0  0
   21.3240    6.3680  -24.5770 S   0  0  0  0  0
   19.2317    5.5517  -25.2986 H   0  0  0  0  0
   19.5588    7.8231  -22.5737 H   0  0  0  0  0
   23.0913    4.7093  -28.4201 H   0  0  0  0  0
   21.7648    5.6618  -29.0181 H   0  0  0  0  0
   23.0684    7.5518  -28.6649 H   0  0  0  0  0
   24.2890    6.6186  -27.8587 H   0  0  0  0  0
   21.9100    8.0435  -26.6351 H   0  0  0  0  0
   23.4751    7.8457  -25.9731 H   0  0  0  0  0
   17.5282    9.1126  -21.8587 H   0  0  0  0  0
   16.9366    9.0636  -23.5295 H   0  0  0  0  0
   19.6666    9.8962  -23.5730 H   0  0  0  0  0
   18.7524   10.8981  -22.3580 H   0  0  0  0  0
   18.9707   11.6499  -24.8219 H   0  0  0  0  0
   17.3523   11.7480  -23.9324 H   0  0  0  0  0
   17.1359   11.1050  -26.2493 H   0  0  0  0  0
   16.6451    9.7813  -25.0749 H   0  0  0  0  0
   19.4017    9.6575  -26.0984 H   0  0  0  0  0
   18.1337    9.3969  -27.3153 H   0  0  0  0  0
   18.2180    7.2458  -26.5050 H   0  0  0  0  0
   17.1170    7.9140  -25.2764 H   0  0  0  0  0
   19.9126    8.4475  -24.6353 H   0  0  0  0  0
   21.6796    4.1848  -26.6270 H   0  0  0  0  0
   20.5836    5.4653  -27.0071 H   0  0  0  0  0
   19.0631    5.4475  -23.4303 H   0  0  0  0  0
  1 14  1  0  0  0
 20  1  1  0  0  0
  2  3  2  0  0  0
  4  2  1  0  0  0
  2 17  1  0  0  0
  4  8  1  0  0  0
 14  4  1  0  0  0
  5  6  1  0  0  0
 15  5  1  0  0  0
  7  6  1  0  0  0
 16  7  1  0  0  0
  8  9  1  0  0  0
  9 10  1  0  0  0
 11 10  1  0  0  0
 12 11  1  0  0  0
 13 12  1  0  0  0
 14 13  1  0  0  0
 16 15  1  0  0  0
 16 20  1  0  0  0
 20 18  2  0  0  0
 20 19  2  0  0  0
  1 21  1  0  0  0
  4 22  1  0  0  0
  5 23  1  0  0  0
  5 24  1  0  0  0
  6 25  1  0  0  0
  6 26  1  0  0  0
  7 27  1  0  0  0
  7 28  1  0  0  0
  8 29  1  0  0  0
  8 30  1  0  0  0
  9 31  1  0  0  0
  9 32  1  0  0  0
 10 33  1  0  0  0
 10 34  1  0  0  0
 11 35  1  0  0  0
 11 36  1  0  0  0
 12 37  1  0  0  0
 12 38  1  0  0  0
 13 39  1  0  0  0
 13 40  1  0  0  0
 14 41  1  0  0  0
 15 42  1  0  0  0
 15 43  1  0  0  0
 17 44  1  0  0  0
M  END
$$$$
