1vyw_ligand
  -I-interpret- 

 38 41  0  0  0  0  0  0  0  0999 V2000
  -14.2880  203.6300  112.0780 C   0  0  0  0  0
  -15.1160  204.8880  111.8320 C   0  0  0  0  0
  -14.1370  204.3990  110.7650 C   0  0  0  0  0
  -12.8620  205.2490  110.5460 C   0  0  0  0  0
  -11.9040  205.6350  111.4730 C   0  0  0  0  0
  -10.9660  206.3880  110.7680 C   0  0  0  0  0
  -11.3450  206.4530  109.4490 N   0  0  0  0  0
  -12.4870  205.7650  109.3270 N   0  0  0  0  0
   -9.7770  207.0220  111.3320 N   0  0  0  0  0
   -9.2810  207.0700  112.5820 C   0  0  0  0  0
   -7.9730  207.8680  112.7690 C   0  0  0  0  0
   -6.8060  206.9370  113.0810 C   0  0  0  0  0
   -5.9760  206.4610  112.0280 C   0  0  0  0  0
   -4.9020  205.5870  112.3160 C   0  0  0  0  0
   -4.6480  205.1820  113.7330 C   0  0  0  0  0
   -5.4940  205.6730  114.7540 C   0  0  0  0  0
   -6.5600  206.5420  114.4320 C   0  0  0  0  0
   -3.5670  204.3020  114.0230 C   0  0  0  0  0
   -4.0550  205.0930  111.2910 C   0  0  0  0  0
   -2.9830  204.2160  111.6190 C   0  0  0  0  0
   -2.7420  203.8280  112.9670 C   0  0  0  0  0
   -9.8080  206.5270  113.5570 O   0  0  0  0  0
  -14.4406  202.6033  112.4108 H   0  0  0  0  0
  -13.6516  203.2099  112.8568 H   0  0  0  0  0
  -15.3660  205.8151  112.3478 H   0  0  0  0  0
  -16.1556  205.2082  111.9015 H   0  0  0  0  0
  -14.1998  204.1265  109.7115 H   0  0  0  0  0
  -11.8881  205.3976  112.5367 H   0  0  0  0  0
   -9.2143  207.5253  110.6462 H   0  0  0  0  0
   -8.1010  208.5600  113.6014 H   0  0  0  0  0
   -7.7554  208.4049  111.8457 H   0  0  0  0  0
   -6.1677  206.7696  111.0003 H   0  0  0  0  0
   -5.3235  205.3808  115.7902 H   0  0  0  0  0
   -7.2050  206.9171  115.2265 H   0  0  0  0  0
   -3.3729  203.9932  115.0502 H   0  0  0  0  0
   -4.2247  205.3844  110.2545 H   0  0  0  0  0
   -2.3377  203.8363  110.8269 H   0  0  0  0  0
   -1.9127  203.1576  113.1929 H   0  0  0  0  0
  1  2  1  0  0  0
  1  3  1  0  0  0
  2  3  1  0  0  0
  3  4  1  0  0  0
  4  5  4  0  0  0
  4  8  4  0  0  0
  5  6  4  0  0  0
  6  7  4  0  0  0
  6  9  1  0  0  0
  7  8  4  0  0  0
  9 10  1  0  0  0
 10 11  1  0  0  0
 10 22  2  0  0  0
 11 12  1  0  0  0
 12 13  4  0  0  0
 12 17  4  0  0  0
 13 14  4  0  0  0
 14 15  4  0  0  0
 14 19  4  0  0  0
 15 16  4  0  0  0
 15 18  4  0  0  0
 16 17  4  0  0  0
 18 21  4  0  0  0
 19 20  4  0  0  0
 20 21  4  0  0  0
  1 23  1  0  0  0
  1 24  1  0  0  0
  2 25  1  0  0  0
  2 26  1  0  0  0
  3 27  1  0  0  0
  5 28  1  0  0  0
  9 29  1  0  0  0
 11 30  1  0  0  0
 11 31  1  0  0  0
 13 32  1  0  0  0
 16 33  1  0  0  0
 17 34  1  0  0  0
 18 35  1  0  0  0
 19 36  1  0  0  0
 20 37  1  0  0  0
 21 38  1  0  0  0
M  END
$$$$
