### 
### Created by X-TOOL on Mon Sep 10 21:13:11 2018
### 

@<TRIPOS>MOLECULE
4eqf_ligand
  101   100     1     0     0
SMALL
GAST_HUCK


@<TRIPOS>ATOM
      1 N         -40.2050   10.2180    1.0700 N.4       1 ARG         0.2379
      2 CA        -40.3310   11.0320   -0.1370 C.3       1 ARG         0.0651
      3 C         -39.2900   12.1660   -0.1560 C.2       1 ARG         0.2267
      4 O         -39.0790   12.8200   -1.1810 O.2       1 ARG        -0.3907
      5 CB        -41.7640   11.5710   -0.2720 C.3       1 ARG         0.0110
      6 CG        -42.0210   12.3640   -1.5370 C.3       1 ARG        -0.0125
      7 CD        -41.6140   11.5810   -2.7760 C.3       1 ARG         0.0629
      8 NE        -41.1050   12.4550   -3.8320 N.pl3     1 ARG        -0.2723
      9 CZ        -39.8180   12.7440   -4.0180 C.cat     1 ARG         0.2882
     10 NH1       -38.8880   12.2310   -3.2230 N.pl3     1 ARG        -0.2849
     11 NH2       -39.4570   13.5460   -5.0080 N.pl3     1 ARG        -0.2849
     12 N         -38.6320   12.3740    0.9830 N.am      1 LEU        -0.2610
     13 CA        -37.6550   13.4520    1.1490 C.3       1 LEU         0.1313
     14 C         -36.2060   12.9660    1.1430 C.2       1 LEU         0.2040
     15 O         -35.9360   11.7900    0.8880 O.2       1 LEU        -0.3944
     16 CB        -37.9430   14.2280    2.4310 C.3       1 LEU        -0.0101
     17 CG        -39.2590   15.0100    2.4310 C.3       1 LEU        -0.0425
     18 CD1       -39.9930   14.8240    3.7480 C.3       1 LEU        -0.0625
     19 CD2       -39.0180   16.4900    2.1310 C.3       1 LEU        -0.0625
     20 N         -35.2800   13.8870    1.4030 N.am      1 SER        -0.2616
     21 CA        -33.8440   13.5990    1.3760 C.3       1 SER         0.1539
     22 C         -33.1290   14.3600    2.4910 C.2       1 SER         0.2062
     23 O         -33.3580   15.5500    2.6740 O.2       1 SER        -0.3943
     24 CB        -33.2660   13.9810    0.0100 C.3       1 SER         0.0843
     25 OG        -31.8770   14.2230    0.0790 O.3       1 SER        -0.3903
     26 N         -32.2640   13.6870    3.2370 N.am      1 SER        -0.2615
     27 CA        -31.5790   14.3400    4.3520 C.3       1 SER         0.1539
     28 C         -30.1910   14.8670    3.9500 C.2       1 SER         0.2063
     29 O         -29.5420   14.2920    3.0740 O.2       1 SER        -0.3943
     30 CB        -31.5190   13.4170    5.5760 C.3       1 SER         0.0843
     31 OG        -32.8040   13.2440    6.1590 O.3       1 SER        -0.3903
     32 N         -29.7670   15.9830    4.5520 N.am      1 ASN        -0.2615
     33 CA        -28.4910   16.6370    4.2010 C.3       1 ASN         0.1475
     34 C         -27.2880   16.2600    5.0800 C.2       1 ASN         0.2057
     35 O         -27.3700   16.2710    6.3080 O.2       1 ASN        -0.3942
     36 CB        -28.6360   18.1610    4.2130 C.3       1 ASN         0.0773
     37 CG        -29.4450   18.6950    3.0480 C.2       1 ASN         0.1780
     38 OD1       -29.2510   18.2970    1.8990 O.2       1 ASN        -0.3970
     39 ND2       -30.3470   19.6220    3.3420 N.am      1 ASN        -0.3007
     40 N         -26.1560   15.9710    4.4440 N.am      1 LEU        -0.2693
     41 CA        -24.9680   15.5100    5.1630 C.3       1 LEU         0.0946
     42 C         -24.0030   16.6420    5.4990 C.2       1 LEU         0.0601
     43 O         -23.7250   17.5070    4.6710 O.co2     1 LEU        -0.5666
     44 CB        -24.2410   14.4200    4.3550 C.3       1 LEU        -0.0156
     45 CG        -24.6450   12.9340    4.4750 C.3       1 LEU        -0.0431
     46 CD1       -26.1290   12.7350    4.2540 C.3       1 LEU        -0.0625
     47 CD2       -23.8540   12.0910    3.4950 C.3       1 LEU        -0.0625
     48 OXT       -23.4710   16.7120    6.6100 O.co2     1 LEU        -0.5666
     49 H         -39.2497    9.8685    1.1447 H         1 ARG         0.2015
     50 H         -40.4249   10.7875    1.8872 H         1 ARG         0.2015
     51 H         -40.8528    9.4319    1.0176 H         1 ARG         0.2015
     52 H         -40.1285   10.4002   -1.0018 H         1 ARG         0.1098
     53 H         -41.9309   12.2464    0.5671 H         1 ARG         0.0347
     54 H         -42.4285   10.7073   -0.2967 H         1 ARG         0.0347
     55 H         -41.4310   13.2796   -1.4971 H         1 ARG         0.0302
     56 H         -43.0876   12.5800   -1.5992 H         1 ARG         0.0302
     57 H         -42.4941   11.0627   -3.1566 H         1 ARG         0.0689
     58 H         -40.8217   10.8868   -2.4961 H         1 ARG         0.0689
     59 H         -41.7823   12.8723   -4.4704 H         1 ARG         0.2642
     60 H         -39.1556   11.6087   -2.4604 H         1 ARG         0.2615
     61 H         -37.9054   12.4589   -3.3743 H         1 ARG         0.2615
     62 H         -40.1642   13.9419   -5.6273 H         1 ARG         0.2615
     63 H         -38.4718   13.7679   -5.1512 H         1 ARG         0.2615
     64 H         -38.8164   11.7561    1.7733 H         1 LEU         0.1884
     65 H         -37.7653   14.1054    0.2835 H         1 LEU         0.0800
     66 H         -37.1422   14.9589    2.5434 H         1 LEU         0.0315
     67 H         -38.0124   13.4945    3.2343 H         1 LEU         0.0315
     68 H         -39.8915   14.6138    1.6366 H         1 LEU         0.0298
     69 H         -40.2107   13.7661    3.8949 H         1 LEU         0.0232
     70 H         -39.3679   15.1845    4.5649 H         1 LEU         0.0232
     71 H         -40.9252   15.3884    3.7258 H         1 LEU         0.0232
     72 H         -38.3607   16.9113    2.8917 H         1 LEU         0.0232
     73 H         -38.5519   16.5895    1.1507 H         1 LEU         0.0232
     74 H         -39.9702   17.0205    2.1375 H         1 LEU         0.0232
     75 H         -35.5837   14.8337    1.6308 H         1 SER         0.1884
     76 H         -33.6916   12.5320    1.5382 H         1 SER         0.0823
     77 H         -33.7570   14.8939   -0.3271 H         1 SER         0.0606
     78 H         -33.4362   13.1531   -0.6782 H         1 SER         0.0606
     79 H         -31.5507   14.4589   -0.7925 H         1 SER         0.2097
     80 H         -32.0747   12.7060    3.0317 H         1 SER         0.1884
     81 H         -32.1657   15.2149    4.6322 H         1 SER         0.0823
     82 H         -30.8603   13.8685    6.3179 H         1 SER         0.0606
     83 H         -31.1498   12.4424    5.2567 H         1 SER         0.0606
     84 H         -32.7333   12.6633    6.9201 H         1 SER         0.2097
     85 H         -30.3470   16.3981    5.2812 H         1 ASN         0.1885
     86 H         -28.2753   16.2613    3.2008 H         1 ASN         0.0826
     87 H         -27.6355   18.5878    4.1426 H         1 ASN         0.0551
     88 H         -29.1579   18.4352    5.1298 H         1 ASN         0.0551
     89 H         -30.9137   20.0352    2.6014 H         1 ASN         0.1814
     90 H         -30.4739   19.9217    4.3087 H         1 ASN         0.1814
     91 H         -26.1152   16.0733    3.4300 H         1 LEU         0.1875
     92 H         -25.3163   15.0950    6.1088 H         1 LEU         0.0726
     93 H         -23.2200   14.4468    4.7358 H         1 LEU         0.0308
     94 H         -24.4621   14.6700    3.3173 H         1 LEU         0.0308
     95 H         -24.4150   12.6137    5.4912 H         1 LEU         0.0297
     96 H         -26.6854   13.3027    4.9998 H         1 LEU         0.0232
     97 H         -26.3964   13.0834    3.2564 H         1 LEU         0.0232
     98 H         -26.3701   11.6761    4.3473 H         1 LEU         0.0232
     99 H         -24.0539   12.4331    2.4795 H         1 LEU         0.0232
    100 H         -22.7899   12.1888    3.7099 H         1 LEU         0.0232
    101 H         -24.1514   11.0470    3.5932 H         1 LEU         0.0232
@<TRIPOS>BOND
     1    1    2 1  
     2    2    3 1  
     3    2    5 1  
     4    3    4 2  
     5    3   12 am 
     6    5    6 1  
     7    6    7 1  
     8    7    8 1  
     9    8    9 ar 
    10    9   10 ar 
    11    9   11 ar 
    12   12   13 1  
    13   13   14 1  
    14   13   16 1  
    15   14   15 2  
    16   14   20 am 
    17   16   17 1  
    18   17   18 1  
    19   17   19 1  
    20   20   21 1  
    21   21   22 1  
    22   21   24 1  
    23   22   23 2  
    24   22   26 am 
    25   24   25 1  
    26   26   27 1  
    27   27   28 1  
    28   27   30 1  
    29   28   29 2  
    30   28   32 am 
    31   30   31 1  
    32   32   33 1  
    33   33   34 1  
    34   33   36 1  
    35   34   35 2  
    36   34   40 am 
    37   36   37 1  
    38   37   38 2  
    39   37   39 am 
    40   40   41 1  
    41   41   42 1  
    42   41   44 1  
    43   42   43 ar 
    44   42   48 ar 
    45   44   45 1  
    46   45   46 1  
    47   45   47 1  
    48    1   49 1  
    49    1   50 1  
    50    1   51 1  
    51    2   52 1  
    52    5   53 1  
    53    5   54 1  
    54    6   55 1  
    55    6   56 1  
    56    7   57 1  
    57    7   58 1  
    58    8   59 1  
    59   10   60 1  
    60   10   61 1  
    61   11   62 1  
    62   11   63 1  
    63   12   64 1  
    64   13   65 1  
    65   16   66 1  
    66   16   67 1  
    67   17   68 1  
    68   18   69 1  
    69   18   70 1  
    70   18   71 1  
    71   19   72 1  
    72   19   73 1  
    73   19   74 1  
    74   20   75 1  
    75   21   76 1  
    76   24   77 1  
    77   24   78 1  
    78   25   79 1  
    79   26   80 1  
    80   27   81 1  
    81   30   82 1  
    82   30   83 1  
    83   31   84 1  
    84   32   85 1  
    85   33   86 1  
    86   36   87 1  
    87   36   88 1  
    88   39   89 1  
    89   39   90 1  
    90   40   91 1  
    91   41   92 1  
    92   44   93 1  
    93   44   94 1  
    94   45   95 1  
    95   46   96 1  
    96   46   97 1  
    97   46   98 1  
    98   47   99 1  
    99   47  100 1  
   100   47  101 1  
@<TRIPOS>SUBSTRUCTURE
     1 ARG         1

