4eqf_ligand
  -I-interpret- 

101100  0  0  0  0  0  0  0  0999 V2000
  -40.2050   10.2180    1.0700 N   0  3  0  0  0
  -40.3310   11.0320   -0.1370 C   0  0  0  0  0
  -39.2900   12.1660   -0.1560 C   0  0  0  0  0
  -39.0790   12.8200   -1.1810 O   0  0  0  0  0
  -41.7640   11.5710   -0.2720 C   0  0  0  0  0
  -42.0210   12.3640   -1.5370 C   0  0  0  0  0
  -41.6140   11.5810   -2.7760 C   0  0  0  0  0
  -41.1050   12.4550   -3.8320 N   0  0  0  0  0
  -39.8180   12.7440   -4.0180 C   0  0  0  0  0
  -38.8880   12.2310   -3.2230 N   0  0  0  0  0
  -39.4570   13.5460   -5.0080 N   0  0  0  0  0
  -38.6320   12.3740    0.9830 N   0  0  0  0  0
  -37.6550   13.4520    1.1490 C   0  0  0  0  0
  -36.2060   12.9660    1.1430 C   0  0  0  0  0
  -35.9360   11.7900    0.8880 O   0  0  0  0  0
  -37.9430   14.2280    2.4310 C   0  0  0  0  0
  -39.2590   15.0100    2.4310 C   0  0  0  0  0
  -39.9930   14.8240    3.7480 C   0  0  0  0  0
  -39.0180   16.4900    2.1310 C   0  0  0  0  0
  -35.2800   13.8870    1.4030 N   0  0  0  0  0
  -33.8440   13.5990    1.3760 C   0  0  0  0  0
  -33.1290   14.3600    2.4910 C   0  0  0  0  0
  -33.3580   15.5500    2.6740 O   0  0  0  0  0
  -33.2660   13.9810    0.0100 C   0  0  0  0  0
  -31.8770   14.2230    0.0790 O   0  0  0  0  0
  -32.2640   13.6870    3.2370 N   0  0  0  0  0
  -31.5790   14.3400    4.3520 C   0  0  0  0  0
  -30.1910   14.8670    3.9500 C   0  0  0  0  0
  -29.5420   14.2920    3.0740 O   0  0  0  0  0
  -31.5190   13.4170    5.5760 C   0  0  0  0  0
  -32.8040   13.2440    6.1590 O   0  0  0  0  0
  -29.7670   15.9830    4.5520 N   0  0  0  0  0
  -28.4910   16.6370    4.2010 C   0  0  0  0  0
  -27.2880   16.2600    5.0800 C   0  0  0  0  0
  -27.3700   16.2710    6.3080 O   0  0  0  0  0
  -28.6360   18.1610    4.2130 C   0  0  0  0  0
  -29.4450   18.6950    3.0480 C   0  0  0  0  0
  -29.2510   18.2970    1.8990 O   0  0  0  0  0
  -30.3470   19.6220    3.3420 N   0  0  0  0  0
  -26.1560   15.9710    4.4440 N   0  0  0  0  0
  -24.9680   15.5100    5.1630 C   0  0  0  0  0
  -24.0030   16.6420    5.4990 C   0  0  0  0  0
  -23.7250   17.5070    4.6710 O   0  0  0  0  0
  -24.2410   14.4200    4.3550 C   0  0  0  0  0
  -24.6450   12.9340    4.4750 C   0  0  0  0  0
  -26.1290   12.7350    4.2540 C   0  0  0  0  0
  -23.8540   12.0910    3.4950 C   0  0  0  0  0
  -23.4710   16.7120    6.6100 O   0  0  0  0  0
  -39.2497    9.8685    1.1447 H   0  0  0  0  0
  -40.4249   10.7875    1.8872 H   0  0  0  0  0
  -40.8528    9.4319    1.0176 H   0  0  0  0  0
  -40.1285   10.4002   -1.0018 H   0  0  0  0  0
  -41.9309   12.2464    0.5671 H   0  0  0  0  0
  -42.4285   10.7073   -0.2967 H   0  0  0  0  0
  -41.4310   13.2796   -1.4971 H   0  0  0  0  0
  -43.0876   12.5800   -1.5992 H   0  0  0  0  0
  -42.4941   11.0627   -3.1566 H   0  0  0  0  0
  -40.8217   10.8868   -2.4961 H   0  0  0  0  0
  -41.7823   12.8723   -4.4704 H   0  0  0  0  0
  -37.9050   12.4554   -3.3771 H   0  0  0  0  0
  -39.1560   11.6122   -2.4577 H   0  0  0  0  0
  -40.1642   13.9419   -5.6273 H   0  0  0  0  0
  -38.8164   11.7561    1.7733 H   0  0  0  0  0
  -37.7653   14.1054    0.2835 H   0  0  0  0  0
  -37.1422   14.9589    2.5434 H   0  0  0  0  0
  -38.0124   13.4945    3.2343 H   0  0  0  0  0
  -39.8915   14.6138    1.6366 H   0  0  0  0  0
  -40.2107   13.7661    3.8949 H   0  0  0  0  0
  -39.3679   15.1845    4.5649 H   0  0  0  0  0
  -40.9252   15.3884    3.7258 H   0  0  0  0  0
  -38.3607   16.9113    2.8917 H   0  0  0  0  0
  -38.5519   16.5895    1.1507 H   0  0  0  0  0
  -39.9702   17.0205    2.1375 H   0  0  0  0  0
  -35.5837   14.8337    1.6308 H   0  0  0  0  0
  -33.6916   12.5320    1.5382 H   0  0  0  0  0
  -33.7570   14.8939   -0.3271 H   0  0  0  0  0
  -33.4362   13.1531   -0.6782 H   0  0  0  0  0
  -31.5507   14.4589   -0.7925 H   0  0  0  0  0
  -32.0747   12.7060    3.0317 H   0  0  0  0  0
  -32.1657   15.2149    4.6322 H   0  0  0  0  0
  -30.8603   13.8685    6.3179 H   0  0  0  0  0
  -31.1498   12.4424    5.2567 H   0  0  0  0  0
  -32.7333   12.6633    6.9201 H   0  0  0  0  0
  -30.3470   16.3981    5.2812 H   0  0  0  0  0
  -28.2753   16.2613    3.2008 H   0  0  0  0  0
  -27.6355   18.5878    4.1426 H   0  0  0  0  0
  -29.1579   18.4352    5.1298 H   0  0  0  0  0
  -30.9137   20.0352    2.6014 H   0  0  0  0  0
  -30.4739   19.9217    4.3087 H   0  0  0  0  0
  -26.1152   16.0733    3.4300 H   0  0  0  0  0
  -25.3163   15.0950    6.1088 H   0  0  0  0  0
  -23.2200   14.4468    4.7358 H   0  0  0  0  0
  -24.4621   14.6700    3.3173 H   0  0  0  0  0
  -24.4150   12.6137    5.4912 H   0  0  0  0  0
  -26.6854   13.3027    4.9998 H   0  0  0  0  0
  -26.3964   13.0834    3.2564 H   0  0  0  0  0
  -26.3701   11.6761    4.3473 H   0  0  0  0  0
  -24.0539   12.4331    2.4795 H   0  0  0  0  0
  -22.7899   12.1888    3.7099 H   0  0  0  0  0
  -24.1514   11.0470    3.5932 H   0  0  0  0  0
  -23.7728   15.9813    7.1547 H   0  0  0  0  0
  1  2  1  0  0  0
  2  3  1  0  0  0
  2  5  1  0  0  0
  3  4  2  0  0  0
  3 12  1  0  0  0
  5  6  1  0  0  0
  6  7  1  0  0  0
  7  8  1  0  0  0
  8  9  1  0  0  0
  9 10  1  0  0  0
  9 11  2  0  0  0
 12 13  1  0  0  0
 13 14  1  0  0  0
 13 16  1  0  0  0
 14 15  2  0  0  0
 14 20  1  0  0  0
 16 17  1  0  0  0
 17 18  1  0  0  0
 17 19  1  0  0  0
 20 21  1  0  0  0
 21 22  1  0  0  0
 21 24  1  0  0  0
 22 23  2  0  0  0
 22 26  1  0  0  0
 24 25  1  0  0  0
 26 27  1  0  0  0
 27 28  1  0  0  0
 27 30  1  0  0  0
 28 29  2  0  0  0
 28 32  1  0  0  0
 30 31  1  0  0  0
 32 33  1  0  0  0
 33 34  1  0  0  0
 33 36  1  0  0  0
 34 35  2  0  0  0
 34 40  1  0  0  0
 36 37  1  0  0  0
 37 38  2  0  0  0
 37 39  1  0  0  0
 40 41  1  0  0  0
 41 42  1  0  0  0
 41 44  1  0  0  0
 42 43  2  0  0  0
 42 48  1  0  0  0
 44 45  1  0  0  0
 45 46  1  0  0  0
 45 47  1  0  0  0
  1 49  1  0  0  0
  1 50  1  0  0  0
  1 51  1  0  0  0
  2 52  1  0  0  0
  5 53  1  0  0  0
  5 54  1  0  0  0
  6 55  1  0  0  0
  6 56  1  0  0  0
  7 57  1  0  0  0
  7 58  1  0  0  0
  8 59  1  0  0  0
 10 60  1  0  0  0
 10 61  1  0  0  0
 11 62  1  0  0  0
 12 63  1  0  0  0
 13 64  1  0  0  0
 16 65  1  0  0  0
 16 66  1  0  0  0
 17 67  1  0  0  0
 18 68  1  0  0  0
 18 69  1  0  0  0
 18 70  1  0  0  0
 19 71  1  0  0  0
 19 72  1  0  0  0
 19 73  1  0  0  0
 20 74  1  0  0  0
 21 75  1  0  0  0
 24 76  1  0  0  0
 24 77  1  0  0  0
 25 78  1  0  0  0
 26 79  1  0  0  0
 27 80  1  0  0  0
 30 81  1  0  0  0
 30 82  1  0  0  0
 31 83  1  0  0  0
 32 84  1  0  0  0
 33 85  1  0  0  0
 36 86  1  0  0  0
 36 87  1  0  0  0
 39 88  1  0  0  0
 39 89  1  0  0  0
 40 90  1  0  0  0
 41 91  1  0  0  0
 44 92  1  0  0  0
 44 93  1  0  0  0
 45 94  1  0  0  0
 46 95  1  0  0  0
 46 96  1  0  0  0
 46 97  1  0  0  0
 47 98  1  0  0  0
 47 99  1  0  0  0
 47100  1  0  0  0
 48101  1  0  0  0
M  END
$$$$
