3oe8_ligand
  -I-interpret- 

 62 65  0  0  0  0  0  0  0  0999 V2000
  -28.4030   -0.0800   23.0350 C   0  0  0  0  0
  -30.6410    0.8180   22.7810 N   0  0  0  0  0
  -32.9030    0.5340   21.1600 S   0  0  0  0  0
  -29.2290    1.1000   22.5450 C   0  0  0  0  0
  -30.4550    1.0100   20.6090 N   0  3  0  0  0
  -30.2720    2.9830   17.9270 S   0  0  0  0  0
  -28.8590    2.3960   23.2650 C   0  0  0  0  0
  -32.5320    2.8220   16.7830 N   0  0  0  0  0
  -31.2680    0.7780   21.6010 C   0  0  0  0  0
  -32.1350    4.8330   17.9800 N   0  0  0  0  0
  -32.4700    0.7230   19.4860 C   0  0  0  0  0
  -29.0790    1.2410   21.0200 C   0  0  0  0  0
  -31.0810    0.9710   19.4040 C   0  0  0  0  0
  -30.3680    1.2330   18.1040 C   0  0  0  0  0
  -31.7730    3.6090   17.5580 C   0  0  0  0  0
  -33.8540    3.0080   16.2050 C   0  0  0  0  0
  -33.8180    3.7500   14.8760 C   0  0  0  0  0
  -35.1480    3.5720   14.1490 C   0  0  0  0  0
  -36.3100    4.0640   15.0090 C   0  0  0  0  0
  -36.3300    3.3800   16.3760 C   0  0  0  0  0
  -34.9860    3.4890   17.1060 C   0  0  0  0  0
  -32.2160    5.3240   19.3630 C   0  0  0  0  0
  -31.2600    4.6830   20.3710 C   0  0  0  0  0
  -31.4810    5.2140   21.7900 C   0  0  0  0  0
  -31.3770    6.7380   21.8770 C   0  0  0  0  0
  -32.2450    7.4090   20.8120 C   0  0  0  0  0
  -32.0100    6.8380   19.4110 C   0  0  0  0  0
  -27.3462    0.1191   22.8572 H   0  0  0  0  0
  -28.5727   -0.2224   24.1023 H   0  0  0  0  0
  -28.7004   -0.9791   22.4954 H   0  0  0  0  0
  -31.0762    0.6755   23.6924 H   0  0  0  0  0
  -27.8232    2.6515   23.0413 H   0  0  0  0  0
  -29.5139    3.1984   22.9256 H   0  0  0  0  0
  -28.9768    2.2593   24.3400 H   0  0  0  0  0
  -32.3837    5.5025   17.2517 H   0  0  0  0  0
  -33.1557    0.6606   18.6410 H   0  0  0  0  0
  -28.3549    0.5594   20.5735 H   0  0  0  0  0
  -28.6657    2.1955   20.6943 H   0  0  0  0  0
  -29.3735    0.7869   18.1085 H   0  0  0  0  0
  -30.9058    0.7859   17.2679 H   0  0  0  0  0
  -34.1453    1.9727   16.0280 H   0  0  0  0  0
  -33.0137    3.3477   14.2601 H   0  0  0  0  0
  -33.6466    4.8106   15.0597 H   0  0  0  0  0
  -35.2926    2.5125   13.9377 H   0  0  0  0  0
  -35.1238    4.1532   13.2272 H   0  0  0  0  0
  -37.2418    3.8302   14.4940 H   0  0  0  0  0
  -36.1934    5.1367   15.1631 H   0  0  0  0  0
  -36.5436    2.3226   16.2201 H   0  0  0  0  0
  -37.0861    3.8723   16.9876 H   0  0  0  0  0
  -34.8097    4.5309   17.3734 H   0  0  0  0  0
  -35.0161    2.8685   18.0016 H   0  0  0  0  0
  -33.2196    5.0316   19.6718 H   0  0  0  0  0
  -30.2395    4.9230   20.0727 H   0  0  0  0  0
  -31.4421    3.6083   20.3773 H   0  0  0  0  0
  -30.7064    4.7900   22.4290 H   0  0  0  0  0
  -32.4870    4.9303   22.0992 H   0  0  0  0  0
  -30.3387    7.0272   21.7146 H   0  0  0  0  0
  -31.7224    7.0562   22.8606 H   0  0  0  0  0
  -31.9872    8.4678   20.7890 H   0  0  0  0  0
  -33.2889    7.2350   21.0732 H   0  0  0  0  0
  -32.7267    7.2997   18.7318 H   0  0  0  0  0
  -30.9791    7.0493   19.1270 H   0  0  0  0  0
  4  1  1  0  0  0
  4  2  1  0  0  0
  9  2  1  0  0  0
  3  9  4  0  0  0
 11  3  4  0  0  0
  4  7  1  0  0  0
 12  4  1  0  0  0
  5  9  4  0  0  0
  5 12  1  0  0  0
 13  5  4  0  0  0
 14  6  1  0  0  0
  6 15  1  0  0  0
 15  8  2  0  0  0
  8 16  1  0  0  0
 15 10  1  0  0  0
 10 22  1  0  0  0
 13 11  4  0  0  0
 13 14  1  0  0  0
 16 17  1  0  0  0
 16 21  1  0  0  0
 17 18  1  0  0  0
 18 19  1  0  0  0
 19 20  1  0  0  0
 20 21  1  0  0  0
 22 23  1  0  0  0
 22 27  1  0  0  0
 23 24  1  0  0  0
 24 25  1  0  0  0
 25 26  1  0  0  0
 26 27  1  0  0  0
  1 28  1  0  0  0
  1 29  1  0  0  0
  1 30  1  0  0  0
  2 31  1  0  0  0
  7 32  1  0  0  0
  7 33  1  0  0  0
  7 34  1  0  0  0
 10 35  1  0  0  0
 11 36  1  0  0  0
 12 37  1  0  0  0
 12 38  1  0  0  0
 14 39  1  0  0  0
 14 40  1  0  0  0
 16 41  1  0  0  0
 17 42  1  0  0  0
 17 43  1  0  0  0
 18 44  1  0  0  0
 18 45  1  0  0  0
 19 46  1  0  0  0
 19 47  1  0  0  0
 20 48  1  0  0  0
 20 49  1  0  0  0
 21 50  1  0  0  0
 21 51  1  0  0  0
 22 52  1  0  0  0
 23 53  1  0  0  0
 23 54  1  0  0  0
 24 55  1  0  0  0
 24 56  1  0  0  0
 25 57  1  0  0  0
 25 58  1  0  0  0
 26 59  1  0  0  0
 26 60  1  0  0  0
 27 61  1  0  0  0
 27 62  1  0  0  0
M  END
$$$$
