1qbv_ligand
  -I-interpret- 

 56 58  0  0  0  0  0  0  0  0999 V2000
   19.5743  -15.5686   25.3538 C   0  0  0  0  0
   16.5750  -16.9570   23.5180 N   0  3  0  0  0
   17.8510  -16.1860   23.6670 C   0  0  0  0  0
   18.1370  -15.9710   25.1610 C   0  0  0  0  0
   19.9340  -14.3910   25.9840 C   0  0  0  0  0
   20.5860  -16.4500   24.9930 C   0  0  0  0  0
   21.2600  -13.9890   26.0220 C   0  0  0  0  0
   21.9240  -16.0560   25.0270 C   0  0  0  0  0
   22.2510  -14.8020   25.5410 C   0  0  0  0  0
   17.6040  -14.8370   22.9630 C   0  0  0  0  0
   16.5700  -14.2150   23.1900 O   0  0  0  0  0
   18.5200  -14.4270   22.0640 N   0  0  0  0  0
   19.5980  -15.2610   21.4760 C   0  0  0  0  0
   18.3790  -13.1430   21.3490 C   0  0  0  0  0
   19.5820  -13.1550   20.3720 C   0  0  0  0  0
   20.5100  -14.2340   20.9120 C   0  0  0  0  0
   17.0600  -13.0640   20.5960 C   0  0  0  0  0
   16.7200  -13.9660   19.8340 O   0  0  0  0  0
   16.3020  -11.9960   20.8110 N   0  0  0  0  0
   14.9960  -11.7850   20.1770 C   0  0  0  0  0
   14.0530  -11.0400   21.0760 C   0  0  0  0  0
   13.1720  -11.9830   21.6650 N   0  0  0  0  0
   12.3720  -11.6560   22.6740 C   0  0  0  0  0
   11.4520  -12.6130   23.0630 C   0  0  0  0  0
   10.6030  -12.3620   24.1440 C   0  0  0  0  0
   10.6820  -11.2130   24.8140 N   0  0  0  0  0
   11.5670  -10.2590   24.4560 C   0  0  0  0  0
   12.4380  -10.4570   23.3840 C   0  0  0  0  0
   16.6748  -17.8674   23.9671 H   0  0  0  0  0
   15.8137  -16.4407   23.9588 H   0  0  0  0  0
   16.3708  -17.0860   22.5270 H   0  0  0  0  0
   18.7070  -16.7048   23.2354 H   0  0  0  0  0
   17.4883  -15.1821   25.5416 H   0  0  0  0  0
   17.9476  -16.8988   25.7008 H   0  0  0  0  0
   19.1684  -13.7741   26.4546 H   0  0  0  0  0
   20.3311  -17.4623   24.6794 H   0  0  0  0  0
   21.5165  -13.0152   26.4393 H   0  0  0  0  0
   22.7043  -16.7206   24.6561 H   0  0  0  0  0
   23.2893  -14.4709   25.5598 H   0  0  0  0  0
   19.2369  -15.9724   20.7332 H   0  0  0  0  0
   20.0811  -15.9160   22.2010 H   0  0  0  0  0
   18.3744  -12.2822   22.0177 H   0  0  0  0  0
   19.2713  -13.3620   19.3479 H   0  0  0  0  0
   20.0743  -12.1838   20.3222 H   0  0  0  0  0
   21.1558  -14.6435   20.1352 H   0  0  0  0  0
   21.1983  -13.8432   21.6614 H   0  0  0  0  0
   16.6467  -11.2821   21.4528 H   0  0  0  0  0
   14.5608  -12.7598   19.9569 H   0  0  0  0  0
   15.1457  -11.1945   19.2731 H   0  0  0  0  0
   13.4888  -10.3041   20.5031 H   0  0  0  0  0
   14.6093  -10.5102   21.8493 H   0  0  0  0  0
   13.1522  -12.9369   21.3045 H   0  0  0  0  0
   11.3895  -13.5604   22.5276 H   0  0  0  0  0
    9.8703  -13.1121   24.4415 H   0  0  0  0  0
   11.6018   -9.3218   25.0114 H   0  0  0  0  0
   13.1581   -9.6875   23.1059 H   0  0  0  0  0
  1  6  4  0  0  0
  1  5  4  0  0  0
  4  1  1  0  0  0
  3  2  1  0  0  0
  3 10  1  0  0  0
  3  4  1  0  0  0
  5  7  4  0  0  0
  7  9  4  0  0  0
  9  8  4  0  0  0
  6  8  4  0  0  0
 10 12  1  0  0  0
 10 11  2  0  0  0
 12 14  1  0  0  0
 12 13  1  0  0  0
 13 16  1  0  0  0
 16 15  1  0  0  0
 14 15  1  0  0  0
 14 17  1  0  0  0
 17 19  1  0  0  0
 17 18  2  0  0  0
 19 20  1  0  0  0
 20 21  1  0  0  0
 21 22  1  0  0  0
 22 23  1  0  0  0
 23 28  4  0  0  0
 23 24  4  0  0  0
 24 25  4  0  0  0
 25 26  4  0  0  0
 26 27  4  0  0  0
 28 27  4  0  0  0
  2 29  1  0  0  0
  2 30  1  0  0  0
  2 31  1  0  0  0
  3 32  1  0  0  0
  4 33  1  0  0  0
  4 34  1  0  0  0
  5 35  1  0  0  0
  6 36  1  0  0  0
  7 37  1  0  0  0
  8 38  1  0  0  0
  9 39  1  0  0  0
 13 40  1  0  0  0
 13 41  1  0  0  0
 14 42  1  0  0  0
 15 43  1  0  0  0
 15 44  1  0  0  0
 16 45  1  0  0  0
 16 46  1  0  0  0
 19 47  1  0  0  0
 20 48  1  0  0  0
 20 49  1  0  0  0
 21 50  1  0  0  0
 21 51  1  0  0  0
 22 52  1  0  0  0
 24 53  1  0  0  0
 25 54  1  0  0  0
 27 55  1  0  0  0
 28 56  1  0  0  0
M  END
$$$$
