2etr_ligand
  -I-interpret- 

 40 41  0  0  0  0  0  0  0  0999 V2000
   50.2210  102.2230   28.6230 O   0  0  0  0  0
   51.0510  101.4790   29.1290 C   0  0  0  0  0
   51.8760  101.9220   30.3110 C   0  0  0  0  0
   52.8670  103.0170   29.9120 C   0  0  0  0  0
   53.7390  103.4220   31.1040 C   0  0  0  0  0
   52.9100  103.8740   32.3170 C   0  0  0  0  0
   51.8370  102.8340   32.6670 C   0  0  0  0  0
   50.9950  102.4390   31.4520 C   0  0  0  0  0
   53.7690  104.2330   33.5400 C   0  0  0  0  0
   54.6740  103.0980   34.0250 C   0  0  0  0  0
   54.5870  105.3960   33.2510 N   0  3  0  0  0
   51.3120  100.2310   28.7210 N   0  0  0  0  0
   50.9190   99.6340   27.5640 C   0  0  0  0  0
   50.4320  100.3340   26.4560 C   0  0  0  0  0
   50.0570   99.6300   25.3100 C   0  0  0  0  0
   50.1660   98.2910   25.2620 N   0  0  0  0  0
   50.6360   97.5930   26.3080 C   0  0  0  0  0
   51.0210   98.2460   27.4780 C   0  0  0  0  0
   52.4237  101.0453   30.6568 H   0  0  0  0  0
   52.3088  103.8895   29.5724 H   0  0  0  0  0
   53.5107  102.6365   29.1189 H   0  0  0  0  0
   54.3631  104.2600   30.7934 H   0  0  0  0  0
   54.3234  102.5518   31.4028 H   0  0  0  0  0
   52.4108  104.7974   32.0235 H   0  0  0  0  0
   51.1722  103.2709   33.4122 H   0  0  0  0  0
   52.3395  101.9399   33.0359 H   0  0  0  0  0
   50.3085  101.6458   31.7479 H   0  0  0  0  0
   50.4547  103.3188   31.1027 H   0  0  0  0  0
   53.0621  104.4388   34.3438 H   0  0  0  0  0
   55.3986  102.8554   33.2477 H   0  0  0  0  0
   55.1986  103.4134   34.9269 H   0  0  0  0  0
   54.0671  102.2196   34.2446 H   0  0  0  0  0
   53.9908  106.1575   32.9269 H   0  0  0  0  0
   55.0780  105.6837   34.0975 H   0  0  0  0  0
   55.2652  105.1615   32.5261 H   0  0  0  0  0
   51.8725   99.6597   29.3533 H   0  0  0  0  0
   50.3458  101.4202   26.4866 H   0  0  0  0  0
   49.6721  100.1714   24.4458 H   0  0  0  0  0
   50.7172   96.5080   26.2420 H   0  0  0  0  0
   51.4009   97.6728   28.3237 H   0  0  0  0  0
  1  2  2  0  0  0
  2  3  1  0  0  0
  2 12  1  0  0  0
  3  4  1  0  0  0
  3  8  1  0  0  0
  4  5  1  0  0  0
  5  6  1  0  0  0
  6  7  1  0  0  0
  6  9  1  0  0  0
  7  8  1  0  0  0
  9 10  1  0  0  0
  9 11  1  0  0  0
 12 13  1  0  0  0
 13 14  4  0  0  0
 13 18  4  0  0  0
 14 15  4  0  0  0
 15 16  4  0  0  0
 16 17  4  0  0  0
 17 18  4  0  0  0
  3 19  1  0  0  0
  4 20  1  0  0  0
  4 21  1  0  0  0
  5 22  1  0  0  0
  5 23  1  0  0  0
  6 24  1  0  0  0
  7 25  1  0  0  0
  7 26  1  0  0  0
  8 27  1  0  0  0
  8 28  1  0  0  0
  9 29  1  0  0  0
 10 30  1  0  0  0
 10 31  1  0  0  0
 10 32  1  0  0  0
 11 33  1  0  0  0
 11 34  1  0  0  0
 11 35  1  0  0  0
 12 36  1  0  0  0
 14 37  1  0  0  0
 15 38  1  0  0  0
 17 39  1  0  0  0
 18 40  1  0  0  0
M  END
$$$$
