1o2n_ligand
  -I-interpret- 

 40 43  0  0  0  0  0  0  0  0999 V2000
   44.0050   -3.0860   25.8460 C   0  0  0  0  0
   43.9260   -1.6580   25.7880 C   0  0  0  0  0
   43.8690   -0.6970   24.2750 Cl  0  0  0  0  0
   43.8260   -0.9270   26.9940 C   0  0  0  0  0
   43.8060   -1.6100   28.2000 C   0  0  0  0  0
   43.8730   -2.9430   28.2680 C   0  0  0  0  0
   43.9770   -3.7180   27.1020 C   0  0  0  0  0
   44.1440   -3.8730   24.6740 C   0  0  0  0  0
   43.7440   -5.1240   24.5990 N   0  0  0  0  0
   44.7180   -3.2880   23.6550 N   0  0  0  0  0
   43.7060   -1.2310   29.4370 N   0  0  0  0  0
   43.8160   -3.4090   29.5060 N   0  0  0  0  0
   43.7390   -2.2910   30.2130 C   0  0  0  0  0
   43.5740   -2.2280   31.6150 C   0  0  0  0  0
   43.2160   -3.3600   32.3690 C   0  0  0  0  0
   43.0430   -3.2690   33.7540 C   0  0  0  0  0
   43.2110   -2.0590   34.3970 C   0  0  0  0  0
   43.5800   -0.9280   33.6700 C   0  0  0  0  0
   43.7540   -1.0110   32.2820 C   0  0  0  0  0
   44.0890    0.1190   31.5480 O   0  0  0  0  0
   43.7660    0.2810   34.3380 C   0  0  0  0  0
   44.7950    0.3870   35.2740 C   0  0  0  0  0
   44.9900    1.5860   35.9620 C   0  0  0  0  0
   44.1760    2.6770   35.7120 C   0  0  0  0  0
   43.1740    2.5780   34.7750 C   0  0  0  0  0
   42.9590    1.3830   34.0900 C   0  0  0  0  0
   43.7653    0.1612   26.9757 H   0  0  0  0  0
   44.0358   -4.8043   27.1699 H   0  0  0  0  0
   43.8800   -5.6521   23.7370 H   0  0  0  0  0
   43.2979   -5.5659   25.4028 H   0  0  0  0  0
   44.8613   -3.8024   22.7859 H   0  0  0  0  0
   43.0719   -4.3178   31.8690 H   0  0  0  0  0
   42.7747   -4.1563   34.3274 H   0  0  0  0  0
   43.0551   -1.9878   35.4734 H   0  0  0  0  0
   44.1775    0.8693   32.1403 H   0  0  0  0  0
   45.4460   -0.4654   35.4680 H   0  0  0  0  0
   45.7880    1.6633   36.7004 H   0  0  0  0  0
   44.3282    3.6099   36.2548 H   0  0  0  0  0
   42.5425    3.4415   34.5662 H   0  0  0  0  0
   42.1548    1.3137   33.3575 H   0  0  0  0  0
  1  2  4  0  0  0
  1  7  4  0  0  0
  1  8  1  0  0  0
  2  3  1  0  0  0
  2  4  4  0  0  0
  4  5  4  0  0  0
  5  6  4  0  0  0
  5 11  4  0  0  0
  6  7  4  0  0  0
  6 12  4  0  0  0
  8  9  1  0  0  0
  8 10  2  0  0  0
 11 13  4  0  0  0
 12 13  4  0  0  0
 13 14  1  0  0  0
 14 15  4  0  0  0
 14 19  4  0  0  0
 15 16  4  0  0  0
 16 17  4  0  0  0
 17 18  4  0  0  0
 18 19  4  0  0  0
 18 21  1  0  0  0
 19 20  1  0  0  0
 21 22  4  0  0  0
 21 26  4  0  0  0
 22 23  4  0  0  0
 23 24  4  0  0  0
 24 25  4  0  0  0
 25 26  4  0  0  0
  4 27  1  0  0  0
  7 28  1  0  0  0
  9 29  1  0  0  0
  9 30  1  0  0  0
 10 31  1  0  0  0
 15 32  1  0  0  0
 16 33  1  0  0  0
 17 34  1  0  0  0
 20 35  1  0  0  0
 22 36  1  0  0  0
 23 37  1  0  0  0
 24 38  1  0  0  0
 25 39  1  0  0  0
 26 40  1  0  0  0
M  END
$$$$
