4vgc_ligand
  -I-interpret- 

 33 34  0  0  0  0  0  0  0  0999 V2000
   28.3640    1.8610   39.9650 C   0  0  0  0  0
   27.8350    2.9150   40.6900 C   0  0  0  0  0
   27.9210    2.9310   42.1100 C   0  0  0  0  0
   28.5480    1.8940   42.7830 C   0  0  0  0  0
   29.0860    0.8380   42.0650 C   0  0  0  0  0
   28.9910    0.8270   40.6610 C   0  0  0  0  0
   27.2310    3.9720   40.0380 C   0  0  0  0  0
   26.7110    5.0330   40.7660 C   0  0  0  0  0
   26.7910    5.0410   42.1670 C   0  0  0  0  0
   27.3910    4.0000   42.8350 C   0  0  0  0  0
   28.2450    1.8190   38.4660 C   0  0  0  0  0
   29.5250    2.2060   37.7340 C   0  0  0  0  0
   32.8750    0.4840   38.1940 C   0  0  0  0  0
   31.8400    1.5810   38.0580 C   0  0  0  0  0
   30.6120    1.2520   37.6820 N   0  0  0  0  0
   32.1550    2.7520   38.3390 O   0  0  0  0  0
   29.0090    1.3050   35.4530 O   0  0  0  0  0
   29.0740    2.5460   36.2540 B   0  0  0  0  0
   28.6174    1.9091   43.8707 H   0  0  0  0  0
   29.5812    0.0185   42.5860 H   0  0  0  0  0
   29.4168   -0.0081   40.1047 H   0  0  0  0  0
   27.1626    3.9730   38.9501 H   0  0  0  0  0
   26.2373    5.8657   40.2461 H   0  0  0  0  0
   26.3750    5.8774   42.7288 H   0  0  0  0  0
   27.4525    4.0091   43.9232 H   0  0  0  0  0
   27.4781    2.5394   38.1813 H   0  0  0  0  0
   28.0104    0.7915   38.1880 H   0  0  0  0  0
   29.9619    3.0235   38.3076 H   0  0  0  0  0
   33.7211    0.7017   37.5423 H   0  0  0  0  0
   33.2150    0.4333   39.2284 H   0  0  0  0  0
   32.4312   -0.4699   37.9089 H   0  0  0  0  0
   30.4293    0.3055   37.3487 H   0  0  0  0  0
   28.7353    1.5173   34.5577 H   0  0  0  0  0
  1  2  4  0  0  0
  1  6  4  0  0  0
 11  1  1  0  0  0
  2  3  4  0  0  0
  2  7  4  0  0  0
  3  4  4  0  0  0
  3 10  4  0  0  0
  5  4  4  0  0  0
  6  5  4  0  0  0
  7  8  4  0  0  0
  8  9  4  0  0  0
 10  9  4  0  0  0
 12 11  1  0  0  0
 15 12  1  0  0  0
 12 18  1  0  0  0
 14 13  1  0  0  0
 14 15  1  0  0  0
 14 16  2  0  0  0
 18 17  1  0  0  0
  4 19  1  0  0  0
  5 20  1  0  0  0
  6 21  1  0  0  0
  7 22  1  0  0  0
  8 23  1  0  0  0
  9 24  1  0  0  0
 10 25  1  0  0  0
 11 26  1  0  0  0
 11 27  1  0  0  0
 12 28  1  0  0  0
 13 29  1  0  0  0
 13 30  1  0  0  0
 13 31  1  0  0  0
 15 32  1  0  0  0
 17 33  1  0  0  0
M  END
$$$$
