### 
### Created by X-TOOL on Mon Sep 10 21:12:46 2018
### 

@<TRIPOS>MOLECULE
4vgc_ligand
   34    35     1     0     0
SMALL
GAST_HUCK


@<TRIPOS>ATOM
      1 C1         28.3640    1.8610   39.9650 C.ar      1 SRD        -0.0315
      2 C2         27.8350    2.9150   40.6900 C.ar      1 SRD        -0.0121
      3 C3         27.9210    2.9310   42.1100 C.ar      1 SRD        -0.0243
      4 C4         28.5480    1.8940   42.7830 C.ar      1 SRD        -0.0631
      5 C5         29.0860    0.8380   42.0650 C.ar      1 SRD        -0.0707
      6 C6         28.9910    0.8270   40.6610 C.ar      1 SRD        -0.0607
      7 C7         27.2310    3.9720   40.0380 C.ar      1 SRD        -0.0548
      8 C8         26.7110    5.0330   40.7660 C.ar      1 SRD        -0.0625
      9 C9         26.7910    5.0410   42.1670 C.ar      1 SRD        -0.0629
     10 C10        27.3910    4.0000   42.8350 C.ar      1 SRD        -0.0569
     11 C7'        28.2450    1.8190   38.4660 C.3       1 SRD        -0.0055
     12 C8'        29.5250    2.2060   37.7340 C.3       1 SRD         0.0307
     13 C9'        32.8750    0.4840   38.1940 C.3       1 SRD         0.0256
     14 C          31.8400    1.5810   38.0580 C.2       1 SRD         0.1721
     15 N          30.6120    1.2520   37.6820 N.am      1 SRD        -0.2948
     16 O          32.1550    2.7520   38.3390 O.2       1 SRD        -0.3974
     17 O1B        29.0090    1.3050   35.4530 O.3       1 SRD        -0.5230
     18 B          29.0740    2.5460   36.2540 B         1 SRD         0.4903
     19 H1         28.6171    1.9091   43.8647 H         1 SRD         0.0542
     20 H2         29.5784    0.0231   42.5831 H         1 SRD         0.0595
     21 H3         29.4145   -0.0035   40.1078 H         1 SRD         0.0530
     22 H4         27.1630    3.9730   38.9561 H         1 SRD         0.0628
     23 H5         26.2399    5.8611   40.2489 H         1 SRD         0.0601
     24 H6         26.3773    5.8728   42.7257 H         1 SRD         0.0616
     25 H7         27.4522    4.0091   43.9172 H         1 SRD         0.0609
     26 H8         27.4485    2.5142   38.1621 H         1 SRD         0.0447
     27 H9         27.9718    0.7958   38.1687 H         1 SRD         0.0447
     28 H10        29.9198    3.1128   38.2155 H         1 SRD         0.0425
     29 H11        33.8332    0.9213   38.5112 H         1 SRD         0.0467
     30 H12        33.0048   -0.0198   37.2248 H         1 SRD         0.0467
     31 H13        32.5389   -0.2462   38.9448 H         1 SRD         0.0467
     32 H14        30.4329    0.3240   37.3552 H         1 SRD         0.1840
     33 H15        28.3810    0.7093   35.8444 H         1 SRD         0.1648
     34 H16        28.8630    3.4697   35.9100 H         1 SRD        -0.0311
@<TRIPOS>BOND
     1    1    2 ar 
     2    1    6 ar 
     3   11    1 1  
     4    2    3 ar 
     5    2    7 ar 
     6    3    4 ar 
     7    3   10 ar 
     8    5    4 ar 
     9    6    5 ar 
    10    7    8 ar 
    11    8    9 ar 
    12   10    9 ar 
    13   12   11 1  
    14   15   12 1  
    15   12   18 1  
    16   14   13 1  
    17   14   15 am 
    18   14   16 2  
    19   18   17 1  
    20    4   19 1  
    21    5   20 1  
    22    6   21 1  
    23    7   22 1  
    24    8   23 1  
    25    9   24 1  
    26   10   25 1  
    27   11   26 1  
    28   11   27 1  
    29   12   28 1  
    30   13   29 1  
    31   13   30 1  
    32   13   31 1  
    33   15   32 1  
    34   17   33 1  
    35   18   34 1  
@<TRIPOS>SUBSTRUCTURE
     1 SRD         1

