4mc9_ligand
  -I-interpret- 

 72 75  0  0  0  0  0  0  0  0999 V2000
    9.4360   27.2540    8.5980 C   0  0  0  0  0
    8.4730   27.5790    7.6740 C   0  0  0  0  0
    8.1870   26.7580    6.6040 C   0  0  0  0  0
    8.8990   25.5920    6.3930 C   0  0  0  0  0
    9.8600   25.2800    7.3350 C   0  0  0  0  0
   10.1230   26.0760    8.4300 C   0  0  0  0  0
    7.8030   28.7260    7.8440 F   0  0  0  0  0
    8.5680   24.7330    5.2020 C   0  0  0  0  0
   10.7830   23.7730    7.2050 S   0  0  0  0  0
   11.5110   23.8150    5.6950 N   0  0  0  0  0
   11.8160   23.7470    8.2040 O   0  0  0  0  0
    9.8380   22.6760    7.1680 O   0  0  0  0  0
   12.7250   24.6300    5.5540 C   0  0  0  0  0
   10.6590   23.5270    4.5280 C   0  0  0  0  0
    9.6710   24.6260    4.1650 C   0  0  0  0  0
    9.1220   24.2520    2.7950 C   0  0  0  0  0
   13.8810   23.7570    5.1020 C   0  0  0  0  0
   14.3230   22.6620    6.0650 C   0  0  0  0  0
   14.9900   24.5700    4.7700 O   0  0  0  0  0
   15.1640   21.7420    5.3260 N   0  0  0  0  0
   15.0240   23.1500    7.3290 C   0  0  0  0  0
   15.3440   22.0020    8.2180 C   0  0  0  0  0
   14.3760   21.4510    9.0400 C   0  0  0  0  0
   14.6870   20.3660    9.8320 C   0  0  0  0  0
   15.9500   19.8230    9.7880 C   0  0  0  0  0
   16.9180   20.3760    8.9800 C   0  0  0  0  0
   16.6240   21.4780    8.1970 C   0  0  0  0  0
   14.7410   20.5070    4.8990 C   0  0  0  0  0
   15.8010   19.9100    4.2640 O   0  0  0  0  0
   13.6280   20.0230    5.0550 O   0  0  0  0  0
   15.5360   18.6530    3.6460 C   0  0  0  0  0
   16.8900   18.0500    3.3940 C   0  0  0  0  0
   17.2470   18.4760    2.0870 O   0  0  0  0  0
   16.0600   18.4310    1.3190 C   0  0  0  0  0
   14.9820   18.9000    2.2630 C   0  0  0  0  0
    8.1030   25.1890    2.1910 C   0  0  0  0  0
   10.2660   24.1890    1.8220 C   0  0  0  0  0
    9.6491   27.9119    9.4405 H   0  0  0  0  0
    7.3883   27.0321    5.9148 H   0  0  0  0  0
   10.8733   25.7717    9.1597 H   0  0  0  0  0
    7.7136   25.1951    4.7074 H   0  0  0  0  0
    8.3905   23.7258    5.5790 H   0  0  0  0  0
   12.9692   25.0819    6.5154 H   0  0  0  0  0
   12.5512   25.4099    4.8127 H   0  0  0  0  0
   10.0698   22.6450    4.7790 H   0  0  0  0  0
   11.3255   23.4088    3.6737 H   0  0  0  0  0
   10.1491   25.6053    4.1410 H   0  0  0  0  0
    8.6086   23.3055    2.9643 H   0  0  0  0  0
   13.4923   23.2200    4.2367 H   0  0  0  0  0
   13.4223   22.1771    6.4415 H   0  0  0  0  0
   15.7188   24.0141    4.4847 H   0  0  0  0  0
   16.1198   22.0264    5.1118 H   0  0  0  0  0
   14.3643   23.8371    7.8589 H   0  0  0  0  0
   15.9500   23.6532    7.0505 H   0  0  0  0  0
   13.3714   21.8734    9.0611 H   0  0  0  0  0
   13.9325   19.9389   10.4925 H   0  0  0  0  0
   16.1859   18.9498   10.3963 H   0  0  0  0  0
   17.9186   19.9444    8.9572 H   0  0  0  0  0
   17.3932   21.9288    7.5699 H   0  0  0  0  0
   14.8622   18.0498    4.2545 H   0  0  0  0  0
   16.8680   16.9630    3.4718 H   0  0  0  0  0
   17.6196   18.3729    4.1366 H   0  0  0  0  0
   15.8597   17.4309    0.9344 H   0  0  0  0  0
   16.1249   19.0573    0.4293 H   0  0  0  0  0
   14.7394   19.9513    2.1077 H   0  0  0  0  0
   14.0454   18.3661    2.1026 H   0  0  0  0  0
    7.2365   25.2544    2.8490 H   0  0  0  0  0
    8.5460   26.1778    2.0722 H   0  0  0  0  0
    7.7937   24.8087    1.2175 H   0  0  0  0  0
   10.7545   25.1622    1.7740 H   0  0  0  0  0
   10.9824   23.4374    2.1536 H   0  0  0  0  0
    9.8878   23.9219    0.8352 H   0  0  0  0  0
  1  2  4  0  0  0
  1  6  4  0  0  0
  2  3  4  0  0  0
  2  7  1  0  0  0
  3  4  4  0  0  0
  4  5  4  0  0  0
  4  8  1  0  0  0
  5  6  4  0  0  0
  5  9  1  0  0  0
  8 15  1  0  0  0
  9 10  1  0  0  0
  9 11  2  0  0  0
  9 12  2  0  0  0
 10 13  1  0  0  0
 10 14  1  0  0  0
 13 17  1  0  0  0
 14 15  1  0  0  0
 15 16  1  0  0  0
 16 36  1  0  0  0
 16 37  1  0  0  0
 17 18  1  0  0  0
 17 19  1  0  0  0
 18 20  1  0  0  0
 18 21  1  0  0  0
 20 28  1  0  0  0
 21 22  1  0  0  0
 22 23  4  0  0  0
 22 27  4  0  0  0
 23 24  4  0  0  0
 24 25  4  0  0  0
 25 26  4  0  0  0
 26 27  4  0  0  0
 28 29  1  0  0  0
 28 30  2  0  0  0
 29 31  1  0  0  0
 31 32  1  0  0  0
 31 35  1  0  0  0
 32 33  1  0  0  0
 33 34  1  0  0  0
 34 35  1  0  0  0
  1 38  1  0  0  0
  3 39  1  0  0  0
  6 40  1  0  0  0
  8 41  1  0  0  0
  8 42  1  0  0  0
 13 43  1  0  0  0
 13 44  1  0  0  0
 14 45  1  0  0  0
 14 46  1  0  0  0
 15 47  1  0  0  0
 16 48  1  0  0  0
 17 49  1  0  0  0
 18 50  1  0  0  0
 19 51  1  0  0  0
 20 52  1  0  0  0
 21 53  1  0  0  0
 21 54  1  0  0  0
 23 55  1  0  0  0
 24 56  1  0  0  0
 25 57  1  0  0  0
 26 58  1  0  0  0
 27 59  1  0  0  0
 31 60  1  0  0  0
 32 61  1  0  0  0
 32 62  1  0  0  0
 34 63  1  0  0  0
 34 64  1  0  0  0
 35 65  1  0  0  0
 35 66  1  0  0  0
 36 67  1  0  0  0
 36 68  1  0  0  0
 36 69  1  0  0  0
 37 70  1  0  0  0
 37 71  1  0  0  0
 37 72  1  0  0  0
M  END
$$$$
