5eb3_ligand
  -I-interpret- 

 23 23  0  0  0  0  0  0  0  0999 V2000
   25.5010    4.2350   34.4050 O   0  0  0  0  0
   24.6570    4.0190   33.2990 C   0  0  0  0  0
   24.8430    5.2230   32.4220 C   0  0  0  0  0
   25.7400    6.1800   32.8690 C   0  0  0  0  0
   25.9640    7.2950   32.1360 N   0  0  0  0  0
   25.2990    7.4630   30.9620 C   0  0  0  0  0
   24.4020    6.5100   30.5070 C   0  0  0  0  0
   24.1730    5.3770   31.2390 C   0  0  0  0  0
   23.1760    4.3460   30.7320 C   0  0  0  0  0
   23.7670    3.0780   30.5510 O   0  0  0  0  0
   23.7310    6.7100   29.2880 O   0  0  0  0  0
   25.5580    8.7120   30.1560 C   0  0  0  0  0
   25.4288    3.4938   35.0108 H   0  0  0  0  0
   23.6172    3.8997   33.6035 H   0  0  0  0  0
   24.9083    3.0968   32.7751 H   0  0  0  0  0
   26.2659    6.0343   33.8125 H   0  0  0  0  0
   22.7982    4.6851   29.7674 H   0  0  0  0  0
   22.3828    4.2480   31.4731 H   0  0  0  0  0
   23.1051    2.4604   30.2315 H   0  0  0  0  0
   23.1506    5.9646   29.1175 H   0  0  0  0  0
   25.2966    9.5873   30.7507 H   0  0  0  0  0
   26.6131    8.7564   29.8860 H   0  0  0  0  0
   24.9507    8.6914   29.2511 H   0  0  0  0  0
  1  2  1  0  0  0
  2  3  1  0  0  0
  3  4  4  0  0  0
  3  8  4  0  0  0
  4  5  4  0  0  0
  5  6  4  0  0  0
  6  7  4  0  0  0
  6 12  1  0  0  0
  7  8  4  0  0  0
  7 11  1  0  0  0
  8  9  1  0  0  0
  9 10  1  0  0  0
  1 13  1  0  0  0
  2 14  1  0  0  0
  2 15  1  0  0  0
  4 16  1  0  0  0
  9 17  1  0  0  0
  9 18  1  0  0  0
 10 19  1  0  0  0
 11 20  1  0  0  0
 12 21  1  0  0  0
 12 22  1  0  0  0
 12 23  1  0  0  0
M  END
$$$$
