4mf1_ligand
  -I-interpret- 

 53 57  0  0  0  0  0  0  0  0999 V2000
   18.0640  -13.1060   -4.0680 C   0  0  0  0  0
   16.9810  -13.2100   -5.0570 N   0  3  0  0  0
   17.5190  -13.2600   -6.4260 C   0  0  0  0  0
   16.0650  -14.3350   -4.7610 C   0  0  0  0  0
   14.9120  -13.8650   -3.8990 C   0  0  0  0  0
   14.3670  -14.6700   -2.9070 C   0  0  0  0  0
   13.3140  -14.2080   -2.1280 C   0  0  0  0  0
   12.8160  -12.9290   -2.3370 C   0  0  0  0  0
   13.3580  -12.1400   -3.3300 C   0  0  0  0  0
   14.4020  -12.5990   -4.1050 C   0  0  0  0  0
   11.6590  -12.3720   -1.5450 C   0  0  0  0  0
   11.5740  -10.8690   -1.2760 C   0  0  0  0  0
   10.7230  -11.4860   -2.3890 C   0  0  0  0  0
    9.2380  -11.5290   -2.1600 C   0  0  0  0  0
    8.8350  -11.5510   -1.0200 O   0  0  0  0  0
    8.3750  -11.5360   -3.2120 N   0  0  0  0  0
    7.0000  -11.5410   -3.0110 C   0  0  0  0  0
    6.0980  -11.4510   -3.9390 N   0  0  0  0  0
    4.7960  -11.4390   -3.5530 C   0  0  0  0  0
    3.6290  -11.3510   -4.3490 C   0  0  0  0  0
    2.3940  -11.3410   -3.7750 C   0  0  0  0  0
    2.2470  -11.4420   -2.3910 C   0  0  0  0  0
    3.3710  -11.5370   -1.5860 C   0  0  0  0  0
    4.6340  -11.5340   -2.1690 C   0  0  0  0  0
    6.2260  -11.6260   -1.4350 S   0  0  0  0  0
    0.9020  -11.4220   -1.7700 C   0  0  0  0  0
   -0.2160  -10.8660   -2.3050 C   0  0  0  0  0
   -1.2240  -11.0350   -1.4260 N   0  0  0  0  0
   -0.7150  -11.7040   -0.3100 N   0  0  0  0  0
    0.5540  -11.9310   -0.5080 C   0  0  0  0  0
   17.6363  -12.9459   -3.0783 H   0  0  0  0  0
   18.6452  -14.0281   -4.0692 H   0  0  0  0  0
   18.7105  -12.2672   -4.3259 H   0  0  0  0  0
   16.4153  -12.3639   -4.9896 H   0  0  0  0  0
   18.0740  -14.1880   -6.5632 H   0  0  0  0  0
   16.6965  -13.2181   -7.1400 H   0  0  0  0  0
   18.1835  -12.4108   -6.5851 H   0  0  0  0  0
   16.6152  -15.1092   -4.2262 H   0  0  0  0  0
   15.6704  -14.7273   -5.6983 H   0  0  0  0  0
   14.7678  -15.6696   -2.7390 H   0  0  0  0  0
   12.8812  -14.8457   -1.3572 H   0  0  0  0  0
   12.9563  -11.1418   -3.5042 H   0  0  0  0  0
   14.8251  -11.9614   -4.8812 H   0  0  0  0  0
   11.5832  -13.2400   -0.8901 H   0  0  0  0  0
   12.2527  -10.0265   -1.1426 H   0  0  0  0  0
   11.4407  -10.2009   -0.4252 H   0  0  0  0  0
   10.5912  -11.3353   -3.4605 H   0  0  0  0  0
    8.7432  -11.5376   -4.1632 H   0  0  0  0  0
    3.7197  -11.2906   -5.4335 H   0  0  0  0  0
    1.5088  -11.2530   -4.4049 H   0  0  0  0  0
    3.2662  -11.6135   -0.5038 H   0  0  0  0  0
   -0.2857  -10.3709   -3.2735 H   0  0  0  0  0
    1.2290  -12.4303    0.1870 H   0  0  0  0  0
  1  2  1  0  0  0
  2  3  1  0  0  0
  2  4  1  0  0  0
  4  5  1  0  0  0
  5  6  4  0  0  0
  5 10  4  0  0  0
  6  7  4  0  0  0
  7  8  4  0  0  0
  8  9  4  0  0  0
  8 11  1  0  0  0
  9 10  4  0  0  0
 11 12  1  0  0  0
 11 13  1  0  0  0
 12 13  1  0  0  0
 13 14  1  0  0  0
 14 15  2  0  0  0
 14 16  1  0  0  0
 16 17  1  0  0  0
 17 18  4  0  0  0
 17 25  4  0  0  0
 18 19  4  0  0  0
 19 20  4  0  0  0
 19 24  4  0  0  0
 20 21  4  0  0  0
 21 22  4  0  0  0
 22 23  4  0  0  0
 22 26  1  0  0  0
 23 24  4  0  0  0
 24 25  4  0  0  0
 26 27  4  0  0  0
 26 30  4  0  0  0
 27 28  4  0  0  0
 28 29  4  0  0  0
 29 30  4  0  0  0
  1 31  1  0  0  0
  1 32  1  0  0  0
  1 33  1  0  0  0
  2 34  1  0  0  0
  3 35  1  0  0  0
  3 36  1  0  0  0
  3 37  1  0  0  0
  4 38  1  0  0  0
  4 39  1  0  0  0
  6 40  1  0  0  0
  7 41  1  0  0  0
  9 42  1  0  0  0
 10 43  1  0  0  0
 11 44  1  0  0  0
 12 45  1  0  0  0
 12 46  1  0  0  0
 13 47  1  0  0  0
 16 48  1  0  0  0
 20 49  1  0  0  0
 21 50  1  0  0  0
 23 51  1  0  0  0
 27 52  1  0  0  0
 30 53  1  0  0  0
M  END
$$$$
