6elo_ligand
  -I-interpret- 

 39 41  0  0  0  0  0  0  0  0999 V2000
   64.6630   32.3490   27.3720 C   0  0  0  0  0
   63.4360   32.8660   26.9730 C   0  0  0  0  0
   63.3540   33.6990   25.8680 C   0  0  0  0  0
   67.1640   32.0540   26.9330 C   0  0  0  0  0
   67.3100   30.7270   26.1510 C   0  0  0  0  0
   64.4110   34.9630   24.0150 C   0  0  0  0  0
   64.6980   36.7090   22.6170 C   0  0  0  0  0
   65.0490   36.2330   23.8650 C   0  0  0  0  0
   65.9750   36.8450   24.8660 C   0  0  0  0  0
   67.7630   37.9930   26.7150 C   0  0  0  0  0
   66.4180   37.8480   27.0410 C   0  0  0  0  0
   65.5240   37.2790   26.1230 C   0  0  0  0  0
   64.5090   34.0590   25.1720 C   0  0  0  0  0
   65.7490   33.5380   25.5580 C   0  0  0  0  0
   65.8160   32.6440   26.6370 C   0  0  0  0  0
   64.6760   31.5310   28.4570 O   0  0  0  0  0
   62.1370   34.1810   25.5060 O   0  0  0  0  0
   63.6340   34.7630   22.9810 N   0  0  0  0  0
   63.7840   35.8550   22.1010 N   0  0  0  0  0
   67.3270   37.0050   24.5390 C   0  0  0  0  0
   68.2090   37.5980   25.4550 C   0  0  0  0  0
   67.7260   36.6450   23.2960 F   0  0  0  0  0
   65.0800   38.0270   21.9790 C   0  0  0  0  0
   62.5342   32.6153   27.5315 H   0  0  0  0  0
   67.9464   32.7496   26.6295 H   0  0  0  0  0
   67.2577   31.8648   28.0024 H   0  0  0  0  0
   66.5270   30.0354   26.4621 H   0  0  0  0  0
   67.2189   30.9243   25.0829 H   0  0  0  0  0
   68.2865   30.2897   26.3591 H   0  0  0  0  0
   68.4619   38.4120   27.4390 H   0  0  0  0  0
   66.0576   38.1785   28.0151 H   0  0  0  0  0
   64.4718   37.1728   26.3868 H   0  0  0  0  0
   66.6554   33.8244   25.0247 H   0  0  0  0  0
   65.5756   31.2430   28.6284 H   0  0  0  0  0
   62.2327   34.7387   24.7305 H   0  0  0  0  0
   69.2522   37.7511   25.1788 H   0  0  0  0  0
   64.7131   38.8475   22.5956 H   0  0  0  0  0
   66.1652   38.0889   21.8979 H   0  0  0  0  0
   64.6359   38.0906   20.9856 H   0  0  0  0  0
  2  1  4  0  0  0
  1 15  4  0  0  0
  1 16  1  0  0  0
  3  2  4  0  0  0
 13  3  4  0  0  0
  3 17  1  0  0  0
  4  5  1  0  0  0
 15  4  1  0  0  0
  8  6  4  0  0  0
  6 13  1  0  0  0
  6 18  4  0  0  0
  8  7  4  0  0  0
  7 19  4  0  0  0
  7 23  1  0  0  0
  9  8  1  0  0  0
 12  9  4  0  0  0
  9 20  4  0  0  0
 11 10  4  0  0  0
 10 21  4  0  0  0
 11 12  4  0  0  0
 13 14  4  0  0  0
 14 15  4  0  0  0
 18 19  4  0  0  0
 20 21  4  0  0  0
 20 22  1  0  0  0
  2 24  1  0  0  0
  4 25  1  0  0  0
  4 26  1  0  0  0
  5 27  1  0  0  0
  5 28  1  0  0  0
  5 29  1  0  0  0
 10 30  1  0  0  0
 11 31  1  0  0  0
 12 32  1  0  0  0
 14 33  1  0  0  0
 16 34  1  0  0  0
 17 35  1  0  0  0
 21 36  1  0  0  0
 23 37  1  0  0  0
 23 38  1  0  0  0
 23 39  1  0  0  0
M  END
$$$$
