3oil_ligand
  -I-interpret- 

 55 58  0  0  0  0  0  0  0  0999 V2000
   -3.5860    1.2630   13.8100 C   0  0  0  0  0
   -5.1030   -0.8310   15.9800 N   0  0  0  0  0
   -5.2400    0.6650   17.9910 O   0  0  0  0  0
   -5.4820    0.6300   16.5590 S   0  0  0  0  0
   -4.4280    1.9930   14.6510 C   0  0  0  0  0
   -6.8600    1.0740   16.2980 O   0  0  0  0  0
   -5.1300    3.1210   14.1520 C   0  0  0  0  0
   -4.5310    1.6200   15.9960 O   0  0  0  0  0
   -4.9990    3.4470   12.7880 C   0  0  0  0  0
   -4.1180    2.7290   11.9370 C   0  0  0  0  0
   -3.4270    1.6270   12.4360 C   0  0  0  0  0
   -2.4460    0.8470   11.5860 C   0  0  0  0  0
   -2.2280    1.3260   10.1770 C   0  0  0  0  0
   -2.4980    2.7930   10.0750 C   0  0  0  0  0
   -3.9200    3.1390   10.5040 C   0  0  0  0  0
   -4.3650    4.5450   10.1120 C   0  0  0  0  0
   -3.3120    5.4570    9.6020 C   0  0  0  0  0
   -2.3030    4.8260    8.6000 C   0  0  0  0  0
   -2.2560    3.3520    8.6650 C   0  0  0  0  0
   -0.9540    3.0600    7.9920 C   0  0  0  0  0
   -0.9480    4.0730    6.8700 C   0  0  0  0  0
   -2.1380    5.0120    7.1580 C   0  0  0  0  0
   -1.8300    6.2900    6.7770 O   0  0  0  0  0
   -1.1170    5.4390    9.2000 C   0  0  0  0  0
   -6.0520    3.9110   15.0080 C   0  0  0  0  0
   -5.7630    5.3810   15.0740 C   0  0  0  0  0
   -3.0429    0.4047   14.2056 H   0  0  0  0  0
   -4.7534   -1.5539   16.6090 H   0  0  0  0  0
   -5.2135   -1.0299   14.9857 H   0  0  0  0  0
   -5.5865    4.2680   12.3770 H   0  0  0  0  0
   -2.8628   -0.1563   11.4971 H   0  0  0  0  0
   -1.4811    0.9417   12.0842 H   0  0  0  0  0
   -2.9087    0.7936    9.5127 H   0  0  0  0  0
   -1.1925    1.1360    9.8946 H   0  0  0  0  0
   -1.7864    3.2604   10.7557 H   0  0  0  0  0
   -4.6310    2.5499    9.9247 H   0  0  0  0  0
   -4.7460    5.0052   11.0236 H   0  0  0  0  0
   -5.0755    4.4190    9.2951 H   0  0  0  0  0
   -2.7309    5.7735   10.4681 H   0  0  0  0  0
   -3.8264    6.2527    9.0632 H   0  0  0  0  0
   -3.0682    2.8288    8.1603 H   0  0  0  0  0
   -0.8680    2.0302    7.6452 H   0  0  0  0  0
   -0.0947    3.1464    8.6570 H   0  0  0  0  0
   -1.0445    3.5922    5.8966 H   0  0  0  0  0
   -0.0065    4.6209    6.8310 H   0  0  0  0  0
   -3.0601    4.8053    6.6148 H   0  0  0  0  0
   -1.7397    6.3250    5.8219 H   0  0  0  0  0
   -1.2126    6.5242    9.1636 H   0  0  0  0  0
   -1.0276    5.1155   10.2370 H   0  0  0  0  0
   -0.2307    5.1322    8.6446 H   0  0  0  0  0
   -5.9440    3.5257   16.0219 H   0  0  0  0  0
   -7.0466    3.8075   14.5742 H   0  0  0  0  0
   -4.7605    5.5353   15.4730 H   0  0  0  0  0
   -5.8267    5.8078   14.0731 H   0  0  0  0  0
   -6.4925    5.8646   15.7237 H   0  0  0  0  0
  5  1  4  0  0  0
  1 11  4  0  0  0
  4  2  1  0  0  0
  4  3  2  0  0  0
  4  6  2  0  0  0
  8  4  1  0  0  0
  5  7  4  0  0  0
  5  8  1  0  0  0
  7  9  4  0  0  0
  7 25  1  0  0  0
  9 10  4  0  0  0
 10 11  4  0  0  0
 10 15  1  0  0  0
 11 12  1  0  0  0
 12 13  1  0  0  0
 13 14  1  0  0  0
 14 15  1  0  0  0
 14 19  1  0  0  0
 15 16  1  0  0  0
 16 17  1  0  0  0
 17 18  1  0  0  0
 18 19  1  0  0  0
 18 22  1  0  0  0
 18 24  1  0  0  0
 19 20  1  0  0  0
 20 21  1  0  0  0
 21 22  1  0  0  0
 22 23  1  0  0  0
 25 26  1  0  0  0
  1 27  1  0  0  0
  2 28  1  0  0  0
  2 29  1  0  0  0
  9 30  1  0  0  0
 12 31  1  0  0  0
 12 32  1  0  0  0
 13 33  1  0  0  0
 13 34  1  0  0  0
 14 35  1  0  0  0
 15 36  1  0  0  0
 16 37  1  0  0  0
 16 38  1  0  0  0
 17 39  1  0  0  0
 17 40  1  0  0  0
 19 41  1  0  0  0
 20 42  1  0  0  0
 20 43  1  0  0  0
 21 44  1  0  0  0
 21 45  1  0  0  0
 22 46  1  0  0  0
 23 47  1  0  0  0
 24 48  1  0  0  0
 24 49  1  0  0  0
 24 50  1  0  0  0
 25 51  1  0  0  0
 25 52  1  0  0  0
 26 53  1  0  0  0
 26 54  1  0  0  0
 26 55  1  0  0  0
M  END
$$$$
