3t3e_ligand
  -I-interpret- 

 33 34  0  0  0  0  0  0  0  0999 V2000
   34.0910   23.4150   28.7620 N   0  0  0  0  0
   37.9410   23.9470   29.6410 Cl  0  0  0  0  0
   33.4180   24.1410   29.7510 C   0  0  0  0  0
   32.1990   24.1990   29.7530 O   0  0  0  0  0
   34.1320   24.8450   30.6820 N   0  0  0  0  0
   35.5290   24.8180   30.6560 C   0  0  0  0  0
   36.0900   25.4830   31.5090 O   0  0  0  0  0
   36.2170   24.0770   29.6870 C   0  0  0  0  0
   35.4960   23.3800   28.7350 C   0  0  0  0  0
   33.2680   22.7260   27.8040 C   0  0  0  0  0
   33.6950   23.0390   26.3370 C   0  0  0  0  0
   33.8200   24.4520   26.1690 O   0  0  0  0  0
   32.6370   22.4050   25.3900 C   0  0  0  0  0
   33.0680   22.3430   24.0410 O   0  0  0  0  0
   32.3680   20.9530   25.8460 C   0  0  0  0  0
   31.2900   20.4790   25.0900 O   0  0  0  0  0
   32.0650   20.7990   27.3690 C   0  0  0  0  0
   33.1990   21.2880   28.0890 O   0  0  0  0  0
   32.0500   19.3520   27.8050 C   0  0  0  0  0
   33.2080   18.6560   27.3040 O   0  0  0  0  0
   33.6451   25.3890   31.3943 H   0  0  0  0  0
   36.0147   22.8061   27.9671 H   0  0  0  0  0
   32.2522   23.1078   27.9064 H   0  0  0  0  0
   34.6684   22.6113   26.0966 H   0  0  0  0  0
   34.0828   24.6437   25.2658 H   0  0  0  0  0
   31.7493   23.0354   25.4422 H   0  0  0  0  0
   32.3790   21.9448   23.5041 H   0  0  0  0  0
   33.2779   20.3751   25.6840 H   0  0  0  0  0
   31.0932   19.5752   25.3470 H   0  0  0  0  0
   31.1144   21.3014   27.5478 H   0  0  0  0  0
   31.1537   18.8744   27.4092 H   0  0  0  0  0
   32.0595   19.3125   28.8942 H   0  0  0  0  0
   33.1791   17.7406   27.5917 H   0  0  0  0  0
  3  1  1  0  0  0
  1  9  1  0  0  0
  1 10  1  0  0  0
  8  2  1  0  0  0
  3  4  2  0  0  0
  5  3  1  0  0  0
  6  5  1  0  0  0
  6  7  2  0  0  0
  6  8  1  0  0  0
  8  9  2  0  0  0
 10 11  1  0  0  0
 10 18  1  0  0  0
 11 12  1  0  0  0
 11 13  1  0  0  0
 13 14  1  0  0  0
 13 15  1  0  0  0
 15 16  1  0  0  0
 15 17  1  0  0  0
 17 18  1  0  0  0
 17 19  1  0  0  0
 19 20  1  0  0  0
  5 21  1  0  0  0
  9 22  1  0  0  0
 10 23  1  0  0  0
 11 24  1  0  0  0
 12 25  1  0  0  0
 13 26  1  0  0  0
 14 27  1  0  0  0
 15 28  1  0  0  0
 16 29  1  0  0  0
 17 30  1  0  0  0
 19 31  1  0  0  0
 19 32  1  0  0  0
 20 33  1  0  0  0
M  END
$$$$
