### 
### Created by X-TOOL on Mon Sep 10 21:13:12 2018
### 

@<TRIPOS>MOLECULE
4e5h_ligand
   52    54     1     0     0
SMALL
GAST_HUCK


@<TRIPOS>ATOM
      1 CL2       -49.3350   -9.9390   27.9780 Cl        1 0N8        -0.0771
      2 C19       -50.0660  -11.1180   26.8350 C.ar      1 0N8         0.0330
      3 C18       -49.2650  -11.8530   25.9700 C.ar      1 0N8        -0.0546
      4 C17       -49.8410  -12.7630   25.0890 C.ar      1 0N8        -0.0599
      5 C20       -51.4430  -11.2970   26.8140 C.ar      1 0N8        -0.0546
      6 C21       -52.0180  -12.2060   25.9330 C.ar      1 0N8        -0.0599
      7 C16       -51.2190  -12.9450   25.0730 C.ar      1 0N8        -0.0434
      8 C15       -51.8590  -13.9210   24.1110 C.3       1 0N8        -0.0085
      9 C11       -51.5860  -15.3760   24.4710 C.3       1 0N8         0.0428
     10 C10       -51.9140  -15.6400   25.9310 C.3       1 0N8        -0.0591
     11 C9        -53.3250  -15.1620   26.2270 C.3       1 0N8        -0.1108
     12 C14       -50.1490  -15.7170   24.2040 C.2       1 0N8         0.1529
     13 O27       -49.7960  -15.7750   23.0370 O.2       1 0N8        -0.3285
     14 C22       -49.2020  -15.9960   25.3580 C.3       1 0N8         0.1056
     15 C23       -48.2510  -16.8710   24.9990 C.2       1 0N8         0.1888
     16 O28       -48.0340  -17.0940   23.7170 O.2       1 0N8        -0.3542
     17 C24       -47.4350  -17.5820   25.9830 C.2       1 0N8         0.1273
     18 O26       -47.6260  -17.3760   27.1970 O.co2     1 0N8        -0.5463
     19 O25       -46.5580  -18.3810   25.5820 O.co2     1 0N8        -0.5463
     20 C12       -52.4130  -16.2720   23.5620 C.3       1 0N8        -0.0591
     21 C13       -53.7620  -16.5720   24.1870 C.3       1 0N8        -0.1108
     22 N8        -54.0600  -15.4050   24.9960 N.4       1 0N8         0.4078
     23 C7        -55.1090  -14.4960   24.5790 C.3       1 0N8        -0.0763
     24 C2        -56.2120  -15.3470   24.0080 C.ar      1 0N8        -0.0632
     25 C3        -57.4970  -15.2710   24.5300 C.ar      1 0N8        -0.0623
     26 C4        -58.5090  -16.0610   23.9990 C.ar      1 0N8        -0.0686
     27 C5        -58.2240  -16.9250   22.9520 C.ar      1 0N8        -0.0687
     28 C6        -56.9350  -16.9980   22.4360 C.ar      1 0N8        -0.0686
     29 C1        -55.9240  -16.2110   22.9650 C.ar      1 0N8        -0.0623
     30 H         -48.1836  -11.7166   25.9815 H         1 0N8         0.0606
     31 H         -49.2096  -13.3350   24.4092 H         1 0N8         0.0557
     32 H         -52.0755  -10.7226   27.4909 H         1 0N8         0.0606
     33 H         -53.0998  -12.3383   25.9181 H         1 0N8         0.0557
     34 H         -51.4373  -13.7384   23.1226 H         1 0N8         0.0416
     35 H         -52.9373  -13.7660   24.1485 H         1 0N8         0.0416
     36 H         -51.2080  -15.1035   26.5649 H         1 0N8         0.0237
     37 H         -51.8427  -16.7089   26.1320 H         1 0N8         0.0237
     38 H         -53.3474  -14.1108   26.5145 H         1 0N8         0.0018
     39 H         -53.7642  -15.6880   27.0747 H         1 0N8         0.0018
     40 H         -49.7730  -16.4197   26.1842 H         1 0N8         0.0717
     41 H         -48.7242  -15.0614   25.6519 H         1 0N8         0.0717
     42 H         -51.8785  -17.2099   23.4110 H         1 0N8         0.0237
     43 H         -52.5708  -15.7607   22.6124 H         1 0N8         0.0237
     44 H         -53.7408  -17.4850   24.7820 H         1 0N8         0.0018
     45 H         -54.5288  -16.7513   23.4334 H         1 0N8         0.0018
     46 H         -54.7392  -13.7881   23.8373 H         1 0N8         0.0182
     47 H         -55.4692  -13.9042   25.4205 H         1 0N8         0.0182
     48 H         -57.7112  -14.5922   25.3555 H         1 0N8         0.0556
     49 H         -59.5199  -16.0022   24.4024 H         1 0N8         0.0599
     50 H         -59.0132  -17.5488   22.5324 H         1 0N8         0.0559
     51 H         -56.7185  -17.6773   21.6116 H         1 0N8         0.0599
     52 H         -54.9123  -16.2717   22.5639 H         1 0N8         0.0556
@<TRIPOS>BOND
     1    1    2 1  
     2    2    3 ar 
     3    2    5 ar 
     4    3    4 ar 
     5    4    7 ar 
     6    5    6 ar 
     7    6    7 ar 
     8    7    8 1  
     9    8    9 1  
    10    9   10 1  
    11    9   12 1  
    12    9   20 1  
    13   10   11 1  
    14   11   22 1  
    15   12   13 2  
    16   12   14 1  
    17   14   15 1  
    18   15   16 2  
    19   15   17 1  
    20   17   18 ar 
    21   17   19 ar 
    22   20   21 1  
    23   21   22 1  
    24   22   23 1  
    25   23   24 1  
    26   24   25 ar 
    27   24   29 ar 
    28   25   26 ar 
    29   26   27 ar 
    30   27   28 ar 
    31   28   29 ar 
    32    3   30 1  
    33    4   31 1  
    34    5   32 1  
    35    6   33 1  
    36    8   34 1  
    37    8   35 1  
    38   10   36 1  
    39   10   37 1  
    40   11   38 1  
    41   11   39 1  
    42   14   40 1  
    43   14   41 1  
    44   20   42 1  
    45   20   43 1  
    46   21   44 1  
    47   21   45 1  
    48   23   46 1  
    49   23   47 1  
    50   25   48 1  
    51   26   49 1  
    52   27   50 1  
    53   28   51 1  
    54   29   52 1  
@<TRIPOS>SUBSTRUCTURE
     1 0N8         1

