3pb7_ligand
  -I-interpret- 

 42 43  0  0  0  0  0  0  0  0999 V2000
    0.7170   51.0540   21.9440 C   0  0  0  0  0
    1.7390   46.9840   18.2750 C   0  0  0  0  0
    8.1040   49.6840   17.1240 S   0  0  0  0  0
    8.4590   47.0570   25.4860 C   0  0  0  0  0
    4.2220   51.2760   19.5070 C   0  0  0  0  0
    3.0220   51.2880   20.2740 C   0  0  0  0  0
    8.6820   46.9550   24.1640 C   0  0  0  0  0
    8.8000   49.0370   24.6940 C   0  0  0  0  0
    3.5280   49.1630   18.4620 C   0  0  0  0  0
    7.9920   48.7920   21.5390 C   0  0  0  0  0
    8.2810   49.2810   20.1530 C   0  0  0  0  0
    9.2550   48.5950   22.3120 C   0  0  0  0  0
    8.4510   48.3650   25.8190 N   0  0  0  0  0
    6.9750   49.6240   19.5500 N   0  0  0  0  0
    5.5620   50.1180   17.8580 N   0  0  0  0  0
    0.9140   50.0700   20.8630 O   0  0  0  0  0
    1.4390   48.1300   19.1260 O   0  0  0  0  0
    6.7900   49.8200   18.2690 C   0  0  0  0  0
    4.4440   50.1970   18.6240 C   0  0  0  0  0
    2.0870   50.2270   20.1090 C   0  0  0  0  0
    2.3870   49.1460   19.2600 C   0  0  0  0  0
    8.9530   48.1610   23.6980 N   0  0  0  0  0
    1.5466   50.9893   22.6481 H   0  0  0  0  0
    0.6775   52.0566   21.5182 H   0  0  0  0  0
   -0.2181   50.8407   22.4618 H   0  0  0  0  0
    1.9163   47.3266   17.2556 H   0  0  0  0  0
    2.6288   46.4780   18.6496 H   0  0  0  0  0
    0.8953   46.2940   18.2862 H   0  0  0  0  0
    8.3098   46.2239   26.1729 H   0  0  0  0  0
    4.9515   52.0806   19.5995 H   0  0  0  0  0
    2.8225   52.0971   20.9766 H   0  0  0  0  0
    8.6455   46.0364   23.5783 H   0  0  0  0  0
    8.9338   50.1159   24.6156 H   0  0  0  0  0
    3.7002   48.3800   17.7236 H   0  0  0  0  0
    7.4712   47.8369   21.4711 H   0  0  0  0  0
    7.3809   49.5350   22.0514 H   0  0  0  0  0
    8.7933   48.5173   19.5678 H   0  0  0  0  0
    8.9416   50.1477   20.1740 H   0  0  0  0  0
    9.7998   49.5384   22.3469 H   0  0  0  0  0
    9.8537   47.8267   21.8227 H   0  0  0  0  0
    6.1697   49.7132   20.1696 H   0  0  0  0  0
    5.4473   50.3073   16.8623 H   0  0  0  0  0
 16  1  1  0  0  0
 17  2  1  0  0  0
 18  3  2  0  0  0
  7  4  4  0  0  0
 13  4  4  0  0  0
  5  6  4  0  0  0
 19  5  4  0  0  0
  6 20  4  0  0  0
 22  7  4  0  0  0
  8 13  4  0  0  0
 22  8  4  0  0  0
  9 19  4  0  0  0
 21  9  4  0  0  0
 11 10  1  0  0  0
 10 12  1  0  0  0
 14 11  1  0  0  0
 12 22  1  0  0  0
 18 14  1  0  0  0
 15 18  1  0  0  0
 19 15  1  0  0  0
 20 16  1  0  0  0
 17 21  1  0  0  0
 20 21  4  0  0  0
  1 23  1  0  0  0
  1 24  1  0  0  0
  1 25  1  0  0  0
  2 26  1  0  0  0
  2 27  1  0  0  0
  2 28  1  0  0  0
  4 29  1  0  0  0
  5 30  1  0  0  0
  6 31  1  0  0  0
  7 32  1  0  0  0
  8 33  1  0  0  0
  9 34  1  0  0  0
 10 35  1  0  0  0
 10 36  1  0  0  0
 11 37  1  0  0  0
 11 38  1  0  0  0
 12 39  1  0  0  0
 12 40  1  0  0  0
 14 41  1  0  0  0
 15 42  1  0  0  0
M  END
$$$$
