2yns_ligand
  -I-interpret- 

163163  0  0  0  0  0  0  0  0999 V2000
    6.3050  -18.1190   23.8860 N   0  3  0  0  0
    6.2140  -17.4330   22.5970 C   0  0  0  0  0
    6.7740  -16.0030   22.6950 C   0  0  0  0  0
    7.6370  -15.6490   21.9010 O   0  0  0  0  0
    4.7770  -17.4150   22.0890 C   0  0  0  0  0
    4.6490  -16.6550   20.8950 O   0  0  0  0  0
    6.3030  -15.1920   23.6590 N   0  0  0  0  0
    6.8300  -13.8320   23.8380 C   0  0  0  0  0
    7.7840  -13.7790   25.0590 C   0  0  0  0  0
    8.6090  -12.8670   25.1540 O   0  0  0  0  0
    5.7360  -12.7220   23.9180 C   0  0  0  0  0
    4.8810  -12.6840   22.6600 C   0  0  0  0  0
    4.8680  -12.8380   25.1670 C   0  0  0  0  0
    7.6720  -14.7630   25.9740 N   0  0  0  0  0
    8.4290  -14.8110   27.2270 C   0  0  0  0  0
    9.8320  -15.3470   27.0500 C   0  0  0  0  0
   10.1030  -16.0860   26.1010 O   0  0  0  0  0
    7.6930  -15.6470   28.2740 C   0  0  0  0  0
    6.3010  -15.1680   28.6650 C   0  0  0  0  0
    5.5830  -16.2120   29.4550 C   0  0  0  0  0
    6.3540  -13.8400   29.4020 C   0  0  0  0  0
   10.7080  -14.9660   27.9830 N   0  0  0  0  0
   12.0980  -15.3980   27.9890 C   0  0  0  0  0
   13.0770  -14.2880   28.2840 C   0  0  0  0  0
   12.6920  -13.2270   28.7800 O   0  0  0  0  0
   14.3580  -14.5360   27.9820 N   0  0  0  0  0
   15.4390  -13.5830   28.2160 C   0  0  0  0  0
   15.3150  -12.3530   27.3430 C   0  0  0  0  0
   15.0610  -12.4710   26.1380 O   0  0  0  0  0
   16.8050  -14.2350   27.9600 C   0  0  0  0  0
   17.1360  -15.4220   28.8660 C   0  0  0  0  0
   17.8350  -14.9950   30.1140 C   0  0  0  0  0
   18.1850  -16.1850   30.9610 C   0  0  0  0  0
   19.0240  -15.7580   32.1210 N   0  3  0  0  0
   15.5230  -11.1760   27.9520 N   0  0  0  0  0
   15.5080   -9.8870   27.2650 C   0  0  0  0  0
   16.8350   -9.2000   27.4540 C   0  0  0  0  0
   17.2510   -8.9800   28.5930 O   0  0  0  0  0
   14.3970   -8.9880   27.8090 C   0  0  0  0  0
   12.9830   -9.3560   27.3920 C   0  0  0  0  0
   12.0130   -8.4340   28.0730 C   0  0  0  0  0
   12.0910   -8.5690   29.5340 N   0  0  0  0  0
   11.7060   -7.6410   30.4010 C   0  0  0  0  0
   11.1960   -6.4920   29.9720 N   0  0  0  0  0
   11.8250   -7.8550   31.7050 N   0  0  0  0  0
   17.4970   -8.8350   26.3560 N   0  0  0  0  0
   18.7460   -8.0780   26.3890 C   0  0  0  0  0
   18.3910   -6.6230   26.6580 C   0  0  0  0  0
   17.2050   -6.2720   26.6010 O   0  0  0  0  0
   19.5270   -8.2340   25.0640 C   0  0  0  0  0
   20.1810   -9.6030   24.8470 C   0  0  0  0  0
   21.5620   -9.6960   25.5170 C   0  0  0  0  0
   22.0590  -11.1150   25.5200 C   0  0  0  0  0
   23.3100  -11.2250   26.2970 N   0  3  0  0  0
   19.3920   -5.7750   26.9770 N   0  0  0  0  0
   19.1550   -4.3480   27.2070 C   0  0  0  0  0
   18.7640   -3.6780   25.8720 C   0  0  0  0  0
   19.4750   -3.8600   24.8810 O   0  0  0  0  0
   20.3990   -3.6840   27.8250 C   0  0  0  0  0
   20.1040   -2.2970   28.3740 C   0  0  0  0  0
   21.2760   -1.6660   29.1050 C   0  0  0  0  0
   21.6000   -2.3330   30.3700 N   0  0  0  0  0
   20.9280   -2.1790   31.5100 C   0  0  0  0  0
   19.8520   -1.4040   31.5560 N   0  0  0  0  0
   21.3080   -2.8230   32.6010 N   0  0  0  0  0
   17.5810   -3.0070   25.8300 N   0  0  0  0  0
   17.0010   -2.3120   24.6600 C   0  0  0  0  0
   17.2320   -3.0380   23.3170 C   0  0  0  0  0
   17.0602   -4.2815   23.2086 O   0  0  0  0  0
   17.5390   -0.8770   24.5520 C   0  0  0  0  0
   17.1870   -0.0220   25.7290 C   0  0  0  0  0
   15.9130    0.4860   25.8960 N   0  0  0  0  0
   17.9560    0.3740   26.7700 C   0  0  0  0  0
   15.9470    1.1760   27.0240 C   0  0  0  0  0
   17.1550    1.1360   27.5860 N   0  0  0  0  0
   17.5991   -2.3746   22.3107 O   0  0  0  0  0
    7.2745  -18.1172   24.2031 H   0  0  0  0  0
    5.7217  -17.6356   24.5690 H   0  0  0  0  0
    5.9820  -19.0809   23.7814 H   0  0  0  0  0
    6.8199  -17.9868   21.8799 H   0  0  0  0  0
    4.1487  -16.9593   22.8543 H   0  0  0  0  0
    4.4759  -18.4407   21.8762 H   0  0  0  0  0
    3.7335  -16.6666   20.6062 H   0  0  0  0  0
    5.5652  -15.5277   24.2782 H   0  0  0  0  0
    7.3915  -13.6045   22.9319 H   0  0  0  0  0
    6.2702  -11.7747   23.9916 H   0  0  0  0  0
    5.5152  -12.4804   21.7972 H   0  0  0  0  0
    4.3859  -13.6462   22.5296 H   0  0  0  0  0
    4.1316  -11.8982   22.7552 H   0  0  0  0  0
    4.3640  -13.8045   25.1692 H   0  0  0  0  0
    5.4962  -12.7524   26.0537 H   0  0  0  0  0
    4.1258  -12.0397   25.1675 H   0  0  0  0  0
    7.0186  -15.5222   25.7814 H   0  0  0  0  0
    8.5128  -13.7793   27.5686 H   0  0  0  0  0
    8.2964  -15.5973   29.1804 H   0  0  0  0  0
    7.5610  -16.6356   27.8343 H   0  0  0  0  0
    5.7350  -14.9989   27.7489 H   0  0  0  0  0
    5.4881  -17.1177   28.8561 H   0  0  0  0  0
    6.1470  -16.4318   30.3615 H   0  0  0  0  0
    4.5917  -15.8459   29.7221 H   0  0  0  0  0
    6.9476  -13.9528   30.3092 H   0  0  0  0  0
    6.8101  -13.0871   28.7592 H   0  0  0  0  0
    5.3422  -13.5309   29.6644 H   0  0  0  0  0
   10.3885  -14.3438   28.7254 H   0  0  0  0  0
   12.3257  -15.7772   26.9928 H   0  0  0  0  0
   12.2041  -16.1440   28.7766 H   0  0  0  0  0
   14.5906  -15.4381   27.5667 H   0  0  0  0  0
   15.3611  -13.2774   29.2594 H   0  0  0  0  0
   17.5587  -13.4719   28.1539 H   0  0  0  0  0
   16.7853  -14.6152   26.9386 H   0  0  0  0  0
   17.7962  -16.0948   28.3187 H   0  0  0  0  0
   16.2013  -15.9069   29.1477 H   0  0  0  0  0
   17.1734  -14.3409   30.6819 H   0  0  0  0  0
   18.7530  -14.4737   29.8426 H   0  0  0  0  0
   18.7437  -16.9016   30.3590 H   0  0  0  0  0
   17.2681  -16.6435   31.3313 H   0  0  0  0  0
   19.2560  -16.5726   32.6894 H   0  0  0  0  0
   19.8818  -15.3258   31.7778 H   0  0  0  0  0
   18.5049  -15.0851   32.6850 H   0  0  0  0  0
   15.7026  -11.1815   28.9561 H   0  0  0  0  0
   15.3246  -10.0669   26.2057 H   0  0  0  0  0
   14.5854   -7.9912   27.4103 H   0  0  0  0  0
   14.4311   -9.0800   28.8946 H   0  0  0  0  0
   12.7727  -10.3861   27.6796 H   0  0  0  0  0
   12.8830   -9.2591   26.3109 H   0  0  0  0  0
   11.0035   -8.6915   27.7525 H   0  0  0  0  0
   12.2605   -7.4071   27.8040 H   0  0  0  0  0
   12.4685   -9.4392   29.9091 H   0  0  0  0  0
   10.8998   -5.7833   30.6431 H   0  0  0  0  0
   11.1006   -6.3184   28.9714 H   0  0  0  0  0
   12.2135   -8.7351   32.0440 H   0  0  0  0  0
   17.1126   -9.0971   25.4483 H   0  0  0  0  0
   19.3989   -8.4555   27.1760 H   0  0  0  0  0
   20.3348   -7.5026   25.0897 H   0  0  0  0  0
   18.8048   -8.1018   24.2584 H   0  0  0  0  0
   20.3121   -9.7515   23.7751 H   0  0  0  0  0
   19.5362  -10.3622   25.2896 H   0  0  0  0  0
   21.4768   -9.3511   26.5475 H   0  0  0  0  0
   22.2657   -9.0781   24.9593 H   0  0  0  0  0
   22.2526  -11.4239   24.4928 H   0  0  0  0  0
   21.3024  -11.7536   25.9759 H   0  0  0  0  0
   23.6308  -12.1932   26.2873 H   0  0  0  0  0
   24.0219  -10.6255   25.8796 H   0  0  0  0  0
   23.1383  -10.9320   27.2588 H   0  0  0  0  0
   20.3413   -6.1388   27.0603 H   0  0  0  0  0
   18.3363   -4.2234   27.9157 H   0  0  0  0  0
   21.1513   -3.5838   27.0427 H   0  0  0  0  0
   20.7389   -4.3083   28.6513 H   0  0  0  0  0
   19.2893   -2.3975   29.0911 H   0  0  0  0  0
   19.8660   -1.6552   27.5257 H   0  0  0  0  0
   21.0032   -0.6364   29.3367 H   0  0  0  0  0
   22.1492   -1.7468   28.4577 H   0  0  0  0  0
   22.4017   -2.9635   30.3778 H   0  0  0  0  0
   19.3280   -1.3100   32.4260 H   0  0  0  0  0
   19.5489   -0.9022   30.7213 H   0  0  0  0  0
   22.1190   -3.4410   32.5720 H   0  0  0  0  0
   17.0387   -2.9805   26.6935 H   0  0  0  0  0
   15.9260   -2.3048   24.8398 H   0  0  0  0  0
   16.7835   -4.6402   24.0550 H   0  0  0  0  0
   17.0898   -0.4226   23.6689 H   0  0  0  0  0
   18.6262   -0.9360   24.5013 H   0  0  0  0  0
   19.0073    0.1347   26.9301 H   0  0  0  0  0
   15.0938    1.7105   27.4417 H   0  0  0  0  0
  1  2  1  0  0  0
  2  3  1  0  0  0
  2  5  1  0  0  0
  3  4  2  0  0  0
  3  7  1  0  0  0
  5  6  1  0  0  0
  7  8  1  0  0  0
  8  9  1  0  0  0
  8 11  1  0  0  0
  9 10  2  0  0  0
  9 14  1  0  0  0
 11 12  1  0  0  0
 11 13  1  0  0  0
 14 15  1  0  0  0
 15 16  1  0  0  0
 15 18  1  0  0  0
 16 17  2  0  0  0
 16 22  1  0  0  0
 18 19  1  0  0  0
 19 20  1  0  0  0
 19 21  1  0  0  0
 22 23  1  0  0  0
 23 24  1  0  0  0
 24 25  2  0  0  0
 24 26  1  0  0  0
 26 27  1  0  0  0
 27 28  1  0  0  0
 27 30  1  0  0  0
 28 29  2  0  0  0
 28 35  1  0  0  0
 30 31  1  0  0  0
 31 32  1  0  0  0
 32 33  1  0  0  0
 33 34  1  0  0  0
 35 36  1  0  0  0
 36 37  1  0  0  0
 36 39  1  0  0  0
 37 38  2  0  0  0
 37 46  1  0  0  0
 39 40  1  0  0  0
 40 41  1  0  0  0
 41 42  1  0  0  0
 42 43  1  0  0  0
 43 44  1  0  0  0
 43 45  2  0  0  0
 46 47  1  0  0  0
 47 48  1  0  0  0
 47 50  1  0  0  0
 48 49  2  0  0  0
 48 55  1  0  0  0
 50 51  1  0  0  0
 51 52  1  0  0  0
 52 53  1  0  0  0
 53 54  1  0  0  0
 55 56  1  0  0  0
 56 57  1  0  0  0
 56 59  1  0  0  0
 57 58  2  0  0  0
 57 66  1  0  0  0
 59 60  1  0  0  0
 60 61  1  0  0  0
 61 62  1  0  0  0
 62 63  1  0  0  0
 63 64  1  0  0  0
 63 65  2  0  0  0
 66 67  1  0  0  0
 67 68  1  0  0  0
 67 70  1  0  0  0
 68 69  1  0  0  0
 70 71  1  0  0  0
 71 72  4  0  0  0
 71 73  4  0  0  0
 72 74  4  0  0  0
 73 75  4  0  0  0
 74 75  4  0  0  0
 68 76  2  0  0  0
  1 77  1  0  0  0
  1 78  1  0  0  0
  1 79  1  0  0  0
  2 80  1  0  0  0
  5 81  1  0  0  0
  5 82  1  0  0  0
  6 83  1  0  0  0
  7 84  1  0  0  0
  8 85  1  0  0  0
 11 86  1  0  0  0
 12 87  1  0  0  0
 12 88  1  0  0  0
 12 89  1  0  0  0
 13 90  1  0  0  0
 13 91  1  0  0  0
 13 92  1  0  0  0
 14 93  1  0  0  0
 15 94  1  0  0  0
 18 95  1  0  0  0
 18 96  1  0  0  0
 19 97  1  0  0  0
 20 98  1  0  0  0
 20 99  1  0  0  0
 20100  1  0  0  0
 21101  1  0  0  0
 21102  1  0  0  0
 21103  1  0  0  0
 22104  1  0  0  0
 23105  1  0  0  0
 23106  1  0  0  0
 26107  1  0  0  0
 27108  1  0  0  0
 30109  1  0  0  0
 30110  1  0  0  0
 31111  1  0  0  0
 31112  1  0  0  0
 32113  1  0  0  0
 32114  1  0  0  0
 33115  1  0  0  0
 33116  1  0  0  0
 34117  1  0  0  0
 34118  1  0  0  0
 34119  1  0  0  0
 35120  1  0  0  0
 36121  1  0  0  0
 39122  1  0  0  0
 39123  1  0  0  0
 40124  1  0  0  0
 40125  1  0  0  0
 41126  1  0  0  0
 41127  1  0  0  0
 42128  1  0  0  0
 44129  1  0  0  0
 44130  1  0  0  0
 45131  1  0  0  0
 46132  1  0  0  0
 47133  1  0  0  0
 50134  1  0  0  0
 50135  1  0  0  0
 51136  1  0  0  0
 51137  1  0  0  0
 52138  1  0  0  0
 52139  1  0  0  0
 53140  1  0  0  0
 53141  1  0  0  0
 54142  1  0  0  0
 54143  1  0  0  0
 54144  1  0  0  0
 55145  1  0  0  0
 56146  1  0  0  0
 59147  1  0  0  0
 59148  1  0  0  0
 60149  1  0  0  0
 60150  1  0  0  0
 61151  1  0  0  0
 61152  1  0  0  0
 62153  1  0  0  0
 64154  1  0  0  0
 64155  1  0  0  0
 65156  1  0  0  0
 66157  1  0  0  0
 67158  1  0  0  0
 69159  1  0  0  0
 70160  1  0  0  0
 70161  1  0  0  0
 73162  1  0  0  0
 74163  1  0  0  0
M  END
$$$$
