### 
### Created by X-TOOL on Mon Sep 10 21:13:13 2018
### 

@<TRIPOS>MOLECULE
2yns_ligand
  165   165     1     0     0
SMALL
GAST_HUCK


@<TRIPOS>ATOM
      1 N           6.3050  -18.1190   23.8860 N.4       1 SER         0.2396
      2 CA          6.2140  -17.4330   22.5970 C.3       1 SER         0.0885
      3 C           6.7740  -16.0030   22.6950 C.2       1 SER         0.2290
      4 O           7.6370  -15.6490   21.9010 O.2       1 SER        -0.3906
      5 CB          4.7770  -17.4150   22.0890 C.3       1 SER         0.1041
      6 OG          4.6490  -16.6550   20.8950 O.3       1 SER        -0.3870
      7 N           6.3030  -15.1920   23.6590 N.am      1 VAL        -0.2607
      8 CA          6.8300  -13.8320   23.8380 C.3       1 VAL         0.1334
      9 C           7.7840  -13.7790   25.0590 C.2       1 VAL         0.2042
     10 O           8.6090  -12.8670   25.1540 O.2       1 VAL        -0.3944
     11 CB          5.7360  -12.7220   23.9180 C.3       1 VAL        -0.0063
     12 CG1         4.8810  -12.6840   22.6600 C.3       1 VAL        -0.0584
     13 CG2         4.8680  -12.8380   25.1670 C.3       1 VAL        -0.0584
     14 N           7.6720  -14.7630   25.9740 N.am      1 LEU        -0.2637
     15 CA          8.4290  -14.8110   27.2270 C.3       1 LEU         0.1312
     16 C           9.8320  -15.3470   27.0500 C.2       1 LEU         0.2037
     17 O          10.1030  -16.0860   26.1010 O.2       1 LEU        -0.3944
     18 CB          7.6930  -15.6470   28.2740 C.3       1 LEU        -0.0101
     19 CG          6.3010  -15.1680   28.6650 C.3       1 LEU        -0.0425
     20 CD1         5.5830  -16.2120   29.4550 C.3       1 LEU        -0.0625
     21 CD2         6.3540  -13.8400   29.4020 C.3       1 LEU        -0.0625
     22 N          10.7080  -14.9660   27.9830 N.am      1 GLY        -0.2664
     23 CA         12.0980  -15.3980   27.9890 C.3       1 GLY         0.1201
     24 C          13.0770  -14.2880   28.2840 C.2       1 GLY         0.2007
     25 O          12.6920  -13.2270   28.7800 O.2       1 GLY        -0.3947
     26 N          14.3580  -14.5360   27.9820 N.am      1 LYS        -0.2640
     27 CA         15.4390  -13.5830   28.2160 C.3       1 LYS         0.1310
     28 C          15.3150  -12.3530   27.3430 C.2       1 LYS         0.2039
     29 O          15.0610  -12.4710   26.1380 O.2       1 LYS        -0.3944
     30 CB         16.8050  -14.2350   27.9600 C.3       1 LYS        -0.0122
     31 CG         17.1360  -15.4220   28.8660 C.3       1 LYS        -0.0440
     32 CD         17.8350  -14.9950   30.1140 C.3       1 LYS        -0.0124
     33 CE         18.1850  -16.1850   30.9610 C.3       1 LYS        -0.0354
     34 NZ         19.0240  -15.7580   32.1210 N.4       1 LYS         0.2185
     35 N          15.5230  -11.1760   27.9520 N.am      1 ARG        -0.2637
     36 CA         15.5080   -9.8870   27.2650 C.3       1 ARG         0.1311
     37 C          16.8350   -9.2000   27.4540 C.2       1 ARG         0.2039
     38 O          17.2510   -8.9800   28.5930 O.2       1 ARG        -0.3944
     39 CB         14.3970   -8.9880   27.8090 C.3       1 ARG        -0.0092
     40 CG         12.9830   -9.3560   27.3920 C.3       1 ARG        -0.0156
     41 CD         12.0130   -8.4340   28.0730 C.3       1 ARG         0.0627
     42 NE         12.0910   -8.5690   29.5340 N.pl3     1 ARG        -0.2723
     43 CZ         11.7060   -7.6410   30.4010 C.cat     1 ARG         0.2882
     44 NH1        11.1960   -6.4920   29.9720 N.pl3     1 ARG        -0.2849
     45 NH2        11.8250   -7.8550   31.7050 N.pl3     1 ARG        -0.2849
     46 N          17.4970   -8.8350   26.3560 N.am      1 LYS        -0.2637
     47 CA         18.7460   -8.0780   26.3890 C.3       1 LYS         0.1310
     48 C          18.3910   -6.6230   26.6580 C.2       1 LYS         0.2039
     49 O          17.2050   -6.2720   26.6010 O.2       1 LYS        -0.3944
     50 CB         19.5270   -8.2340   25.0640 C.3       1 LYS        -0.0122
     51 CG         20.1810   -9.6030   24.8470 C.3       1 LYS        -0.0440
     52 CD         21.5620   -9.6960   25.5170 C.3       1 LYS        -0.0124
     53 CE         22.0590  -11.1150   25.5200 C.3       1 LYS        -0.0354
     54 NZ         23.3100  -11.2250   26.2970 N.4       1 LYS         0.2185
     55 N          19.3920   -5.7750   26.9770 N.am      1 ARG        -0.2637
     56 CA         19.1550   -4.3480   27.2070 C.3       1 ARG         0.1311
     57 C          18.7640   -3.6780   25.8720 C.2       1 ARG         0.2035
     58 O          19.4750   -3.8600   24.8810 O.2       1 ARG        -0.3944
     59 CB         20.3990   -3.6840   27.8250 C.3       1 ARG        -0.0092
     60 CG         20.1040   -2.2970   28.3740 C.3       1 ARG        -0.0156
     61 CD         21.2760   -1.6660   29.1050 C.3       1 ARG         0.0627
     62 NE         21.6000   -2.3330   30.3700 N.pl3     1 ARG        -0.2723
     63 CZ         20.9280   -2.1790   31.5100 C.cat     1 ARG         0.2882
     64 NH1        19.8520   -1.4040   31.5560 N.pl3     1 ARG        -0.2849
     65 NH2        21.3080   -2.8230   32.6010 N.pl3     1 ARG        -0.2849
     66 N          17.5810   -3.0070   25.8300 N.am      1 HIS        -0.2677
     67 CA         17.0010   -2.3120   24.6600 C.3       1 HIS         0.1056
     68 C          17.2320   -3.0380   23.3170 C.2       1 HIS         0.0621
     69 O          17.0602   -4.2815   23.2086 O.co2     1 HIS        -0.5664
     70 CB         17.5390   -0.8770   24.5520 C.3       1 HIS         0.0372
     71 CG         17.1870   -0.0220   25.7290 C.2       1 HIS         0.0555
     72 ND1        15.9130    0.4860   25.8960 N.pl3     1 HIS        -0.2623
     73 CD2        17.9560    0.3740   26.7700 C.2       1 HIS        -0.0276
     74 CE1        15.9470    1.1760   27.0240 C.2       1 HIS         0.0875
     75 NE2        17.1550    1.1360   27.5860 N.2       1 HIS        -0.3437
     76 O          17.5991   -2.3746   22.3107 O.co2     1 HIS        -0.5664
     77 H1          5.9331  -19.0517   23.7972 H         1 SER         0.2016
     78 H2          5.7746  -17.6100   24.5757 H         1 SER         0.2016
     79 H3          7.2700  -18.1680   24.1732 H         1 SER         0.2016
     80 H4          6.8252  -17.9898   21.8714 H         1 SER         0.1122
     81 H5          4.1313  -16.9740   22.8627 H         1 SER         0.0640
     82 H6          4.4569  -18.4483   21.8894 H         1 SER         0.0640
     83 H7          3.7430  -16.6664   20.6092 H         1 SER         0.2099
     84 H8          5.5797  -15.5211   24.2661 H         1 VAL         0.1885
     85 H9          7.4329  -13.6090   22.9454 H         1 VAL         0.0802
     86 H10         6.2632  -11.7587   23.9818 H         1 VAL         0.0343
     87 H11         4.1242  -11.8913   22.7548 H         1 VAL         0.0234
     88 H12         4.3807  -13.6546   22.5272 H         1 VAL         0.0234
     89 H13         5.5199  -12.4785   21.7885 H         1 VAL         0.0234
     90 H14         5.5109  -12.8633   26.0592 H         1 VAL         0.0234
     91 H15         4.2745  -13.7627   25.1165 H         1 VAL         0.0234
     92 H16         4.1928  -11.9716   25.2261 H         1 VAL         0.0234
     93 H17         7.0314  -15.5073   25.7852 H         1 LEU         0.1883
     94 H18         8.5088  -13.7809   27.6045 H         1 LEU         0.0800
     95 H19         8.3099  -15.6622   29.1846 H         1 LEU         0.0315
     96 H20         7.5968  -16.6692   27.8792 H         1 LEU         0.0315
     97 H21         5.7329  -15.0060   27.7371 H         1 LEU         0.0298
     98 H22         4.5823  -15.8437   29.7252 H         1 LEU         0.0232
     99 H23         6.1512  -16.4347   30.3702 H         1 LEU         0.0232
    100 H24         5.4865  -17.1267   28.8516 H         1 LEU         0.0232
    101 H25         6.8894  -13.1010   28.7878 H         1 LEU         0.0232
    102 H26         6.8807  -13.9723   30.3586 H         1 LEU         0.0232
    103 H27         5.3304  -13.4855   29.5929 H         1 LEU         0.0232
    104 H28        10.3948  -14.3560   28.7109 H         1 GLY         0.1881
    105 H29        12.3357  -15.8170   27.0001 H         1 GLY         0.0763
    106 H30        12.2160  -16.1779   28.7557 H         1 GLY         0.0763
    107 H31        14.5861  -15.4204   27.5748 H         1 LYS         0.1883
    108 H32        15.3916  -13.2674   29.2687 H         1 LYS         0.0800
    109 H33        17.5810  -13.4689   28.1046 H         1 LYS         0.0312
    110 H34        16.8255  -14.5856   26.9176 H         1 LYS         0.0312
    111 H35        17.7856  -16.1185   28.3157 H         1 LYS         0.0269
    112 H36        16.2004  -15.9317   29.1397 H         1 LYS         0.0269
    113 H37        17.1755  -14.3261   30.6863 H         1 LYS         0.0317
    114 H38        18.7574  -14.4591   29.8458 H         1 LYS         0.0317
    115 H39        18.7452  -16.9117   30.3544 H         1 LYS         0.0813
    116 H40        17.2610  -16.6522   31.3323 H         1 LYS         0.0813
    117 H41        19.2539  -16.5623   32.6834 H         1 LYS         0.1994
    118 H42        18.5120  -15.0929   32.6792 H         1 LYS         0.1994
    119 H43        19.8721  -15.3308   31.7831 H         1 LYS         0.1994
    120 H44        15.6991  -11.1814   28.9364 H         1 ARG         0.1883
    121 H45        15.3369  -10.0574   26.1918 H         1 ARG         0.0800
    122 H46        14.5940   -7.9622   27.4642 H         1 ARG         0.0313
    123 H47        14.4440   -9.0210   28.9075 H         1 ARG         0.0313
    124 H48        12.7713  -10.3948   27.6852 H         1 ARG         0.0301
    125 H49        12.8828   -9.2552   26.3012 H         1 ARG         0.0301
    126 H50        10.9925   -8.6793   27.7436 H         1 ARG         0.0689
    127 H51        12.2485   -7.3961   27.7952 H         1 ARG         0.0689
    128 H52        12.4722   -9.4477   29.9128 H         1 ARG         0.2642
    129 H53        10.8989   -5.7755   30.6497 H         1 ARG         0.2615
    130 H54        11.0976   -6.3175   28.9617 H         1 ARG         0.2615
    131 H55        12.2193   -8.7428   32.0473 H         1 ARG         0.2615
    132 H56        11.5231   -7.1333   32.3750 H         1 ARG         0.2615
    133 H57        17.1201   -9.0920   25.4661 H         1 LYS         0.1883
    134 H58        19.3752   -8.4534   27.2095 H         1 LYS         0.0800
    135 H59        20.3198   -7.4717   25.0450 H         1 LYS         0.0312
    136 H60        18.8273   -8.0562   24.2340 H         1 LYS         0.0312
    137 H61        20.2986   -9.7729   23.7666 H         1 LYS         0.0269
    138 H62        19.5277  -10.3796   25.2713 H         1 LYS         0.0269
    139 H63        21.4844   -9.3388   26.5545 H         1 LYS         0.0317
    140 H64        22.2742   -9.0656   24.9645 H         1 LYS         0.0317
    141 H65        22.2472  -11.4345   24.4844 H         1 LYS         0.0813
    142 H66        21.2948  -11.7650   25.9711 H         1 LYS         0.0813
    143 H67        23.6280  -12.1815   26.2881 H         1 LYS         0.1994
    144 H68        23.1416  -10.9358   27.2478 H         1 LYS         0.1994
    145 H69        24.0144  -10.6329   25.8854 H         1 LYS         0.1994
    146 H70        20.3227   -6.1317   27.0587 H         1 ARG         0.1883
    147 H71        18.3185   -4.2380   27.9127 H         1 ARG         0.0800
    148 H72        21.1756   -3.5994   27.0506 H         1 ARG         0.0313
    149 H73        20.7667   -4.3177   28.6455 H         1 ARG         0.0313
    150 H74        19.2590   -2.3734   29.0741 H         1 ARG         0.0301
    151 H75        19.8264   -1.6432   27.5341 H         1 ARG         0.0301
    152 H76        21.0295   -0.6153   29.3179 H         1 ARG         0.0689
    153 H77        22.1595   -1.7102   28.4512 H         1 ARG         0.0689
    154 H78        22.4096   -2.9697   30.3778 H         1 ARG         0.2642
    155 H79        19.3373   -1.2895   32.4408 H         1 ARG         0.2615
    156 H80        19.5315   -0.9169   30.7069 H         1 ARG         0.2615
    157 H81        22.1415   -3.4276   32.5781 H         1 ARG         0.2615
    158 H82        20.7704   -2.7199   33.4735 H         1 ARG         0.2615
    159 H83        17.0493   -2.9810   26.6766 H         1 HIS         0.1877
    160 H84        15.9145   -2.2577   24.8227 H         1 HIS         0.0750
    161 H85        17.1195   -0.4142   23.6466 H         1 HIS         0.0484
    162 H86        18.6349   -0.9205   24.4676 H         1 HIS         0.0484
    163 H87        15.1044    0.3546   25.2716 H         1 HIS         0.2386
    164 H88        19.0063    0.1350   26.9299 H         1 HIS         0.0324
    165 H89        15.0946    1.7100   27.4414 H         1 HIS         0.1149
@<TRIPOS>BOND
     1    1    2 1  
     2    2    3 1  
     3    2    5 1  
     4    3    4 2  
     5    3    7 am 
     6    5    6 1  
     7    7    8 1  
     8    8    9 1  
     9    8   11 1  
    10    9   10 2  
    11    9   14 am 
    12   11   12 1  
    13   11   13 1  
    14   14   15 1  
    15   15   16 1  
    16   15   18 1  
    17   16   17 2  
    18   16   22 am 
    19   18   19 1  
    20   19   20 1  
    21   19   21 1  
    22   22   23 1  
    23   23   24 1  
    24   24   25 2  
    25   24   26 am 
    26   26   27 1  
    27   27   28 1  
    28   27   30 1  
    29   28   29 2  
    30   28   35 am 
    31   30   31 1  
    32   31   32 1  
    33   32   33 1  
    34   33   34 1  
    35   35   36 1  
    36   36   37 1  
    37   36   39 1  
    38   37   38 2  
    39   37   46 am 
    40   39   40 1  
    41   40   41 1  
    42   41   42 1  
    43   42   43 ar 
    44   43   44 ar 
    45   43   45 ar 
    46   46   47 1  
    47   47   48 1  
    48   47   50 1  
    49   48   49 2  
    50   48   55 am 
    51   50   51 1  
    52   51   52 1  
    53   52   53 1  
    54   53   54 1  
    55   55   56 1  
    56   56   57 1  
    57   56   59 1  
    58   57   58 2  
    59   57   66 am 
    60   59   60 1  
    61   60   61 1  
    62   61   62 1  
    63   62   63 ar 
    64   63   64 ar 
    65   63   65 ar 
    66   66   67 1  
    67   67   68 1  
    68   67   70 1  
    69   68   69 ar 
    70   70   71 1  
    71   71   72 1  
    72   71   73 2  
    73   72   74 1  
    74   73   75 1  
    75   74   75 2  
    76   68   76 ar 
    77    1   77 1  
    78    1   78 1  
    79    1   79 1  
    80    2   80 1  
    81    5   81 1  
    82    5   82 1  
    83    6   83 1  
    84    7   84 1  
    85    8   85 1  
    86   11   86 1  
    87   12   87 1  
    88   12   88 1  
    89   12   89 1  
    90   13   90 1  
    91   13   91 1  
    92   13   92 1  
    93   14   93 1  
    94   15   94 1  
    95   18   95 1  
    96   18   96 1  
    97   19   97 1  
    98   20   98 1  
    99   20   99 1  
   100   20  100 1  
   101   21  101 1  
   102   21  102 1  
   103   21  103 1  
   104   22  104 1  
   105   23  105 1  
   106   23  106 1  
   107   26  107 1  
   108   27  108 1  
   109   30  109 1  
   110   30  110 1  
   111   31  111 1  
   112   31  112 1  
   113   32  113 1  
   114   32  114 1  
   115   33  115 1  
   116   33  116 1  
   117   34  117 1  
   118   34  118 1  
   119   34  119 1  
   120   35  120 1  
   121   36  121 1  
   122   39  122 1  
   123   39  123 1  
   124   40  124 1  
   125   40  125 1  
   126   41  126 1  
   127   41  127 1  
   128   42  128 1  
   129   44  129 1  
   130   44  130 1  
   131   45  131 1  
   132   45  132 1  
   133   46  133 1  
   134   47  134 1  
   135   50  135 1  
   136   50  136 1  
   137   51  137 1  
   138   51  138 1  
   139   52  139 1  
   140   52  140 1  
   141   53  141 1  
   142   53  142 1  
   143   54  143 1  
   144   54  144 1  
   145   54  145 1  
   146   55  146 1  
   147   56  147 1  
   148   59  148 1  
   149   59  149 1  
   150   60  150 1  
   151   60  151 1  
   152   61  152 1  
   153   61  153 1  
   154   62  154 1  
   155   64  155 1  
   156   64  156 1  
   157   65  157 1  
   158   65  158 1  
   159   66  159 1  
   160   67  160 1  
   161   70  161 1  
   162   70  162 1  
   163   72  163 1  
   164   73  164 1  
   165   74  165 1  
@<TRIPOS>SUBSTRUCTURE
     1 SER         1

