### 
### Created by X-TOOL on Mon Sep 10 21:12:47 2018
### 

@<TRIPOS>MOLECULE
1qng_ligand
  200   199     1     0     0
SMALL
GAST_HUCK


@<TRIPOS>ATOM
      1 N          15.0980   50.7550  -20.1450 N.4       1 BMT         0.4374
      2 CN         13.8800   51.5940  -20.5240 C.3       1 BMT        -0.0054
      3 CA         15.1420   49.9340  -18.9170 C.3       1 BMT         0.1302
      4 C          14.2500   48.6950  -18.9770 C.2       1 BMT         0.2307
      5 O          13.5230   48.4170  -19.9630 O.2       1 BMT        -0.3906
      6 CB         14.8370   50.7740  -17.5900 C.3       1 BMT         0.1202
      7 OG1        13.4430   51.1250  -17.5760 O.3       1 BMT        -0.3833
      8 CG2        15.6950   52.0890  -17.4020 C.3       1 BMT        -0.0037
      9 CD1        17.2280   51.8420  -17.5030 C.3       1 BMT        -0.0581
     10 CD2        15.4230   52.8880  -16.1120 C.3       1 BMT        -0.0312
     11 CE         15.7170   52.1660  -14.7840 C.2       1 BMT        -0.0986
     12 CZ         14.6620   51.8310  -13.8890 C.2       1 BMT        -0.1017
     13 CH         14.9500   51.1150  -12.5740 C.3       1 BMT        -0.0486
     14 N          14.3590   47.8660  -17.9230 N.am      1 ABA        -0.2609
     15 CA         13.6250   46.6160  -17.8250 C.3       1 ABA         0.1310
     16 C          12.6040   46.6810  -16.6830 C.2       1 ABA         0.2059
     17 O          12.9260   46.2640  -15.5570 O.2       1 ABA        -0.3942
     18 CB         14.6520   45.4850  -17.6340 C.3       1 ABA        -0.0152
     19 CG         15.7160   45.3510  -18.7460 C.3       1 ABA        -0.0610
     20 N          11.3580   47.1910  -16.8390 N.am      1 SAR        -0.2556
     21 CA         10.4220   47.2060  -15.6890 C.3       1 SAR         0.1227
     22 C           9.9230   48.6090  -15.3310 C.2       1 SAR         0.2032
     23 O           8.7050   48.8090  -15.4680 O.2       1 SAR        -0.3945
     24 CN         10.7190   47.6020  -18.1460 C.3       1 SAR         0.0252
     25 N          10.7480   49.5990  -14.8890 N.am      1 MLE        -0.2531
     26 CN         12.1990   49.3770  -14.5600 C.3       1 MLE         0.0254
     27 CA         10.1950   50.9480  -14.7300 C.3       1 MLE         0.1336
     28 CB         10.5560   51.3240  -13.2880 C.3       1 MLE        -0.0099
     29 CG         10.0850   52.6830  -12.7810 C.3       1 MLE        -0.0425
     30 CD1         8.6820   52.9630  -13.3040 C.3       1 MLE        -0.0625
     31 CD2        10.0970   52.6810  -11.2640 C.3       1 MLE        -0.0625
     32 C          10.7450   51.9230  -15.7650 C.2       1 MLE         0.2041
     33 O          11.7030   52.6530  -15.5180 O.2       1 MLE        -0.3944
     34 N          10.1220   51.9110  -16.9340 N.am      1 VAL        -0.2635
     35 CA         10.5200   52.7760  -18.0310 C.3       1 VAL         0.1334
     36 C          10.1530   54.2200  -17.7030 C.2       1 VAL         0.2064
     37 O           8.9920   54.5200  -17.4450 O.2       1 VAL        -0.3942
     38 CB          9.8030   52.3660  -19.3410 C.3       1 VAL        -0.0062
     39 CG1        10.3510   53.1670  -20.5130 C.3       1 VAL        -0.0584
     40 CG2         9.9710   50.8780  -19.5840 C.3       1 VAL        -0.0584
     41 N          11.1430   55.1320  -17.6890 N.am      1 MLE        -0.2529
     42 CN         12.5600   54.9270  -18.1660 C.3       1 MLE         0.0254
     43 CA         10.6400   56.4730  -17.3640 C.3       1 MLE         0.1336
     44 CB         11.5460   56.9450  -16.2230 C.3       1 MLE        -0.0099
     45 CG         11.3710   56.1950  -14.8960 C.3       1 MLE        -0.0425
     46 CD1        12.3190   56.7730  -13.8510 C.3       1 MLE        -0.0625
     47 CD2         9.9290   56.3000  -14.4030 C.3       1 MLE        -0.0625
     48 C          10.6300   57.4270  -18.5560 C.2       1 MLE         0.2041
     49 O          10.7860   57.0080  -19.6990 O.2       1 MLE        -0.3944
     50 N          10.4280   58.7110  -18.2840 N.am      1 ALA        -0.2640
     51 CA         10.3810   59.7150  -19.3440 C.3       1 ALA         0.1282
     52 C          11.7430   59.8810  -20.0180 C.2       1 ALA         0.2036
     53 O          12.7810   59.5870  -19.4250 O.2       1 ALA        -0.3944
     54 CB          9.9050   61.0500  -18.7790 C.3       1 ALA        -0.0244
     55 N          11.7390   60.3580  -21.2660 N.am      1 DAL        -0.2640
     56 CA         13.0010   60.6830  -21.9100 C.3       1 DAL         0.1284
     57 CB         12.8560   61.9600  -22.7240 C.3       1 DAL        -0.0244
     58 C          13.4360   59.5400  -22.8150 C.2       1 DAL         0.2059
     59 O          12.5720   58.8810  -23.3960 O.2       1 DAL        -0.3942
     60 N          14.7660   59.2340  -22.9800 N.am      1 MLE        -0.2529
     61 CN         15.8780   59.8110  -22.1360 C.3       1 MLE         0.0254
     62 CA         15.0650   58.1070  -23.8780 C.3       1 MLE         0.1338
     63 CB         15.7940   58.7590  -25.0590 C.3       1 MLE        -0.0099
     64 CG         15.0430   59.7580  -25.9420 C.3       1 MLE        -0.0425
     65 CD1        16.0060   60.3570  -26.9580 C.3       1 MLE        -0.0625
     66 CD2        13.8850   59.0740  -26.6610 C.3       1 MLE        -0.0625
     67 C          15.9250   57.0390  -23.1940 C.2       1 MLE         0.2064
     68 O          17.1340   56.9840  -23.4070 O.2       1 MLE        -0.3942
     69 N          15.3140   56.1770  -22.3600 N.am      1 MLE        -0.2540
     70 CN         13.8280   56.1490  -22.0610 C.3       1 MLE         0.0255
     71 CA         16.2140   55.1930  -21.7480 C.3       1 MLE         0.1178
     72 CB         16.0040   55.3790  -20.2420 C.3       1 MLE        -0.0110
     73 CG         16.3160   56.7510  -19.6350 C.3       1 MLE        -0.0425
     74 CD1        16.1000   56.6840  -18.1220 C.3       1 MLE        -0.0624
     75 CD2        17.7470   57.1730  -19.9480 C.3       1 MLE        -0.0624
     76 C          15.8980   53.7760  -22.2060 C.2       1 MLE         0.1332
     77 O          14.8740   53.5480  -22.8550 O.2       1 MLE        -0.3889
     78 CN         16.7780   52.7950  -21.8640 C.3       1 MVA         0.0323
     79 CA         18.1030   53.0450  -21.1830 C.3       1 MVA        -0.0463
     80 CB         16.3510   51.4380  -22.2270 C.3       1 MVA        -0.0321
     81 CG1        17.2920   50.7600  -23.3060 C.3       1 MVA        -0.0444
     82 CG2        16.6110   49.4580  -23.7430 C.3       1 MVA        -0.0625
     83 C          17.4310   51.5660  -24.6010 C.3       1 MVA        -0.0625
     84 O          16.2490   50.6280  -20.9030 O.3       1 MVA        -0.1598
     85 OXT        17.2160   49.9020  -20.5610 O.3       1 MVA        -0.2107
     86 H1         15.4796   51.5534  -19.6624 H         1 BMT         0.2448
     87 H2         14.0753   52.1164  -21.4721 H         1 BMT         0.0790
     88 H3         13.6825   52.3321  -19.7327 H         1 BMT         0.0790
     89 H4         13.0047   50.9380  -20.6404 H         1 BMT         0.0790
     90 H5         16.1770   49.5717  -18.8305 H         1 BMT         0.1139
     91 H6         15.0459   50.1195  -16.7310 H         1 BMT         0.0681
     92 H7         13.2513   51.6246  -16.7911 H         1 BMT         0.2103
     93 H8         15.4179   52.7445  -18.2407 H         1 BMT         0.0346
     94 H9         17.7626   52.7932  -17.3637 H         1 BMT         0.0235
     95 H10        17.4683   51.4281  -18.4934 H         1 BMT         0.0235
     96 H11        17.5369   51.1302  -16.7233 H         1 BMT         0.0235
     97 H12        14.3598   53.1702  -16.1111 H         1 BMT         0.0391
     98 H13        16.0433   53.7958  -16.1437 H         1 BMT         0.0391
     99 H14        16.7434   51.9088  -14.5267 H         1 BMT         0.0450
    100 H15        13.6360   52.0894  -14.1468 H         1 BMT         0.0447
    101 H16        14.0069   50.9494  -12.0325 H         1 BMT         0.0353
    102 H17        15.6219   51.7325  -11.9598 H         1 BMT         0.0353
    103 H18        15.4288   50.1466  -12.7810 H         1 BMT         0.0353
    104 H19        14.9715   48.1211  -17.1749 H         1 ABA         0.1884
    105 H20        13.0793   46.4431  -18.7643 H         1 ABA         0.0800
    106 H21        14.1013   44.5345  -17.5771 H         1 ABA         0.0310
    107 H22        15.1769   45.6621  -16.6837 H         1 ABA         0.0310
    108 H23        16.3924   44.5169  -18.5076 H         1 ABA         0.0232
    109 H24        16.2945   46.2841  -18.8144 H         1 ABA         0.0232
    110 H25        15.2188   45.1565  -19.7077 H         1 ABA         0.0232
    111 H26        10.9381   46.7853  -14.8134 H         1 SAR         0.0765
    112 H27         9.5528   46.5796  -15.9383 H         1 SAR         0.0765
    113 H28        11.4705   47.5668  -18.9485 H         1 SAR         0.0488
    114 H29        10.3261   48.6255  -18.0562 H         1 SAR         0.0488
    115 H30         9.8956   46.9127  -18.3843 H         1 SAR         0.0488
    116 H31        12.4562   48.3211  -14.7303 H         1 MLE         0.0488
    117 H32        12.3792   49.6327  -13.5054 H         1 MLE         0.0488
    118 H33        12.8227   50.0147  -15.2037 H         1 MLE         0.0488
    119 H34         9.1010   50.9180  -14.8404 H         1 MLE         0.0802
    120 H35        11.6527   51.3025  -13.2055 H         1 MLE         0.0315
    121 H36        10.1236   50.5573  -12.6284 H         1 MLE         0.0315
    122 H37        10.7674   53.4647  -13.1460 H         1 MLE         0.0298
    123 H38         8.3431   53.9433  -12.9378 H         1 MLE         0.0232
    124 H39         7.9951   52.1812  -12.9479 H         1 MLE         0.0232
    125 H40         8.6946   52.9668  -14.4039 H         1 MLE         0.0232
    126 H41        11.1169   52.4775  -10.9057 H         1 MLE         0.0232
    127 H42         9.4156   51.9013  -10.8929 H         1 MLE         0.0232
    128 H43         9.7673   53.6628  -10.8934 H         1 MLE         0.0232
    129 H44         9.3525   51.2860  -17.0656 H         1 VAL         0.1883
    130 H45        11.6079   52.6977  -18.1737 H         1 VAL         0.0803
    131 H46         8.7300   52.5852  -19.2385 H         1 VAL         0.0343
    132 H47         9.8339   52.8665  -21.4362 H         1 VAL         0.0234
    133 H48        11.4289   52.9739  -20.6171 H         1 VAL         0.0234
    134 H49        10.1863   54.2396  -20.3331 H         1 VAL         0.0234
    135 H50         9.5691   50.3188  -18.7263 H         1 VAL         0.0234
    136 H51        11.0390   50.6446  -19.7059 H         1 VAL         0.0234
    137 H52         9.4267   50.5916  -20.4960 H         1 VAL         0.0234
    138 H53        12.7329   53.8568  -18.3525 H         1 MLE         0.0488
    139 H54        13.2610   55.2830  -17.3967 H         1 MLE         0.0488
    140 H55        12.7190   55.4917  -19.0965 H         1 MLE         0.0488
    141 H56         9.6060   56.3925  -16.9974 H         1 MLE         0.0802
    142 H57        11.3381   58.0099  -16.0418 H         1 MLE         0.0315
    143 H58        12.5906   56.8251  -16.5462 H         1 MLE         0.0315
    144 H59        11.6153   55.1340  -15.0530 H         1 MLE         0.0298
    145 H60        12.1909   56.2331  -12.9012 H         1 MLE         0.0232
    146 H61        12.0928   57.8389  -13.7003 H         1 MLE         0.0232
    147 H62        13.3573   56.6640  -14.1975 H         1 MLE         0.0232
    148 H63         9.2509   55.8815  -15.1613 H         1 MLE         0.0232
    149 H64         9.6770   57.3565  -14.2289 H         1 MLE         0.0232
    150 H65         9.8207   55.7376  -13.4639 H         1 MLE         0.0232
    151 H66        10.3055   58.9966  -17.3335 H         1 ALA         0.1883
    152 H67         9.6596   59.3805  -20.1040 H         1 ALA         0.0797
    153 H68         9.8731   61.7985  -19.5844 H         1 ALA         0.0277
    154 H69        10.5997   61.3848  -17.9946 H         1 ALA         0.0277
    155 H70         8.8990   60.9292  -18.3508 H         1 ALA         0.0277
    156 H71        10.8755   60.4903  -21.7527 H         1 DAL         0.1883
    157 H72        13.7672   60.8373  -21.1360 H         1 DAL         0.0797
    158 H73        13.8152   62.1977  -23.2072 H         1 DAL         0.0277
    159 H74        12.5651   62.7872  -22.0598 H         1 DAL         0.0277
    160 H75        12.0829   61.8185  -23.4936 H         1 DAL         0.0277
    161 H76        15.4850   60.6395  -21.5284 H         1 MLE         0.0488
    162 H77        16.6793   60.1844  -22.7906 H         1 MLE         0.0488
    163 H78        16.2794   59.0294  -21.4743 H         1 MLE         0.0488
    164 H79        14.1311   57.6379  -24.2211 H         1 MLE         0.0802
    165 H80        16.1357   57.9446  -25.7147 H         1 MLE         0.0315
    166 H81        16.6658   59.2876  -24.6460 H         1 MLE         0.0315
    167 H82        14.6417   60.5631  -25.3090 H         1 MLE         0.0298
    168 H83        15.4680   61.0755  -27.5938 H         1 MLE         0.0232
    169 H84        16.4242   59.5550  -27.5840 H         1 MLE         0.0232
    170 H85        16.8214   60.8733  -26.4303 H         1 MLE         0.0232
    171 H86        13.1953   58.6447  -25.9194 H         1 MLE         0.0232
    172 H87        14.2755   58.2727  -27.3054 H         1 MLE         0.0232
    173 H88        13.3489   59.8112  -27.2767 H         1 MLE         0.0232
    174 H89        13.3281   56.9602  -22.6106 H         1 MLE         0.0488
    175 H90        13.6686   56.2852  -20.9812 H         1 MLE         0.0488
    176 H91        13.4091   55.1814  -22.3743 H         1 MLE         0.0488
    177 H92        17.2573   55.4199  -22.0124 H         1 MLE         0.0793
    178 H93        16.6406   54.6426  -19.7298 H         1 MLE         0.0315
    179 H94        14.9470   55.1605  -20.0299 H         1 MLE         0.0315
    180 H95        15.6285   57.4953  -20.0632 H         1 MLE         0.0298
    181 H96        16.3215   57.6649  -17.6762 H         1 MLE         0.0232
    182 H97        16.7687   55.9253  -17.6894 H         1 MLE         0.0232
    183 H98        15.0545   56.4138  -17.9125 H         1 MLE         0.0232
    184 H99        17.8863   57.2165  -21.0383 H         1 MLE         0.0232
    185 H100       18.4473   56.4419  -19.5178 H         1 MLE         0.0232
    186 H101       17.9400   58.1651  -19.5139 H         1 MLE         0.0232
    187 H102       16.3053   52.7020  -20.8751 H         1 MVA         0.0528
    188 H103       18.6179   52.0868  -21.0198 H         1 MVA         0.0257
    189 H104       17.9305   53.5380  -20.2149 H         1 MVA         0.0257
    190 H105       18.7255   53.6922  -21.8183 H         1 MVA         0.0257
    191 H106       15.3306   51.4890  -22.6346 H         1 MVA         0.0295
    192 H107       16.3529   50.8157  -21.3200 H         1 MVA         0.0295
    193 H108       18.2830   50.5718  -22.8672 H         1 MVA         0.0297
    194 H109       17.2342   48.9530  -24.4957 H         1 MVA         0.0232
    195 H110       15.6261   49.6868  -24.1762 H         1 MVA         0.0232
    196 H111       16.4840   48.7999  -22.8708 H         1 MVA         0.0232
    197 H112       17.9157   52.5291  -24.3832 H         1 MVA         0.0232
    198 H113       16.4341   51.7460  -25.0297 H         1 MVA         0.0232
    199 H114       18.0431   51.0019  -25.3201 H         1 MVA         0.0232
    200 H115       17.5540   50.2000  -19.7246 H         1 MVA         0.2585
@<TRIPOS>BOND
     1    1    2 1  
     2    1    3 1  
     3    1   84 1  
     4    3    4 1  
     5    3    6 1  
     6    4    5 2  
     7    4   14 am 
     8    6    7 1  
     9    6    8 1  
    10    8    9 1  
    11    8   10 1  
    12   10   11 1  
    13   11   12 2  
    14   12   13 1  
    15   14   15 1  
    16   15   16 1  
    17   15   18 1  
    18   16   17 2  
    19   16   20 am 
    20   18   19 1  
    21   20   21 1  
    22   20   24 1  
    23   21   22 1  
    24   22   23 2  
    25   22   25 am 
    26   25   26 1  
    27   25   27 1  
    28   27   28 1  
    29   27   32 1  
    30   28   29 1  
    31   29   30 1  
    32   29   31 1  
    33   32   33 2  
    34   32   34 am 
    35   34   35 1  
    36   35   36 1  
    37   35   38 1  
    38   36   37 2  
    39   36   41 am 
    40   38   39 1  
    41   38   40 1  
    42   41   42 1  
    43   41   43 1  
    44   43   44 1  
    45   43   48 1  
    46   44   45 1  
    47   45   46 1  
    48   45   47 1  
    49   48   49 2  
    50   48   50 am 
    51   50   51 1  
    52   51   52 1  
    53   51   54 1  
    54   52   53 2  
    55   52   55 am 
    56   55   56 1  
    57   56   57 1  
    58   56   58 1  
    59   58   59 2  
    60   58   60 am 
    61   60   61 1  
    62   60   62 1  
    63   62   63 1  
    64   62   67 1  
    65   63   64 1  
    66   64   65 1  
    67   64   66 1  
    68   67   68 2  
    69   67   69 am 
    70   69   70 1  
    71   69   71 1  
    72   71   72 1  
    73   71   76 1  
    74   72   73 1  
    75   73   74 1  
    76   73   75 1  
    77   76   77 2  
    78   76   78 1  
    79   78   79 1  
    80   78   80 1  
    81   80   81 1  
    82   81   82 1  
    83   81   83 1  
    84   84   85 1  
    85    1   86 1  
    86    2   87 1  
    87    2   88 1  
    88    2   89 1  
    89    3   90 1  
    90    6   91 1  
    91    7   92 1  
    92    8   93 1  
    93    9   94 1  
    94    9   95 1  
    95    9   96 1  
    96   10   97 1  
    97   10   98 1  
    98   11   99 1  
    99   12  100 1  
   100   13  101 1  
   101   13  102 1  
   102   13  103 1  
   103   14  104 1  
   104   15  105 1  
   105   18  106 1  
   106   18  107 1  
   107   19  108 1  
   108   19  109 1  
   109   19  110 1  
   110   21  111 1  
   111   21  112 1  
   112   24  113 1  
   113   24  114 1  
   114   24  115 1  
   115   26  116 1  
   116   26  117 1  
   117   26  118 1  
   118   27  119 1  
   119   28  120 1  
   120   28  121 1  
   121   29  122 1  
   122   30  123 1  
   123   30  124 1  
   124   30  125 1  
   125   31  126 1  
   126   31  127 1  
   127   31  128 1  
   128   34  129 1  
   129   35  130 1  
   130   38  131 1  
   131   39  132 1  
   132   39  133 1  
   133   39  134 1  
   134   40  135 1  
   135   40  136 1  
   136   40  137 1  
   137   42  138 1  
   138   42  139 1  
   139   42  140 1  
   140   43  141 1  
   141   44  142 1  
   142   44  143 1  
   143   45  144 1  
   144   46  145 1  
   145   46  146 1  
   146   46  147 1  
   147   47  148 1  
   148   47  149 1  
   149   47  150 1  
   150   50  151 1  
   151   51  152 1  
   152   54  153 1  
   153   54  154 1  
   154   54  155 1  
   155   55  156 1  
   156   56  157 1  
   157   57  158 1  
   158   57  159 1  
   159   57  160 1  
   160   61  161 1  
   161   61  162 1  
   162   61  163 1  
   163   62  164 1  
   164   63  165 1  
   165   63  166 1  
   166   64  167 1  
   167   65  168 1  
   168   65  169 1  
   169   65  170 1  
   170   66  171 1  
   171   66  172 1  
   172   66  173 1  
   173   70  174 1  
   174   70  175 1  
   175   70  176 1  
   176   71  177 1  
   177   72  178 1  
   178   72  179 1  
   179   73  180 1  
   180   74  181 1  
   181   74  182 1  
   182   74  183 1  
   183   75  184 1  
   184   75  185 1  
   185   75  186 1  
   186   78  187 1  
   187   79  188 1  
   188   79  189 1  
   189   79  190 1  
   190   80  191 1  
   191   80  192 1  
   192   81  193 1  
   193   82  194 1  
   194   82  195 1  
   195   82  196 1  
   196   83  197 1  
   197   83  198 1  
   198   83  199 1  
   199   85  200 1  
@<TRIPOS>SUBSTRUCTURE
     1 BMT         1

