1qng_ligand
  -I-interpret- 

200199  0  0  0  0  0  0  0  0999 V2000
   15.0980   50.7550  -20.1450 N   0  3  0  0  0
   13.8800   51.5940  -20.5240 C   0  0  0  0  0
   15.1420   49.9340  -18.9170 C   0  0  0  0  0
   14.2500   48.6950  -18.9770 C   0  0  0  0  0
   13.5230   48.4170  -19.9630 O   0  0  0  0  0
   14.8370   50.7740  -17.5900 C   0  0  0  0  0
   13.4430   51.1250  -17.5760 O   0  0  0  0  0
   15.6950   52.0890  -17.4020 C   0  0  0  0  0
   17.2280   51.8420  -17.5030 C   0  0  0  0  0
   15.4230   52.8880  -16.1120 C   0  0  0  0  0
   15.7170   52.1660  -14.7840 C   0  0  0  0  0
   14.6620   51.8310  -13.8890 C   0  0  0  0  0
   14.9500   51.1150  -12.5740 C   0  0  0  0  0
   14.3590   47.8660  -17.9230 N   0  0  0  0  0
   13.6250   46.6160  -17.8250 C   0  0  0  0  0
   12.6040   46.6810  -16.6830 C   0  0  0  0  0
   12.9260   46.2640  -15.5570 O   0  0  0  0  0
   14.6520   45.4850  -17.6340 C   0  0  0  0  0
   15.7160   45.3510  -18.7460 C   0  0  0  0  0
   11.3580   47.1910  -16.8390 N   0  0  0  0  0
   10.4220   47.2060  -15.6890 C   0  0  0  0  0
    9.9230   48.6090  -15.3310 C   0  0  0  0  0
    8.7050   48.8090  -15.4680 O   0  0  0  0  0
   10.7190   47.6020  -18.1460 C   0  0  0  0  0
   10.7480   49.5990  -14.8890 N   0  0  0  0  0
   12.1990   49.3770  -14.5600 C   0  0  0  0  0
   10.1950   50.9480  -14.7300 C   0  0  0  0  0
   10.5560   51.3240  -13.2880 C   0  0  0  0  0
   10.0850   52.6830  -12.7810 C   0  0  0  0  0
    8.6820   52.9630  -13.3040 C   0  0  0  0  0
   10.0970   52.6810  -11.2640 C   0  0  0  0  0
   10.7450   51.9230  -15.7650 C   0  0  0  0  0
   11.7030   52.6530  -15.5180 O   0  0  0  0  0
   10.1220   51.9110  -16.9340 N   0  0  0  0  0
   10.5200   52.7760  -18.0310 C   0  0  0  0  0
   10.1530   54.2200  -17.7030 C   0  0  0  0  0
    8.9920   54.5200  -17.4450 O   0  0  0  0  0
    9.8030   52.3660  -19.3410 C   0  0  0  0  0
   10.3510   53.1670  -20.5130 C   0  0  0  0  0
    9.9710   50.8780  -19.5840 C   0  0  0  0  0
   11.1430   55.1320  -17.6890 N   0  0  0  0  0
   12.5600   54.9270  -18.1660 C   0  0  0  0  0
   10.6400   56.4730  -17.3640 C   0  0  0  0  0
   11.5460   56.9450  -16.2230 C   0  0  0  0  0
   11.3710   56.1950  -14.8960 C   0  0  0  0  0
   12.3190   56.7730  -13.8510 C   0  0  0  0  0
    9.9290   56.3000  -14.4030 C   0  0  0  0  0
   10.6300   57.4270  -18.5560 C   0  0  0  0  0
   10.7860   57.0080  -19.6990 O   0  0  0  0  0
   10.4280   58.7110  -18.2840 N   0  0  0  0  0
   10.3810   59.7150  -19.3440 C   0  0  0  0  0
   11.7430   59.8810  -20.0180 C   0  0  0  0  0
   12.7810   59.5870  -19.4250 O   0  0  0  0  0
    9.9050   61.0500  -18.7790 C   0  0  0  0  0
   11.7390   60.3580  -21.2660 N   0  0  0  0  0
   13.0010   60.6830  -21.9100 C   0  0  0  0  0
   12.8560   61.9600  -22.7240 C   0  0  0  0  0
   13.4360   59.5400  -22.8150 C   0  0  0  0  0
   12.5720   58.8810  -23.3960 O   0  0  0  0  0
   14.7660   59.2340  -22.9800 N   0  0  0  0  0
   15.8780   59.8110  -22.1360 C   0  0  0  0  0
   15.0650   58.1070  -23.8780 C   0  0  0  0  0
   15.7940   58.7590  -25.0590 C   0  0  0  0  0
   15.0430   59.7580  -25.9420 C   0  0  0  0  0
   16.0060   60.3570  -26.9580 C   0  0  0  0  0
   13.8850   59.0740  -26.6610 C   0  0  0  0  0
   15.9250   57.0390  -23.1940 C   0  0  0  0  0
   17.1340   56.9840  -23.4070 O   0  0  0  0  0
   15.3140   56.1770  -22.3600 N   0  0  0  0  0
   13.8280   56.1490  -22.0610 C   0  0  0  0  0
   16.2140   55.1930  -21.7480 C   0  0  0  0  0
   16.0040   55.3790  -20.2420 C   0  0  0  0  0
   16.3160   56.7510  -19.6350 C   0  0  0  0  0
   16.1000   56.6840  -18.1220 C   0  0  0  0  0
   17.7470   57.1730  -19.9480 C   0  0  0  0  0
   15.8980   53.7760  -22.2060 C   0  0  0  0  0
   14.8740   53.5480  -22.8550 O   0  0  0  0  0
   16.7780   52.7950  -21.8640 C   0  0  0  0  0
   18.1030   53.0450  -21.1830 C   0  0  0  0  0
   16.3510   51.4380  -22.2270 C   0  0  0  0  0
   17.2920   50.7600  -23.3060 C   0  0  0  0  0
   16.6110   49.4580  -23.7430 C   0  0  0  0  0
   17.4310   51.5660  -24.6010 C   0  0  0  0  0
   16.2490   50.6280  -20.9030 O   0  0  0  0  0
   17.2160   49.9020  -20.5610 O   0  0  0  0  0
   14.5650   51.5737  -20.4383 H   0  0  0  0  0
   14.1778   52.6371  -20.6305 H   0  0  0  0  0
   13.4714   51.2333  -21.4679 H   0  0  0  0  0
   13.1243   51.5085  -19.7432 H   0  0  0  0  0
   16.1743   49.5879  -18.8647 H   0  0  0  0  0
   15.1165   50.1231  -16.7616 H   0  0  0  0  0
   12.9134   50.3324  -17.6896 H   0  0  0  0  0
   15.3531   52.6953  -18.2408 H   0  0  0  0  0
   17.7476   52.7996  -17.5369 H   0  0  0  0  0
   17.5618   51.2767  -16.6328 H   0  0  0  0  0
   17.4448   51.2773  -18.4097 H   0  0  0  0  0
   14.3545   53.1033  -16.1092 H   0  0  0  0  0
   16.0911   53.7487  -16.1427 H   0  0  0  0  0
   16.7444   51.9086  -14.5265 H   0  0  0  0  0
   13.6351   52.0897  -14.1471 H   0  0  0  0  0
   15.4244   50.1556  -12.7805 H   0  0  0  0  0
   15.6159   51.7278  -11.9664 H   0  0  0  0  0
   14.0148   50.9515  -12.0384 H   0  0  0  0  0
   14.9838   48.1262  -17.1599 H   0  0  0  0  0
   13.0517   46.4256  -18.7323 H   0  0  0  0  0
   14.0875   44.5526  -17.6331 H   0  0  0  0  0
   15.1929   45.7113  -16.7151 H   0  0  0  0  0
   15.2221   45.1583  -19.6984 H   0  0  0  0  0
   16.2884   46.2762  -18.8128 H   0  0  0  0  0
   16.3856   44.5243  -18.5087 H   0  0  0  0  0
   10.9579   46.8165  -14.8234 H   0  0  0  0  0
    9.5532   46.6080  -15.9640 H   0  0  0  0  0
   11.3169   48.3861  -18.6105 H   0  0  0  0  0
   10.6682   46.7399  -18.8110 H   0  0  0  0  0
    9.7128   47.9753  -17.9555 H   0  0  0  0  0
   12.2807   48.6353  -13.7655 H   0  0  0  0  0
   12.7209   49.0195  -15.4476 H   0  0  0  0  0
   12.6430   50.3159  -14.2294 H   0  0  0  0  0
    9.1189   50.9868  -14.8993 H   0  0  0  0  0
   11.6450   51.3582  -13.2557 H   0  0  0  0  0
   10.0603   50.5858  -12.6576 H   0  0  0  0  0
   10.7530   53.4663  -13.1393 H   0  0  0  0  0
    8.6959   52.9665  -14.3939 H   0  0  0  0  0
    8.0024   52.1876  -12.9505 H   0  0  0  0  0
    8.3473   53.9346  -12.9405 H   0  0  0  0  0
    9.4289   51.9016  -10.8977 H   0  0  0  0  0
   11.1099   52.4889  -10.9102 H   0  0  0  0  0
    9.7608   53.6511  -10.8980 H   0  0  0  0  0
    9.3371   51.2735  -17.0682 H   0  0  0  0  0
   11.5972   52.6809  -18.1680 H   0  0  0  0  0
    8.7390   52.5822  -19.2447 H   0  0  0  0  0
   10.1872   54.2296  -20.3335 H   0  0  0  0  0
   11.4191   52.9749  -20.6150 H   0  0  0  0  0
    9.8379   52.8683  -21.4271 H   0  0  0  0  0
   11.0319   50.6423  -19.6675 H   0  0  0  0  0
    9.5389   50.3240  -18.7507 H   0  0  0  0  0
    9.4625   50.6023  -20.5079 H   0  0  0  0  0
   13.0227   54.1243  -17.5919 H   0  0  0  0  0
   12.5513   54.6611  -19.2230 H   0  0  0  0  0
   13.1258   55.8481  -18.0264 H   0  0  0  0  0
    9.5898   56.4504  -17.0730 H   0  0  0  0  0
   11.2888   57.9865  -16.0299 H   0  0  0  0  0
   12.5724   56.7723  -16.5468 H   0  0  0  0  0
   11.6049   55.1426  -15.0569 H   0  0  0  0  0
   13.3474   56.6644  -14.1956 H   0  0  0  0  0
   12.0938   57.8291  -13.7026 H   0  0  0  0  0
   12.1911   56.2373  -12.9104 H   0  0  0  0  0
    9.6734   57.3488  -14.2521 H   0  0  0  0  0
    9.2600   55.8648  -15.1454 H   0  0  0  0  0
    9.8283   55.7610  -13.4610 H   0  0  0  0  0
   10.3030   59.0023  -17.3145 H   0  0  0  0  0
    9.6750   59.3728  -20.1007 H   0  0  0  0  0
    8.9082   60.9289  -18.3550 H   0  0  0  0  0
   10.5941   61.3806  -18.0019 H   0  0  0  0  0
    9.8738   61.7908  -19.5779 H   0  0  0  0  0
   10.8582   60.4929  -21.7625 H   0  0  0  0  0
   13.7590   60.8345  -21.1416 H   0  0  0  0  0
   12.0897   61.8185  -23.4862 H   0  0  0  0  0
   12.5677   62.7788  -22.0648 H   0  0  0  0  0
   13.8070   62.1945  -23.2022 H   0  0  0  0  0
   15.8844   60.8962  -22.2383 H   0  0  0  0  0
   15.7156   59.5442  -21.0917 H   0  0  0  0  0
   16.8335   59.4075  -22.4711 H   0  0  0  0  0
   14.1658   57.5740  -24.1869 H   0  0  0  0  0
   16.0431   57.9318  -25.7237 H   0  0  0  0  0
   16.5981   59.3380  -24.6048 H   0  0  0  0  0
   14.6359   60.5501  -25.3136 H   0  0  0  0  0
   16.8135   60.8682  -26.4338 H   0  0  0  0  0
   16.4197   59.5613  -27.5775 H   0  0  0  0  0
   15.4717   61.0687  -27.5874 H   0  0  0  0  0
   14.2718   58.2697  -27.2868 H   0  0  0  0  0
   13.1939   58.6631  -25.9250 H   0  0  0  0  0
   13.3645   59.8020  -27.2833 H   0  0  0  0  0
   13.5269   57.1047  -21.6320 H   0  0  0  0  0
   13.2761   55.9739  -22.9845 H   0  0  0  0  0
   13.6163   55.3483  -21.3523 H   0  0  0  0  0
   17.2544   55.3437  -22.0359 H   0  0  0  0  0
   16.6995   54.6878  -19.7660 H   0  0  0  0  0
   14.9372   55.2267  -20.0782 H   0  0  0  0  0
   15.6489   57.4950  -20.0704 H   0  0  0  0  0
   15.0638   56.4161  -17.9157 H   0  0  0  0  0
   16.7631   55.9318  -17.6946 H   0  0  0  0  0
   16.3198   57.6565  -17.6815 H   0  0  0  0  0
   18.4394   56.4405  -19.5332 H   0  0  0  0  0
   17.8798   57.2293  -21.0284 H   0  0  0  0  0
   17.9414   58.1499  -19.5054 H   0  0  0  0  0
   17.5421   53.2819  -21.2580 H   0  0  0  0  0
   18.7188   53.6864  -21.8135 H   0  0  0  0  0
   17.9307   53.5335  -20.2240 H   0  0  0  0  0
   18.6122   52.0948  -21.0219 H   0  0  0  0  0
   15.3514   51.5083  -22.6559 H   0  0  0  0  0
   16.3861   50.8268  -21.3252 H   0  0  0  0  0
   18.2719   50.6515  -22.8412 H   0  0  0  0  0
   16.4857   48.8069  -22.8779 H   0  0  0  0  0
   15.6353   49.6861  -24.1720 H   0  0  0  0  0
   17.2295   48.9585  -24.4887 H   0  0  0  0  0
   16.4493   51.6880  -25.0587 H   0  0  0  0  0
   17.8519   52.5456  -24.3744 H   0  0  0  0  0
   18.0904   51.0360  -25.2883 H   0  0  0  0  0
   17.9071   49.9578  -21.2249 H   0  0  0  0  0
  1  2  1  0  0  0
  1  3  1  0  0  0
  1 84  1  0  0  0
  3  4  1  0  0  0
  3  6  1  0  0  0
  4  5  2  0  0  0
  4 14  1  0  0  0
  6  7  1  0  0  0
  6  8  1  0  0  0
  8  9  1  0  0  0
  8 10  1  0  0  0
 10 11  1  0  0  0
 11 12  2  0  0  0
 12 13  1  0  0  0
 14 15  1  0  0  0
 15 16  1  0  0  0
 15 18  1  0  0  0
 16 17  2  0  0  0
 16 20  1  0  0  0
 18 19  1  0  0  0
 20 21  1  0  0  0
 20 24  1  0  0  0
 21 22  1  0  0  0
 22 23  2  0  0  0
 22 25  1  0  0  0
 25 26  1  0  0  0
 25 27  1  0  0  0
 27 28  1  0  0  0
 27 32  1  0  0  0
 28 29  1  0  0  0
 29 30  1  0  0  0
 29 31  1  0  0  0
 32 33  2  0  0  0
 32 34  1  0  0  0
 34 35  1  0  0  0
 35 36  1  0  0  0
 35 38  1  0  0  0
 36 37  2  0  0  0
 36 41  1  0  0  0
 38 39  1  0  0  0
 38 40  1  0  0  0
 41 42  1  0  0  0
 41 43  1  0  0  0
 43 44  1  0  0  0
 43 48  1  0  0  0
 44 45  1  0  0  0
 45 46  1  0  0  0
 45 47  1  0  0  0
 48 49  2  0  0  0
 48 50  1  0  0  0
 50 51  1  0  0  0
 51 52  1  0  0  0
 51 54  1  0  0  0
 52 53  2  0  0  0
 52 55  1  0  0  0
 55 56  1  0  0  0
 56 57  1  0  0  0
 56 58  1  0  0  0
 58 59  2  0  0  0
 58 60  1  0  0  0
 60 61  1  0  0  0
 60 62  1  0  0  0
 62 63  1  0  0  0
 62 67  1  0  0  0
 63 64  1  0  0  0
 64 65  1  0  0  0
 64 66  1  0  0  0
 67 68  2  0  0  0
 67 69  1  0  0  0
 69 70  1  0  0  0
 69 71  1  0  0  0
 71 72  1  0  0  0
 71 76  1  0  0  0
 72 73  1  0  0  0
 73 74  1  0  0  0
 73 75  1  0  0  0
 76 77  2  0  0  0
 76 78  1  0  0  0
 78 79  1  0  0  0
 78 80  1  0  0  0
 80 81  1  0  0  0
 81 82  1  0  0  0
 81 83  1  0  0  0
 84 85  1  0  0  0
  1 86  1  0  0  0
  2 87  1  0  0  0
  2 88  1  0  0  0
  2 89  1  0  0  0
  3 90  1  0  0  0
  6 91  1  0  0  0
  7 92  1  0  0  0
  8 93  1  0  0  0
  9 94  1  0  0  0
  9 95  1  0  0  0
  9 96  1  0  0  0
 10 97  1  0  0  0
 10 98  1  0  0  0
 11 99  1  0  0  0
 12100  1  0  0  0
 13101  1  0  0  0
 13102  1  0  0  0
 13103  1  0  0  0
 14104  1  0  0  0
 15105  1  0  0  0
 18106  1  0  0  0
 18107  1  0  0  0
 19108  1  0  0  0
 19109  1  0  0  0
 19110  1  0  0  0
 21111  1  0  0  0
 21112  1  0  0  0
 24113  1  0  0  0
 24114  1  0  0  0
 24115  1  0  0  0
 26116  1  0  0  0
 26117  1  0  0  0
 26118  1  0  0  0
 27119  1  0  0  0
 28120  1  0  0  0
 28121  1  0  0  0
 29122  1  0  0  0
 30123  1  0  0  0
 30124  1  0  0  0
 30125  1  0  0  0
 31126  1  0  0  0
 31127  1  0  0  0
 31128  1  0  0  0
 34129  1  0  0  0
 35130  1  0  0  0
 38131  1  0  0  0
 39132  1  0  0  0
 39133  1  0  0  0
 39134  1  0  0  0
 40135  1  0  0  0
 40136  1  0  0  0
 40137  1  0  0  0
 42138  1  0  0  0
 42139  1  0  0  0
 42140  1  0  0  0
 43141  1  0  0  0
 44142  1  0  0  0
 44143  1  0  0  0
 45144  1  0  0  0
 46145  1  0  0  0
 46146  1  0  0  0
 46147  1  0  0  0
 47148  1  0  0  0
 47149  1  0  0  0
 47150  1  0  0  0
 50151  1  0  0  0
 51152  1  0  0  0
 54153  1  0  0  0
 54154  1  0  0  0
 54155  1  0  0  0
 55156  1  0  0  0
 56157  1  0  0  0
 57158  1  0  0  0
 57159  1  0  0  0
 57160  1  0  0  0
 61161  1  0  0  0
 61162  1  0  0  0
 61163  1  0  0  0
 62164  1  0  0  0
 63165  1  0  0  0
 63166  1  0  0  0
 64167  1  0  0  0
 65168  1  0  0  0
 65169  1  0  0  0
 65170  1  0  0  0
 66171  1  0  0  0
 66172  1  0  0  0
 66173  1  0  0  0
 70174  1  0  0  0
 70175  1  0  0  0
 70176  1  0  0  0
 71177  1  0  0  0
 72178  1  0  0  0
 72179  1  0  0  0
 73180  1  0  0  0
 74181  1  0  0  0
 74182  1  0  0  0
 74183  1  0  0  0
 75184  1  0  0  0
 75185  1  0  0  0
 75186  1  0  0  0
 78187  1  0  0  0
 79188  1  0  0  0
 79189  1  0  0  0
 79190  1  0  0  0
 80191  1  0  0  0
 80192  1  0  0  0
 81193  1  0  0  0
 82194  1  0  0  0
 82195  1  0  0  0
 82196  1  0  0  0
 83197  1  0  0  0
 83198  1  0  0  0
 83199  1  0  0  0
 85200  1  0  0  0
M  END
$$$$
