### 
### Created by X-TOOL on Mon Sep 10 21:13:14 2018
### 

@<TRIPOS>MOLECULE
4hmq_ligand
   91    96     1     0     0
SMALL
GAST_HUCK


@<TRIPOS>ATOM
      1 C1         59.5560   63.0070   -0.0570 C.2       1 FCE         0.2037
      2 N1         61.2380   61.4750    0.6590 N.am      1 FCE        -0.2637
      3 O1         59.6670   64.2170   -0.0070 O.2       1 FCE        -0.3944
      4 C2         61.5380   63.5960   -5.5190 C.2       1 FCE         0.2005
      5 N2         59.4740   62.7670   -4.5870 N.am      1 FCE        -0.2666
      6 O2         61.1720   64.6470   -5.1600 O.2       1 FCE        -0.3947
      7 C3         61.8540   64.1810    5.2370 C.2       1 FCE         0.1573
      8 N3         63.6610   60.8620    0.0120 N.am      1 FCE        -0.2637
      9 O3         62.9710   64.8610    4.6670 O.3       1 FCE        -0.1821
     10 C4         61.5400   60.1830    0.7790 C.2       1 FCE         0.2039
     11 N4         63.8810   62.4390   -3.3530 N.am      1 FCE        -0.2640
     12 O4         60.7530   59.3460    1.0070 O.2       1 FCE        -0.3944
     13 C5         59.8690   62.7800   -3.3390 C.2       1 FCE         0.2005
     14 N5         61.5360   63.0000    4.7210 N.pl3     1 FCE        -0.1668
     15 O5         60.9700   62.5150   -3.0660 O.2       1 FCE        -0.3947
     16 C6         65.9270   61.9920    3.8740 C.2       1 FCE         0.1573
     17 N6         65.5430   61.6980    2.6360 N.pl3     1 FCE        -0.1668
     18 O6         65.1800   63.0380    4.4790 O.3       1 FCE        -0.1821
     19 C7         63.4300   61.2100   -1.2500 C.2       1 FCE         0.2039
     20 N7         59.0660   62.4050   -1.0860 N.am      1 FCE        -0.2664
     21 O7         62.5880   60.6240   -1.8630 O.2       1 FCE        -0.3944
     22 C8         64.6040   63.1510   -4.1970 C.2       1 FCE         0.2007
     23 N8         63.2080   65.3000    1.0110 N.2       1 FCE        -0.0390
     24 O8         64.8190   65.4240    2.6770 O.3       1 FCE         0.0131
     25 C9         64.3340   65.8420    1.4390 C.2       1 FCE         0.3609
     26 N9         62.7970   63.2890   -5.8370 N.am      1 FCE        -0.2666
     27 C10        60.0810   62.1780    1.0650 C.3       1 FCE         0.1310
     28 O10        62.4830   62.4720    3.9140 O.3       1 FCE        -0.0763
     29 C11        60.4830   62.5320   -5.5820 C.3       1 FCE         0.1201
     30 O11        64.7820   62.6200    2.0510 O.3       1 FCE        -0.0763
     31 C13        62.9760   59.8370    0.7500 C.3       1 FCE         0.1310
     32 C14        58.9160   63.2010   -2.2970 C.3       1 FCE         0.1201
     33 O14        62.6410   64.4280    1.8130 O.3       1 FCE         0.1180
     34 C16        64.1360   62.3340   -1.9810 C.3       1 FCE         0.1310
     35 C17        63.9180   63.9790   -5.2540 C.3       1 FCE         0.1201
     36 O17        65.7700   63.1860   -4.1320 O.2       1 FCE        -0.3947
     37 C18        59.3760   62.3010    2.4080 C.3       1 FCE        -0.0105
     38 C21        63.4290   59.7360    2.2080 C.3       1 FCE        -0.0105
     39 C24        64.0190   63.7650   -1.4790 C.3       1 FCE        -0.0102
     40 C25        60.2480   61.7890    3.4990 C.3       1 FCE        -0.0268
     41 C27        64.8940   59.4090    2.5010 C.3       1 FCE        -0.0268
     42 C29        62.6200   64.2550   -1.1810 C.3       1 FCE        -0.0213
     43 C30        60.2440   62.4430    4.8330 C.3       1 FCE         0.0513
     44 C32        65.7860   60.4780    1.9280 C.3       1 FCE         0.0513
     45 C34        62.6020   65.4940   -0.2860 C.3       1 FCE         0.0979
     46 C35        67.0390   61.3000    4.5940 C.3       1 FCE        -0.0165
     47 C36        60.9990   64.6600    6.3160 C.3       1 FCE        -0.0165
     48 C37        65.0760   66.8890    0.6870 C.3       1 FCE         0.0809
     49 FE         63.8320   63.8050    3.2570 Fe        1 FCE         0.0000
     50 H1         61.9376   62.0333    0.2130 H         1 FCE         0.1883
     51 H2         58.5165   62.9135   -4.8355 H         1 FCE         0.1881
     52 H3         64.3807   61.3616    0.4941 H         1 FCE         0.1883
     53 H4         63.0960   61.9396   -3.7196 H         1 FCE         0.1883
     54 H5         58.8023   61.4409   -1.0547 H         1 FCE         0.1881
     55 H6         62.9667   62.5590   -6.4990 H         1 FCE         0.1881
     56 H7         59.4493   61.3108    0.8223 H         1 FCE         0.0800
     57 H8         60.9468   61.5508   -5.4029 H         1 FCE         0.0763
     58 H9         60.0180   62.5414   -6.5788 H         1 FCE         0.0763
     59 H10        63.1297   58.8687    0.2512 H         1 FCE         0.0800
     60 H11        57.8916   63.0810   -2.6794 H         1 FCE         0.0763
     61 H12        59.0953   64.2588   -2.0543 H         1 FCE         0.0763
     62 H13        65.1996   62.0714   -1.8817 H         1 FCE         0.0800
     63 H14        64.6428   64.2128   -6.0477 H         1 FCE         0.0763
     64 H15        63.5609   64.9135   -4.7967 H         1 FCE         0.0763
     65 H16        58.4446   61.7162    2.3836 H         1 FCE         0.0313
     66 H17        59.1402   63.3584    2.5983 H         1 FCE         0.0313
     67 H18        62.8211   58.9515    2.6823 H         1 FCE         0.0313
     68 H19        63.2125   60.7046    2.6822 H         1 FCE         0.0313
     69 H20        64.4500   64.4259   -2.2454 H         1 FCE         0.0313
     70 H21        64.6071   63.8451   -0.5529 H         1 FCE         0.0313
     71 H22        61.2818   61.8381    3.1264 H         1 FCE         0.0288
     72 H23        59.9663   60.7382    3.6616 H         1 FCE         0.0288
     73 H24        65.1487   58.4402    2.0466 H         1 FCE         0.0288
     74 H25        65.0442   59.3543    3.5893 H         1 FCE         0.0288
     75 H26        62.0659   63.4496   -0.6766 H         1 FCE         0.0291
     76 H27        62.1244   64.5015   -2.1316 H         1 FCE         0.0291
     77 H28        59.4580   63.2063    4.9309 H         1 FCE         0.0539
     78 H29        60.1608   61.7228    5.6603 H         1 FCE         0.0539
     79 H30        66.8396   60.1844    2.0449 H         1 FCE         0.0539
     80 H31        65.5603   60.6169    0.8604 H         1 FCE         0.0539
     81 H32        63.1442   66.2998   -0.8025 H         1 FCE         0.0602
     82 H33        61.5547   65.7947   -0.1353 H         1 FCE         0.0602
     83 H34        67.1506   61.7331    5.5990 H         1 FCE         0.0325
     84 H35        67.9761   61.4299    4.0327 H         1 FCE         0.0325
     85 H36        66.8088   60.2278    4.6803 H         1 FCE         0.0325
     86 H37        60.2247   63.9089    6.5312 H         1 FCE         0.0325
     87 H38        60.5207   65.6033    6.0136 H         1 FCE         0.0325
     88 H39        61.6062   64.8292    7.2174 H         1 FCE         0.0325
     89 H40        65.9767   67.1756    1.2496 H         1 FCE         0.0711
     90 H41        64.4316   67.7703    0.5529 H         1 FCE         0.0711
     91 H42        65.3685   66.4954   -0.2976 H         1 FCE         0.0711
@<TRIPOS>BOND
     1    1    3 2  
     2    1   20 am 
     3   27    1 1  
     4   10    2 am 
     5    2   27 1  
     6    4    6 2  
     7   26    4 am 
     8    4   29 1  
     9    5   13 am 
    10   29    5 1  
    11    7    9 1  
    12   14    7 1  
    13    7   47 1  
    14   19    8 am 
    15    8   31 1  
    16   10   12 2  
    17   31   10 1  
    18   11   22 am 
    19   34   11 1  
    20   13   15 2  
    21   13   32 1  
    22   14   28 1  
    23   43   14 1  
    24   17   16 1  
    25   16   18 1  
    26   16   46 1  
    27   17   30 1  
    28   44   17 1  
    29   19   21 2  
    30   34   19 1  
    31   20   32 1  
    32   22   35 1  
    33   22   36 2  
    34   23   25 2  
    35   23   33 1  
    36   45   23 1  
    37   25   24 1  
    38   25   48 1  
    39   35   26 1  
    40   27   37 1  
    41   31   38 1  
    42   39   34 1  
    43   37   40 1  
    44   38   41 1  
    45   42   39 1  
    46   40   43 1  
    47   41   44 1  
    48   42   45 1  
    49    9   49 1  
    50   49   18 1  
    51   49   24 1  
    52   49   28 1  
    53   49   30 1  
    54   49   33 1  
    55    2   50 1  
    56    5   51 1  
    57    8   52 1  
    58   11   53 1  
    59   20   54 1  
    60   26   55 1  
    61   27   56 1  
    62   29   57 1  
    63   29   58 1  
    64   31   59 1  
    65   32   60 1  
    66   32   61 1  
    67   34   62 1  
    68   35   63 1  
    69   35   64 1  
    70   37   65 1  
    71   37   66 1  
    72   38   67 1  
    73   38   68 1  
    74   39   69 1  
    75   39   70 1  
    76   40   71 1  
    77   40   72 1  
    78   41   73 1  
    79   41   74 1  
    80   42   75 1  
    81   42   76 1  
    82   43   77 1  
    83   43   78 1  
    84   44   79 1  
    85   44   80 1  
    86   45   81 1  
    87   45   82 1  
    88   46   83 1  
    89   46   84 1  
    90   46   85 1  
    91   47   86 1  
    92   47   87 1  
    93   47   88 1  
    94   48   89 1  
    95   48   90 1  
    96   48   91 1  
@<TRIPOS>SUBSTRUCTURE
     1 FCE         1

