4hmq_ligand
  -I-interpret- 

 93 98  0  0  0  0  0  0  0  0999 V2000
   59.5560   63.0070   -0.0570 C   0  0  0  0  0
   61.2380   61.4750    0.6590 N   0  0  0  0  0
   59.6670   64.2170   -0.0070 O   0  0  0  0  0
   61.5380   63.5960   -5.5190 C   0  0  0  0  0
   59.4740   62.7670   -4.5870 N   0  0  0  0  0
   61.1720   64.6470   -5.1600 O   0  0  0  0  0
   61.8540   64.1810    5.2370 C   0  0  0  0  0
   63.6610   60.8620    0.0120 N   0  0  0  0  0
   62.9710   64.8610    4.6670 O   0  0  0  0  0
   61.5400   60.1830    0.7790 C   0  0  0  0  0
   63.8810   62.4390   -3.3530 N   0  0  0  0  0
   60.7530   59.3460    1.0070 O   0  0  0  0  0
   59.8690   62.7800   -3.3390 C   0  0  0  0  0
   61.5360   63.0000    4.7210 N   0  0  0  0  0
   60.9700   62.5150   -3.0660 O   0  0  0  0  0
   65.9270   61.9920    3.8740 C   0  0  0  0  0
   65.5430   61.6980    2.6360 N   0  0  0  0  0
   65.1800   63.0380    4.4790 O   0  0  0  0  0
   63.4300   61.2100   -1.2500 C   0  0  0  0  0
   59.0660   62.4050   -1.0860 N   0  0  0  0  0
   62.5880   60.6240   -1.8630 O   0  0  0  0  0
   64.6040   63.1510   -4.1970 C   0  0  0  0  0
   63.2080   65.3000    1.0110 N   0  3  0  0  0
   64.8190   65.4240    2.6770 O   0  0  0  0  0
   64.3340   65.8420    1.4390 C   0  0  0  0  0
   62.7970   63.2890   -5.8370 N   0  0  0  0  0
   60.0810   62.1780    1.0650 C   0  0  0  0  0
   62.4830   62.4720    3.9140 O   0  0  0  0  0
   60.4830   62.5320   -5.5820 C   0  0  0  0  0
   64.7820   62.6200    2.0510 O   0  0  0  0  0
   62.9760   59.8370    0.7500 C   0  0  0  0  0
   58.9160   63.2010   -2.2970 C   0  0  0  0  0
   62.6410   64.4280    1.8130 O   0  0  0  0  0
   64.1360   62.3340   -1.9810 C   0  0  0  0  0
   63.9180   63.9790   -5.2540 C   0  0  0  0  0
   65.7700   63.1860   -4.1320 O   0  0  0  0  0
   59.3760   62.3010    2.4080 C   0  0  0  0  0
   63.4290   59.7360    2.2080 C   0  0  0  0  0
   64.0190   63.7650   -1.4790 C   0  0  0  0  0
   60.2480   61.7890    3.4990 C   0  0  0  0  0
   64.8940   59.4090    2.5010 C   0  0  0  0  0
   62.6200   64.2550   -1.1810 C   0  0  0  0  0
   60.2440   62.4430    4.8330 C   0  0  0  0  0
   65.7860   60.4780    1.9280 C   0  0  0  0  0
   62.6020   65.4940   -0.2860 C   0  0  0  0  0
   67.0390   61.3000    4.5940 C   0  0  0  0  0
   60.9990   64.6600    6.3160 C   0  0  0  0  0
   65.0760   66.8890    0.6870 C   0  0  0  0  0
   63.8320   63.8050    3.2570 Fe  0  0  0  0  0
   61.9516   62.0445    0.2041 H   0  0  0  0  0
   58.4974   62.9165   -4.8405 H   0  0  0  0  0
   62.2963   65.0467    5.7300 H   0  0  0  0  0
   64.3951   61.3716    0.5037 H   0  0  0  0  0
   63.0803   61.9296   -3.7269 H   0  0  0  0  0
   66.7740   61.3681    4.1595 H   0  0  0  0  0
   58.7970   61.4216   -1.0541 H   0  0  0  0  0
   62.9701   62.5444   -6.5123 H   0  0  0  0  0
   60.0649   61.4550    1.8805 H   0  0  0  0  0
   60.9453   61.5625   -5.3964 H   0  0  0  0  0
   60.0195   62.5498   -6.5684 H   0  0  0  0  0
   63.1902   58.8890    0.2565 H   0  0  0  0  0
   57.9040   63.0640   -2.6780 H   0  0  0  0  0
   59.1108   64.2449   -2.0513 H   0  0  0  0  0
   65.1325   61.9573   -1.7502 H   0  0  0  0  0
   64.6388   64.1870   -6.0448 H   0  0  0  0  0
   63.5501   64.8920   -4.7859 H   0  0  0  0  0
   58.4575   61.7146    2.3823 H   0  0  0  0  0
   59.1505   63.3507    2.5962 H   0  0  0  0  0
   62.8640   58.9013    2.6230 H   0  0  0  0  0
   63.2726   60.7318    2.6228 H   0  0  0  0  0
   64.4005   64.4003   -2.2783 H   0  0  0  0  0
   64.5623   63.8019   -0.5347 H   0  0  0  0  0
   61.2615   61.9405    3.1276 H   0  0  0  0  0
   59.8764   60.7825    3.6912 H   0  0  0  0  0
   65.1451   58.4510    2.0458 H   0  0  0  0  0
   65.0412   59.3600    3.5799 H   0  0  0  0  0
   62.0926   63.4580   -0.6569 H   0  0  0  0  0
   62.1517   64.5218   -2.1284 H   0  0  0  0  0
   59.4274   63.1354    5.0374 H   0  0  0  0  0
   60.0599   61.8002    5.6938 H   0  0  0  0  0
   66.8312   60.1875    2.0341 H   0  0  0  0  0
   65.5716   60.6134    0.8679 H   0  0  0  0  0
   63.1774   66.2664   -0.7963 H   0  0  0  0  0
   61.5566   65.7515   -0.1160 H   0  0  0  0  0
   66.8097   60.2378    4.6788 H   0  0  0  0  0
   67.9669   61.4294    4.0369 H   0  0  0  0  0
   67.1485   61.7300    5.5896 H   0  0  0  0  0
   61.6019   64.8273    7.2085 H   0  0  0  0  0
   60.5258   65.5947    6.0152 H   0  0  0  0  0
   60.2323   63.9149    6.5283 H   0  0  0  0  0
   65.3652   66.4978   -0.2884 H   0  0  0  0  0
   64.4364   67.7616    0.5548 H   0  0  0  0  0
   65.9682   67.1721    1.2455 H   0  0  0  0  0
  1  3  2  0  0  0
  1 20  1  0  0  0
 27  1  1  0  0  0
 10  2  1  0  0  0
  2 27  1  0  0  0
  4  6  2  0  0  0
 26  4  1  0  0  0
  4 29  1  0  0  0
  5 13  1  0  0  0
 29  5  1  0  0  0
  7  9  1  0  0  0
 14  7  1  0  0  0
  7 47  1  0  0  0
 19  8  1  0  0  0
  8 31  1  0  0  0
 10 12  2  0  0  0
 31 10  1  0  0  0
 11 22  1  0  0  0
 34 11  1  0  0  0
 13 15  2  0  0  0
 13 32  1  0  0  0
 14 28  1  0  0  0
 43 14  1  0  0  0
 17 16  1  0  0  0
 16 18  1  0  0  0
 16 46  1  0  0  0
 17 30  1  0  0  0
 44 17  1  0  0  0
 19 21  2  0  0  0
 34 19  1  0  0  0
 20 32  1  0  0  0
 22 35  1  0  0  0
 22 36  2  0  0  0
 23 25  2  0  0  0
 23 33  1  0  0  0
 45 23  1  0  0  0
 25 24  1  0  0  0
 25 48  1  0  0  0
 35 26  1  0  0  0
 27 37  1  0  0  0
 31 38  1  0  0  0
 39 34  1  0  0  0
 37 40  1  0  0  0
 38 41  1  0  0  0
 42 39  1  0  0  0
 40 43  1  0  0  0
 41 44  1  0  0  0
 42 45  1  0  0  0
  9 49  1  0  0  0
 49 18  1  0  0  0
 49 24  1  0  0  0
 49 28  1  0  0  0
 49 30  1  0  0  0
 49 33  1  0  0  0
  2 50  1  0  0  0
  5 51  1  0  0  0
  7 52  1  0  0  0
  8 53  1  0  0  0
 11 54  1  0  0  0
 16 55  1  0  0  0
 20 56  1  0  0  0
 26 57  1  0  0  0
 27 58  1  0  0  0
 29 59  1  0  0  0
 29 60  1  0  0  0
 31 61  1  0  0  0
 32 62  1  0  0  0
 32 63  1  0  0  0
 34 64  1  0  0  0
 35 65  1  0  0  0
 35 66  1  0  0  0
 37 67  1  0  0  0
 37 68  1  0  0  0
 38 69  1  0  0  0
 38 70  1  0  0  0
 39 71  1  0  0  0
 39 72  1  0  0  0
 40 73  1  0  0  0
 40 74  1  0  0  0
 41 75  1  0  0  0
 41 76  1  0  0  0
 42 77  1  0  0  0
 42 78  1  0  0  0
 43 79  1  0  0  0
 43 80  1  0  0  0
 44 81  1  0  0  0
 44 82  1  0  0  0
 45 83  1  0  0  0
 45 84  1  0  0  0
 46 85  1  0  0  0
 46 86  1  0  0  0
 46 87  1  0  0  0
 47 88  1  0  0  0
 47 89  1  0  0  0
 47 90  1  0  0  0
 48 91  1  0  0  0
 48 92  1  0  0  0
 48 93  1  0  0  0
M  END
$$$$
