3k5c_ligand
  -I-interpret- 

 88 92  0  0  0  0  0  0  0  0999 V2000
   30.3240    6.1340   15.4260 N   0  0  0  0  0
   31.5350    6.2000   14.6000 C   0  0  0  0  0
   32.5990    7.0850   15.3410 C   0  0  0  0  0
   31.9990    8.4280   15.7910 C   0  0  0  0  0
   31.6290    8.6180   17.1450 C   0  0  0  0  0
   31.0670    9.8490   17.5730 C   0  0  0  0  0
   30.8750   10.8930   16.6320 C   0  0  0  0  0
   31.2430   10.7040   15.2840 C   0  0  0  0  0
   31.8050    9.4800   14.8580 C   0  0  0  0  0
   30.6920   10.0740   18.8970 O   0  0  0  0  0
   31.0670    9.2520   20.0160 C   0  0  0  0  0
   29.9070    9.1350   21.0350 C   0  0  0  0  0
   28.5720    8.6240   20.4400 C   0  0  0  0  0
   28.5740    7.0780   20.3360 C   0  0  0  0  0
   27.3260    6.6510   19.7040 N   0  0  0  0  0
   27.1260    6.5070   18.3630 C   0  0  0  0  0
   28.1760    6.5270   17.4020 C   0  0  0  0  0
   27.9010    6.3650   16.0240 C   0  0  0  0  0
   26.5620    6.1840   15.5900 C   0  0  0  0  0
   25.5060    6.1630   16.5320 C   0  0  0  0  0
   25.7970    6.3240   17.9110 C   0  0  0  0  0
   24.0580    5.9660   16.0590 C   0  0  0  0  0
   23.8000    4.5450   16.0490 O   0  0  0  0  0
   22.8490    4.1140   17.0520 C   0  0  0  0  0
   29.0430    6.3860   15.0350 C   0  0  0  0  0
   28.7720    6.6410   13.8680 O   0  0  0  0  0
   32.0520    4.7610   14.3420 C   0  0  0  0  0
   33.1810    4.7900   13.4590 O   0  0  0  0  0
   30.9820    3.8940   13.6320 C   0  0  0  0  0
   31.5390    2.6060   13.1720 N   0  3  0  0  0
   30.7230    2.0080   12.1030 C   0  0  0  0  0
   30.8500    0.4730   12.0100 C   0  0  0  0  0
   29.5460    1.1030   12.5430 C   0  0  0  0  0
   30.6640    2.7160   10.7430 C   0  0  0  0  0
   31.8650    2.9700   10.0440 C   0  0  0  0  0
   31.8490    3.6230    8.7830 C   0  0  0  0  0
   30.6010    4.0190    8.2390 C   0  0  0  0  0
   29.3930    3.7720    8.9320 C   0  0  0  0  0
   29.4240    3.1210   10.1850 C   0  0  0  0  0
   33.1790    3.8790    8.0490 C   0  0  0  0  0
   33.7770    5.2540    8.4540 C   0  0  0  0  0
   34.2290    2.7360    8.1420 C   0  0  0  0  0
   30.4557    5.8699   16.4024 H   0  0  0  0  0
   31.3278    6.6561   13.6319 H   0  0  0  0  0
   33.4202    7.2865   14.6532 H   0  0  0  0  0
   32.9417    6.5463   16.2244 H   0  0  0  0  0
   31.7771    7.8123   17.8641 H   0  0  0  0  0
   30.4429   11.8415   16.9510 H   0  0  0  0  0
   31.0926   11.5090   14.5647 H   0  0  0  0  0
   32.0892    9.3436   13.8146 H   0  0  0  0  0
   31.9231    9.7085   20.5128 H   0  0  0  0  0
   31.3117    8.2549   19.6499 H   0  0  0  0  0
   29.7199   10.1378   21.4191 H   0  0  0  0  0
   30.2174    8.4096   21.7871 H   0  0  0  0  0
   28.4478    9.0439   19.4418 H   0  0  0  0  0
   27.7550    8.9319   21.0925 H   0  0  0  0  0
   28.6553    6.6393   21.3305 H   0  0  0  0  0
   29.4241    6.7474   19.7393 H   0  0  0  0  0
   26.5387    6.4434   20.3184 H   0  0  0  0  0
   29.2050    6.6690   17.7323 H   0  0  0  0  0
   26.3464    6.0609   14.5287 H   0  0  0  0  0
   24.9828    6.3065   18.6355 H   0  0  0  0  0
   23.9192    6.3878   15.0635 H   0  0  0  0  0
   23.3639    6.4769   16.7264 H   0  0  0  0  0
   23.2278    4.3667   18.0423 H   0  0  0  0  0
   21.8960    4.6166   16.8870 H   0  0  0  0  0
   22.7098    3.0354   16.9791 H   0  0  0  0  0
   32.3058    4.3438   15.3165 H   0  0  0  0  0
   33.8798    5.3179   13.8521 H   0  0  0  0  0
   30.6190    4.4412   12.7620 H   0  0  0  0  0
   30.1812    3.6876   14.3420 H   0  0  0  0  0
   31.5529    1.9620   13.9629 H   0  0  0  0  0
   32.4753    2.7748   12.8042 H   0  0  0  0  0
   31.5564   -0.3058   12.2974 H   0  0  0  0  0
   31.1544   -0.2775   11.2805 H   0  0  0  0  0
   28.4713    1.0211   12.3803 H   0  0  0  0  0
   28.8711    0.9929   13.3918 H   0  0  0  0  0
   32.8159    2.6609   10.4779 H   0  0  0  0  0
   30.5721    4.5214    7.2721 H   0  0  0  0  0
   28.4415    4.0830    8.5006 H   0  0  0  0  0
   28.4956    2.9298   10.7231 H   0  0  0  0  0
   32.9175    3.9002    6.9910 H   0  0  0  0  0
   33.0738    6.0453    8.1943 H   0  0  0  0  0
   33.9599    5.2669    9.5285 H   0  0  0  0  0
   34.7155    5.4114    7.9225 H   0  0  0  0  0
   34.4838    2.5626    9.1875 H   0  0  0  0  0
   33.8117    1.8252    7.7125 H   0  0  0  0  0
   35.1250    3.0217    7.5909 H   0  0  0  0  0
  1  2  1  0  0  0
  1 25  1  0  0  0
  2  3  1  0  0  0
  2 27  1  0  0  0
  3  4  1  0  0  0
  4  5  4  0  0  0
  4  9  4  0  0  0
  5  6  4  0  0  0
  6  7  4  0  0  0
  6 10  1  0  0  0
  7  8  4  0  0  0
  8  9  4  0  0  0
 10 11  1  0  0  0
 11 12  1  0  0  0
 12 13  1  0  0  0
 13 14  1  0  0  0
 14 15  1  0  0  0
 15 16  1  0  0  0
 16 17  4  0  0  0
 16 21  4  0  0  0
 17 18  4  0  0  0
 18 19  4  0  0  0
 18 25  1  0  0  0
 19 20  4  0  0  0
 20 21  4  0  0  0
 20 22  1  0  0  0
 22 23  1  0  0  0
 23 24  1  0  0  0
 25 26  2  0  0  0
 27 28  1  0  0  0
 27 29  1  0  0  0
 29 30  1  0  0  0
 30 31  1  0  0  0
 31 32  1  0  0  0
 31 33  1  0  0  0
 31 34  1  0  0  0
 32 33  1  0  0  0
 34 35  4  0  0  0
 34 39  4  0  0  0
 35 36  4  0  0  0
 36 37  4  0  0  0
 36 40  1  0  0  0
 37 38  4  0  0  0
 38 39  4  0  0  0
 40 41  1  0  0  0
 40 42  1  0  0  0
  1 43  1  0  0  0
  2 44  1  0  0  0
  3 45  1  0  0  0
  3 46  1  0  0  0
  5 47  1  0  0  0
  7 48  1  0  0  0
  8 49  1  0  0  0
  9 50  1  0  0  0
 11 51  1  0  0  0
 11 52  1  0  0  0
 12 53  1  0  0  0
 12 54  1  0  0  0
 13 55  1  0  0  0
 13 56  1  0  0  0
 14 57  1  0  0  0
 14 58  1  0  0  0
 15 59  1  0  0  0
 17 60  1  0  0  0
 19 61  1  0  0  0
 21 62  1  0  0  0
 22 63  1  0  0  0
 22 64  1  0  0  0
 24 65  1  0  0  0
 24 66  1  0  0  0
 24 67  1  0  0  0
 27 68  1  0  0  0
 28 69  1  0  0  0
 29 70  1  0  0  0
 29 71  1  0  0  0
 30 72  1  0  0  0
 30 73  1  0  0  0
 32 74  1  0  0  0
 32 75  1  0  0  0
 33 76  1  0  0  0
 33 77  1  0  0  0
 35 78  1  0  0  0
 37 79  1  0  0  0
 38 80  1  0  0  0
 39 81  1  0  0  0
 40 82  1  0  0  0
 41 83  1  0  0  0
 41 84  1  0  0  0
 41 85  1  0  0  0
 42 86  1  0  0  0
 42 87  1  0  0  0
 42 88  1  0  0  0
M  END
$$$$
