### 
### Created by X-TOOL on Mon Sep 10 21:13:08 2018
### 

@<TRIPOS>MOLECULE
3v3l_ligand
   55    58     1     0     0
SMALL
GAST_HUCK


@<TRIPOS>ATOM
      1 N1         28.2110   58.8990   82.2450 N.ar      1 V3L        -0.2698
      2 C2         28.3190   57.5520   82.3350 C.ar      1 V3L         0.0533
      3 N3         27.2570   56.7330   82.4130 N.ar      1 V3L        -0.2714
      4 C4         25.9970   57.2240   82.4030 C.ar      1 V3L         0.1613
      5 C5         25.7870   58.6670   82.3100 C.ar      1 V3L         0.1045
      6 C6         26.9940   59.5070   82.2570 C.ar      1 V3L         0.1298
      7 N6         26.8320   60.8320   82.1830 N.pl3     1 V3L        -0.3152
      8 N7         24.4610   58.8860   82.3210 N.2       1 V3L        -0.2958
      9 C8         23.8670   57.6990   82.4230 C.2       1 V3L         0.1123
     10 N9         24.7750   56.7120   82.4360 N.pl3     1 V3L        -0.1919
     11 P          19.7160   56.7940   82.5430 P.3       1 V3L         0.2008
     12 PB         24.4880   54.1080   91.2780 P.3       1 V3L         0.2008
     13 C10        25.0410   55.3060   86.2440 C.3       1 V3L         0.1886
     14 C1'        24.4580   55.2790   82.6130 C.3       1 V3L         0.2013
     15 OP3        18.5170   56.0280   83.0820 O.co2     1 V3L        -0.5537
     16 O1B        25.3210   55.1690   91.9280 O.co2     1 V3L        -0.5537
     17 C12        26.4160   55.2220   86.9030 C.3       1 V3L         0.1341
     18 O12        27.4490   55.6090   86.0080 O.3       1 V3L        -0.3841
     19 C2'        23.9760   55.1010   84.0570 C.3       1 V3L         0.1450
     20 O2'        25.1150   54.8480   84.8940 O.3       1 V3L        -0.3373
     21 OP1        19.7500   56.9710   81.0340 O.co2     1 V3L        -0.5537
     22 O2B        23.0390   54.5130   91.1630 O.co2     1 V3L        -0.5537
     23 C13        26.5200   53.7550   87.3090 C.3       1 V3L         0.1144
     24 O13        27.1720   52.9540   86.3160 O.3       1 V3L        -0.3864
     25 C3'        22.9660   53.9520   83.9490 C.3       1 V3L         0.1153
     26 O3'        23.5180   52.6680   84.2450 O.3       1 V3L        -0.3864
     27 OP2        20.0390   58.0310   83.3410 O.co2     1 V3L        -0.5537
     28 O3B        24.6730   52.7080   91.8020 O.co2     1 V3L        -0.5537
     29 C14        25.0700   53.3160   87.4550 C.3       1 V3L         0.1177
     30 O14        24.2400   54.3890   86.9870 O.3       1 V3L        -0.3402
     31 C4'        22.4980   53.9930   82.4980 C.3       1 V3L         0.1182
     32 O4'        23.3930   54.8600   81.7910 O.3       1 V3L        -0.3364
     33 C15        24.7000   52.9680   88.8940 C.3       1 V3L         0.1071
     34 O15        25.0680   54.0120   89.7940 O.3       1 V3L        -0.2734
     35 C5'        21.0970   54.5420   82.3010 C.3       1 V3L         0.1072
     36 O5'        20.9630   55.8490   82.8970 O.3       1 V3L        -0.2734
     37 H1         29.3103   57.1135   82.3446 H         1 V3L         0.0996
     38 H2         25.8849   61.2366   82.1965 H         1 V3L         0.1820
     39 H3         27.6543   61.4482   82.1125 H         1 V3L         0.1820
     40 H4         22.7902   57.5497   82.4872 H         1 V3L         0.1349
     41 H5         24.6368   56.3282   86.2849 H         1 V3L         0.0938
     42 H6         25.3519   54.6697   82.4138 H         1 V3L         0.0996
     43 H7         26.4579   55.8689   87.7917 H         1 V3L         0.0671
     44 H8         27.4427   55.0344   85.2514 H         1 V3L         0.2101
     45 H9         23.4683   56.0070   84.4196 H         1 V3L         0.0680
     46 H10        27.0587   53.6584   88.2632 H         1 V3L         0.0648
     47 H11        26.6822   52.9985   85.5032 H         1 V3L         0.2100
     48 H12        22.1223   54.1363   84.6304 H         1 V3L         0.0648
     49 H13        24.2245   52.4807   83.6381 H         1 V3L         0.2100
     50 H14        24.9045   52.4265   86.8294 H         1 V3L         0.0650
     51 H15        22.5423   52.9757   82.0819 H         1 V3L         0.0650
     52 H16        25.2225   52.0447   89.1844 H         1 V3L         0.0639
     53 H17        23.6133   52.8092   88.9556 H         1 V3L         0.0639
     54 H18        20.3739   53.8579   82.7690 H         1 V3L         0.0639
     55 H19        20.8880   54.6154   81.2235 H         1 V3L         0.0639
@<TRIPOS>BOND
     1    2    1 ar 
     2    6    1 ar 
     3    3    2 ar 
     4    4    3 ar 
     5    4    5 ar 
     6   10    4 1  
     7    5    6 ar 
     8    8    5 1  
     9    6    7 1  
    10    9    8 2  
    11   10    9 1  
    12   14   10 1  
    13   11   15 ar 
    14   11   21 ar 
    15   11   27 ar 
    16   36   11 1  
    17   12   16 ar 
    18   12   22 ar 
    19   12   28 ar 
    20   34   12 1  
    21   13   17 1  
    22   20   13 1  
    23   13   30 1  
    24   14   19 1  
    25   32   14 1  
    26   17   18 1  
    27   17   23 1  
    28   19   20 1  
    29   25   19 1  
    30   23   24 1  
    31   29   23 1  
    32   25   26 1  
    33   31   25 1  
    34   30   29 1  
    35   29   33 1  
    36   31   32 1  
    37   35   31 1  
    38   33   34 1  
    39   35   36 1  
    40    2   37 1  
    41    7   38 1  
    42    7   39 1  
    43    9   40 1  
    44   13   41 1  
    45   14   42 1  
    46   17   43 1  
    47   18   44 1  
    48   19   45 1  
    49   23   46 1  
    50   24   47 1  
    51   25   48 1  
    52   26   49 1  
    53   29   50 1  
    54   31   51 1  
    55   33   52 1  
    56   33   53 1  
    57   35   54 1  
    58   35   55 1  
@<TRIPOS>SUBSTRUCTURE
     1 V3L         1

