3v3l_ligand
  -I-interpret- 

 59 62  0  0  0  0  0  0  0  0999 V2000
   28.2110   58.8990   82.2450 N   0  0  0  0  0
   28.3190   57.5520   82.3350 C   0  0  0  0  0
   27.2570   56.7330   82.4130 N   0  0  0  0  0
   25.9970   57.2240   82.4030 C   0  0  0  0  0
   25.7870   58.6670   82.3100 C   0  0  0  0  0
   26.9940   59.5070   82.2570 C   0  0  0  0  0
   26.8320   60.8320   82.1830 N   0  0  0  0  0
   24.4610   58.8860   82.3210 N   0  0  0  0  0
   23.8670   57.6990   82.4230 C   0  0  0  0  0
   24.7750   56.7120   82.4360 N   0  0  0  0  0
   19.7160   56.7940   82.5430 P   0  0  0  0  0
   24.4880   54.1080   91.2780 P   0  0  0  0  0
   25.0410   55.3060   86.2440 C   0  0  0  0  0
   24.4580   55.2790   82.6130 C   0  0  0  0  0
   18.5170   56.0280   83.0820 O   0  0  0  0  0
   25.3210   55.1690   91.9280 O   0  0  0  0  0
   26.4160   55.2220   86.9030 C   0  0  0  0  0
   27.4490   55.6090   86.0080 O   0  0  0  0  0
   23.9760   55.1010   84.0570 C   0  0  0  0  0
   25.1150   54.8480   84.8940 O   0  0  0  0  0
   19.7500   56.9710   81.0340 O   0  0  0  0  0
   23.0390   54.5130   91.1630 O   0  0  0  0  0
   26.5200   53.7550   87.3090 C   0  0  0  0  0
   27.1720   52.9540   86.3160 O   0  0  0  0  0
   22.9660   53.9520   83.9490 C   0  0  0  0  0
   23.5180   52.6680   84.2450 O   0  0  0  0  0
   20.0390   58.0310   83.3410 O   0  0  0  0  0
   24.6730   52.7080   91.8020 O   0  0  0  0  0
   25.0700   53.3160   87.4550 C   0  0  0  0  0
   24.2400   54.3890   86.9870 O   0  0  0  0  0
   22.4980   53.9930   82.4980 C   0  0  0  0  0
   23.3930   54.8600   81.7910 O   0  0  0  0  0
   24.7000   52.9680   88.8940 C   0  0  0  0  0
   25.0680   54.0120   89.7940 O   0  0  0  0  0
   21.0970   54.5420   82.3010 C   0  0  0  0  0
   20.9630   55.8490   82.8970 O   0  0  0  0  0
   29.3158   57.1111   82.3446 H   0  0  0  0  0
   27.6463   61.4422   82.1132 H   0  0  0  0  0
   25.8941   61.2327   82.1964 H   0  0  0  0  0
   22.7892   57.5496   82.4872 H   0  0  0  0  0
   24.6507   56.3237   86.2373 H   0  0  0  0  0
   25.3480   54.7009   82.3644 H   0  0  0  0  0
   18.3609   55.2544   82.5354 H   0  0  0  0  0
   26.5280   55.8978   87.7508 H   0  0  0  0  0
   28.2972   55.5447   86.4530 H   0  0  0  0  0
   23.4963   55.9655   84.5160 H   0  0  0  0  0
   19.5332   56.1373   80.6102 H   0  0  0  0  0
   22.5430   53.8069   90.7424 H   0  0  0  0  0
   27.1139   53.6353   88.2151 H   0  0  0  0  0
   27.2125   52.0433   86.6171 H   0  0  0  0  0
   22.1670   54.0848   84.6784 H   0  0  0  0  0
   22.8345   51.9994   84.1584 H   0  0  0  0  0
   24.0971   52.1089   91.3214 H   0  0  0  0  0
   24.9219   52.4083   86.8699 H   0  0  0  0  0
   22.4888   52.9639   82.1388 H   0  0  0  0  0
   25.2341   52.0616   89.1789 H   0  0  0  0  0
   23.6204   52.8282   88.9494 H   0  0  0  0  0
   20.3872   53.8664   82.7784 H   0  0  0  0  0
   20.9017   54.6244   81.2318 H   0  0  0  0  0
  2  1  4  0  0  0
  6  1  4  0  0  0
  3  2  4  0  0  0
  4  3  4  0  0  0
  4  5  4  0  0  0
 10  4  4  0  0  0
  5  6  4  0  0  0
  8  5  4  0  0  0
  6  7  1  0  0  0
  9  8  4  0  0  0
 10  9  4  0  0  0
 14 10  1  0  0  0
 11 15  1  0  0  0
 11 21  1  0  0  0
 11 27  2  0  0  0
 36 11  1  0  0  0
 12 16  2  0  0  0
 12 22  1  0  0  0
 12 28  1  0  0  0
 34 12  1  0  0  0
 13 17  1  0  0  0
 20 13  1  0  0  0
 13 30  1  0  0  0
 14 19  1  0  0  0
 32 14  1  0  0  0
 17 18  1  0  0  0
 17 23  1  0  0  0
 19 20  1  0  0  0
 25 19  1  0  0  0
 23 24  1  0  0  0
 29 23  1  0  0  0
 25 26  1  0  0  0
 31 25  1  0  0  0
 30 29  1  0  0  0
 29 33  1  0  0  0
 31 32  1  0  0  0
 35 31  1  0  0  0
 33 34  1  0  0  0
 35 36  1  0  0  0
  2 37  1  0  0  0
  7 38  1  0  0  0
  7 39  1  0  0  0
  9 40  1  0  0  0
 13 41  1  0  0  0
 14 42  1  0  0  0
 15 43  1  0  0  0
 17 44  1  0  0  0
 18 45  1  0  0  0
 19 46  1  0  0  0
 21 47  1  0  0  0
 22 48  1  0  0  0
 23 49  1  0  0  0
 24 50  1  0  0  0
 25 51  1  0  0  0
 26 52  1  0  0  0
 28 53  1  0  0  0
 29 54  1  0  0  0
 31 55  1  0  0  0
 33 56  1  0  0  0
 33 57  1  0  0  0
 35 58  1  0  0  0
 35 59  1  0  0  0
M  END
$$$$
