6i5i_ligand
  -I-interpret- 

 44 48  0  0  0  0  0  0  0  0999 V2000
   20.5790   42.8130   10.7670 C   0  0  0  0  0
   20.9250   42.0530    9.6520 C   0  0  0  0  0
   20.5540   42.4990    8.3920 C   0  0  0  0  0
   21.7350   41.2180   13.8820 N   0  0  0  0  0
   19.8640   43.6930    8.2890 C   0  0  0  0  0
   19.5480   44.3850    9.4610 C   0  0  0  0  0
   16.6850   47.8560   11.0290 N   0  0  0  0  0
   18.7400   45.5060    9.0920 C   0  0  0  0  0
   18.6860   45.4300    7.7400 C   0  0  0  0  0
   18.1610   46.4670   10.0220 C   0  0  0  0  0
   16.9690   47.2160    9.9130 C   0  0  0  0  0
   17.7050   47.5410   11.8670 N   0  0  0  0  0
   17.7610   48.1070   13.2120 C   0  0  0  0  0
   18.0020   47.0710   14.2870 C   0  0  0  0  0
   17.3340   45.8540   14.2810 C   0  0  0  0  0
   19.9010   43.9710   10.6810 N   0  0  0  0  0
   20.7080   42.4420   15.7170 C   0  0  0  0  0
   20.9490   42.2410   14.3000 N   0  0  0  0  0
   21.7040   41.3110   12.5720 C   0  0  0  0  0
   20.9170   42.3930   12.1340 C   0  0  0  0  0
   20.4580   42.9630   13.2860 C   0  0  0  0  0
   19.3610   44.3620    7.2110 O   0  0  0  0  0
   18.5910   46.7080   11.3090 C   0  0  0  0  0
   18.8350   47.3530   15.3550 C   0  0  0  0  0
   18.9470   46.4680   16.4220 C   0  0  0  0  0
   18.2600   45.2810   16.4090 C   0  0  0  0  0
   17.4810   44.9600   15.3240 C   0  0  0  0  0
   21.4791   41.1215    9.7679 H   0  0  0  0  0
   20.8011   41.9205    7.5018 H   0  0  0  0  0
   18.1518   46.1558    7.1268 H   0  0  0  0  0
   16.3565   47.2595    9.0124 H   0  0  0  0  0
   16.7966   48.5731   13.4138 H   0  0  0  0  0
   18.5935   48.8101   13.2393 H   0  0  0  0  0
   16.6852   45.6006   13.4426 H   0  0  0  0  0
   20.2287   41.5554   16.1321 H   0  0  0  0  0
   21.6569   42.6149   16.2247 H   0  0  0  0  0
   20.0580   43.3061   15.8547 H   0  0  0  0  0
   22.2272   40.6292   11.9016 H   0  0  0  0  0
   19.8143   43.8391   13.3650 H   0  0  0  0  0
   19.4832   46.2980   11.7823 H   0  0  0  0  0
   19.4099   48.2791   15.3603 H   0  0  0  0  0
   19.5827   46.7185   17.2712 H   0  0  0  0  0
   18.3317   44.5966   17.2543 H   0  0  0  0  0
   16.9761   43.9947   15.2858 H   0  0  0  0  0
  1  2  4  0  0  0
  1 16  4  0  0  0
 20  1  1  0  0  0
  2  3  4  0  0  0
  3  5  4  0  0  0
  4 18  4  0  0  0
 19  4  4  0  0  0
  6  5  4  0  0  0
  5 22  4  0  0  0
  6  8  4  0  0  0
 16  6  4  0  0  0
 11  7  4  0  0  0
 12  7  4  0  0  0
  8  9  4  0  0  0
  8 10  1  0  0  0
  9 22  4  0  0  0
 10 11  4  0  0  0
 10 23  4  0  0  0
 12 13  1  0  0  0
 23 12  4  0  0  0
 13 14  1  0  0  0
 14 15  4  0  0  0
 14 24  4  0  0  0
 15 27  4  0  0  0
 18 17  1  0  0  0
 18 21  4  0  0  0
 19 20  4  0  0  0
 20 21  4  0  0  0
 24 25  4  0  0  0
 25 26  4  0  0  0
 26 27  4  0  0  0
  2 28  1  0  0  0
  3 29  1  0  0  0
  9 30  1  0  0  0
 11 31  1  0  0  0
 13 32  1  0  0  0
 13 33  1  0  0  0
 15 34  1  0  0  0
 17 35  1  0  0  0
 17 36  1  0  0  0
 17 37  1  0  0  0
 19 38  1  0  0  0
 21 39  1  0  0  0
 23 40  1  0  0  0
 24 41  1  0  0  0
 25 42  1  0  0  0
 26 43  1  0  0  0
 27 44  1  0  0  0
M  END
$$$$
