6eir_ligand
  -I-interpret- 

 66 69  0  0  0  0  0  0  0  0999 V2000
   -9.6770  110.7320  277.2590 C   0  0  0  0  0
  -10.3120  112.0950  277.0870 C   0  0  0  0  0
  -11.0240  112.5090  278.3250 N   0  3  0  0  0
  -11.5660  113.8910  278.2300 C   0  0  0  0  0
  -12.1220  111.5890  278.6500 C   0  0  0  0  0
  -11.4510  110.3220  279.1420 C   0  0  0  0  0
  -10.4580  109.8180  278.1560 N   0  0  0  0  0
  -10.1990  108.4970  278.1040 C   0  0  0  0  0
  -11.2020  107.5820  277.7640 C   0  0  0  0  0
  -10.9140  106.2140  277.7160 C   0  0  0  0  0
  -11.8580  105.2800  277.3960 O   0  0  0  0  0
  -12.9520  105.2580  278.3280 C   0  0  0  0  0
   -8.9090  108.0340  278.3840 C   0  0  0  0  0
   -8.6210  106.6710  278.3330 C   0  0  0  0  0
   -9.6210  105.7550  277.9880 C   0  0  0  0  0
   -9.4090  104.4290  277.9300 N   0  0  0  0  0
   -8.4950  103.9320  277.0800 C   0  0  0  0  0
   -7.5970  104.7450  275.9630 S   0  0  0  0  0
   -8.1660  102.6390  277.0150 N   0  0  0  0  0
   -7.2230  102.3520  276.0930 C   0  0  0  0  0
   -6.8260  101.0880  275.9520 N   0  0  0  0  0
   -6.7830  103.4210  275.4010 C   0  0  0  0  0
   -5.8450  103.3850  274.4300 C   0  0  0  0  0
   -5.2730  102.3310  274.1450 O   0  0  0  0  0
   -5.5020  104.5580  273.7390 C   0  0  0  0  0
   -4.1640  104.9620  273.7100 C   0  0  0  0  0
   -3.7820  106.1150  273.0170 C   0  0  0  0  0
   -6.4450  105.3210  273.0380 C   0  0  0  0  0
   -6.0650  106.4750  272.3500 C   0  0  0  0  0
   -4.7290  106.8850  272.3410 C   0  0  0  0  0
   -4.3330  107.9770  271.6690 N   0  0  0  0  0
   -4.8490  109.1960  271.9560 C   0  0  0  0  0
   -5.6950  109.4300  272.8230 O   0  0  0  0  0
   -4.2920  110.3340  271.0870 C   0  0  0  0  0
   -4.7730  111.7750  271.2870 C   0  0  0  0  0
   -8.6983  110.8814  277.7149 H   0  0  0  0  0
   -9.6309  110.2652  276.2751 H   0  0  0  0  0
  -11.0308  112.0460  276.2691 H   0  0  0  0  0
   -9.5286  112.8222  276.8735 H   0  0  0  0  0
  -10.3266  112.4822  279.0688 H   0  0  0  0  0
  -12.3239  113.9297  277.4476 H   0  0  0  0  0
  -12.0123  114.1712  279.1841 H   0  0  0  0  0
  -10.7575  114.5812  277.9889 H   0  0  0  0  0
  -12.7542  111.3971  277.7830 H   0  0  0  0  0
  -12.7871  112.0093  279.4044 H   0  0  0  0  0
  -12.2152  109.5582  279.2860 H   0  0  0  0  0
  -10.9320  110.5440  280.0744 H   0  0  0  0  0
  -12.2077  107.9354  277.5366 H   0  0  0  0  0
  -12.5746  105.0257  279.3239 H   0  0  0  0  0
  -13.4368  106.2342  278.3403 H   0  0  0  0  0
  -13.6713  104.4975  278.0241 H   0  0  0  0  0
   -8.1237  108.7438  278.6438 H   0  0  0  0  0
   -7.6154  106.3183  278.5622 H   0  0  0  0  0
   -9.9418  103.8003  278.5311 H   0  0  0  0  0
   -7.2336  100.3573  276.5354 H   0  0  0  0  0
   -6.1144  100.8510  275.2607 H   0  0  0  0  0
   -3.4109  104.3724  274.2328 H   0  0  0  0  0
   -2.7342  106.4151  273.0048 H   0  0  0  0  0
   -7.4895  105.0095  273.0296 H   0  0  0  0  0
   -6.8147  107.0595  271.8168 H   0  0  0  0  0
   -3.6337  107.8878  270.9318 H   0  0  0  0  0
   -4.6147  110.0819  270.0769 H   0  0  0  0  0
   -3.2319  110.3684  271.3383 H   0  0  0  0  0
   -5.8488  111.8243  271.1185 H   0  0  0  0  0
   -4.5484  112.0937  272.3049 H   0  0  0  0  0
   -4.2628  112.4285  270.5794 H   0  0  0  0  0
  1  2  1  0  0  0
  1  7  1  0  0  0
  2  3  1  0  0  0
  3  4  1  0  0  0
  3  5  1  0  0  0
  5  6  1  0  0  0
  6  7  1  0  0  0
  7  8  1  0  0  0
  8  9  4  0  0  0
  8 13  4  0  0  0
  9 10  4  0  0  0
 10 11  1  0  0  0
 10 15  4  0  0  0
 11 12  1  0  0  0
 13 14  4  0  0  0
 14 15  4  0  0  0
 15 16  1  0  0  0
 16 17  1  0  0  0
 17 18  4  0  0  0
 17 19  4  0  0  0
 18 22  4  0  0  0
 19 20  4  0  0  0
 20 21  1  0  0  0
 20 22  4  0  0  0
 22 23  1  0  0  0
 23 24  2  0  0  0
 23 25  1  0  0  0
 25 26  4  0  0  0
 25 28  4  0  0  0
 26 27  4  0  0  0
 27 30  4  0  0  0
 28 29  4  0  0  0
 29 30  4  0  0  0
 30 31  1  0  0  0
 31 32  1  0  0  0
 32 33  2  0  0  0
 32 34  1  0  0  0
 34 35  1  0  0  0
  1 36  1  0  0  0
  1 37  1  0  0  0
  2 38  1  0  0  0
  2 39  1  0  0  0
  3 40  1  0  0  0
  4 41  1  0  0  0
  4 42  1  0  0  0
  4 43  1  0  0  0
  5 44  1  0  0  0
  5 45  1  0  0  0
  6 46  1  0  0  0
  6 47  1  0  0  0
  9 48  1  0  0  0
 12 49  1  0  0  0
 12 50  1  0  0  0
 12 51  1  0  0  0
 13 52  1  0  0  0
 14 53  1  0  0  0
 16 54  1  0  0  0
 21 55  1  0  0  0
 21 56  1  0  0  0
 26 57  1  0  0  0
 27 58  1  0  0  0
 28 59  1  0  0  0
 29 60  1  0  0  0
 31 61  1  0  0  0
 34 62  1  0  0  0
 34 63  1  0  0  0
 35 64  1  0  0  0
 35 65  1  0  0  0
 35 66  1  0  0  0
M  END
$$$$
