5whc_ligand
  -I-interpret- 

 37 39  0  0  0  0  0  0  0  0999 V2000
   32.8280    3.0390   -3.3890 C   0  0  0  0  0
   32.6180    2.8790   -4.8920 C   0  0  0  0  0
   31.0620    4.7710   -2.8830 C   0  0  0  0  0
   31.0880    5.6780   -1.8600 N   0  0  0  0  0
   30.5890    6.7430   -2.4050 C   0  0  0  0  0
   30.3350    8.0450   -1.7880 C   0  0  0  0  0
   30.5890    5.2280   -4.0030 N   0  0  0  0  0
   29.7690    9.0770   -2.5270 C   0  0  0  0  0
   29.4890   10.2970   -1.9400 C   0  0  0  0  0
   29.7740   10.5020   -0.5990 C   0  0  0  0  0
   30.3510    9.4850    0.1460 C   0  0  0  0  0
   30.6280    8.2670   -0.4480 C   0  0  0  0  0
   31.6330    1.8380   -5.1800 N   0  3  0  0  0
   32.0760    0.5360   -4.6610 C   0  0  0  0  0
   30.2600    6.5710   -3.6940 O   0  0  0  0  0
   30.3440    2.2150   -4.6060 C   0  0  0  0  0
   30.4340    2.3460   -3.0900 C   0  0  0  0  0
   31.5070    3.3610   -2.6810 C   0  0  0  0  0
   29.4700   11.6960   -0.0100 O   0  0  0  0  0
   33.5251    3.8594   -3.2187 H   0  0  0  0  0
   33.2202    2.1039   -2.9892 H   0  0  0  0  0
   33.5668    2.5960   -5.3478 H   0  0  0  0  0
   32.2536    3.8239   -5.2950 H   0  0  0  0  0
   29.5431    8.9227   -3.5821 H   0  0  0  0  0
   29.0443   11.0974   -2.5314 H   0  0  0  0  0
   30.5860    9.6451    1.1983 H   0  0  0  0  0
   31.0819    7.4712    0.1426 H   0  0  0  0  0
   31.5337    1.7474   -6.1911 H   0  0  0  0  0
   32.1771    0.5936   -3.5772 H   0  0  0  0  0
   31.3402   -0.2258   -4.9185 H   0  0  0  0  0
   33.0381    0.2781   -5.1037 H   0  0  0  0  0
   29.6159    1.4402   -4.8460 H   0  0  0  0  0
   30.0458    3.1775   -5.0217 H   0  0  0  0  0
   30.6989    1.3743   -2.6731 H   0  0  0  0  0
   29.4704    2.6894   -2.7138 H   0  0  0  0  0
   31.6766    3.2709   -1.6081 H   0  0  0  0  0
   29.7307   11.6715    0.9136 H   0  0  0  0  0
  1  2  1  0  0  0
 18  1  1  0  0  0
  2 13  1  0  0  0
  3  4  4  0  0  0
  3  7  4  0  0  0
  3 18  1  0  0  0
  4  5  4  0  0  0
  5  6  1  0  0  0
  5 15  4  0  0  0
  6  8  4  0  0  0
  6 12  4  0  0  0
  7 15  4  0  0  0
  8  9  4  0  0  0
  9 10  4  0  0  0
 10 11  4  0  0  0
 10 19  1  0  0  0
 11 12  4  0  0  0
 13 14  1  0  0  0
 13 16  1  0  0  0
 16 17  1  0  0  0
 17 18  1  0  0  0
  1 20  1  0  0  0
  1 21  1  0  0  0
  2 22  1  0  0  0
  2 23  1  0  0  0
  8 24  1  0  0  0
  9 25  1  0  0  0
 11 26  1  0  0  0
 12 27  1  0  0  0
 13 28  1  0  0  0
 14 29  1  0  0  0
 14 30  1  0  0  0
 14 31  1  0  0  0
 16 32  1  0  0  0
 16 33  1  0  0  0
 17 34  1  0  0  0
 17 35  1  0  0  0
 18 36  1  0  0  0
 19 37  1  0  0  0
M  END
$$$$
