3zcz_ligand
  -I-interpret- 

 40 39  0  0  0  0  0  0  0  0999 V2000
   -1.7240   -1.2100   35.1790 N   0  0  0  0  0
   -5.6160    1.4030   29.5620 O   0  0  0  0  0
   -1.7600    0.1010   35.4840 C   0  0  0  0  0
   -0.8820    0.6610   36.1290 O   0  0  0  0  0
   -0.7000   -1.9840   35.5770 C   0  0  0  0  0
    0.0750   -2.4040   34.3560 C   0  0  0  0  0
   -1.1140   -3.1790   36.4170 C   0  0  0  0  0
   -1.5990   -2.7340   37.8090 C   0  0  0  0  0
   -1.9180   -3.7570   38.6120 F   0  0  0  0  0
   -0.6110   -2.0420   38.3460 F   0  0  0  0  0
   -2.6670   -1.9590   37.6970 F   0  0  0  0  0
   -2.9440    0.9100   34.9790 C   0  0  0  0  0
   -2.5170    1.5410   33.6530 C   0  0  0  0  0
   -2.1460   -3.9020   35.7240 O   0  0  0  0  0
   -3.4160    2.5150   31.4950 C   0  0  0  0  0
   -4.6300    3.1570   30.8200 C   0  0  0  0  0
   -3.5840    2.4190   33.0110 C   0  0  0  0  0
   -6.6900    2.1020   31.3430 O   0  0  0  0  0
   -5.7180    2.1520   30.5600 C   0  0  0  0  0
   -4.2190    3.7150   29.5430 N   0  3  0  0  0
   -2.4847   -1.6215   34.6382 H   0  0  0  0  0
   -4.8007    1.6020   29.0959 H   0  0  0  0  0
   -0.0729   -1.3931   36.2446 H   0  0  0  0  0
    0.9749   -2.9364   34.6638 H   0  0  0  0  0
   -0.5437   -3.0584   33.7419 H   0  0  0  0  0
    0.3527   -1.5202   33.7817 H   0  0  0  0  0
   -0.2520   -3.8293   36.5658 H   0  0  0  0  0
   -3.2239    1.6777   35.7004 H   0  0  0  0  0
   -3.8173    0.2726   34.8407 H   0  0  0  0  0
   -2.3094    0.7260   32.9596 H   0  0  0  0  0
   -1.6569    2.1776   33.8605 H   0  0  0  0  0
   -1.8231   -4.1694   34.8604 H   0  0  0  0  0
   -2.5445    3.1362   31.2885 H   0  0  0  0  0
   -3.3030    1.5050   31.1011 H   0  0  0  0  0
   -5.0159    3.9270   31.4881 H   0  0  0  0  0
   -3.4932    3.4225   33.4268 H   0  0  0  0  0
   -4.5580    1.9752   33.2172 H   0  0  0  0  0
   -5.0234    4.1451   29.0866 H   0  0  0  0  0
   -3.4975    4.4192   29.6975 H   0  0  0  0  0
   -3.8486    2.9710   28.9516 H   0  0  0  0  0
  3  1  1  0  0  0
  1  5  1  0  0  0
 19  2  1  0  0  0
  3  4  2  0  0  0
 12  3  1  0  0  0
  5  6  1  0  0  0
  5  7  1  0  0  0
  7  8  1  0  0  0
  7 14  1  0  0  0
  8  9  1  0  0  0
  8 10  1  0  0  0
  8 11  1  0  0  0
 13 12  1  0  0  0
 17 13  1  0  0  0
 16 15  1  0  0  0
 15 17  1  0  0  0
 16 19  1  0  0  0
 16 20  1  0  0  0
 19 18  2  0  0  0
  1 21  1  0  0  0
  2 22  1  0  0  0
  5 23  1  0  0  0
  6 24  1  0  0  0
  6 25  1  0  0  0
  6 26  1  0  0  0
  7 27  1  0  0  0
 12 28  1  0  0  0
 12 29  1  0  0  0
 13 30  1  0  0  0
 13 31  1  0  0  0
 14 32  1  0  0  0
 15 33  1  0  0  0
 15 34  1  0  0  0
 16 35  1  0  0  0
 17 36  1  0  0  0
 17 37  1  0  0  0
 20 38  1  0  0  0
 20 39  1  0  0  0
 20 40  1  0  0  0
M  END
$$$$
