3dp2_ligand
  -I-interpret- 

 31 32  0  0  0  0  0  0  0  0999 V2000
   17.1660   14.7950  -11.5670 C   0  0  0  0  0
   18.4520   14.2820  -11.4280 C   0  0  0  0  0
   19.5400   14.9910  -11.9220 C   0  0  0  0  0
   21.3150   14.4050  -11.6250 Br  0  0  0  0  0
   19.3620   16.2060  -12.5720 C   0  0  0  0  0
   18.0770   16.7140  -12.7110 C   0  0  0  0  0
   16.9900   16.0160  -12.2070 C   0  0  0  0  0
   15.6270   16.6920  -12.3330 C   0  0  0  0  0
   15.5410   17.7010  -13.0320 O   0  0  0  0  0
   14.5960   16.1300  -11.7060 N   0  0  0  0  0
   13.4940   16.6760  -11.7840 N   0  0  0  0  0
   13.4290   17.7940  -12.4820 C   0  0  0  0  0
   12.2830   18.5460  -12.6950 C   0  0  0  0  0
   11.0370   18.0980  -12.2730 C   0  0  0  0  0
    9.9030   18.8150  -12.6330 C   0  0  0  0  0
    8.1860   18.2070  -12.1180 Br  0  0  0  0  0
   10.0050   19.9670  -13.4020 C   0  0  0  0  0
    8.8830   20.6230  -13.8030 O   0  0  0  0  0
   11.2560   20.4170  -13.8080 C   0  0  0  0  0
   11.4130   21.9850  -14.8570 Br  0  0  0  0  0
   12.3950   19.7070  -13.4530 C   0  0  0  0  0
   13.6170   20.1590  -13.8410 O   0  0  0  0  0
   16.3078   14.2463  -11.1790 H   0  0  0  0  0
   18.6058   13.3239  -10.9315 H   0  0  0  0  0
   20.2184   16.7525  -12.9671 H   0  0  0  0  0
   17.9221   17.6660  -13.2187 H   0  0  0  0  0
   13.6658   17.4488  -13.4884 H   0  0  0  0  0
   14.0390   18.4717  -11.8848 H   0  0  0  0  0
   10.9507   17.1958  -11.6674 H   0  0  0  0  0
    9.1313   21.3917  -14.3218 H   0  0  0  0  0
   13.5114   20.9645  -14.3525 H   0  0  0  0  0
  1  2  4  0  0  0
  1  7  4  0  0  0
  2  3  4  0  0  0
  3  4  1  0  0  0
  3  5  4  0  0  0
  5  6  4  0  0  0
  6  7  4  0  0  0
  7  8  1  0  0  0
  8  9  2  0  0  0
  8 10  1  0  0  0
 10 11  2  0  0  0
 11 12  1  0  0  0
 12 13  1  0  0  0
 13 14  4  0  0  0
 13 21  4  0  0  0
 14 15  4  0  0  0
 15 16  1  0  0  0
 15 17  4  0  0  0
 17 18  1  0  0  0
 17 19  4  0  0  0
 19 20  1  0  0  0
 19 21  4  0  0  0
 21 22  1  0  0  0
  1 23  1  0  0  0
  2 24  1  0  0  0
  5 25  1  0  0  0
  6 26  1  0  0  0
 12 27  1  0  0  0
 12 28  1  0  0  0
 14 29  1  0  0  0
 18 30  1  0  0  0
 22 31  1  0  0  0
M  END
$$$$
