2evo_ligand
  -I-interpret- 

 29 30  0  0  0  0  0  0  0  0999 V2000
    8.1480   -0.2440   73.8210 O   0  0  0  0  0
    8.3050   -0.4570   72.5990 C   0  0  0  0  0
    9.2150    0.2700   71.8470 N   0  0  0  0  0
    9.9890    1.2540   72.3700 C   0  0  0  0  0
   10.8820    1.9860   71.6980 N   0  0  0  0  0
   10.0100    1.7810   73.9600 S   0  0  0  0  0
   11.1680    2.9650   73.8200 C   0  0  0  0  0
   11.5570    2.9520   72.4880 C   0  0  0  0  0
    7.6440   -1.7260   70.7170 O   0  0  0  0  0
    7.4940   -1.5100   71.9340 C   0  0  0  0  0
    6.5890   -2.2280   72.6770 N   0  0  0  0  0
    5.7520   -3.2800   72.0740 C   0  0  0  0  0
    6.0670   -4.7380   72.4580 C   0  0  0  0  0
    4.2490   -3.2100   72.3850 C   0  0  0  0  0
    4.0900   -3.9810   73.7040 C   0  0  0  0  0
    5.2700   -4.9710   73.7570 C   0  0  0  0  0
    9.3069    0.0551   70.8541 H   0  0  0  0  0
   11.5435    3.6158   74.6096 H   0  0  0  0  0
   12.3141    3.6244   72.0844 H   0  0  0  0  0
    6.4939   -2.0276   73.6726 H   0  0  0  0  0
    5.9998   -3.0547   71.0367 H   0  0  0  0  0
    7.1353   -4.9039   72.5969 H   0  0  0  0  0
    5.7851   -5.4391   71.6725 H   0  0  0  0  0
    3.6468   -3.6416   71.5855 H   0  0  0  0  0
    3.8977   -2.1816   72.4692 H   0  0  0  0  0
    3.1334   -4.5019   73.7458 H   0  0  0  0  0
    4.0992   -3.3071   74.5606 H   0  0  0  0  0
    5.8890   -4.8056   74.6388 H   0  0  0  0  0
    4.9221   -6.0013   73.8311 H   0  0  0  0  0
  1  2  2  0  0  0
  2  3  1  0  0  0
  2 10  1  0  0  0
  3  4  1  0  0  0
  4  5  4  0  0  0
  4  6  4  0  0  0
  5  8  4  0  0  0
  6  7  4  0  0  0
  7  8  4  0  0  0
 10  9  2  0  0  0
 10 11  1  0  0  0
 11 12  1  0  0  0
 12 13  1  0  0  0
 12 14  1  0  0  0
 13 16  1  0  0  0
 14 15  1  0  0  0
 15 16  1  0  0  0
  3 17  1  0  0  0
  7 18  1  0  0  0
  8 19  1  0  0  0
 11 20  1  0  0  0
 12 21  1  0  0  0
 13 22  1  0  0  0
 13 23  1  0  0  0
 14 24  1  0  0  0
 14 25  1  0  0  0
 15 26  1  0  0  0
 15 27  1  0  0  0
 16 28  1  0  0  0
 16 29  1  0  0  0
M  END
$$$$
