3d1e_ligand
  -I-interpret- 

 93 93  0  0  0  0  0  0  0  0999 V2000
  -67.1940  -65.7640  -58.9900 N   0  3  0  0  0
  -68.2510  -65.5200  -60.0130 C   0  0  0  0  0
  -68.6320  -66.7790  -60.7660 C   0  0  0  0  0
  -68.2440  -67.8850  -60.3840 O   0  0  0  0  0
  -69.3850  -66.6070  -61.8480 N   0  0  0  0  0
  -69.8340  -67.7280  -62.6680 C   0  0  0  0  0
  -68.7000  -68.5260  -63.2960 C   0  0  0  0  0
  -67.7400  -67.9550  -63.8140 O   0  0  0  0  0
  -70.7450  -67.2330  -63.7910 C   0  0  0  0  0
  -71.2770  -68.3540  -64.6700 C   0  0  0  0  0
  -72.0850  -69.3550  -63.8720 C   0  0  0  0  0
  -73.0030  -68.9760  -63.1510 O   0  0  0  0  0
  -71.7470  -70.6410  -63.9950 N   0  0  0  0  0
  -68.8290  -69.8480  -63.2550 N   0  0  0  0  0
  -67.8430  -70.7460  -63.8440 C   0  0  0  0  0
  -68.3480  -71.1910  -65.2140 C   0  0  0  0  0
  -69.5230  -71.0180  -65.5360 O   0  0  0  0  0
  -67.6310  -71.9710  -62.9520 C   0  0  0  0  0
  -66.9300  -71.7240  -61.6160 C   0  0  0  0  0
  -66.9930  -72.9780  -60.7610 C   0  0  0  0  0
  -65.4930  -71.3120  -61.8750 C   0  0  0  0  0
  -67.4590  -71.7640  -66.0180 N   0  0  0  0  0
  -67.8530  -72.2140  -67.3390 C   0  0  0  0  0
  -67.7880  -73.7170  -67.5220 C   0  0  0  0  0
  -66.8740  -74.3730  -67.0200 O   0  0  0  0  0
  -68.7670  -74.2610  -68.2420 N   0  0  0  0  0
  -68.8310  -75.6930  -68.5190 C   0  0  0  0  0
  -67.7290  -76.0940  -69.4930 C   0  0  0  0  0
  -67.1540  -77.1740  -69.3860 O   0  0  0  0  0
  -70.1860  -76.0570  -69.1320 C   0  0  0  0  0
  -71.4430  -76.0110  -68.2630 C   0  0  0  0  0
  -72.6680  -76.2470  -69.1350 C   0  0  0  0  0
  -71.3560  -77.0670  -67.1750 C   0  0  0  0  0
  -67.4490  -75.2160  -70.4490 N   0  0  0  0  0
  -66.4270  -75.4700  -71.4530 C   0  0  0  0  0
  -65.9040  -74.1510  -72.0190 C   0  0  0  0  0
  -65.3830  -74.1600  -73.1580 O   0  0  0  0  0
  -67.0190  -76.3280  -72.5760 C   0  0  0  0  0
  -68.2620  -75.7440  -73.1970 C   0  0  0  0  0
  -68.1860  -74.6430  -74.0460 C   0  0  0  0  0
  -69.5150  -76.2790  -72.9090 C   0  0  0  0  0
  -69.3400  -74.0830  -74.5980 C   0  0  0  0  0
  -70.6720  -75.7270  -73.4550 C   0  0  0  0  0
  -70.5840  -74.6270  -74.3000 C   0  0  0  0  0
  -66.0130  -73.1270  -71.3090 O   0  0  0  0  0
  -66.9749  -64.8890  -58.5139 H   0  0  0  0  0
  -67.5307  -66.4468  -58.3111 H   0  0  0  0  0
  -66.3559  -66.1226  -59.4476 H   0  0  0  0  0
  -67.8613  -64.8017  -60.7344 H   0  0  0  0  0
  -69.1394  -65.1545  -59.4979 H   0  0  0  0  0
  -69.6579  -65.6608  -62.1138 H   0  0  0  0  0
  -70.3664  -68.3900  -61.9851 H   0  0  0  0  0
  -70.1572  -66.5681  -64.4238 H   0  0  0  0  0
  -71.6011  -66.7414  -63.3289 H   0  0  0  0  0
  -70.4286  -68.8739  -65.1150 H   0  0  0  0  0
  -71.9250  -67.9169  -65.4297 H   0  0  0  0  0
  -72.2597  -71.3548  -63.4773 H   0  0  0  0  0
  -70.9761  -70.9095  -64.6066 H   0  0  0  0  0
  -69.6467  -70.2485  -62.7952 H   0  0  0  0  0
  -66.8911  -70.2241  -63.9420 H   0  0  0  0  0
  -66.9851  -72.6465  -63.5130 H   0  0  0  0  0
  -68.6256  -72.3443  -62.7081 H   0  0  0  0  0
  -67.4317  -70.9213  -61.0756 H   0  0  0  0  0
  -68.0352  -73.2397  -60.5784 H   0  0  0  0  0
  -66.4974  -73.7969  -61.2823 H   0  0  0  0  0
  -66.4915  -72.7940  -59.8109 H   0  0  0  0  0
  -64.9803  -72.1072  -62.4162 H   0  0  0  0  0
  -65.4798  -70.3988  -62.4700 H   0  0  0  0  0
  -64.9901  -71.1351  -60.9243 H   0  0  0  0  0
  -66.4961  -71.8878  -65.7050 H   0  0  0  0  0
  -67.1583  -71.7707  -68.0525 H   0  0  0  0  0
  -68.8906  -71.9145  -67.4869 H   0  0  0  0  0
  -69.4988  -73.6553  -68.6135 H   0  0  0  0  0
  -68.6999  -76.2254  -67.5769 H   0  0  0  0  0
  -70.0870  -77.1037  -69.4196 H   0  0  0  0  0
  -70.3534  -75.3022  -69.9004 H   0  0  0  0  0
  -71.5260  -75.0322  -67.7906 H   0  0  0  0  0
  -72.7237  -75.4713  -69.8987 H   0  0  0  0  0
  -72.5898  -77.2238  -69.6124 H   0  0  0  0  0
  -73.5647  -76.2144  -68.5161 H   0  0  0  0  0
  -71.2698  -78.0524  -67.6329 H   0  0  0  0  0
  -70.4809  -76.8758  -66.5540 H   0  0  0  0  0
  -72.2551  -77.0281  -66.5600 H   0  0  0  0  0
  -67.9658  -74.3372  -70.4805 H   0  0  0  0  0
  -65.5951  -76.0028  -70.9923 H   0  0  0  0  0
  -65.4087  -75.0514  -73.5134 H   0  0  0  0  0
  -67.2938  -77.2887  -72.1406 H   0  0  0  0  0
  -66.2664  -76.4000  -73.3612 H   0  0  0  0  0
  -67.2130  -74.2126  -74.2828 H   0  0  0  0  0
  -69.5918  -77.1417  -72.2472 H   0  0  0  0  0
  -69.2655  -73.2211  -75.2611 H   0  0  0  0  0
  -71.6453  -76.1575  -73.2196 H   0  0  0  0  0
  -71.4875  -74.1923  -74.7276 H   0  0  0  0  0
  1  2  1  0  0  0
  2  3  1  0  0  0
  3  4  2  0  0  0
  3  5  1  0  0  0
  5  6  1  0  0  0
  6  7  1  0  0  0
  6  9  1  0  0  0
  7  8  2  0  0  0
  7 14  1  0  0  0
  9 10  1  0  0  0
 10 11  1  0  0  0
 11 12  2  0  0  0
 11 13  1  0  0  0
 14 15  1  0  0  0
 15 16  1  0  0  0
 15 18  1  0  0  0
 16 17  2  0  0  0
 16 22  1  0  0  0
 18 19  1  0  0  0
 19 20  1  0  0  0
 19 21  1  0  0  0
 22 23  1  0  0  0
 23 24  1  0  0  0
 24 25  2  0  0  0
 24 26  1  0  0  0
 26 27  1  0  0  0
 27 28  1  0  0  0
 27 30  1  0  0  0
 28 29  2  0  0  0
 28 34  1  0  0  0
 30 31  1  0  0  0
 31 32  1  0  0  0
 31 33  1  0  0  0
 34 35  1  0  0  0
 35 36  1  0  0  0
 35 38  1  0  0  0
 36 37  1  0  0  0
 36 45  2  0  0  0
 38 39  1  0  0  0
 39 40  4  0  0  0
 39 41  4  0  0  0
 40 42  4  0  0  0
 41 43  4  0  0  0
 42 44  4  0  0  0
 43 44  4  0  0  0
  1 46  1  0  0  0
  1 47  1  0  0  0
  1 48  1  0  0  0
  2 49  1  0  0  0
  2 50  1  0  0  0
  5 51  1  0  0  0
  6 52  1  0  0  0
  9 53  1  0  0  0
  9 54  1  0  0  0
 10 55  1  0  0  0
 10 56  1  0  0  0
 13 57  1  0  0  0
 13 58  1  0  0  0
 14 59  1  0  0  0
 15 60  1  0  0  0
 18 61  1  0  0  0
 18 62  1  0  0  0
 19 63  1  0  0  0
 20 64  1  0  0  0
 20 65  1  0  0  0
 20 66  1  0  0  0
 21 67  1  0  0  0
 21 68  1  0  0  0
 21 69  1  0  0  0
 22 70  1  0  0  0
 23 71  1  0  0  0
 23 72  1  0  0  0
 26 73  1  0  0  0
 27 74  1  0  0  0
 30 75  1  0  0  0
 30 76  1  0  0  0
 31 77  1  0  0  0
 32 78  1  0  0  0
 32 79  1  0  0  0
 32 80  1  0  0  0
 33 81  1  0  0  0
 33 82  1  0  0  0
 33 83  1  0  0  0
 34 84  1  0  0  0
 35 85  1  0  0  0
 37 86  1  0  0  0
 38 87  1  0  0  0
 38 88  1  0  0  0
 40 89  1  0  0  0
 41 90  1  0  0  0
 42 91  1  0  0  0
 43 92  1  0  0  0
 44 93  1  0  0  0
M  END
$$$$
