### 
### Created by X-TOOL on Mon Sep 10 21:12:59 2018
### 

@<TRIPOS>MOLECULE
3d1e_ligand
   92    92     1     0     0
SMALL
GAST_HUCK


@<TRIPOS>ATOM
      1 N         -67.1940  -65.7640  -58.9900 N.4       1 GLY         0.2357
      2 CA        -68.2510  -65.5200  -60.0130 C.3       1 GLY         0.0545
      3 C         -68.6320  -66.7790  -60.7660 C.2       1 GLY         0.2236
      4 O         -68.2440  -67.8850  -60.3840 O.2       1 GLY        -0.3910
      5 N         -69.3850  -66.6070  -61.8480 N.am      1 GLN        -0.2611
      6 CA        -69.8340  -67.7280  -62.6680 C.3       1 GLN         0.1331
      7 C         -68.7000  -68.5260  -63.2960 C.2       1 GLN         0.2040
      8 O         -67.7400  -67.9550  -63.8140 O.2       1 GLN        -0.3944
      9 CB        -70.7450  -67.2330  -63.7910 C.3       1 GLN         0.0045
     10 CG        -71.2770  -68.3540  -64.6700 C.3       1 GLN         0.0412
     11 CD        -72.0850  -69.3550  -63.8720 C.2       1 GLN         0.1737
     12 OE1       -73.0030  -68.9760  -63.1510 O.2       1 GLN        -0.3973
     13 NE2       -71.7470  -70.6410  -63.9950 N.am      1 GLN        -0.3009
     14 N         -68.8290  -69.8480  -63.2550 N.am      1 LEU        -0.2637
     15 CA        -67.8430  -70.7460  -63.8440 C.3       1 LEU         0.1312
     16 C         -68.3480  -71.1910  -65.2140 C.2       1 LEU         0.2037
     17 O         -69.5230  -71.0180  -65.5360 O.2       1 LEU        -0.3944
     18 CB        -67.6310  -71.9710  -62.9520 C.3       1 LEU        -0.0101
     19 CG        -66.9300  -71.7240  -61.6160 C.3       1 LEU        -0.0425
     20 CD1       -66.9930  -72.9780  -60.7610 C.3       1 LEU        -0.0625
     21 CD2       -65.4930  -71.3120  -61.8750 C.3       1 LEU        -0.0625
     22 N         -67.4590  -71.7640  -66.0180 N.am      1 GLY        -0.2664
     23 CA        -67.8530  -72.2140  -67.3390 C.3       1 GLY         0.1201
     24 C         -67.7880  -73.7170  -67.5220 C.2       1 GLY         0.2007
     25 O         -66.8740  -74.3730  -67.0200 O.2       1 GLY        -0.3947
     26 N         -68.7670  -74.2610  -68.2420 N.am      1 LEU        -0.2640
     27 CA        -68.8310  -75.6930  -68.5190 C.3       1 LEU         0.1312
     28 C         -67.7290  -76.0940  -69.4930 C.2       1 LEU         0.2035
     29 O         -67.1540  -77.1740  -69.3860 O.2       1 LEU        -0.3944
     30 CB        -70.1860  -76.0570  -69.1320 C.3       1 LEU        -0.0101
     31 CG        -71.4430  -76.0110  -68.2630 C.3       1 LEU        -0.0425
     32 CD1       -72.6680  -76.2470  -69.1350 C.3       1 LEU        -0.0625
     33 CD2       -71.3560  -77.0670  -67.1750 C.3       1 LEU        -0.0625
     34 N         -67.4490  -75.2160  -70.4490 N.am      1 PHE        -0.2677
     35 CA        -66.4270  -75.4700  -71.4530 C.3       1 PHE         0.1039
     36 C         -65.9040  -74.1510  -72.0190 C.2       1 PHE         0.0621
     37 O         -65.3830  -74.1600  -73.1580 O.co2     1 PHE        -0.5664
     38 CB        -67.0190  -76.3280  -72.5760 C.3       1 PHE         0.0159
     39 CG        -68.2620  -75.7440  -73.1970 C.ar      1 PHE        -0.0392
     40 CD1       -68.1860  -74.6430  -74.0460 C.ar      1 PHE        -0.0602
     41 CD2       -69.5150  -76.2790  -72.9090 C.ar      1 PHE        -0.0602
     42 CE1       -69.3400  -74.0830  -74.5980 C.ar      1 PHE        -0.0686
     43 CE2       -70.6720  -75.7270  -73.4550 C.ar      1 PHE        -0.0686
     44 CZ        -70.5840  -74.6270  -74.3000 C.ar      1 PHE        -0.0687
     45 OXT       -66.0130  -73.1270  -71.3090 O.co2     1 PHE        -0.5664
     46 H1        -66.9766  -64.8998  -58.5188 H         1 GLY         0.2012
     47 H2        -66.3652  -66.1184  -59.4411 H         1 GLY         0.2012
     48 H3        -67.5256  -66.4386  -58.3185 H         1 GLY         0.2012
     49 H4        -67.8794  -64.7768  -60.7338 H         1 GLY         0.1061
     50 H5        -69.1458  -65.1263  -59.5087 H         1 GLY         0.1061
     51 H6        -69.6525  -65.6794  -62.1086 H         1 GLN         0.1884
     52 H7        -70.4086  -68.4055  -62.0193 H         1 GLN         0.0801
     53 H8        -70.1747  -66.5352  -64.4217 H         1 GLN         0.0337
     54 H9        -71.5995  -66.7062  -63.3412 H         1 GLN         0.0337
     55 H10       -70.4280  -68.8735  -65.1383 H         1 GLN         0.0504
     56 H11       -71.9181  -67.9205  -65.4517 H         1 GLN         0.0504
     57 H12       -72.2504  -71.3410  -63.4884 H         1 GLN         0.1814
     58 H13       -70.9905  -70.9041  -64.5937 H         1 GLN         0.1814
     59 H14       -69.6306  -70.2407  -62.8043 H         1 LEU         0.1883
     60 H15       -66.8874  -70.2135  -63.9590 H         1 LEU         0.0800
     61 H16       -67.0281  -72.6968  -63.5174 H         1 LEU         0.0315
     62 H17       -68.6191  -72.4037  -62.7368 H         1 LEU         0.0315
     63 H18       -67.4434  -70.9086  -61.0854 H         1 LEU         0.0298
     64 H19       -66.4871  -72.7935  -59.8018 H         1 LEU         0.0232
     65 H20       -66.4931  -73.8053  -61.2860 H         1 LEU         0.0232
     66 H21       -68.0444  -73.2432  -60.5760 H         1 LEU         0.0232
     67 H22       -65.4781  -70.4035  -62.4949 H         1 LEU         0.0232
     68 H23       -64.9680  -72.1232  -62.4007 H         1 LEU         0.0232
     69 H24       -64.9910  -71.1106  -60.9172 H         1 LEU         0.0232
     70 H25       -66.5150  -71.8854  -65.7112 H         1 GLY         0.1881
     71 H26       -67.1852  -71.7463  -68.0774 H         1 GLY         0.0763
     72 H27       -68.8875  -71.8876  -67.5216 H         1 GLY         0.0763
     73 H28       -69.4845  -73.6672  -68.6062 H         1 LEU         0.1883
     74 H29       -68.6999  -76.2447  -67.5764 H         1 LEU         0.0800
     75 H30       -70.0986  -77.0849  -69.5136 H         1 LEU         0.0315
     76 H31       -70.3527  -75.3668  -69.9722 H         1 LEU         0.0315
     77 H32       -71.5218  -75.0194  -67.7934 H         1 LEU         0.0298
     78 H33       -73.5737  -76.2143  -68.5115 H         1 LEU         0.0232
     79 H34       -72.5904  -77.2325  -69.6174 H         1 LEU         0.0232
     80 H35       -72.7254  -75.4647  -69.9062 H         1 LEU         0.0232
     81 H36       -70.4665  -76.8820  -66.5548 H         1 LEU         0.0232
     82 H37       -71.2810  -78.0630  -67.6358 H         1 LEU         0.0232
     83 H38       -72.2574  -77.0208  -66.5462 H         1 LEU         0.0232
     84 H39       -67.9557  -74.3544  -70.4798 H         1 PHE         0.1877
     85 H40       -65.5924  -76.0140  -70.9867 H         1 PHE         0.0749
     86 H41       -67.2694  -77.3160  -72.1623 H         1 PHE         0.0467
     87 H42       -66.2589  -76.4418  -73.3629 H         1 PHE         0.0467
     88 H43       -67.2183  -74.2150  -74.2815 H         1 PHE         0.0557
     89 H44       -69.5913  -77.1369  -72.2508 H         1 PHE         0.0557
     90 H45       -69.2659  -73.2259  -75.2575 H         1 PHE         0.0599
     91 H46       -71.6400  -76.1551  -73.2209 H         1 PHE         0.0599
     92 H47       -71.4825  -74.1947  -74.7253 H         1 PHE         0.0559
@<TRIPOS>BOND
     1    1    2 1  
     2    2    3 1  
     3    3    4 2  
     4    3    5 am 
     5    5    6 1  
     6    6    7 1  
     7    6    9 1  
     8    7    8 2  
     9    7   14 am 
    10    9   10 1  
    11   10   11 1  
    12   11   12 2  
    13   11   13 am 
    14   14   15 1  
    15   15   16 1  
    16   15   18 1  
    17   16   17 2  
    18   16   22 am 
    19   18   19 1  
    20   19   20 1  
    21   19   21 1  
    22   22   23 1  
    23   23   24 1  
    24   24   25 2  
    25   24   26 am 
    26   26   27 1  
    27   27   28 1  
    28   27   30 1  
    29   28   29 2  
    30   28   34 am 
    31   30   31 1  
    32   31   32 1  
    33   31   33 1  
    34   34   35 1  
    35   35   36 1  
    36   35   38 1  
    37   36   37 ar 
    38   36   45 ar 
    39   38   39 1  
    40   39   40 ar 
    41   39   41 ar 
    42   40   42 ar 
    43   41   43 ar 
    44   42   44 ar 
    45   43   44 ar 
    46    1   46 1  
    47    1   47 1  
    48    1   48 1  
    49    2   49 1  
    50    2   50 1  
    51    5   51 1  
    52    6   52 1  
    53    9   53 1  
    54    9   54 1  
    55   10   55 1  
    56   10   56 1  
    57   13   57 1  
    58   13   58 1  
    59   14   59 1  
    60   15   60 1  
    61   18   61 1  
    62   18   62 1  
    63   19   63 1  
    64   20   64 1  
    65   20   65 1  
    66   20   66 1  
    67   21   67 1  
    68   21   68 1  
    69   21   69 1  
    70   22   70 1  
    71   23   71 1  
    72   23   72 1  
    73   26   73 1  
    74   27   74 1  
    75   30   75 1  
    76   30   76 1  
    77   31   77 1  
    78   32   78 1  
    79   32   79 1  
    80   32   80 1  
    81   33   81 1  
    82   33   82 1  
    83   33   83 1  
    84   34   84 1  
    85   35   85 1  
    86   38   86 1  
    87   38   87 1  
    88   40   88 1  
    89   41   89 1  
    90   42   90 1  
    91   43   91 1  
    92   44   92 1  
@<TRIPOS>SUBSTRUCTURE
     1 GLY         1

