3sur_ligand
  -I-interpret- 

 27 28  0  0  0  0  0  0  0  0999 V2000
   35.4930   19.2090  -15.8810 C   0  0  0  0  0
   35.3260   18.2040  -17.0770 C   0  0  0  0  0
   34.7650   16.8050  -16.6760 C   0  0  0  0  0
   35.4090   16.2750  -15.3900 C   0  0  0  0  0
   35.1690   17.3180  -14.2970 C   0  0  0  0  0
   35.6720   16.8450  -12.9350 C   0  0  0  0  0
   33.5260   19.7400  -17.4330 C   0  0  0  0  0
   32.4310   20.4940  -18.1580 C   0  0  0  0  0
   34.3340   18.8460  -18.0200 N   0  0  0  0  0
   33.8810   19.9880  -15.7680 S   0  0  0  0  0
   34.9590   15.8410  -17.7240 O   0  0  0  0  0
   34.8200   15.0050  -15.0530 O   0  0  0  0  0
   35.8760   18.5660  -14.6580 O   0  0  0  0  0
   35.3370   17.8720  -12.0030 O   0  0  0  0  0
   36.2989   19.9232  -16.0500 H   0  0  0  0  0
   36.3120   18.0225  -17.5047 H   0  0  0  0  0
   33.6977   16.9446  -16.5041 H   0  0  0  0  0
   36.4809   16.1167  -15.5091 H   0  0  0  0  0
   34.0941   17.4828  -14.2227 H   0  0  0  0  0
   36.7477   16.6702  -12.9545 H   0  0  0  0  0
   35.2113   15.8976  -12.6554 H   0  0  0  0  0
   32.8693   21.0828  -18.9638 H   0  0  0  0  0
   31.7158   19.7837  -18.5728 H   0  0  0  0  0
   31.9225   21.1563  -17.4574 H   0  0  0  0  0
   34.5583   16.1654  -18.5338 H   0  0  0  0  0
   34.9900   14.3773  -15.7591 H   0  0  0  0  0
   35.6356   17.6173  -11.1269 H   0  0  0  0  0
  2  1  1  0  0  0
  1 10  1  0  0  0
  1 13  1  0  0  0
  2  3  1  0  0  0
  9  2  1  0  0  0
  3  4  1  0  0  0
  3 11  1  0  0  0
  4  5  1  0  0  0
  4 12  1  0  0  0
  5  6  1  0  0  0
 13  5  1  0  0  0
  6 14  1  0  0  0
  7  8  1  0  0  0
  9  7  2  0  0  0
  7 10  1  0  0  0
  1 15  1  0  0  0
  2 16  1  0  0  0
  3 17  1  0  0  0
  4 18  1  0  0  0
  5 19  1  0  0  0
  6 20  1  0  0  0
  6 21  1  0  0  0
  8 22  1  0  0  0
  8 23  1  0  0  0
  8 24  1  0  0  0
 11 25  1  0  0  0
 12 26  1  0  0  0
 14 27  1  0  0  0
M  END
$$$$
