5a83_ligand
  -I-interpret- 

 71 75  0  0  0  0  0  0  0  0999 V2000
  -24.4860   42.8230   12.0140 O   0  0  0  0  0
  -25.2760   43.6940   11.6550 C   0  0  0  0  0
  -26.5140   43.7500   12.2000 N   0  0  0  0  0
  -24.9790   44.7190   10.6780 C   0  0  0  0  0
  -23.6600   44.6730    9.9500 C   0  0  0  0  0
  -25.9080   45.6850   10.3930 C   0  0  0  0  0
  -27.2100   45.7330   11.0200 C   0  0  0  0  0
  -28.1660   46.7220   10.7590 C   0  0  0  0  0
  -27.8790   47.9210    9.9210 C   0  0  0  0  0
  -26.7880   48.7490   10.1700 C   0  0  0  0  0
  -26.4960   49.8380    9.4480 N   0  0  0  0  0
  -27.3080   50.1390    8.4270 C   0  0  0  0  0
  -28.6990   48.2770    8.8540 C   0  0  0  0  0
  -28.4270   49.3970    8.0840 C   0  0  0  0  0
  -29.3130   49.7950    6.9280 C   0  0  0  0  0
  -27.4930   44.6990   11.9340 C   0  0  0  0  0
  -28.7470   44.6190   12.5630 C   0  0  0  0  0
  -29.6910   45.6010   12.2510 C   0  0  0  0  0
  -29.4110   46.6310   11.3730 C   0  0  0  0  0
  -29.0120   43.5820   13.4550 N   0  0  0  0  0
  -30.3010   43.2530   14.0490 C   0  0  0  0  0
  -31.0080   42.1750   13.2370 C   0  0  0  0  0
  -32.3510   41.8050   13.8690 C   0  0  0  0  0
  -32.1720   41.4120   15.2640 N   0  3  0  0  0
  -31.4480   42.3730   16.1040 C   0  0  0  0  0
  -30.1250   42.7800   15.4910 C   0  0  0  0  0
  -31.2460   42.7290   11.9360 O   0  0  0  0  0
  -31.4490   41.7650   10.8980 C   0  0  0  0  0
  -31.3450   42.5060    9.5880 C   0  0  0  0  0
  -31.7130   41.5810    8.4310 C   0  0  0  0  0
  -31.6970   42.2960    7.0770 C   0  0  0  0  0
  -30.0690   42.8660    6.7000 S   0  0  0  0  0
  -30.1180   43.7020    5.5330 O   0  0  0  0  0
  -29.1700   41.7430    6.6940 O   0  0  0  0  0
  -29.7350   43.8670    8.1140 C   0  0  0  0  0
  -29.9340   43.0400    9.3720 C   0  0  0  0  0
  -26.7519   43.0221   12.8738 H   0  0  0  0  0
  -23.8399   44.5462    8.8825 H   0  0  0  0  0
  -23.1196   45.6041   10.1206 H   0  0  0  0  0
  -23.0700   43.8356   10.3223 H   0  0  0  0  0
  -25.6542   46.4516    9.6609 H   0  0  0  0  0
  -26.1321   48.4955   11.0028 H   0  0  0  0  0
  -27.0750   51.0205    7.8297 H   0  0  0  0  0
  -29.5698   47.6646    8.6200 H   0  0  0  0  0
  -29.7195   50.7900    7.1093 H   0  0  0  0  0
  -28.7273   49.8023    6.0087 H   0  0  0  0  0
  -30.1295   49.0790    6.8344 H   0  0  0  0  0
  -30.6768   45.5533   12.7135 H   0  0  0  0  0
  -30.1737   47.3799   11.1594 H   0  0  0  0  0
  -28.2225   42.9927   13.7193 H   0  0  0  0  0
  -30.9122   44.1555   14.0454 H   0  0  0  0  0
  -30.3951   41.2745   13.1960 H   0  0  0  0  0
  -32.7815   40.9682   13.3189 H   0  0  0  0  0
  -33.0111   42.6715   13.8282 H   0  0  0  0  0
  -31.6156   40.5572   15.2555 H   0  0  0  0  0
  -33.1066   41.3243   15.6630 H   0  0  0  0  0
  -31.2467   41.9006   17.0655 H   0  0  0  0  0
  -32.0641   43.2661   16.2078 H   0  0  0  0  0
  -29.7101   43.6006   16.0763 H   0  0  0  0  0
  -29.4618   41.9150   15.4931 H   0  0  0  0  0
  -32.4243   41.2885   10.9972 H   0  0  0  0  0
  -30.7035   40.9719   10.9547 H   0  0  0  0  0
  -32.0381   43.3465    9.6234 H   0  0  0  0  0
  -32.7245   41.2135    8.6042 H   0  0  0  0  0
  -30.9757   40.7790    8.3954 H   0  0  0  0  0
  -32.3713   43.1513    7.1196 H   0  0  0  0  0
  -32.0164   41.5977    6.3034 H   0  0  0  0  0
  -30.4140   44.7196    8.1264 H   0  0  0  0  0
  -28.7068   44.2264    8.0722 H   0  0  0  0  0
  -29.2834   42.1705    9.2786 H   0  0  0  0  0
  -29.7183   43.6979   10.2139 H   0  0  0  0  0
  1  2  2  0  0  0
  2  3  1  0  0  0
  2  4  1  0  0  0
  3 16  1  0  0  0
  4  5  1  0  0  0
  4  6  2  0  0  0
  6  7  1  0  0  0
  7  8  4  0  0  0
  7 16  4  0  0  0
  8  9  1  0  0  0
  8 19  4  0  0  0
  9 10  4  0  0  0
  9 13  4  0  0  0
 10 11  4  0  0  0
 11 12  4  0  0  0
 12 14  4  0  0  0
 13 14  4  0  0  0
 14 15  1  0  0  0
 16 17  4  0  0  0
 17 18  4  0  0  0
 17 20  1  0  0  0
 18 19  4  0  0  0
 20 21  1  0  0  0
 21 22  1  0  0  0
 21 26  1  0  0  0
 22 23  1  0  0  0
 22 27  1  0  0  0
 23 24  1  0  0  0
 24 25  1  0  0  0
 25 26  1  0  0  0
 27 28  1  0  0  0
 28 29  1  0  0  0
 29 30  1  0  0  0
 29 36  1  0  0  0
 30 31  1  0  0  0
 31 32  1  0  0  0
 32 33  2  0  0  0
 32 34  2  0  0  0
 32 35  1  0  0  0
 35 36  1  0  0  0
  3 37  1  0  0  0
  5 38  1  0  0  0
  5 39  1  0  0  0
  5 40  1  0  0  0
  6 41  1  0  0  0
 10 42  1  0  0  0
 12 43  1  0  0  0
 13 44  1  0  0  0
 15 45  1  0  0  0
 15 46  1  0  0  0
 15 47  1  0  0  0
 18 48  1  0  0  0
 19 49  1  0  0  0
 20 50  1  0  0  0
 21 51  1  0  0  0
 22 52  1  0  0  0
 23 53  1  0  0  0
 23 54  1  0  0  0
 24 55  1  0  0  0
 24 56  1  0  0  0
 25 57  1  0  0  0
 25 58  1  0  0  0
 26 59  1  0  0  0
 26 60  1  0  0  0
 28 61  1  0  0  0
 28 62  1  0  0  0
 29 63  1  0  0  0
 30 64  1  0  0  0
 30 65  1  0  0  0
 31 66  1  0  0  0
 31 67  1  0  0  0
 35 68  1  0  0  0
 35 69  1  0  0  0
 36 70  1  0  0  0
 36 71  1  0  0  0
M  END
$$$$
