3kl6_ligand
  -I-interpret- 

 58 61  0  0  0  0  0  0  0  0999 V2000
    1.8430   -9.1500  -16.5290 C   0  0  0  0  0
    4.4350   -8.0650  -16.3690 C   0  0  0  0  0
    6.1080   -7.5760  -14.7230 C   0  0  0  0  0
    6.3900   -3.9080  -14.3980 C   0  0  0  0  0
    5.4380   -3.4900  -15.3520 C   0  0  0  0  0
    4.9240   -5.7800  -15.8780 C   0  0  0  0  0
   -1.4730  -10.5620  -13.1870 C   0  0  0  0  0
   -0.6470  -10.9160  -10.8590 C   0  0  0  0  0
    0.9450  -11.1940  -12.7730 C   0  0  0  0  0
    0.0020   -9.4580   -8.8660 C   0  0  0  0  0
    2.4780   -9.0860  -14.1740 O   0  0  0  0  0
    1.7620   -9.8460  -15.1700 C   0  0  0  0  0
    3.4910   -9.2420  -17.2640 S   0  0  0  0  0
    4.0900  -10.5140  -16.9920 O   0  0  0  0  0
    3.3890   -8.7440  -18.5940 O   0  0  0  0  0
    5.3910   -8.4820  -15.4340 C   0  0  0  0  0
    5.8930   -6.2020  -14.9260 C   0  0  0  0  0
    6.6140   -5.2410  -14.2010 C   0  0  0  0  0
    7.2870   -2.7420  -13.4710 Cl  0  0  0  0  0
    4.7170   -4.3970  -16.0770 C   0  0  0  0  0
    4.2010   -6.7420  -16.6030 C   0  0  0  0  0
    0.3040   -9.9030  -14.7670 C   0  0  0  0  0
   -0.5350   -9.3670  -15.4730 O   0  0  0  0  0
   -0.0590  -10.5200  -13.6180 N   0  0  0  0  0
   -1.5500  -10.0320  -11.7370 C   0  0  0  0  0
    0.8120  -10.7620  -11.3100 C   0  0  0  0  0
   -0.7190  -10.6220   -9.4150 N   0  0  0  0  0
   -0.6430   -8.9470   -7.5730 C   0  0  0  0  0
   -0.8380  -10.1060   -6.5880 C   0  0  0  0  0
   -1.4890  -11.2330   -7.2580 N   0  0  0  0  0
   -1.4060  -11.4380   -8.5860 C   0  0  0  0  0
   -1.9810  -12.4010   -9.0530 O   0  0  0  0  0
    1.6016   -8.0975  -16.3804 H   0  0  0  0  0
    1.1480   -9.6508  -17.2030 H   0  0  0  0  0
    6.8481   -7.9124  -13.9970 H   0  0  0  0  0
    5.2747   -2.4245  -15.5137 H   0  0  0  0  0
   -1.8494  -11.5839  -13.2336 H   0  0  0  0  0
   -2.0845   -9.9448  -13.8452 H   0  0  0  0  0
   -1.0137  -11.9338  -10.9921 H   0  0  0  0  0
    1.9392  -10.9228  -13.1282 H   0  0  0  0  0
    0.7873  -12.2708  -12.8349 H   0  0  0  0  0
   -0.0288   -8.6566   -9.6042 H   0  0  0  0  0
    1.0242   -9.7628   -8.6417 H   0  0  0  0  0
    3.4062   -9.0399  -14.4145 H   0  0  0  0  0
    2.1988  -10.8421  -15.2414 H   0  0  0  0  0
    5.5608   -9.5470  -15.2758 H   0  0  0  0  0
    7.3600   -5.5613  -13.4736 H   0  0  0  0  0
    3.9840   -4.0539  -16.8071 H   0  0  0  0  0
    3.4623   -6.4348  -17.3433 H   0  0  0  0  0
   -2.5781  -10.0688  -11.3767 H   0  0  0  0  0
   -1.2159   -8.9953  -11.6968 H   0  0  0  0  0
    1.4517  -11.3878  -10.6877 H   0  0  0  0  0
    1.1138   -9.7193  -11.2111 H   0  0  0  0  0
   -1.6133   -8.5085   -7.8062 H   0  0  0  0  0
    0.0072   -8.1983   -7.1204 H   0  0  0  0  0
   -1.4650   -9.7710   -5.7617 H   0  0  0  0  0
    0.1351  -10.4257   -6.2152 H   0  0  0  0  0
   -2.0282  -11.8907   -6.6950 H   0  0  0  0  0
 12  1  1  0  0  0
  1 13  1  0  0  0
 13  2  1  0  0  0
  2 16  4  0  0  0
  2 21  4  0  0  0
 16  3  4  0  0  0
  3 17  4  0  0  0
  5  4  4  0  0  0
 18  4  4  0  0  0
  4 19  1  0  0  0
 20  5  4  0  0  0
  6 17  4  0  0  0
  6 20  4  0  0  0
 21  6  4  0  0  0
 24  7  1  0  0  0
  7 25  1  0  0  0
 25  8  1  0  0  0
 26  8  1  0  0  0
  8 27  1  0  0  0
 24  9  1  0  0  0
  9 26  1  0  0  0
 27 10  1  0  0  0
 10 28  1  0  0  0
 12 11  1  0  0  0
 22 12  1  0  0  0
 13 14  2  0  0  0
 13 15  2  0  0  0
 17 18  4  0  0  0
 22 23  2  0  0  0
 22 24  1  0  0  0
 27 31  1  0  0  0
 28 29  1  0  0  0
 29 30  1  0  0  0
 30 31  1  0  0  0
 31 32  2  0  0  0
  1 33  1  0  0  0
  1 34  1  0  0  0
  3 35  1  0  0  0
  5 36  1  0  0  0
  7 37  1  0  0  0
  7 38  1  0  0  0
  8 39  1  0  0  0
  9 40  1  0  0  0
  9 41  1  0  0  0
 10 42  1  0  0  0
 10 43  1  0  0  0
 11 44  1  0  0  0
 12 45  1  0  0  0
 16 46  1  0  0  0
 18 47  1  0  0  0
 20 48  1  0  0  0
 21 49  1  0  0  0
 25 50  1  0  0  0
 25 51  1  0  0  0
 26 52  1  0  0  0
 26 53  1  0  0  0
 28 54  1  0  0  0
 28 55  1  0  0  0
 29 56  1  0  0  0
 29 57  1  0  0  0
 30 58  1  0  0  0
M  END
$$$$
