3q8h_ligand
  -I-interpret- 

 42 45  0  0  0  0  0  0  0  0999 V2000
   10.6920  -27.1610  -24.5350 N   0  0  0  0  0
   11.0360  -26.9040  -25.8430 C   0  0  0  0  0
   10.2600  -27.1390  -26.7480 O   0  0  0  0  0
   12.2360  -26.4210  -26.0890 N   0  0  0  0  0
   13.0950  -26.1120  -25.1480 C   0  0  0  0  0
   14.2700  -25.5920  -25.4710 N   0  0  0  0  0
   12.7640  -26.3610  -23.8510 C   0  0  0  0  0
   11.5310  -26.8870  -23.5870 C   0  0  0  0  0
    9.3860  -27.7050  -24.2080 C   0  0  0  0  0
    9.4830  -28.9540  -23.3940 C   0  0  0  0  0
    9.5410  -30.0190  -24.2760 O   0  0  0  0  0
    8.1980  -28.9620  -22.6810 C   0  0  0  0  0
    7.3840  -29.5820  -23.6310 O   0  0  0  0  0
    6.4790  -27.6040  -19.4730 C   0  0  0  0  0
    5.5470  -27.1500  -20.0290 O   0  0  0  0  0
    6.3720  -28.0510  -18.1080 C   0  0  0  0  0
    5.0490  -28.1900  -17.4690 N   0  3  0  0  0
    5.3360  -28.5610  -16.2540 C   0  0  0  0  0
    6.6620  -28.7440  -16.0020 N   0  0  0  0  0
    7.3070  -28.3970  -17.1470 C   0  0  0  0  0
    3.9810  -28.7860  -15.3700 S   0  0  0  0  0
    2.9000  -28.2730  -16.6470 C   0  0  0  0  0
    3.6970  -27.9800  -17.7810 C   0  0  0  0  0
    7.8330  -27.4890  -22.5570 C   0  0  0  0  0
    8.7800  -26.8110  -23.3340 O   0  0  0  0  0
    7.9070  -26.8340  -21.2020 C   0  0  0  0  0
    7.6440  -27.6660  -20.0620 N   0  0  0  0  0
   14.5052  -25.4326  -26.4506 H   0  0  0  0  0
   13.4646  -26.1462  -23.0441 H   0  0  0  0  0
   11.2463  -27.0809  -22.5529 H   0  0  0  0  0
    8.8631  -27.8853  -25.1472 H   0  0  0  0  0
   10.3426  -29.0125  -22.7264 H   0  0  0  0  0
    9.6041  -30.8394  -23.7815 H   0  0  0  0  0
    8.1513  -29.4394  -21.7022 H   0  0  0  0  0
    6.4906  -29.6542  -23.2871 H   0  0  0  0  0
    8.3880  -28.3919  -17.2865 H   0  0  0  0  0
    1.8148  -28.1936  -16.5820 H   0  0  0  0  0
    3.3187  -27.6436  -18.7463 H   0  0  0  0  0
    6.7825  -27.4362  -22.8430 H   0  0  0  0  0
    7.1307  -26.0689  -21.1980 H   0  0  0  0  0
    8.9366  -26.4936  -21.0914 H   0  0  0  0  0
    8.3619  -28.3015  -19.7139 H   0  0  0  0  0
  1  2  1  0  0  0
  1  8  1  0  0  0
  9  1  1  0  0  0
  2  3  2  0  0  0
  2  4  1  0  0  0
  4  5  4  0  0  0
  5  6  2  0  0  0
  7  5  1  0  0  0
  8  7  2  0  0  0
  9 10  1  0  0  0
 25  9  1  0  0  0
 10 11  1  0  0  0
 12 10  1  0  0  0
 12 13  1  0  0  0
 24 12  1  0  0  0
 14 15  2  0  0  0
 14 16  1  0  0  0
 27 14  1  0  0  0
 16 17  4  0  0  0
 16 20  4  0  0  0
 17 18  4  0  0  0
 17 23  4  0  0  0
 19 18  4  0  0  0
 18 21  4  0  0  0
 20 19  4  0  0  0
 22 21  4  0  0  0
 23 22  4  0  0  0
 24 25  1  0  0  0
 26 24  1  0  0  0
 26 27  1  0  0  0
  6 28  1  0  0  0
  7 29  1  0  0  0
  8 30  1  0  0  0
  9 31  1  0  0  0
 10 32  1  0  0  0
 11 33  1  0  0  0
 12 34  1  0  0  0
 13 35  1  0  0  0
 20 36  1  0  0  0
 22 37  1  0  0  0
 23 38  1  0  0  0
 24 39  1  0  0  0
 26 40  1  0  0  0
 26 41  1  0  0  0
 27 42  1  0  0  0
M  END
$$$$
