4zwz_ligand
  -I-interpret- 

 50 51  0  0  0  0  0  0  0  0999 V2000
   16.6850    7.4890   12.7700 C   0  0  0  0  0
   15.4220    7.7350   12.1170 C   0  0  0  0  0
   15.3760    8.9740   11.3430 C   0  0  0  0  0
   16.3350   10.0840   11.5940 C   0  0  0  0  0
   17.2010    9.9910   12.8680 C   0  0  0  0  0
   18.5650   10.2510   12.7080 C   0  0  0  0  0
   15.1660    6.5760   11.2740 O   0  0  0  0  0
   15.2300    8.7200    9.9030 O   0  0  0  0  0
   17.1030   10.3690   10.4400 O   0  0  0  0  0
   18.9980   10.8530   13.8680 O   0  0  0  0  0
   17.0810    8.6330   13.4950 O   0  0  0  0  0
   16.3090    6.4170   14.2100 S   0  0  0  0  0
   14.9870    6.9960   14.8610 O   0  0  0  0  0
   17.5820    6.5720   15.1880 O   0  0  0  0  0
   16.1040    5.0970   13.7890 N   0  0  0  0  0
   15.5180    4.3610   14.5610 C   0  0  0  0  0
   16.3010    2.9200   14.6250 C   0  0  0  0  0
   16.4730    2.5520   16.0990 O   0  0  0  0  0
   15.6000    1.3550   16.7360 S   0  0  0  0  0
   14.1100    1.6400   16.3570 O   0  0  0  0  0
   15.8550    1.4120   18.2680 O   0  0  0  0  0
   16.0680   -0.0330   15.9720 N   0  0  0  0  0
   17.3500    3.1320   14.2180 C   0  0  0  0  0
   17.2050    4.2970   13.2240 C   0  0  0  0  0
   16.9850    3.5920   11.8630 C   0  0  0  0  0
   17.7430    3.7830   11.0130 O   0  0  0  0  0
   15.9190    2.7210   11.6700 O   0  0  0  0  0
   16.0680    1.6340   10.7670 C   0  0  0  0  0
   17.3936    7.1374   12.0201 H   0  0  0  0  0
   14.6505    7.8723   12.8747 H   0  0  0  0  0
   14.4757    9.4030   11.7829 H   0  0  0  0  0
   15.6895   10.9336   11.8168 H   0  0  0  0  0
   16.7977   10.7846   13.4970 H   0  0  0  0  0
   18.7361   10.9001   11.8492 H   0  0  0  0  0
   19.1148    9.3281   12.5236 H   0  0  0  0  0
   15.2025    5.7790   11.8080 H   0  0  0  0  0
   14.6079    8.0016    9.7674 H   0  0  0  0  0
   16.5242   10.4171    9.6756 H   0  0  0  0  0
   19.9352   11.0477   13.7955 H   0  0  0  0  0
   14.4948    4.2082   14.2177 H   0  0  0  0  0
   15.4963    4.8117   15.5532 H   0  0  0  0  0
   15.7747    2.1353   14.0815 H   0  0  0  0  0
   15.4087   -0.5349   15.3772 H   0  0  0  0  0
   17.0163   -0.3880   16.0951 H   0  0  0  0  0
   17.7645    2.2506   13.7287 H   0  0  0  0  0
   18.0369    3.3897   15.0241 H   0  0  0  0  0
   18.0300    4.9920   13.0676 H   0  0  0  0  0
   16.2898    2.0182    9.7714 H   0  0  0  0  0
   16.8851    0.9948   11.1015 H   0  0  0  0  0
   15.1430    1.0581   10.7379 H   0  0  0  0  0
  1  2  1  0  0  0
  1 11  1  0  0  0
  1 12  1  0  0  0
  2  3  1  0  0  0
  2  7  1  0  0  0
  3  4  1  0  0  0
  3  8  1  0  0  0
  4  5  1  0  0  0
  4  9  1  0  0  0
  5  6  1  0  0  0
  5 11  1  0  0  0
  6 10  1  0  0  0
 12 13  2  0  0  0
 12 14  2  0  0  0
 12 15  1  0  0  0
 15 16  1  0  0  0
 15 24  1  0  0  0
 16 17  1  0  0  0
 17 18  1  0  0  0
 17 23  1  0  0  0
 18 19  1  0  0  0
 19 20  2  0  0  0
 19 21  2  0  0  0
 19 22  1  0  0  0
 23 24  1  0  0  0
 24 25  1  0  0  0
 25 26  2  0  0  0
 25 27  1  0  0  0
 27 28  1  0  0  0
  1 29  1  0  0  0
  2 30  1  0  0  0
  3 31  1  0  0  0
  4 32  1  0  0  0
  5 33  1  0  0  0
  6 34  1  0  0  0
  6 35  1  0  0  0
  7 36  1  0  0  0
  8 37  1  0  0  0
  9 38  1  0  0  0
 10 39  1  0  0  0
 16 40  1  0  0  0
 16 41  1  0  0  0
 17 42  1  0  0  0
 22 43  1  0  0  0
 22 44  1  0  0  0
 23 45  1  0  0  0
 23 46  1  0  0  0
 24 47  1  0  0  0
 28 48  1  0  0  0
 28 49  1  0  0  0
 28 50  1  0  0  0
M  END
$$$$
