3mvm_ligand
  -I-interpret- 

 55 58  0  0  0  0  0  0  0  0999 V2000
   -2.3400    5.8340   36.1510 N   0  0  0  0  0
   -2.2860    4.4170   35.8610 N   0  0  0  0  0
   -2.5880    3.4830   36.7760 C   0  0  0  0  0
   -2.9720    3.8850   38.0660 N   0  0  0  0  0
   -3.0360    5.1870   38.3770 C   0  0  0  0  0
   -2.7050    6.2700   37.3810 C   0  0  0  0  0
   -2.6790    7.6480   37.4090 C   0  0  0  0  0
   -2.2610    8.0400   36.0660 C   0  0  0  0  0
   -2.0760    6.8980   35.3690 C   0  0  0  0  0
   -2.0680    9.4300   35.5420 C   0  0  0  0  0
   -2.4650   10.4040   36.2250 O   0  0  0  0  0
   -1.4580    9.5220   34.3260 N   0  0  0  0  0
   -1.1510   10.7410   33.5530 C   0  0  0  0  0
   -2.3630   11.0320   32.6680 C   0  0  0  0  0
   -2.2770   10.1430   31.4460 C   0  0  0  0  0
   -3.0070    8.5880   38.5580 C   0  0  0  0  0
   -3.4060    5.5170   39.6110 N   0  0  0  0  0
   -3.7680    4.5120   40.4930 C   0  0  0  0  0
   -5.1570    4.0860   40.6630 C   0  0  0  0  0
   -5.4340    3.0580   41.5830 C   0  0  0  0  0
   -4.3800    2.4770   42.3030 C   0  0  0  0  0
   -3.0310    2.9150   42.1140 C   0  0  0  0  0
   -2.7390    3.9180   41.2230 C   0  0  0  0  0
   -1.9020    2.3420   42.8410 C   0  0  0  0  0
   -0.7960    2.9320   42.7280 O   0  0  0  0  0
   -2.1080    1.2310   43.5810 N   0  0  0  0  0
   -1.2100    0.7670   44.4850 C   0  0  0  0  0
   -0.2490    1.4480   45.1150 N   0  0  0  0  0
    0.4170    0.5310   45.9500 O   0  0  0  0  0
   -0.1550   -0.6930   45.8090 C   0  0  0  0  0
   -1.1290   -0.6170   44.9520 C   0  0  0  0  0
   -6.3200    4.6970   39.8960 C   0  0  0  0  0
   -2.5359    2.4245   36.5211 H   0  0  0  0  0
   -1.7597    6.8454   34.3272 H   0  0  0  0  0
   -1.1795    8.6392   33.8977 H   0  0  0  0  0
   -0.2579   10.5955   32.9453 H   0  0  0  0  0
   -0.9531   11.5794   34.2208 H   0  0  0  0  0
   -2.3678   12.0805   32.3703 H   0  0  0  0  0
   -3.2844   10.8312   33.2147 H   0  0  0  0  0
   -1.3557   10.3591   30.9051 H   0  0  0  0  0
   -2.2806    9.0984   31.7572 H   0  0  0  0  0
   -3.1330   10.3335   30.7987 H   0  0  0  0  0
   -4.0386    8.4294   38.8724 H   0  0  0  0  0
   -2.3362    8.3867   39.3933 H   0  0  0  0  0
   -2.8805    9.6195   38.2293 H   0  0  0  0  0
   -3.4230    6.4941   39.9032 H   0  0  0  0  0
   -6.4580    2.7165   41.7346 H   0  0  0  0  0
   -4.5914    1.6806   43.0166 H   0  0  0  0  0
   -1.7091    4.2480   41.0871 H   0  0  0  0  0
   -2.9798    0.7170   43.4539 H   0  0  0  0  0
    0.1545   -1.5974   46.3327 H   0  0  0  0  0
   -1.7718   -1.4390   44.6369 H   0  0  0  0  0
   -6.3780    5.7632   40.1152 H   0  0  0  0  0
   -6.1644    4.5525   38.8269 H   0  0  0  0  0
   -7.2480    4.2116   40.1983 H   0  0  0  0  0
  1  2  4  0  0  0
  1  6  4  0  0  0
  1  9  4  0  0  0
  2  3  4  0  0  0
  3  4  4  0  0  0
  4  5  4  0  0  0
  5  6  4  0  0  0
  5 17  1  0  0  0
  6  7  4  0  0  0
  7  8  4  0  0  0
  7 16  1  0  0  0
  8  9  4  0  0  0
  8 10  1  0  0  0
 10 11  2  0  0  0
 10 12  1  0  0  0
 12 13  1  0  0  0
 13 14  1  0  0  0
 14 15  1  0  0  0
 17 18  1  0  0  0
 18 19  4  0  0  0
 18 23  4  0  0  0
 19 20  4  0  0  0
 19 32  1  0  0  0
 20 21  4  0  0  0
 21 22  4  0  0  0
 22 23  4  0  0  0
 22 24  1  0  0  0
 24 25  2  0  0  0
 24 26  1  0  0  0
 26 27  1  0  0  0
 27 28  4  0  0  0
 27 31  4  0  0  0
 28 29  4  0  0  0
 29 30  4  0  0  0
 30 31  4  0  0  0
  3 33  1  0  0  0
  9 34  1  0  0  0
 12 35  1  0  0  0
 13 36  1  0  0  0
 13 37  1  0  0  0
 14 38  1  0  0  0
 14 39  1  0  0  0
 15 40  1  0  0  0
 15 41  1  0  0  0
 15 42  1  0  0  0
 16 43  1  0  0  0
 16 44  1  0  0  0
 16 45  1  0  0  0
 17 46  1  0  0  0
 20 47  1  0  0  0
 21 48  1  0  0  0
 23 49  1  0  0  0
 26 50  1  0  0  0
 30 51  1  0  0  0
 31 52  1  0  0  0
 32 53  1  0  0  0
 32 54  1  0  0  0
 32 55  1  0  0  0
M  END
$$$$
