### 
### Created by X-TOOL on Mon Sep 10 21:12:44 2018
### 

@<TRIPOS>MOLECULE
1p03_ligand
   55    55     1     0     0
SMALL
GAST_HUCK


@<TRIPOS>ATOM
      1 N          13.2500   41.8640   18.7900 N.4       1 ALA         0.2377
      2 CA         14.0100   40.6380   18.4550 C.3       1 ALA         0.0621
      3 C          13.1910   39.3690   18.6230 C.2       1 ALA         0.2264
      4 O          12.3730   39.2650   19.5680 O.2       1 ALA        -0.3907
      5 CB         15.2950   40.4300   19.2310 C.3       1 ALA        -0.0040
      6 N          13.4500   38.4300   17.7200 N.am      1 ALA        -0.2613
      7 CA         12.7040   37.1450   17.8370 C.3       1 ALA         0.1285
      8 C          13.6730   36.0320   17.4580 C.2       1 ALA         0.2061
      9 O          14.5780   36.3450   16.6840 O.2       1 ALA        -0.3942
     10 CB         11.4920   37.1340   16.9330 C.3       1 ALA        -0.0244
     11 N          13.4460   34.8540   18.0230 N.am      1 PRO        -0.2498
     12 CA         14.2440   33.6670   17.6930 C.3       1 PRO         0.1336
     13 C          13.8720   33.2060   16.2860 C.2       1 PRO         0.2010
     14 O          12.6740   33.3740   15.9120 O.2       1 PRO        -0.3946
     15 CB         13.6840   32.5920   18.6200 C.3       1 PRO        -0.0104
     16 CG         12.7190   33.2380   19.5430 C.3       1 PRO        -0.0281
     17 CD         12.3070   34.5500   18.9160 C.3       1 PRO         0.0369
     18 N          14.8290   32.6550   15.5400 N.am      1 B2V        -0.2915
     19 CA         14.5660   32.1940   14.1590 C.3       1 B2V         0.0555
     20 CB         15.3940   33.0160   13.1180 C.3       1 B2V        -0.0325
     21 CG1        14.8580   34.4260   12.8740 C.3       1 B2V        -0.0617
     22 CG2        16.9010   33.0550   13.4360 C.3       1 B2V        -0.0617
     23 B          14.6810   30.6750   14.0140 B         1 B2V         0.7166
     24 O1         14.8610   30.0850   12.6310 O.3       1 B2V        -0.4967
     25 O2         13.9350   29.8410   15.0070 O.3       1 B2V        -0.4967
     26 H1         13.8402   42.6709   18.6609 H         1 ALA         0.2015
     27 H2         12.9469   41.8196   19.7503 H         1 ALA         0.2015
     28 H3         12.4457   41.9361   18.1868 H         1 ALA         0.2015
     29 H4         14.2801   40.7272   17.3924 H         1 ALA         0.1095
     30 H5         15.7740   39.4955   18.9034 H         1 ALA         0.0310
     31 H6         15.0686   40.3687   20.3057 H         1 ALA         0.0310
     32 H7         15.9752   41.2747   19.0471 H         1 ALA         0.0310
     33 H8         14.1184   38.5791   16.9913 H         1 ALA         0.1884
     34 H9         12.3714   37.0063   18.8763 H         1 ALA         0.0797
     35 H10        10.9629   36.1756   17.0408 H         1 ALA         0.0277
     36 H11        11.8125   37.2604   15.8884 H         1 ALA         0.0277
     37 H12        10.8188   37.9579   17.2122 H         1 ALA         0.0277
     38 H13        15.3251   33.8321   17.8115 H         1 PRO         0.0802
     39 H14        14.5013   32.1334   19.1960 H         1 PRO         0.0313
     40 H15        13.1733   31.8181   18.0282 H         1 PRO         0.0313
     41 H16        13.1946   33.4197   20.5181 H         1 PRO         0.0287
     42 H17        11.8385   32.5929   19.6790 H         1 PRO         0.0287
     43 H18        11.3731   34.4410   18.3451 H         1 PRO         0.0524
     44 H19        12.1811   35.3322   19.6790 H         1 PRO         0.0524
     45 H20        15.7469   32.5506   15.9228 H         1 B2V         0.1840
     46 H21        13.5113   32.4293   13.9536 H         1 B2V         0.0434
     47 H22        15.2919   32.4785   12.1637 H         1 B2V         0.0305
     48 H23        15.4917   34.9361   12.1336 H         1 B2V         0.0233
     49 H24        14.8694   34.9911   13.8177 H         1 B2V         0.0233
     50 H25        13.8271   34.3659   12.4950 H         1 B2V         0.0233
     51 H26        17.2660   32.0317   13.6080 H         1 B2V         0.0233
     52 H27        17.0698   33.6609   14.3384 H         1 B2V         0.0233
     53 H28        17.4432   33.5001   12.5887 H         1 B2V         0.0233
     54 H29        15.3418   29.2682   12.6965 H         1 B2V         0.1667
     55 H30        13.8826   30.3061   15.8337 H         1 B2V         0.1667
@<TRIPOS>BOND
     1    1    2 1  
     2    2    3 1  
     3    2    5 1  
     4    3    4 2  
     5    3    6 am 
     6    6    7 1  
     7    7    8 1  
     8    7   10 1  
     9    8    9 2  
    10    8   11 am 
    11   11   12 1  
    12   11   17 1  
    13   12   13 1  
    14   12   15 1  
    15   13   14 2  
    16   13   18 am 
    17   15   16 1  
    18   16   17 1  
    19   18   19 1  
    20   19   20 1  
    21   19   23 1  
    22   20   21 1  
    23   20   22 1  
    24   23   24 1  
    25   23   25 1  
    26    1   26 1  
    27    1   27 1  
    28    1   28 1  
    29    2   29 1  
    30    5   30 1  
    31    5   31 1  
    32    5   32 1  
    33    6   33 1  
    34    7   34 1  
    35   10   35 1  
    36   10   36 1  
    37   10   37 1  
    38   12   38 1  
    39   15   39 1  
    40   15   40 1  
    41   16   41 1  
    42   16   42 1  
    43   17   43 1  
    44   17   44 1  
    45   18   45 1  
    46   19   46 1  
    47   20   47 1  
    48   21   48 1  
    49   21   49 1  
    50   21   50 1  
    51   22   51 1  
    52   22   52 1  
    53   22   53 1  
    54   24   54 1  
    55   25   55 1  
@<TRIPOS>SUBSTRUCTURE
     1 ALA         1

