1p03_ligand
  -I-interpret- 

 55 55  0  0  0  0  0  0  0  0999 V2000
   13.2500   41.8640   18.7900 N   0  3  0  0  0
   14.0100   40.6380   18.4550 C   0  0  0  0  0
   13.1910   39.3690   18.6230 C   0  0  0  0  0
   12.3730   39.2650   19.5680 O   0  0  0  0  0
   15.2950   40.4300   19.2310 C   0  0  0  0  0
   13.4500   38.4300   17.7200 N   0  0  0  0  0
   12.7040   37.1450   17.8370 C   0  0  0  0  0
   13.6730   36.0320   17.4580 C   0  0  0  0  0
   14.5780   36.3450   16.6840 O   0  0  0  0  0
   11.4920   37.1340   16.9330 C   0  0  0  0  0
   13.4460   34.8540   18.0230 N   0  0  0  0  0
   14.2440   33.6670   17.6930 C   0  0  0  0  0
   13.8720   33.2060   16.2860 C   0  0  0  0  0
   12.6740   33.3740   15.9120 O   0  0  0  0  0
   13.6840   32.5920   18.6200 C   0  0  0  0  0
   12.7190   33.2380   19.5430 C   0  0  0  0  0
   12.3070   34.5500   18.9160 C   0  0  0  0  0
   14.8290   32.6550   15.5400 N   0  0  0  0  0
   14.5660   32.1940   14.1590 C   0  0  0  0  0
   15.3940   33.0160   13.1180 C   0  0  0  0  0
   14.8580   34.4260   12.8740 C   0  0  0  0  0
   16.9010   33.0550   13.4360 C   0  0  0  0  0
   14.6810   30.6750   14.0140 B   0  0  0  0  0
   14.8610   30.0850   12.6310 O   0  0  0  0  0
   13.9350   29.8410   15.0070 O   0  0  0  0  0
   12.4083   41.9084   18.2156 H   0  0  0  0  0
   12.9895   41.8423   19.7759 H   0  0  0  0  0
   13.8306   42.6828   18.6084 H   0  0  0  0  0
   14.2616   40.8159   17.4095 H   0  0  0  0  0
   15.0597   40.2548   20.2808 H   0  0  0  0  0
   15.8261   39.5678   18.8276 H   0  0  0  0  0
   15.9202   41.3183   19.1408 H   0  0  0  0  0
   14.1317   38.5821   16.9767 H   0  0  0  0  0
   12.3359   37.0083   18.8538 H   0  0  0  0  0
   11.8091   37.2803   15.9005 H   0  0  0  0  0
   10.9804   36.1759   17.0250 H   0  0  0  0  0
   10.8158   37.9378   17.2242 H   0  0  0  0  0
   15.3152   33.8506   17.7759 H   0  0  0  0  0
   14.4907   32.1255   19.1855 H   0  0  0  0  0
   13.1864   31.8159   18.0385 H   0  0  0  0  0
   13.1757   33.4063   20.5183 H   0  0  0  0  0
   11.8503   32.5982   19.6981 H   0  0  0  0  0
   11.3559   34.4889   18.3870 H   0  0  0  0  0
   12.1215   35.3333   19.6509 H   0  0  0  0  0
   15.7653   32.5485   15.9305 H   0  0  0  0  0
   13.5211   32.4015   13.9281 H   0  0  0  0  0
   15.2661   32.4640   12.1868 H   0  0  0  0  0
   13.8365   34.3651   12.4986 H   0  0  0  0  0
   14.8698   34.9848   13.8098 H   0  0  0  0  0
   15.4867   34.9304   12.1402 H   0  0  0  0  0
   17.0530   33.5124   14.4136 H   0  0  0  0  0
   17.2959   32.0391   13.4434 H   0  0  0  0  0
   17.4165   33.6410   12.6751 H   0  0  0  0  0
   14.9173   29.1289   12.6970 H   0  0  0  0  0
   14.0818   28.9115   14.8170 H   0  0  0  0  0
  1  2  1  0  0  0
  2  3  1  0  0  0
  2  5  1  0  0  0
  3  4  2  0  0  0
  3  6  1  0  0  0
  6  7  1  0  0  0
  7  8  1  0  0  0
  7 10  1  0  0  0
  8  9  2  0  0  0
  8 11  1  0  0  0
 11 12  1  0  0  0
 11 17  1  0  0  0
 12 13  1  0  0  0
 12 15  1  0  0  0
 13 14  2  0  0  0
 13 18  1  0  0  0
 15 16  1  0  0  0
 16 17  1  0  0  0
 18 19  1  0  0  0
 19 20  1  0  0  0
 19 23  1  0  0  0
 20 21  1  0  0  0
 20 22  1  0  0  0
 23 24  1  0  0  0
 23 25  1  0  0  0
  1 26  1  0  0  0
  1 27  1  0  0  0
  1 28  1  0  0  0
  2 29  1  0  0  0
  5 30  1  0  0  0
  5 31  1  0  0  0
  5 32  1  0  0  0
  6 33  1  0  0  0
  7 34  1  0  0  0
 10 35  1  0  0  0
 10 36  1  0  0  0
 10 37  1  0  0  0
 12 38  1  0  0  0
 15 39  1  0  0  0
 15 40  1  0  0  0
 16 41  1  0  0  0
 16 42  1  0  0  0
 17 43  1  0  0  0
 17 44  1  0  0  0
 18 45  1  0  0  0
 19 46  1  0  0  0
 20 47  1  0  0  0
 21 48  1  0  0  0
 21 49  1  0  0  0
 21 50  1  0  0  0
 22 51  1  0  0  0
 22 52  1  0  0  0
 22 53  1  0  0  0
 24 54  1  0  0  0
 25 55  1  0  0  0
M  END
$$$$
