6izq_ligand
  -I-interpret- 

 41 42  0  0  0  0  0  0  0  0999 V2000
   14.7870   18.6470   76.2690 C   0  0  0  0  0
   15.2390   17.7140   75.1540 C   0  0  0  0  0
   15.0980   15.5160   74.3370 C   0  0  0  0  0
   14.5640   20.1110   75.7380 C   0  0  0  0  0
   12.6620   20.7820   76.7330 C   0  0  0  0  0
   11.8160   21.4370   75.5780 C   0  0  0  0  0
   11.1500   20.5950   74.6340 C   0  0  0  0  0
   10.3540   21.1460   73.5690 C   0  0  0  0  0
   10.2390   22.5470   73.4550 C   0  0  0  0  0
   10.8930   23.3850   74.3850 C   0  0  0  0  0
   11.6970   22.8340   75.4650 C   0  0  0  0  0
   12.3940   23.8270   76.4700 C   0  0  0  0  0
   13.5610   23.2550   77.2860 C   0  0  0  0  0
   14.4200   22.2410   76.5090 C   0  0  0  0  0
   15.1950   16.3050   75.5100 N   0  3  0  0  0
   14.0270   20.9250   76.6630 N   0  3  0  0  0
   15.7990   18.6420   77.2090 O   0  0  0  0  0
   13.8374   18.3110   76.6854 H   0  0  0  0  0
   16.2768   17.9587   74.9276 H   0  0  0  0  0
   14.5578   17.8577   74.3153 H   0  0  0  0  0
   14.1888   15.7804   73.7970 H   0  0  0  0  0
   15.9653   15.7012   73.7033 H   0  0  0  0  0
   15.0655   14.4616   74.6115 H   0  0  0  0  0
   13.8722   20.0592   74.8973 H   0  0  0  0  0
   15.5368   20.5171   75.4607 H   0  0  0  0  0
   12.4710   19.7106   76.6716 H   0  0  0  0  0
   12.3561   21.2865   77.6495 H   0  0  0  0  0
   11.2471   19.5130   74.7227 H   0  0  0  0  0
    9.8475   20.4901   72.8609 H   0  0  0  0  0
    9.6463   22.9824   72.6505 H   0  0  0  0  0
   10.7933   24.4664   74.2916 H   0  0  0  0  0
   11.6302   24.1161   77.1918 H   0  0  0  0  0
   12.8112   24.6312   75.8639 H   0  0  0  0  0
   13.1350   22.7328   78.1427 H   0  0  0  0  0
   14.2077   24.0888   77.5591 H   0  0  0  0  0
   15.4361   22.3192   76.8957 H   0  0  0  0  0
   14.3221   22.4828   75.4507 H   0  0  0  0  0
   14.3819   16.1318   76.1010 H   0  0  0  0  0
   16.0471   16.0576   76.0132 H   0  0  0  0  0
   14.4002   20.6324   77.5661 H   0  0  0  0  0
   15.9315   17.7471   77.5301 H   0  0  0  0  0
  1  2  1  0  0  0
  4  1  1  0  0  0
  1 17  1  0  0  0
  2 15  1  0  0  0
 15  3  1  0  0  0
 16  4  1  0  0  0
  5  6  1  0  0  0
  5 16  1  0  0  0
  6  7  4  0  0  0
  6 11  4  0  0  0
  7  8  4  0  0  0
  8  9  4  0  0  0
  9 10  4  0  0  0
 10 11  4  0  0  0
 11 12  1  0  0  0
 12 13  1  0  0  0
 13 14  1  0  0  0
 14 16  1  0  0  0
  1 18  1  0  0  0
  2 19  1  0  0  0
  2 20  1  0  0  0
  3 21  1  0  0  0
  3 22  1  0  0  0
  3 23  1  0  0  0
  4 24  1  0  0  0
  4 25  1  0  0  0
  5 26  1  0  0  0
  5 27  1  0  0  0
  7 28  1  0  0  0
  8 29  1  0  0  0
  9 30  1  0  0  0
 10 31  1  0  0  0
 12 32  1  0  0  0
 12 33  1  0  0  0
 13 34  1  0  0  0
 13 35  1  0  0  0
 14 36  1  0  0  0
 14 37  1  0  0  0
 15 38  1  0  0  0
 15 39  1  0  0  0
 16 40  1  0  0  0
 17 41  1  0  0  0
M  END
$$$$
