6eln_ligand
  -I-interpret- 

 37 39  0  0  0  0  0  0  0  0999 V2000
   63.4430   36.0480   22.1570 N   0  0  0  0  0
   63.2220   34.9920   23.0440 N   0  0  0  0  0
   64.0300   35.1520   24.0840 C   0  0  0  0  0
   64.7570   36.3780   23.9040 C   0  0  0  0  0
   64.3640   36.8890   22.6890 C   0  0  0  0  0
   64.0860   34.2760   25.2830 C   0  0  0  0  0
   65.7350   36.9840   24.8710 C   0  0  0  0  0
   64.8470   38.1530   22.0170 C   0  0  0  0  0
   67.1070   37.0390   24.5330 C   0  0  0  0  0
   68.0280   37.5920   25.4160 C   0  0  0  0  0
   67.6260   38.0630   26.6740 C   0  0  0  0  0
   66.2640   37.9920   27.0340 C   0  0  0  0  0
   65.3290   37.4280   26.1510 C   0  0  0  0  0
   62.8820   33.8680   25.9130 C   0  0  0  0  0
   62.9200   33.0990   27.0780 C   0  0  0  0  0
   64.1620   32.6860   27.5810 C   0  0  0  0  0
   65.3590   33.0710   26.9480 C   0  0  0  0  0
   65.3280   33.8520   25.8060 C   0  0  0  0  0
   64.2330   31.9450   28.7140 O   0  0  0  0  0
   61.6830   34.2380   25.3980 O   0  0  0  0  0
   68.6050   38.6090   27.4710 O   0  0  0  0  0
   68.3020   39.1960   28.7430 C   0  0  0  0  0
   65.3024   37.9024   21.0589 H   0  0  0  0  0
   64.0022   38.8225   21.8552 H   0  0  0  0  0
   65.5837   38.6428   22.6538 H   0  0  0  0  0
   67.4448   36.6454   23.5743 H   0  0  0  0  0
   69.0766   37.6602   25.1263 H   0  0  0  0  0
   65.9364   38.3759   28.0001 H   0  0  0  0  0
   64.2862   37.3320   26.4533 H   0  0  0  0  0
   61.9974   32.8237   27.5890 H   0  0  0  0  0
   66.3164   32.7519   27.3600 H   0  0  0  0  0
   66.2568   34.1385   25.3127 H   0  0  0  0  0
   65.1524   31.7525   28.9120 H   0  0  0  0  0
   60.9780   33.8799   25.9423 H   0  0  0  0  0
   67.6075   40.0244   28.6033 H   0  0  0  0  0
   67.8483   38.4448   29.3895 H   0  0  0  0  0
   69.2207   39.5636   29.2002 H   0  0  0  0  0
  1  2  4  0  0  0
  1  5  4  0  0  0
  2  3  4  0  0  0
  3  4  4  0  0  0
  3  6  1  0  0  0
  4  5  4  0  0  0
  4  7  1  0  0  0
  5  8  1  0  0  0
  6 14  4  0  0  0
  6 18  4  0  0  0
  7  9  4  0  0  0
  7 13  4  0  0  0
  9 10  4  0  0  0
 10 11  4  0  0  0
 11 12  4  0  0  0
 11 21  1  0  0  0
 12 13  4  0  0  0
 14 15  4  0  0  0
 14 20  1  0  0  0
 15 16  4  0  0  0
 16 17  4  0  0  0
 16 19  1  0  0  0
 17 18  4  0  0  0
 21 22  1  0  0  0
  8 23  1  0  0  0
  8 24  1  0  0  0
  8 25  1  0  0  0
  9 26  1  0  0  0
 10 27  1  0  0  0
 12 28  1  0  0  0
 13 29  1  0  0  0
 15 30  1  0  0  0
 17 31  1  0  0  0
 18 32  1  0  0  0
 19 33  1  0  0  0
 20 34  1  0  0  0
 22 35  1  0  0  0
 22 36  1  0  0  0
 22 37  1  0  0  0
M  END
$$$$
