4wzv_ligand
  -I-interpret- 

 69 72  0  0  0  0  0  0  0  0999 V2000
    5.7340    7.8150   25.9710 O   0  0  0  0  0
    5.1760    8.6770   24.9260 S   0  0  0  0  0
    5.7660   10.0130   25.0250 O   0  0  0  0  0
    5.6420    7.8460   23.3970 C   0  0  0  0  0
    5.6330    6.4580   23.3480 C   0  0  0  0  0
    6.0280    5.8010   22.2010 C   0  0  0  0  0
    6.4270    6.5270   21.0910 C   0  0  0  0  0
    6.9420    5.7880   19.8710 C   0  0  0  0  0
    6.2430    4.5230   19.3950 C   0  0  0  0  0
    6.7140    3.8610   18.3680 C   0  0  0  0  0
    7.9940    4.3430   17.6940 C   0  0  0  0  0
    8.5000    3.6290   16.6110 O   0  0  0  0  0
    8.0760    2.3160   16.4210 C   0  0  0  0  0
    8.6220    5.4170   18.1210 C   0  0  0  0  0
    8.0680    6.1840   19.3160 C   0  0  0  0  0
    6.4510    7.9060   21.1430 C   0  0  0  0  0
    6.0630    8.5650   22.2900 C   0  0  0  0  0
    3.4940    8.8250   25.1420 N   0  0  0  0  0
    2.8370    7.6180   24.9040 O   0  0  0  0  0
    2.6320    6.7320   25.9760 C   0  0  0  0  0
    1.9340    5.4960   25.4360 C   0  0  0  0  0
    1.7350    7.3610   27.0460 C   0  0  0  0  0
    2.9100    9.9200   24.3770 C   0  0  0  0  0
    2.7560    9.6110   22.8840 C   0  0  0  0  0
    2.0130    8.7660   22.4980 O   0  0  0  0  0
    3.3990   10.4590   21.9010 N   0  0  0  0  0
    3.2570   10.1050   20.5630 O   0  0  0  0  0
    1.5490   10.1530   24.9950 C   0  0  0  0  0
    0.9900   11.4530   24.4560 C   0  0  0  0  0
    0.1300   11.2110   23.3240 N   0  0  0  0  0
    0.1130   11.9780   22.1030 C   0  0  0  0  0
    0.8720   12.8490   21.8000 O   0  0  0  0  0
   -0.9850   10.2850   23.2390 C   0  0  0  0  0
   -1.3230    9.4840   24.0470 O   0  0  0  0  0
   -1.6700   10.4940   21.9110 C   0  0  0  0  0
   -1.0480   11.4690   21.2640 C   0  0  0  0  0
   -2.8820    9.7910   21.3130 C   0  0  0  0  0
   -3.3100   10.1580   20.1240 C   0  0  0  0  0
   -2.5870   11.2790   19.3860 C   0  0  0  0  0
   -1.5470   11.8860   19.8950 C   0  0  0  0  0
    5.3128    5.8858   24.2187 H   0  0  0  0  0
    6.0261    4.7115   22.1683 H   0  0  0  0  0
    5.3499    4.1677   19.9091 H   0  0  0  0  0
    6.1968    2.9753   17.9991 H   0  0  0  0  0
    8.3404    1.7202   17.2946 H   0  0  0  0  0
    6.9949    2.3010   16.2830 H   0  0  0  0  0
    8.5621    1.9029   15.5372 H   0  0  0  0  0
    9.5312    5.7557   17.6243 H   0  0  0  0  0
    8.5990    7.0519   19.7071 H   0  0  0  0  0
    6.7781    8.4763   20.2736 H   0  0  0  0  0
    6.0875    9.6541   22.3261 H   0  0  0  0  0
    3.5950    6.4888   26.4250 H   0  0  0  0  0
    0.9790    5.7828   24.9958 H   0  0  0  0  0
    2.5605    5.0295   24.6757 H   0  0  0  0  0
    1.7634    4.7917   26.2503 H   0  0  0  0  0
    2.2063    8.2672   27.4266 H   0  0  0  0  0
    0.7683    7.6092   26.6078 H   0  0  0  0  0
    1.5942    6.6527   27.8625 H   0  0  0  0  0
    3.5638   10.7910   24.4217 H   0  0  0  0  0
    3.9340   11.2819   22.1785 H   0  0  0  0  0
    3.7243   10.7390   20.0141 H   0  0  0  0  0
    1.6386   10.2090   26.0799 H   0  0  0  0  0
    0.8811    9.3291   24.7434 H   0  0  0  0  0
    1.8182   12.0868   24.1388 H   0  0  0  0  0
    0.4095   11.9379   25.2408 H   0  0  0  0  0
   -3.3870    8.9960   21.8617 H   0  0  0  0  0
   -4.1714    9.6662   19.6721 H   0  0  0  0  0
   -2.9482   11.5838   18.4038 H   0  0  0  0  0
   -1.0458   12.6808   19.3426 H   0  0  0  0  0
  1  2  2  0  0  0
  2  3  2  0  0  0
  2  4  1  0  0  0
  2 18  1  0  0  0
  4  5  4  0  0  0
  4 17  4  0  0  0
  5  6  4  0  0  0
  6  7  4  0  0  0
  7  8  1  0  0  0
  7 16  4  0  0  0
  8  9  4  0  0  0
  8 15  4  0  0  0
  9 10  4  0  0  0
 10 11  4  0  0  0
 11 12  1  0  0  0
 11 14  4  0  0  0
 12 13  1  0  0  0
 14 15  4  0  0  0
 16 17  4  0  0  0
 18 19  1  0  0  0
 18 23  1  0  0  0
 19 20  1  0  0  0
 20 21  1  0  0  0
 20 22  1  0  0  0
 23 24  1  0  0  0
 23 28  1  0  0  0
 24 25  2  0  0  0
 24 26  1  0  0  0
 26 27  1  0  0  0
 28 29  1  0  0  0
 29 30  1  0  0  0
 30 31  1  0  0  0
 30 33  1  0  0  0
 31 32  2  0  0  0
 31 36  1  0  0  0
 33 34  2  0  0  0
 33 35  1  0  0  0
 35 36  4  0  0  0
 35 37  4  0  0  0
 36 40  4  0  0  0
 37 38  4  0  0  0
 38 39  4  0  0  0
 39 40  4  0  0  0
  5 41  1  0  0  0
  6 42  1  0  0  0
  9 43  1  0  0  0
 10 44  1  0  0  0
 13 45  1  0  0  0
 13 46  1  0  0  0
 13 47  1  0  0  0
 14 48  1  0  0  0
 15 49  1  0  0  0
 16 50  1  0  0  0
 17 51  1  0  0  0
 20 52  1  0  0  0
 21 53  1  0  0  0
 21 54  1  0  0  0
 21 55  1  0  0  0
 22 56  1  0  0  0
 22 57  1  0  0  0
 22 58  1  0  0  0
 23 59  1  0  0  0
 26 60  1  0  0  0
 27 61  1  0  0  0
 28 62  1  0  0  0
 28 63  1  0  0  0
 29 64  1  0  0  0
 29 65  1  0  0  0
 37 66  1  0  0  0
 38 67  1  0  0  0
 39 68  1  0  0  0
 40 69  1  0  0  0
M  END
$$$$
