5v8v_ligand
  -I-interpret- 

 81 83  0  0  0  0  0  0  0  0999 V2000
   27.2240   38.5760   24.4300 C   0  0  0  0  0
   27.6550   37.1600   24.1480 C   0  0  0  0  0
   27.7690   36.8150   22.6600 C   0  0  0  0  0
   28.9300   36.2550   22.1440 C   0  0  0  0  0
   29.0260   35.9390   20.8000 C   0  0  0  0  0
   27.9600   36.1740   19.9520 C   0  0  0  0  0
   26.7790   36.7340   20.4380 C   0  0  0  0  0
   26.7030   37.0390   21.7970 C   0  0  0  0  0
   25.6240   37.0060   19.5240 C   0  0  0  0  0
   24.8390   35.9370   19.1100 C   0  0  0  0  0
   25.1570   34.7070   19.5740 F   0  0  0  0  0
   23.7660   36.0590   18.2710 C   0  0  0  0  0
   23.4460   37.3180   17.7970 C   0  0  0  0  0
   24.1960   38.4240   18.1700 C   0  0  0  0  0
   25.2910   38.2960   19.0250 C   0  0  0  0  0
   26.1010   39.5570   19.4190 C   0  0  0  0  0
   25.5830   40.6740   18.6910 O   0  0  0  0  0
   27.6050   39.4450   19.1080 C   0  0  0  0  0
   28.0420   39.9940   17.7700 C   0  0  0  0  0
   28.4840   38.9290   16.7870 C   0  0  0  0  0
   29.9360   38.9510   16.5500 N   0  0  0  0  0
   30.4580   39.3790   15.3880 C   0  0  0  0  0
   30.5800   40.5440   15.0770 O   0  0  0  0  0
   30.8300   38.3470   14.6160 O   0  0  0  0  0
   31.4690   38.7010   13.3620 C   0  0  0  0  0
   25.6900   40.0300   20.8880 C   0  0  0  0  0
   24.1920   40.0850   21.2330 C   0  0  0  0  0
   23.9640   40.5400   22.6760 C   0  0  0  0  0
   24.7000   41.8360   22.9540 C   0  0  0  0  0
   26.1250   41.7230   22.5670 N   0  0  0  0  0
   26.3090   41.3400   21.1680 C   0  0  0  0  0
   27.1720   41.9290   23.3960 C   0  0  0  0  0
   28.3290   41.8150   23.0180 O   0  0  0  0  0
   26.8670   42.3140   24.8280 C   0  0  0  0  0
   28.1280   42.4830   25.6630 C   0  0  0  0  0
   27.9420   43.4300   26.8340 C   0  0  0  0  0
   28.1260   42.7620   28.1240 N   0  3  0  0  0
   28.1040   43.7330   29.2200 C   0  0  0  0  0
   27.9475   39.2675   23.9982 H   0  0  0  0  0
   26.2434   38.7509   23.9874 H   0  0  0  0  0
   27.1704   38.7303   25.5077 H   0  0  0  0  0
   26.8930   36.5047   24.5699 H   0  0  0  0  0
   28.6477   37.0365   24.5810 H   0  0  0  0  0
   29.7752   36.0621   22.8047 H   0  0  0  0  0
   29.9454   35.5033   20.4088 H   0  0  0  0  0
   28.0432   35.9196   18.8954 H   0  0  0  0  0
   25.7813   37.4651   22.1933 H   0  0  0  0  0
   23.1786   35.1870   17.9835 H   0  0  0  0  0
   22.5972   37.4426   17.1245 H   0  0  0  0  0
   23.9254   39.4087   17.7889 H   0  0  0  0  0
   26.0760   41.4637   18.9253 H   0  0  0  0  0
   27.8384   38.3804   19.0951 H   0  0  0  0  0
   28.1209   40.0343   19.8660 H   0  0  0  0  0
   28.8971   40.6456   17.9496 H   0  0  0  0  0
   27.1842   40.5046   17.3322 H   0  0  0  0  0
   27.9847   39.1193   15.8370 H   0  0  0  0  0
   28.2257   37.9562   17.2054 H   0  0  0  0  0
   30.5638   38.6326   17.2882 H   0  0  0  0  0
   30.7839   39.3014   12.7634 H   0  0  0  0  0
   32.3735   39.2742   13.5657 H   0  0  0  0  0
   31.7278   37.7924   12.8184 H   0  0  0  0  0
   26.0670   39.2338   21.5299 H   0  0  0  0  0
   23.7744   39.0849   21.1167 H   0  0  0  0  0
   23.7105   40.7999   20.5658 H   0  0  0  0  0
   24.3394   39.7707   23.3508 H   0  0  0  0  0
   22.8970   40.7017   22.8293 H   0  0  0  0  0
   24.6409   42.0526   24.0206 H   0  0  0  0  0
   24.2394   42.6343   22.3721 H   0  0  0  0  0
   25.8349   42.0912   20.5362 H   0  0  0  0  0
   27.3774   41.2709   20.9636 H   0  0  0  0  0
   26.2718   41.5164   25.2727 H   0  0  0  0  0
   26.3394   43.2677   24.8163 H   0  0  0  0  0
   28.9000   42.9015   25.0172 H   0  0  0  0  0
   28.3928   41.5053   26.0657 H   0  0  0  0  0
   26.9242   43.8182   26.7965 H   0  0  0  0  0
   28.6893   44.2193   26.7524 H   0  0  0  0  0
   29.0289   42.2875   28.1229 H   0  0  0  0  0
   27.3666   42.0948   28.2603 H   0  0  0  0  0
   28.9080   44.4555   29.0798 H   0  0  0  0  0
   27.1450   44.2512   29.2255 H   0  0  0  0  0
   28.2426   43.2125   30.1676 H   0  0  0  0  0
  1  2  1  0  0  0
  2  3  1  0  0  0
  3  4  4  0  0  0
  3  8  4  0  0  0
  4  5  4  0  0  0
  5  6  4  0  0  0
  6  7  4  0  0  0
  7  8  4  0  0  0
  7  9  1  0  0  0
  9 10  4  0  0  0
  9 15  4  0  0  0
 10 11  1  0  0  0
 10 12  4  0  0  0
 12 13  4  0  0  0
 13 14  4  0  0  0
 14 15  4  0  0  0
 15 16  1  0  0  0
 16 17  1  0  0  0
 16 18  1  0  0  0
 16 26  1  0  0  0
 18 19  1  0  0  0
 19 20  1  0  0  0
 20 21  1  0  0  0
 21 22  1  0  0  0
 22 23  2  0  0  0
 22 24  1  0  0  0
 24 25  1  0  0  0
 26 27  1  0  0  0
 26 31  1  0  0  0
 27 28  1  0  0  0
 28 29  1  0  0  0
 29 30  1  0  0  0
 30 31  1  0  0  0
 30 32  1  0  0  0
 32 33  2  0  0  0
 32 34  1  0  0  0
 34 35  1  0  0  0
 35 36  1  0  0  0
 36 37  1  0  0  0
 37 38  1  0  0  0
  1 39  1  0  0  0
  1 40  1  0  0  0
  1 41  1  0  0  0
  2 42  1  0  0  0
  2 43  1  0  0  0
  4 44  1  0  0  0
  5 45  1  0  0  0
  6 46  1  0  0  0
  8 47  1  0  0  0
 12 48  1  0  0  0
 13 49  1  0  0  0
 14 50  1  0  0  0
 17 51  1  0  0  0
 18 52  1  0  0  0
 18 53  1  0  0  0
 19 54  1  0  0  0
 19 55  1  0  0  0
 20 56  1  0  0  0
 20 57  1  0  0  0
 21 58  1  0  0  0
 25 59  1  0  0  0
 25 60  1  0  0  0
 25 61  1  0  0  0
 26 62  1  0  0  0
 27 63  1  0  0  0
 27 64  1  0  0  0
 28 65  1  0  0  0
 28 66  1  0  0  0
 29 67  1  0  0  0
 29 68  1  0  0  0
 31 69  1  0  0  0
 31 70  1  0  0  0
 34 71  1  0  0  0
 34 72  1  0  0  0
 35 73  1  0  0  0
 35 74  1  0  0  0
 36 75  1  0  0  0
 36 76  1  0  0  0
 37 77  1  0  0  0
 37 78  1  0  0  0
 38 79  1  0  0  0
 38 80  1  0  0  0
 38 81  1  0  0  0
M  END
$$$$
