2yex_ligand
  -I-interpret- 

 32 35  0  0  0  0  0  0  0  0999 V2000
   -2.4900   36.0680   13.2500 C   0  0  0  0  0
    1.2570   38.3050   12.5270 C   0  0  0  0  0
    2.4230   38.9140   12.1120 C   0  0  0  0  0
   -1.4160   36.9890   13.2430 C   0  0  0  0  0
    1.4080   36.7870   10.7240 C   0  0  0  0  0
   -2.2280   35.1240   12.3000 C   0  0  0  0  0
    0.7320   37.2260   11.8460 C   0  0  0  0  0
    3.1080   38.4760   10.9860 C   0  0  0  0  0
    2.5760   37.3970   10.2890 C   0  0  0  0  0
   -0.5160   36.5900   12.2800 C   0  0  0  0  0
    4.9480   38.6150    9.4710 C   0  0  0  0  0
    4.2910   39.1030   10.5760 C   0  0  0  0  0
    4.3940   37.5220    8.8330 C   0  0  0  0  0
    2.9610   35.8730    8.3440 C   0  0  0  0  0
    4.8790   40.2920   11.2630 C   0  0  0  0  0
    4.9330   36.9000    7.7660 N   0  0  0  0  0
   -1.0360   35.4500   11.7240 N   0  0  0  0  0
    4.0120   35.8380    7.4850 N   0  0  0  0  0
    3.2370   36.9520    9.2060 N   0  0  0  0  0
    1.9880   35.1330    8.3900 O   0  0  0  0  0
   -3.3669   36.1056   13.8964 H   0  0  0  0  0
    0.7408   38.6832   13.4094 H   0  0  0  0  0
    2.8154   39.7574   12.6802 H   0  0  0  0  0
   -1.3180   37.8624   13.8877 H   0  0  0  0  0
    1.0132   35.9384   10.1653 H   0  0  0  0  0
   -2.8550   34.2686   12.0485 H   0  0  0  0  0
    5.8700   39.0727    9.1124 H   0  0  0  0  0
    4.1649   41.1151   11.2370 H   0  0  0  0  0
    5.1041   40.0372   12.2986 H   0  0  0  0  0
    5.7956   40.5883   10.7529 H   0  0  0  0  0
    5.7956   37.1311    7.2730 H   0  0  0  0  0
    4.1301   35.1500    6.7413 H   0  0  0  0  0
  4  1  4  0  0  0
  6  1  4  0  0  0
  3  2  4  0  0  0
  7  2  4  0  0  0
  8  3  4  0  0  0
 10  4  4  0  0  0
  5  7  4  0  0  0
  9  5  4  0  0  0
 17  6  4  0  0  0
  7 10  1  0  0  0
  9  8  4  0  0  0
  8 12  4  0  0  0
 19  9  4  0  0  0
 10 17  4  0  0  0
 11 12  4  0  0  0
 13 11  4  0  0  0
 12 15  1  0  0  0
 13 16  1  0  0  0
 19 13  4  0  0  0
 14 18  1  0  0  0
 14 19  1  0  0  0
 14 20  2  0  0  0
 16 18  1  0  0  0
  1 21  1  0  0  0
  2 22  1  0  0  0
  3 23  1  0  0  0
  4 24  1  0  0  0
  5 25  1  0  0  0
  6 26  1  0  0  0
 11 27  1  0  0  0
 15 28  1  0  0  0
 15 29  1  0  0  0
 15 30  1  0  0  0
 16 31  1  0  0  0
 18 32  1  0  0  0
M  END
$$$$
