### 
### Created by X-TOOL on Mon Aug  2 16:12:36 2021
### 

@<TRIPOS>MOLECULE
6aeh_ligand
   40    41     1     0     0
SMALL
GAST_HUCK


@<TRIPOS>ATOM
      1 PA        125.3470   88.5080   50.1790 P.3       1 UTP         0.3266
      2 O1A       124.3830   87.6270   49.3850 O.co2     1 UTP        -0.5692
      3 O2A       125.6660   88.1390   51.6090 O.co2     1 UTP        -0.5692
      4 O3A       126.7440   88.6750   49.3970 O.3       1 UTP        -0.1171
      5 O5'       124.8250   90.0240   50.2410 O.3       1 UTP        -0.2441
      6 PB        127.1270   88.3740   47.8750 P.3       1 UTP         0.3553
      7 O1B       128.0260   89.5280   47.4800 O.co2     1 UTP        -0.5652
      8 O2B       125.8770   88.1120   47.0720 O.co2     1 UTP        -0.5652
      9 O3B       128.0820   87.0820   48.0140 O.3       1 UTP        -0.1546
     10 PG        127.7950   85.5000   47.8420 P.3       1 UTP         0.1879
     11 O1G       128.5670   84.9260   49.0130 O.co2     1 UTP        -0.6091
     12 O2G       128.3800   85.0950   46.5330 O.co2     1 UTP        -0.6091
     13 O3G       126.2880   85.3800   47.9920 O.co2     1 UTP        -0.6091
     14 C5'       124.6110   90.7830   49.0450 C.3       1 UTP         0.1131
     15 C4'       124.6160   92.2560   49.4080 C.3       1 UTP         0.1189
     16 O4'       123.4320   92.4480   50.1830 O.3       1 UTP        -0.3363
     17 C1'       123.7640   93.1150   51.3920 C.3       1 UTP         0.2059
     18 C2'       125.2300   92.8110   51.6550 C.3       1 UTP         0.1387
     19 O2'       125.8340   93.8270   52.4450 O.3       1 UTP        -0.3836
     20 C3'       125.7930   92.7410   50.2550 C.3       1 UTP         0.1149
     21 O3'       126.2280   94.0560   49.8550 O.3       1 UTP        -0.3864
     22 N1        122.8740   92.6310   52.4510 N.am      1 UTP        -0.1592
     23 C6        122.8170   91.3050   52.7180 C.2       1 UTP         0.0591
     24 C2        122.0640   93.5310   53.1830 C.2       1 UTP         0.3328
     25 O2        122.0950   94.7630   52.9470 O.2       1 UTP        -0.3815
     26 N3        121.2530   93.0520   54.1460 N.am      1 UTP        -0.1865
     27 C4        121.1990   91.7330   54.4270 C.2       1 UTP         0.1822
     28 O4        120.4420   91.3050   55.3220 O.2       1 UTP        -0.4124
     29 C5        121.9810   90.8260   53.7200 C.2       1 UTP         0.0062
     30 H1        123.6414   90.5126   48.6014 H         1 UTP         0.0648
     31 H2        125.4150   90.5751   48.3237 H         1 UTP         0.0648
     32 H3        124.5806   92.8521   48.4842 H         1 UTP         0.0651
     33 H4        123.6296   94.2010   51.2803 H         1 UTP         0.0997
     34 H5        125.3464   91.8452   52.1686 H         1 UTP         0.0676
     35 H6        125.7740   94.6585   51.9894 H         1 UTP         0.2101
     36 H7        126.6348   92.0354   50.1963 H         1 UTP         0.0648
     37 H8        125.4885   94.6521   49.8732 H         1 UTP         0.2100
     38 H9        123.4291   90.6101   52.1449 H         1 UTP         0.1178
     39 H10       120.6791   93.6868   54.6634 H         1 UTP         0.2259
     40 H11       121.9393   89.7617   53.9468 H         1 UTP         0.0258
@<TRIPOS>BOND
     1    1    2 ar 
     2    1    3 ar 
     3    1    4 1  
     4    1    5 1  
     5    4    6 1  
     6    5   14 1  
     7    6    7 ar 
     8    6    8 ar 
     9    6    9 1  
    10    9   10 1  
    11   10   11 ar 
    12   10   12 ar 
    13   10   13 ar 
    14   14   15 1  
    15   15   16 1  
    16   15   20 1  
    17   16   17 1  
    18   17   18 1  
    19   17   22 1  
    20   18   19 1  
    21   18   20 1  
    22   20   21 1  
    23   22   23 1  
    24   22   24 am 
    25   23   29 2  
    26   24   25 2  
    27   24   26 am 
    28   26   27 am 
    29   27   28 2  
    30   27   29 1  
    31   14   30 1  
    32   14   31 1  
    33   15   32 1  
    34   17   33 1  
    35   18   34 1  
    36   19   35 1  
    37   20   36 1  
    38   21   37 1  
    39   23   38 1  
    40   26   39 1  
    41   29   40 1  
@<TRIPOS>SUBSTRUCTURE
     1 UTP         1

