6aeh_ligand
  -I-interpret- 

 44 45  0  0  0  0  0  0  0  0999 V2000
  125.3470   88.5080   50.1790 P   0  0  0  0  0
  124.3830   87.6270   49.3850 O   0  0  0  0  0
  125.6660   88.1390   51.6090 O   0  0  0  0  0
  126.7440   88.6750   49.3970 O   0  0  0  0  0
  124.8250   90.0240   50.2410 O   0  0  0  0  0
  127.1270   88.3740   47.8750 P   0  0  0  0  0
  128.0260   89.5280   47.4800 O   0  0  0  0  0
  125.8770   88.1120   47.0720 O   0  0  0  0  0
  128.0820   87.0820   48.0140 O   0  0  0  0  0
  127.7950   85.5000   47.8420 P   0  0  0  0  0
  128.5670   84.9260   49.0130 O   0  0  0  0  0
  128.3800   85.0950   46.5330 O   0  0  0  0  0
  126.2880   85.3800   47.9920 O   0  0  0  0  0
  124.6110   90.7830   49.0450 C   0  0  0  0  0
  124.6160   92.2560   49.4080 C   0  0  0  0  0
  123.4320   92.4480   50.1830 O   0  0  0  0  0
  123.7640   93.1150   51.3920 C   0  0  0  0  0
  125.2300   92.8110   51.6550 C   0  0  0  0  0
  125.8340   93.8270   52.4450 O   0  0  0  0  0
  125.7930   92.7410   50.2550 C   0  0  0  0  0
  126.2280   94.0560   49.8550 O   0  0  0  0  0
  122.8740   92.6310   52.4510 N   0  0  0  0  0
  122.8170   91.3050   52.7180 C   0  0  0  0  0
  122.0640   93.5310   53.1830 C   0  0  0  0  0
  122.0950   94.7630   52.9470 O   0  0  0  0  0
  121.2530   93.0520   54.1460 N   0  0  0  0  0
  121.1990   91.7330   54.4270 C   0  0  0  0  0
  120.4420   91.3050   55.3220 O   0  0  0  0  0
  121.9810   90.8260   53.7200 C   0  0  0  0  0
  124.2794   87.9847   48.5002 H   0  0  0  0  0
  128.7751   89.5681   48.0790 H   0  0  0  0  0
  128.1586   85.2100   49.8341 H   0  0  0  0  0
  126.0311   85.6677   48.8711 H   0  0  0  0  0
  123.6554   90.5119   48.5962 H   0  0  0  0  0
  125.4002   90.5733   48.3230 H   0  0  0  0  0
  124.6840   92.8196   48.4775 H   0  0  0  0  0
  123.6307   94.1958   51.3441 H   0  0  0  0  0
  125.4052   91.8994   52.2263 H   0  0  0  0  0
  126.7568   93.6085   52.5943 H   0  0  0  0  0
  126.6562   92.0826   50.1571 H   0  0  0  0  0
  126.9657   94.3290   50.4053 H   0  0  0  0  0
  123.4297   90.6095   52.1444 H   0  0  0  0  0
  120.6676   93.6995   54.6737 H   0  0  0  0  0
  121.9392   89.7607   53.9470 H   0  0  0  0  0
  1  2  1  0  0  0
  1  3  2  0  0  0
  1  4  1  0  0  0
  1  5  1  0  0  0
  4  6  1  0  0  0
  5 14  1  0  0  0
  6  7  1  0  0  0
  6  8  2  0  0  0
  6  9  1  0  0  0
  9 10  1  0  0  0
 10 11  1  0  0  0
 10 12  2  0  0  0
 10 13  1  0  0  0
 14 15  1  0  0  0
 15 16  1  0  0  0
 15 20  1  0  0  0
 16 17  1  0  0  0
 17 18  1  0  0  0
 17 22  1  0  0  0
 18 19  1  0  0  0
 18 20  1  0  0  0
 20 21  1  0  0  0
 22 23  1  0  0  0
 22 24  1  0  0  0
 23 29  2  0  0  0
 24 25  2  0  0  0
 24 26  1  0  0  0
 26 27  1  0  0  0
 27 28  2  0  0  0
 27 29  1  0  0  0
  2 30  1  0  0  0
  7 31  1  0  0  0
 11 32  1  0  0  0
 13 33  1  0  0  0
 14 34  1  0  0  0
 14 35  1  0  0  0
 15 36  1  0  0  0
 17 37  1  0  0  0
 18 38  1  0  0  0
 19 39  1  0  0  0
 20 40  1  0  0  0
 21 41  1  0  0  0
 23 42  1  0  0  0
 26 43  1  0  0  0
 29 44  1  0  0  0
M  END
$$$$
