4len_ligand
  -I-interpret- 

 26 27  0  0  0  0  0  0  0  0999 V2000
   -8.7320   51.6720   12.1340 C   0  0  0  0  0
   -7.5320   50.9340   11.9830 C   0  0  0  0  0
   -6.3090   51.4130   12.4420 C   0  0  0  0  0
   -7.5110   53.4470   13.2520 C   0  0  0  0  0
   -5.5590   54.7170   14.2110 C   0  0  0  0  0
   -5.1190   53.4550   13.6920 C   0  0  0  0  0
   -4.6260   55.8690   14.8460 B   0  0  0  0  0
   -6.3010   52.6980   13.1150 C   0  0  0  0  0
   -7.2270   54.9310   14.0290 S   0  0  0  0  0
   -8.7350   52.9010   12.7640 C   0  0  0  0  0
   -3.8080   52.8550   13.6050 C   0  0  0  0  0
   -2.8350   53.6110   13.1240 C   0  0  0  0  0
   -1.6910   52.7980   12.7460 C   0  0  0  0  0
   -3.8560   56.3360   13.6360 O   0  0  0  0  0
   -5.5380   56.9450   15.4730 O   0  0  0  0  0
   -0.7560   53.3590   12.1320 O   0  0  0  0  0
   -1.7330   51.5500   12.9160 O   0  0  0  0  0
   -9.6660   51.2640   11.7475 H   0  0  0  0  0
   -7.5680   49.9614   11.4923 H   0  0  0  0  0
   -5.3904   50.8435   12.3010 H   0  0  0  0  0
   -9.6680   53.4509   12.8877 H   0  0  0  0  0
   -3.6288   51.8273   13.9209 H   0  0  0  0  0
   -2.8844   54.6953   13.0247 H   0  0  0  0  0
   -3.3150   55.6155   13.3047 H   0  0  0  0  0
   -5.9920   56.5745   16.2334 H   0  0  0  0  0
   -2.5254   51.3216   13.4076 H   0  0  0  0  0
  1  2  4  0  0  0
 10  1  4  0  0  0
  3  2  4  0  0  0
  8  3  4  0  0  0
  4  8  4  0  0  0
  9  4  4  0  0  0
  4 10  4  0  0  0
  5  6  4  0  0  0
  5  7  1  0  0  0
  5  9  4  0  0  0
  6  8  4  0  0  0
  6 11  1  0  0  0
  7 14  1  0  0  0
  7 15  1  0  0  0
 11 12  2  0  0  0
 12 13  1  0  0  0
 13 16  2  0  0  0
 13 17  1  0  0  0
  1 18  1  0  0  0
  2 19  1  0  0  0
  3 20  1  0  0  0
 10 21  1  0  0  0
 11 22  1  0  0  0
 12 23  1  0  0  0
 14 24  1  0  0  0
 15 25  1  0  0  0
 17 26  1  0  0  0
M  END
$$$$
