### 
### Created by X-TOOL on Mon Sep 10 21:13:16 2018
### 

@<TRIPOS>MOLECULE
4len_ligand
   25    26     1     0     0
SMALL
GAST_HUCK


@<TRIPOS>ATOM
      1 C16        -8.7320   51.6720   12.1340 C.ar      1 2GK        -0.0845
      2 C15        -7.5320   50.9340   11.9830 C.ar      1 2GK        -0.0858
      3 C14        -6.3090   51.4130   12.4420 C.ar      1 2GK        -0.0826
      4 C12        -7.5110   53.4470   13.2520 C.ar      1 2GK         0.0070
      5 C9         -5.5590   54.7170   14.2110 C.2       1 2GK        -0.1002
      6 C10        -5.1190   53.4550   13.6920 C.2       1 2GK        -0.1260
      7 B          -4.6260   55.8690   14.8460 B         1 2GK         3.0000
      8 C11        -6.3010   52.6980   13.1150 C.ar      1 2GK        -0.0561
      9 S13        -7.2270   54.9310   14.0290 S.3       1 2GK        -0.1247
     10 C17        -8.7350   52.9010   12.7640 C.ar      1 2GK        -0.0649
     11 C18        -3.8080   52.8550   13.6050 C.2       1 2GK        -0.1572
     12 C19        -2.8350   53.6110   13.1240 C.2       1 2GK        -0.1287
     13 C20        -1.6910   52.7980   12.7460 C.2       1 2GK        -0.0123
     14 O21        -3.8560   56.3360   13.6360 O.3       1 2GK        -0.8710
     15 O22        -5.5380   56.9450   15.4730 O.3       1 2GK        -0.8710
     16 O23        -0.7560   53.3590   12.1320 O.co2     1 2GK        -0.5903
     17 O24        -1.7330   51.5500   12.9160 O.co2     1 2GK        -0.5903
     18 H1         -9.6608   51.2663   11.7496 H         1 2GK         0.0473
     19 H2         -7.5678   49.9667   11.4950 H         1 2GK         0.0517
     20 H3         -5.3954   50.8466   12.3018 H         1 2GK         0.0454
     21 H5         -9.6628   53.4479   12.8870 H         1 2GK         0.0487
     22 H6         -3.6290   51.8282   13.9207 H         1 2GK         0.0166
     23 H7         -2.8843   54.6944   13.0248 H         1 2GK        -0.0131
     24 H8         -4.4653   56.6120   12.9614 H         1 2GK        -0.1290
     25 H11        -5.9872   56.5784   16.2255 H         1 2GK        -0.1290
@<TRIPOS>BOND
     1    1    2 ar 
     2   10    1 ar 
     3    3    2 ar 
     4    8    3 ar 
     5    4    8 ar 
     6    9    4 1  
     7    4   10 ar 
     8    5    6 2  
     9    5    7 1  
    10    5    9 1  
    11    6    8 1  
    12    6   11 1  
    13    7   14 1  
    14    7   15 1  
    15   11   12 2  
    16   12   13 1  
    17   13   16 ar 
    18   13   17 ar 
    19    1   18 1  
    20    2   19 1  
    21    3   20 1  
    22   10   21 1  
    23   11   22 1  
    24   12   23 1  
    25   14   24 1  
    26   15   25 1  
@<TRIPOS>SUBSTRUCTURE
     1 2GK         1

