6miq_ligand
  -I-interpret- 

104103  0  0  0  0  0  0  0  0999 V2000
  -13.3590  110.7130    7.9320 C   0  0  0  0  0
  -13.2280  111.9370    7.9410 O   0  0  0  0  0
  -12.2370  109.7660    8.2320 C   0  0  0  0  0
  -14.5340  110.1480    7.6800 N   0  0  0  0  0
  -15.6530  111.0370    7.3520 C   0  0  0  0  0
  -16.1160  111.9360    8.5010 C   0  0  0  0  0
  -16.7540  112.9580    8.2590 O   0  0  0  0  0
  -16.8070  110.2070    6.7980 C   0  0  0  0  0
  -16.3500  109.3640    5.6090 C   0  0  0  0  0
  -17.3200  108.2760    5.2280 C   0  0  0  0  0
  -17.7470  108.1860    4.0750 O   0  0  0  0  0
  -17.6950  107.4540    6.1960 N   0  0  0  0  0
  -15.7410  111.6090    9.7370 N   0  0  0  0  0
  -16.0640  112.4490   10.8880 C   0  0  0  0  0
  -14.9420  113.4110   11.2620 C   0  0  0  0  0
  -15.0220  114.0520   12.3110 O   0  0  0  0  0
  -16.4180  111.5910   12.1110 C   0  0  0  0  0
  -15.2320  110.9480   12.6080 O   0  0  0  0  0
  -17.4590  110.5380   11.7390 C   0  0  0  0  0
  -13.9010  113.5250   10.4380 N   0  0  0  0  0
  -12.7760  114.4010   10.7570 C   0  0  0  0  0
  -13.2230  115.8520   10.9090 C   0  0  0  0  0
  -13.9420  116.3810   10.0580 O   0  0  0  0  0
  -11.7210  114.3100    9.6570 C   0  0  0  0  0
  -12.7700  116.4940   11.9830 N   0  0  0  0  0
  -13.0480  117.9070   12.2500 C   0  0  0  0  0
  -11.7650  118.6580   12.5760 C   0  0  0  0  0
  -10.8140  118.0730   13.0980 O   0  0  0  0  0
  -14.0130  118.0650   13.4190 C   0  0  0  0  0
  -15.1180  117.0500   13.4700 C   0  0  0  0  0
  -16.2870  117.5250   12.6520 C   0  0  0  0  0
  -16.6410  118.9130   12.9450 N   0  0  0  0  0
  -17.5340  119.6020   12.2450 C   0  0  0  0  0
  -18.1500  119.0180   11.2270 N   0  0  0  0  0
  -17.8150  120.8610   12.5570 N   0  0  0  0  0
  -10.4290  120.9130   14.1670 C   0  0  0  0  0
  -11.7560  119.9610   12.3060 N   0  0  0  0  0
  -11.0220  120.3080   15.0660 O   0  0  0  0  0
  -10.6380  120.7970   12.6620 C   0  0  0  0  0
  -10.7800  122.2210   12.1060 C   0  0  0  0  0
   -9.4960  122.5790    9.9960 C   0  0  0  0  0
   -9.6990  123.0220    8.5480 C   0  0  0  0  0
  -10.8360  122.2080   10.5940 C   0  0  0  0  0
   -8.5070  123.2750    7.7800 N   0  0  0  0  0
   -5.4140  124.6100    5.1110 C   0  0  0  0  0
   -8.8240  121.4720    6.4170 O   0  0  0  0  0
   -6.4540  124.2420    6.1330 C   0  0  0  0  0
   -6.8710  122.8040    5.9580 C   0  0  0  0  0
   -8.1400  122.4640    6.7190 C   0  0  0  0  0
   -9.6270  121.6340   14.7700 O   0  0  0  0  0
  -11.4323  109.9186    7.5128 H   0  0  0  0  0
  -11.8656  109.9523    9.2397 H   0  0  0  0  0
  -12.5999  108.7406    8.1609 H   0  0  0  0  0
  -14.6534  109.1356    7.7133 H   0  0  0  0  0
  -15.2875  111.7327    6.5967 H   0  0  0  0  0
  -17.5966  110.8814    6.4668 H   0  0  0  0  0
  -17.1679  109.5411    7.5818 H   0  0  0  0  0
  -15.4146  108.8815    5.8925 H   0  0  0  0  0
  -16.2575  110.0321    4.7527 H   0  0  0  0  0
  -18.3637  106.7087    6.0017 H   0  0  0  0  0
  -17.3152  107.5661    7.1360 H   0  0  0  0  0
  -15.2137  110.7483    9.8838 H   0  0  0  0  0
  -16.9254  113.0451   10.5867 H   0  0  0  0  0
  -16.8345  112.2354   12.8852 H   0  0  0  0  0
  -15.4562  110.4123   13.3725 H   0  0  0  0  0
  -18.3610  111.0323   11.3782 H   0  0  0  0  0
  -17.0585  109.8936   10.9564 H   0  0  0  0  0
  -17.6981  109.9390   12.6177 H   0  0  0  0  0
  -13.8893  112.9911    9.5690 H   0  0  0  0  0
  -12.3550  114.0708   11.7067 H   0  0  0  0  0
  -11.3671  113.2820    9.5789 H   0  0  0  0  0
  -12.1600  114.6175    8.7079 H   0  0  0  0  0
  -10.8854  114.9657    9.9017 H   0  0  0  0  0
  -12.2012  115.9766   12.6532 H   0  0  0  0  0
  -13.4989  118.3218   11.3485 H   0  0  0  0  0
  -14.4862  119.0405   13.3072 H   0  0  0  0  0
  -13.4276  117.9394   14.3299 H   0  0  0  0  0
  -15.4342  116.9143   14.5043 H   0  0  0  0  0
  -14.7567  116.1044   13.0657 H   0  0  0  0  0
  -17.1457  116.8986   12.8934 H   0  0  0  0  0
  -16.0117  117.4610   11.5993 H   0  0  0  0  0
  -16.1781  119.3756   13.7274 H   0  0  0  0  0
  -17.9359  118.0495   10.9890 H   0  0  0  0  0
  -18.5051  121.3793   12.0134 H   0  0  0  0  0
  -17.3409  121.3103   13.3404 H   0  0  0  0  0
  -12.5596  120.3777   11.8359 H   0  0  0  0  0
   -9.7770  120.2986   12.2166 H   0  0  0  0  0
   -9.9161  122.8072   12.4195 H   0  0  0  0  0
  -11.7043  122.6552   12.4870 H   0  0  0  0  0
   -9.0518  123.3928   10.5692 H   0  0  0  0  0
   -8.8304  121.7163   10.0252 H   0  0  0  0  0
  -10.2347  123.9701    8.5948 H   0  0  0  0  0
  -10.2101  122.1985    8.0493 H   0  0  0  0  0
  -11.5779  122.9361   10.2661 H   0  0  0  0  0
  -11.0994  121.2033   10.2633 H   0  0  0  0  0
   -7.9183  124.0715    8.0237 H   0  0  0  0  0
   -4.5420  123.9678    5.2344 H   0  0  0  0  0
   -5.8263  124.4769    4.1108 H   0  0  0  0  0
   -5.1226  125.6511    5.2497 H   0  0  0  0  0
   -7.3250  124.8842    6.0025 H   0  0  0  0  0
   -6.0353  124.3729    7.1308 H   0  0  0  0  0
   -6.0701  122.1742    6.3453 H   0  0  0  0  0
   -7.0624  122.6381    4.8978 H   0  0  0  0  0
   -9.1187  122.1453   14.1361 H   0  0  0  0  0
  1  2  2  0  0  0
  1  3  1  0  0  0
  4  1  1  0  0  0
  5  4  1  0  0  0
  6  5  1  0  0  0
  5  8  1  0  0  0
  6  7  2  0  0  0
 13  6  1  0  0  0
  8  9  1  0  0  0
  9 10  1  0  0  0
 10 11  2  0  0  0
 10 12  1  0  0  0
 14 13  1  0  0  0
 15 14  1  0  0  0
 14 17  1  0  0  0
 15 16  2  0  0  0
 20 15  1  0  0  0
 17 18  1  0  0  0
 17 19  1  0  0  0
 21 20  1  0  0  0
 22 21  1  0  0  0
 21 24  1  0  0  0
 22 23  2  0  0  0
 25 22  1  0  0  0
 26 25  1  0  0  0
 27 26  1  0  0  0
 26 29  1  0  0  0
 27 28  2  0  0  0
 37 27  1  0  0  0
 29 30  1  0  0  0
 30 31  1  0  0  0
 31 32  1  0  0  0
 32 33  1  0  0  0
 33 34  2  0  0  0
 33 35  1  0  0  0
 36 38  2  0  0  0
 39 36  1  0  0  0
 36 50  1  0  0  0
 39 37  1  0  0  0
 40 39  1  0  0  0
 43 40  1  0  0  0
 42 41  1  0  0  0
 41 43  1  0  0  0
 44 42  1  0  0  0
 49 44  1  0  0  0
 47 45  1  0  0  0
 49 46  2  0  0  0
 48 47  1  0  0  0
 48 49  1  0  0  0
  3 51  1  0  0  0
  3 52  1  0  0  0
  3 53  1  0  0  0
  4 54  1  0  0  0
  5 55  1  0  0  0
  8 56  1  0  0  0
  8 57  1  0  0  0
  9 58  1  0  0  0
  9 59  1  0  0  0
 12 60  1  0  0  0
 12 61  1  0  0  0
 13 62  1  0  0  0
 14 63  1  0  0  0
 17 64  1  0  0  0
 18 65  1  0  0  0
 19 66  1  0  0  0
 19 67  1  0  0  0
 19 68  1  0  0  0
 20 69  1  0  0  0
 21 70  1  0  0  0
 24 71  1  0  0  0
 24 72  1  0  0  0
 24 73  1  0  0  0
 25 74  1  0  0  0
 26 75  1  0  0  0
 29 76  1  0  0  0
 29 77  1  0  0  0
 30 78  1  0  0  0
 30 79  1  0  0  0
 31 80  1  0  0  0
 31 81  1  0  0  0
 32 82  1  0  0  0
 34 83  1  0  0  0
 35 84  1  0  0  0
 35 85  1  0  0  0
 37 86  1  0  0  0
 39 87  1  0  0  0
 40 88  1  0  0  0
 40 89  1  0  0  0
 41 90  1  0  0  0
 41 91  1  0  0  0
 42 92  1  0  0  0
 42 93  1  0  0  0
 43 94  1  0  0  0
 43 95  1  0  0  0
 44 96  1  0  0  0
 45 97  1  0  0  0
 45 98  1  0  0  0
 45 99  1  0  0  0
 47100  1  0  0  0
 47101  1  0  0  0
 48102  1  0  0  0
 48103  1  0  0  0
 50104  1  0  0  0
M  END
$$$$
