### 
### Created by X-TOOL on Wed Jan  1 15:39:35 2020
### 

@<TRIPOS>MOLECULE
6miq_ligand
  104   103     1     0     0
SMALL
GAST_HUCK


@<TRIPOS>ATOM
      1 C         -13.3590  110.7130    7.9320 C.2       1 ACE         0.1751
      2 O         -13.2280  111.9370    7.9410 O.2       1 ACE        -0.3972
      3 CH3       -12.2370  109.7660    8.2320 C.3       1 ACE         0.0258
      4 N         -14.5340  110.1480    7.6800 N.am      1 GLN        -0.2657
      5 CA        -15.6530  111.0370    7.3520 C.3       1 GLN         0.1329
      6 C         -16.1160  111.9360    8.5010 C.2       1 GLN         0.2041
      7 O         -16.7540  112.9580    8.2590 O.2       1 GLN        -0.3944
      8 CB        -16.8070  110.2070    6.7980 C.3       1 GLN         0.0045
      9 CG        -16.3500  109.3640    5.6090 C.3       1 GLN         0.0412
     10 CD        -17.3200  108.2760    5.2280 C.2       1 GLN         0.1737
     11 OE1       -17.7470  108.1860    4.0750 O.2       1 GLN        -0.3973
     12 NE2       -17.6950  107.4540    6.1960 N.am      1 GLN        -0.3009
     13 N         -15.7410  111.6090    9.7370 N.am      1 THR        -0.2613
     14 CA        -16.0640  112.4490   10.8880 C.3       1 THR         0.1565
     15 C         -14.9420  113.4110   11.2620 C.2       1 THR         0.2065
     16 O         -15.0220  114.0520   12.3110 O.2       1 THR        -0.3943
     17 CB        -16.4180  111.5910   12.1110 C.3       1 THR         0.0924
     18 OG1       -15.2320  110.9480   12.6080 O.3       1 THR        -0.3874
     19 CG2       -17.4590  110.5380   11.7390 C.3       1 THR        -0.0346
     20 N         -13.9010  113.5250   10.4380 N.am      1 ALA        -0.2639
     21 CA        -12.7760  114.4010   10.7570 C.3       1 ALA         0.1282
     22 C         -13.2230  115.8520   10.9090 C.2       1 ALA         0.2036
     23 O         -13.9420  116.3810   10.0580 O.2       1 ALA        -0.3944
     24 CB        -11.7210  114.3100    9.6570 C.3       1 ALA        -0.0244
     25 N         -12.7700  116.4940   11.9830 N.am      1 ARG        -0.2637
     26 CA        -13.0480  117.9070   12.2500 C.3       1 ARG         0.1310
     27 C         -11.7650  118.6580   12.5760 C.2       1 ARG         0.2033
     28 O         -10.8140  118.0730   13.0980 O.2       1 ARG        -0.3944
     29 CB        -14.0130  118.0650   13.4190 C.3       1 ARG        -0.0092
     30 CG        -15.1180  117.0500   13.4700 C.3       1 ARG        -0.0156
     31 CD        -16.2870  117.5250   12.6520 C.3       1 ARG         0.0627
     32 NE        -16.6410  118.9130   12.9450 N.pl3     1 ARG        -0.2723
     33 CZ        -17.5340  119.6020   12.2450 C.cat     1 ARG         0.2882
     34 NH1       -18.1500  119.0180   11.2270 N.pl3     1 ARG        -0.2849
     35 NH2       -17.8150  120.8610   12.5570 N.pl3     1 ARG        -0.2849
     36 C         -10.4290  120.9130   14.1670 C.2       1 BTK         0.0601
     37 N         -11.7560  119.9610   12.3060 N.am      1 BTK        -0.2695
     38 O         -11.0220  120.3080   15.0660 O.co2     1 BTK        -0.5666
     39 CA        -10.6380  120.7970   12.6620 C.3       1 BTK         0.0944
     40 CB        -10.7800  122.2210   12.1060 C.3       1 BTK        -0.0179
     41 CD         -9.4960  122.5790    9.9960 C.3       1 BTK        -0.0326
     42 CE         -9.6990  123.0220    8.5480 C.3       1 BTK         0.0309
     43 CG        -10.8360  122.2080   10.5940 C.3       1 BTK        -0.0476
     44 NZ         -8.5070  123.2750    7.7800 N.am      1 BTK        -0.2870
     45 CAA        -5.4140  124.6100    5.1110 C.3       1 BTK        -0.0632
     46 OAD        -8.8240  121.4720    6.4170 O.2       1 BTK        -0.3971
     47 CAF        -6.4540  124.2420    6.1330 C.3       1 BTK        -0.0389
     48 CAJ        -6.8710  122.8040    5.9580 C.3       1 BTK         0.0370
     49 CAN        -8.1400  122.4640    6.7190 C.2       1 BTK         0.1760
     50 OXT        -9.6270  121.6340   14.7700 O.co2     1 BTK        -0.5666
     51 H1        -12.6020  108.7308    8.1606 H         1 ACE         0.0467
     52 H2        -11.8613  109.9530    9.2488 H         1 ACE         0.0467
     53 H3        -11.4242  109.9190    7.5068 H         1 ACE         0.0467
     54 H4        -14.6511  109.1554    7.7126 H         1 GLN         0.1883
     55 H5        -15.3075  111.7058    6.5499 H         1 GLN         0.0801
     56 H6        -17.6124  110.8818    6.4727 H         1 GLN         0.0337
     57 H7        -17.1835  109.5409    7.5883 H         1 GLN         0.0337
     58 H8        -15.3874  108.8969    5.8643 H         1 GLN         0.0504
     59 H9        -16.2167  110.0289    4.7429 H         1 GLN         0.0504
     60 H10       -18.3374  106.7127    6.0016 H         1 GLN         0.1814
     61 H11       -17.3358  107.5746    7.1215 H         1 GLN         0.1814
     62 H12       -15.2241  110.7651    9.8809 H         1 THR         0.1884
     63 H13       -16.9465  113.0490   10.6211 H         1 THR         0.0826
     64 H14       -16.8317  112.2405   12.8964 H         1 THR         0.0639
     65 H15       -14.8649  110.3945   11.9287 H         1 THR         0.2101
     66 H16       -17.7011  109.9328   12.6250 H         1 THR         0.0257
     67 H17       -17.0560  109.8869   10.9493 H         1 THR         0.0257
     68 H18       -18.3699  111.0355   11.3748 H         1 THR         0.0257
     69 H19       -13.8896  113.0016    9.5860 H         1 ALA         0.1883
     70 H20       -12.3320  114.0685   11.7069 H         1 ALA         0.0797
     71 H21       -10.8771  114.9714    9.9028 H         1 ALA         0.0277
     72 H22       -12.1628  114.6202    8.6986 H         1 ALA         0.0277
     73 H23       -11.3629  113.2730    9.5772 H         1 ALA         0.0277
     74 H24       -12.2124  115.9868   12.6401 H         1 ARG         0.1883
     75 H25       -13.5022  118.3487   11.3508 H         1 ARG         0.0800
     76 H26       -14.4695  119.0636   13.3523 H         1 ARG         0.0313
     77 H27       -13.4350  117.9876   14.3517 H         1 ARG         0.0313
     78 H28       -15.4362  116.9093   14.5135 H         1 ARG         0.0301
     79 H29       -14.7542  116.0940   13.0654 H         1 ARG         0.0301
     80 H30       -17.1547  116.8850   12.8698 H         1 ARG         0.0689
     81 H31       -16.0294  117.4431   11.5857 H         1 ARG         0.0689
     82 H32       -16.1735  119.3801   13.7350 H         1 ARG         0.2642
     83 H33       -18.8449  119.5421   10.6762 H         1 ARG         0.2615
     84 H34       -17.9338  118.0400   10.9867 H         1 ARG         0.2615
     85 H35       -17.3362  121.3147   13.3481 H         1 ARG         0.2615
     86 H36       -18.5118  121.3844   12.0080 H         1 ARG         0.2615
     87 H37       -12.5438  120.3695   11.8451 H         1 BTK         0.1875
     88 H38        -9.7374  120.3416   12.2245 H         1 BTK         0.0726
     89 H39        -9.9168  122.8214   12.4291 H         1 BTK         0.0305
     90 H40       -11.7054  122.6694   12.4966 H         1 BTK         0.0305
     91 H41        -9.0502  123.4021   10.5738 H         1 BTK         0.0285
     92 H42        -8.8263  121.7068   10.0237 H         1 BTK         0.0285
     93 H43       -10.2905  123.9493    8.5620 H         1 BTK         0.0520
     94 H44       -10.2667  122.2327    8.0335 H         1 BTK         0.0520
     95 H45       -11.5927  122.9313   10.2563 H         1 BTK         0.0268
     96 H46       -11.1146  121.1999   10.2534 H         1 BTK         0.0268
     97 H47        -7.9299  124.0559    8.0189 H         1 BTK         0.1850
     98 H48        -5.1191  125.6606    5.2499 H         1 BTK         0.0231
     99 H49        -5.8289  124.4762    4.1011 H         1 BTK         0.0231
    100 H50        -4.5333  123.9626    5.2345 H         1 BTK         0.0231
    101 H51        -7.3322  124.8925    6.0081 H         1 BTK         0.0287
    102 H52        -6.0367  124.3789    7.1415 H         1 BTK         0.0287
    103 H53        -6.0594  122.1559    6.3202 H         1 BTK         0.0502
    104 H54        -7.0414  122.6149    4.8879 H         1 BTK         0.0502
@<TRIPOS>BOND
     1    1    2 2  
     2    1    3 1  
     3    4    1 am 
     4    5    4 1  
     5    6    5 1  
     6    5    8 1  
     7    6    7 2  
     8   13    6 am 
     9    8    9 1  
    10    9   10 1  
    11   10   11 2  
    12   10   12 am 
    13   14   13 1  
    14   15   14 1  
    15   14   17 1  
    16   15   16 2  
    17   20   15 am 
    18   17   18 1  
    19   17   19 1  
    20   21   20 1  
    21   22   21 1  
    22   21   24 1  
    23   22   23 2  
    24   25   22 am 
    25   26   25 1  
    26   27   26 1  
    27   26   29 1  
    28   27   28 2  
    29   37   27 am 
    30   29   30 1  
    31   30   31 1  
    32   31   32 1  
    33   32   33 ar 
    34   33   34 ar 
    35   33   35 ar 
    36   36   38 ar 
    37   39   36 1  
    38   36   50 ar 
    39   39   37 1  
    40   40   39 1  
    41   43   40 1  
    42   42   41 1  
    43   41   43 1  
    44   44   42 1  
    45   49   44 am 
    46   47   45 1  
    47   49   46 2  
    48   48   47 1  
    49   48   49 1  
    50    3   51 1  
    51    3   52 1  
    52    3   53 1  
    53    4   54 1  
    54    5   55 1  
    55    8   56 1  
    56    8   57 1  
    57    9   58 1  
    58    9   59 1  
    59   12   60 1  
    60   12   61 1  
    61   13   62 1  
    62   14   63 1  
    63   17   64 1  
    64   18   65 1  
    65   19   66 1  
    66   19   67 1  
    67   19   68 1  
    68   20   69 1  
    69   21   70 1  
    70   24   71 1  
    71   24   72 1  
    72   24   73 1  
    73   25   74 1  
    74   26   75 1  
    75   29   76 1  
    76   29   77 1  
    77   30   78 1  
    78   30   79 1  
    79   31   80 1  
    80   31   81 1  
    81   32   82 1  
    82   34   83 1  
    83   34   84 1  
    84   35   85 1  
    85   35   86 1  
    86   37   87 1  
    87   39   88 1  
    88   40   89 1  
    89   40   90 1  
    90   41   91 1  
    91   41   92 1  
    92   42   93 1  
    93   42   94 1  
    94   43   95 1  
    95   43   96 1  
    96   44   97 1  
    97   45   98 1  
    98   45   99 1  
    99   45  100 1  
   100   47  101 1  
   101   47  102 1  
   102   48  103 1  
   103   48  104 1  
@<TRIPOS>SUBSTRUCTURE
     1 ACE         1

