4odp_ligand
  -I-interpret- 

 96 97  0  0  0  0  0  0  0  0999 V2000
   45.0650   55.1940   37.2140 N   0  3  0  0  0
   44.1580   56.2670   36.8170 C   0  0  0  0  0
   44.5570   56.9170   35.4940 C   0  0  0  0  0
   45.7290   56.9460   35.1250 O   0  0  0  0  0
   44.0720   57.3430   37.9050 C   0  0  0  0  0
   43.3140   56.9210   39.1550 C   0  0  0  0  0
   42.7870   58.3400   40.1400 S   0  0  0  0  0
   42.1570   57.5340   41.6160 C   0  0  0  0  0
   43.5680   57.4530   34.7890 N   0  0  0  0  0
   43.8180   58.1800   33.5530 C   0  0  0  0  0
   44.1630   59.6460   33.8490 C   0  0  0  0  0
   43.7630   60.1860   34.8820 O   0  0  0  0  0
   42.5890   58.0880   32.6460 C   0  0  0  0  0
   42.2620   56.6810   32.2020 C   0  0  0  0  0
   40.8210   56.5860   31.7340 C   0  0  0  0  0
   40.5570   55.2530   31.0690 C   0  0  0  0  0
   39.1980   55.2370   30.4780 N   0  3  0  0  0
   44.9040   60.2990   32.9360 N   0  0  0  0  0
   45.4690   59.6860   31.7280 C   0  0  0  0  0
   46.6740   58.8130   32.0590 C   0  0  0  0  0
   47.3390   59.0470   33.0690 O   0  0  0  0  0
   45.8700   60.8930   30.8710 C   0  0  0  0  0
   46.0520   62.0040   31.8350 C   0  0  0  0  0
   45.0950   61.7600   32.9600 C   0  0  0  0  0
   46.9150   57.7980   31.2350 N   0  0  0  0  0
   48.0410   56.8950   31.4290 C   0  0  0  0  0
   49.3310   57.5970   31.0150 C   0  0  0  0  0
   49.6290   57.6940   29.8250 O   0  0  0  0  0
   47.8690   55.6170   30.5940 C   0  0  0  0  0
   46.5950   54.8600   30.8730 C   0  0  0  0  0
   45.9920   54.9080   32.1200 C   0  0  0  0  0
   46.0040   54.0920   29.8790 C   0  0  0  0  0
   44.8240   54.2100   32.3670 C   0  0  0  0  0
   44.8370   53.3930   30.1210 C   0  0  0  0  0
   44.2470   53.4520   31.3670 C   0  0  0  0  0
   50.0830   58.0980   31.9930 N   0  0  0  0  0
   51.4070   58.6600   31.7260 C   0  0  0  0  0
   52.4850   57.8490   32.4320 C   0  0  0  0  0
   53.1940   57.0730   31.8000 O   0  0  0  0  0
   51.5420   60.1250   32.1800 C   0  0  0  0  0
   50.5790   61.0270   31.4160 C   0  0  0  0  0
   52.9560   60.6070   31.9700 C   0  0  0  0  0
   49.4350   61.4940   32.2530 C   0  0  0  0  0
   52.6570   57.9620   33.6410 O   0  0  0  0  0
   45.1043   54.4926   36.4745 H   0  0  0  0  0
   45.9969   55.5783   37.3696 H   0  0  0  0  0
   44.7252   54.7641   38.0743 H   0  0  0  0  0
   43.1813   55.8028   36.6805 H   0  0  0  0  0
   43.5323   58.1871   37.4756 H   0  0  0  0  0
   45.0935   57.5665   38.2127 H   0  0  0  0  0
   43.9786   56.3104   39.7662 H   0  0  0  0  0
   42.4244   56.3728   38.8448 H   0  0  0  0  0
   41.3376   56.8688   41.3435 H   0  0  0  0  0
   42.9556   56.9569   42.0822 H   0  0  0  0  0
   41.7968   58.2888   42.3150 H   0  0  0  0  0
   42.6090   57.3529   35.1218 H   0  0  0  0  0
   44.6700   57.7307   33.0427 H   0  0  0  0  0
   42.8025   58.6702   31.7496 H   0  0  0  0  0
   41.7359   58.4551   33.2166 H   0  0  0  0  0
   42.4037   56.0042   33.0446 H   0  0  0  0  0
   42.9191   56.4112   31.3752 H   0  0  0  0  0
   40.6333   57.3812   31.0126 H   0  0  0  0  0
   40.1643   56.6829   32.5985 H   0  0  0  0  0
   40.6316   54.4611   31.8143 H   0  0  0  0  0
   41.2917   55.0962   30.2792 H   0  0  0  0  0
   39.0325   54.3341   30.0333 H   0  0  0  0  0
   38.5070   55.3870   31.2132 H   0  0  0  0  0
   39.1224   55.9790   29.7822 H   0  0  0  0  0
   44.7681   59.0219   31.2222 H   0  0  0  0  0
   45.1124   61.1270   30.1230 H   0  0  0  0  0
   46.7787   60.6997   30.3009 H   0  0  0  0  0
   45.8559   62.9655   31.3604 H   0  0  0  0  0
   47.0788   62.0372   32.1994 H   0  0  0  0  0
   45.4749   62.1167   33.9174 H   0  0  0  0  0
   44.1595   62.3063   32.8395 H   0  0  0  0  0
   46.2916   57.6469   30.4419 H   0  0  0  0  0
   48.0851   56.6191   32.4826 H   0  0  0  0  0
   48.6972   54.9550   30.8467 H   0  0  0  0  0
   47.8396   55.9194   29.5472 H   0  0  0  0  0
   46.4432   55.5023   32.9146 H   0  0  0  0  0
   46.4671   54.0397   28.8937 H   0  0  0  0  0
   44.3585   54.2581   33.3514 H   0  0  0  0  0
   44.3835   52.7964   29.3295 H   0  0  0  0  0
   43.3268   52.9011   31.5618 H   0  0  0  0  0
   49.7282   58.0898   32.9493 H   0  0  0  0  0
   51.5327   58.6201   30.6440 H   0  0  0  0  0
   52.9426   57.0937   30.8737 H   0  0  0  0  0
   51.2947   60.1708   33.2406 H   0  0  0  0  0
   50.1711   60.4513   30.5851 H   0  0  0  0  0
   51.1340   61.9064   31.0894 H   0  0  0  0  0
   53.6396   59.9882   32.5513 H   0  0  0  0  0
   53.2095   60.5357   30.9123 H   0  0  0  0  0
   53.0370   61.6442   32.2952 H   0  0  0  0  0
   48.8717   60.6317   32.6098 H   0  0  0  0  0
   49.8158   62.0584   33.1042 H   0  0  0  0  0
   48.7848   62.1318   31.6541 H   0  0  0  0  0
  1  2  1  0  0  0
  2  3  1  0  0  0
  2  5  1  0  0  0
  3  4  2  0  0  0
  3  9  1  0  0  0
  5  6  1  0  0  0
  6  7  1  0  0  0
  7  8  1  0  0  0
  9 10  1  0  0  0
 10 11  1  0  0  0
 10 13  1  0  0  0
 11 12  2  0  0  0
 11 18  1  0  0  0
 13 14  1  0  0  0
 14 15  1  0  0  0
 15 16  1  0  0  0
 16 17  1  0  0  0
 18 19  1  0  0  0
 18 24  1  0  0  0
 19 20  1  0  0  0
 19 22  1  0  0  0
 20 21  2  0  0  0
 20 25  1  0  0  0
 22 23  1  0  0  0
 23 24  1  0  0  0
 25 26  1  0  0  0
 26 27  1  0  0  0
 26 29  1  0  0  0
 27 28  2  0  0  0
 27 36  1  0  0  0
 29 30  1  0  0  0
 30 31  4  0  0  0
 30 32  4  0  0  0
 31 33  4  0  0  0
 32 34  4  0  0  0
 33 35  4  0  0  0
 34 35  4  0  0  0
 36 37  1  0  0  0
 37 38  1  0  0  0
 37 40  1  0  0  0
 38 39  1  0  0  0
 38 44  2  0  0  0
 40 41  1  0  0  0
 40 42  1  0  0  0
 41 43  1  0  0  0
  1 45  1  0  0  0
  1 46  1  0  0  0
  1 47  1  0  0  0
  2 48  1  0  0  0
  5 49  1  0  0  0
  5 50  1  0  0  0
  6 51  1  0  0  0
  6 52  1  0  0  0
  8 53  1  0  0  0
  8 54  1  0  0  0
  8 55  1  0  0  0
  9 56  1  0  0  0
 10 57  1  0  0  0
 13 58  1  0  0  0
 13 59  1  0  0  0
 14 60  1  0  0  0
 14 61  1  0  0  0
 15 62  1  0  0  0
 15 63  1  0  0  0
 16 64  1  0  0  0
 16 65  1  0  0  0
 17 66  1  0  0  0
 17 67  1  0  0  0
 17 68  1  0  0  0
 19 69  1  0  0  0
 22 70  1  0  0  0
 22 71  1  0  0  0
 23 72  1  0  0  0
 23 73  1  0  0  0
 24 74  1  0  0  0
 24 75  1  0  0  0
 25 76  1  0  0  0
 26 77  1  0  0  0
 29 78  1  0  0  0
 29 79  1  0  0  0
 31 80  1  0  0  0
 32 81  1  0  0  0
 33 82  1  0  0  0
 34 83  1  0  0  0
 35 84  1  0  0  0
 36 85  1  0  0  0
 37 86  1  0  0  0
 39 87  1  0  0  0
 40 88  1  0  0  0
 41 89  1  0  0  0
 41 90  1  0  0  0
 42 91  1  0  0  0
 42 92  1  0  0  0
 42 93  1  0  0  0
 43 94  1  0  0  0
 43 95  1  0  0  0
 43 96  1  0  0  0
M  END
$$$$
