1y4z_ligand
  -I-interpret- 

 13 13  0  0  0  0  0  0  0  0999 V2000
 -149.6340    4.3930  -10.3700 O   0  0  0  0  0
 -150.6070    5.3880  -10.2230 C   0  0  0  0  0
 -151.2130    5.5430   -8.9180 C   0  0  0  0  0
 -150.7720    4.6600   -7.8710 Cl  0  0  0  0  0
 -152.2480    6.5980   -8.7160 C   0  0  0  0  0
 -152.8580    6.7720   -7.4240 Cl  0  0  0  0  0
 -152.6400    7.4720   -9.8790 C   0  0  0  0  0
 -153.6310    8.4940   -9.7000 Cl  0  0  0  0  0
 -151.9990    7.2820  -11.2240 C   0  0  0  0  0
 -152.3670    8.1090  -12.3500 Cl  0  0  0  0  0
 -150.9720    6.2300  -11.3820 C   0  0  0  0  0
 -150.3140    5.9970  -12.6230 Cl  0  0  0  0  0
 -149.3127    4.3923  -11.2746 H   0  0  0  0  0
  1  2  1  0  0  0
  2  3  4  0  0  0
  2 11  4  0  0  0
  3  4  1  0  0  0
  3  5  4  0  0  0
  5  6  1  0  0  0
  5  7  4  0  0  0
  7  8  1  0  0  0
  7  9  4  0  0  0
  9 10  1  0  0  0
  9 11  4  0  0  0
 11 12  1  0  0  0
  1 13  1  0  0  0
M  END
$$$$
