5wii_ligand
  -I-interpret- 

 14 14  0  0  0  0  0  0  0  0999 V2000
  -32.5380   -9.3960   13.0830 C   0  0  0  0  0
  -32.2080  -10.5850   13.2850 O   0  0  0  0  0
  -31.7850   -8.4260   12.8350 O   0  0  0  0  0
  -34.0400   -9.0800   13.1470 C   0  0  0  0  0
  -34.8490   -9.1800   12.0320 C   0  0  0  0  0
  -36.2610   -8.8560   12.2030 C   0  0  0  0  0
  -37.3800   -8.9660   10.7820 Cl  0  0  0  0  0
  -36.8360   -8.4560   13.4200 N   0  0  0  0  0
  -36.0270   -8.3770   14.4480 C   0  0  0  0  0
  -34.5980   -8.6800   14.3750 C   0  0  0  0  0
  -32.3134   -7.6321   12.7252 H   0  0  0  0  0
  -34.4495   -9.4878   11.0657 H   0  0  0  0  0
  -36.4410   -8.0692   15.4082 H   0  0  0  0  0
  -33.9716   -8.5967   15.2631 H   0  0  0  0  0
  1  2  2  0  0  0
  1  3  1  0  0  0
  1  4  1  0  0  0
  4  5  4  0  0  0
  4 10  4  0  0  0
  5  6  4  0  0  0
  6  7  1  0  0  0
  6  8  4  0  0  0
  8  9  4  0  0  0
  9 10  4  0  0  0
  3 11  1  0  0  0
  5 12  1  0  0  0
  9 13  1  0  0  0
 10 14  1  0  0  0
M  END
$$$$
