4ba3_ligand
  -I-interpret- 

118118  0  0  0  0  0  0  0  0999 V2000
    2.0970   12.1970    5.7940 N   0  3  0  0  0
    1.9300   12.2890    4.3430 C   0  0  0  0  0
    0.8160   11.3200    3.8870 C   0  0  0  0  0
    0.9790   10.5360    2.9450 O   0  0  0  0  0
    3.2660   12.0420    3.5980 C   0  0  0  0  0
    4.4070   13.0600    3.8440 C   0  0  0  0  0
    5.7460   12.5070    3.3730 C   0  0  0  0  0
    4.1210   14.4180    3.1870 C   0  0  0  0  0
   -0.3170   11.4280    4.5750 N   0  0  0  0  0
   -1.5270   10.6560    4.3360 C   0  0  0  0  0
   -1.7780    9.6970    5.4750 C   0  0  0  0  0
   -2.3680   10.0630    6.4970 O   0  0  0  0  0
   -1.3070    8.4640    5.2930 N   0  0  0  0  0
   -1.4490    7.3490    6.2250 C   0  0  0  0  0
   -0.1050    6.6590    6.4170 C   0  0  0  0  0
    0.7420    6.6830    5.5160 O   0  0  0  0  0
   -2.4950    6.3370    5.7170 C   0  0  0  0  0
   -3.9160    6.8800    5.6400 C   0  0  0  0  0
   -4.8200    5.9090    4.9020 C   0  0  0  0  0
   -6.1810    6.5120    4.6640 C   0  0  0  0  0
   -7.0630    5.6360    3.8470 N   0  3  0  0  0
    0.1010    6.0700    7.6010 N   0  0  0  0  0
    1.3380    5.3620    7.9440 C   0  0  0  0  0
    1.0300    4.1310    8.7740 C   0  0  0  0  0
    0.2440    4.1950    9.7290 O   0  0  0  0  0
    2.3440    6.2620    8.7250 C   0  0  0  0  0
    2.4440    7.7430    8.3160 C   0  0  0  0  0
    3.4460    8.0010    7.2060 C   0  0  0  0  0
    3.6400    9.4350    6.9650 N   0  0  0  0  0
    4.5060   10.2030    7.6250 C   0  0  0  0  0
    5.2640    9.6890    8.5880 N   0  0  0  0  0
    4.6160   11.4930    7.3320 N   0  0  0  0  0
    1.6550    3.0100    8.4140 N   0  0  0  0  0
    1.5470    1.7690    9.1780 C   0  0  0  0  0
    2.6980    1.7530   10.2120 C   0  0  0  0  0
    3.7160    2.4160    9.9940 O   0  0  0  0  0
    1.5490    0.5280    8.2560 C   0  0  0  0  0
    2.8370    0.2840    7.4550 C   0  0  0  0  0
    2.7380   -0.9410    6.5220 C   0  0  0  0  0
    2.8160   -2.2800    7.2340 C   0  0  0  0  0
    3.0770   -3.3970    6.2870 N   0  3  0  0  0
    2.5120    1.0430   11.3430 N   0  0  0  0  0
    3.4930    0.9030   12.4240 C   0  0  0  0  0
    4.2420   -0.4290   12.2770 C   0  0  0  0  0
    3.6263   -1.4730   11.9328 O   0  0  0  0  0
    2.7650    1.0090   13.7850 C   0  0  0  0  0
    3.5760    0.9090   15.0690 C   0  0  0  0  0
    4.9640    1.0330   15.0600 C   0  0  0  0  0
    2.9490    0.7410   16.2980 C   0  0  0  0  0
    5.7070    0.9350   16.2400 C   0  0  0  0  0
    3.6790    0.6420   17.4810 C   0  0  0  0  0
    5.0560    0.7500   17.4510 C   0  0  0  0  0
    5.7560    0.6590   18.6300 O   0  0  0  0  0
    5.4807   -0.4786   12.5021 O   0  0  0  0  0
    1.1999   12.3646    6.2496 H   0  0  0  0  0
    2.4348   11.2660    6.0378 H   0  0  0  0  0
    2.7723   12.8965    6.1024 H   0  0  0  0  0
    1.6250   13.3033    4.0856 H   0  0  0  0  0
    3.0312   12.1092    2.5357 H   0  0  0  0  0
    3.6376   11.0846    3.9631 H   0  0  0  0  0
    4.4598   13.2233    4.9204 H   0  0  0  0  0
    5.7242   12.3785    2.2908 H   0  0  0  0  0
    6.5401   13.2037    3.6415 H   0  0  0  0  0
    5.9285   11.5445    3.8509 H   0  0  0  0  0
    4.9083   15.1227    3.4547 H   0  0  0  0  0
    4.0924   14.2974    2.1041 H   0  0  0  0  0
    3.1600   14.7945    3.5375 H   0  0  0  0  0
   -0.3397   12.1092    5.3339 H   0  0  0  0  0
   -1.4068   10.0866    3.4144 H   0  0  0  0  0
   -2.3724   11.3394    4.2564 H   0  0  0  0  0
   -0.8023    8.2828    4.4253 H   0  0  0  0  0
   -1.7915    7.7423    7.1821 H   0  0  0  0  0
   -2.5083    5.5095    6.4264 H   0  0  0  0  0
   -2.2044    6.0603    4.7035 H   0  0  0  0  0
   -3.9030    7.8283    5.1028 H   0  0  0  0  0
   -4.2968    7.0174    6.6520 H   0  0  0  0  0
   -4.9368    5.0105    5.5080 H   0  0  0  0  0
   -4.3682    5.6743    3.9382 H   0  0  0  0  0
   -6.0422    7.4467    4.1208 H   0  0  0  0  0
   -6.6575    6.6551    5.6338 H   0  0  0  0  0
   -7.9666    6.0911    3.7176 H   0  0  0  0  0
   -6.6301    5.4725    2.9380 H   0  0  0  0  0
   -7.1950    4.7458    4.3271 H   0  0  0  0  0
   -0.6403    6.1161    8.3001 H   0  0  0  0  0
    1.8033    5.0746    7.0012 H   0  0  0  0  0
    3.3287    5.8377    8.5290 H   0  0  0  0  0
    1.9917    6.2669    9.7565 H   0  0  0  0  0
    2.7751    8.3019    9.1913 H   0  0  0  0  0
    1.4640    8.0472    7.9485 H   0  0  0  0  0
    3.0646    7.5495    6.2901 H   0  0  0  0  0
    4.4030    7.5724    7.5036 H   0  0  0  0  0
    3.0719    9.8752    6.2412 H   0  0  0  0  0
    5.9209   10.2843    9.0925 H   0  0  0  0  0
    5.1889    8.6992    8.8226 H   0  0  0  0  0
    4.0360   11.9007    6.5986 H   0  0  0  0  0
    2.2312    3.0188    7.5724 H   0  0  0  0  0
    0.5929    1.7268    9.7033 H   0  0  0  0  0
    0.7594    0.6911    7.5225 H   0  0  0  0  0
    1.4261   -0.3370    8.9078 H   0  0  0  0  0
    3.6420    0.0979    8.1660 H   0  0  0  0  0
    3.0158    1.1623    6.8348 H   0  0  0  0  0
    3.5860   -0.8921    5.8390 H   0  0  0  0  0
    1.7640   -0.8941    6.0349 H   0  0  0  0  0
    1.8595   -2.4632    7.7235 H   0  0  0  0  0
    3.6373   -2.2394    7.9495 H   0  0  0  0  0
    3.1219   -4.2755    6.8034 H   0  0  0  0  0
    2.3235   -3.4426    5.6010 H   0  0  0  0  0
    3.9639   -3.2362    5.8095 H   0  0  0  0  0
    1.6179    0.5653   11.4557 H   0  0  0  0  0
    4.2327    1.7018   12.3709 H   0  0  0  0  0
    2.0937    0.1506   13.8107 H   0  0  0  0  0
    2.3425    2.0137   13.7986 H   0  0  0  0  0
    5.4795    1.2096   14.1160 H   0  0  0  0  0
    1.8611    0.6854   16.3375 H   0  0  0  0  0
    6.7944    1.0037   16.2087 H   0  0  0  0  0
    3.1645    0.4797   18.4281 H   0  0  0  0  0
    5.1415    0.5330   19.3568 H   0  0  0  0  0
    5.7947    0.3937   12.7515 H   0  0  0  0  0
  1  2  1  0  0  0
  2  3  1  0  0  0
  2  5  1  0  0  0
  3  4  2  0  0  0
  3  9  1  0  0  0
  5  6  1  0  0  0
  6  7  1  0  0  0
  6  8  1  0  0  0
  9 10  1  0  0  0
 10 11  1  0  0  0
 11 12  2  0  0  0
 11 13  1  0  0  0
 13 14  1  0  0  0
 14 15  1  0  0  0
 14 17  1  0  0  0
 15 16  2  0  0  0
 15 22  1  0  0  0
 17 18  1  0  0  0
 18 19  1  0  0  0
 19 20  1  0  0  0
 20 21  1  0  0  0
 22 23  1  0  0  0
 23 24  1  0  0  0
 23 26  1  0  0  0
 24 25  2  0  0  0
 24 33  1  0  0  0
 26 27  1  0  0  0
 27 28  1  0  0  0
 28 29  1  0  0  0
 29 30  1  0  0  0
 30 31  1  0  0  0
 30 32  2  0  0  0
 33 34  1  0  0  0
 34 35  1  0  0  0
 34 37  1  0  0  0
 35 36  2  0  0  0
 35 42  1  0  0  0
 37 38  1  0  0  0
 38 39  1  0  0  0
 39 40  1  0  0  0
 40 41  1  0  0  0
 42 43  1  0  0  0
 43 44  1  0  0  0
 43 46  1  0  0  0
 44 45  2  0  0  0
 46 47  1  0  0  0
 47 48  4  0  0  0
 47 49  4  0  0  0
 48 50  4  0  0  0
 49 51  4  0  0  0
 50 52  4  0  0  0
 51 52  4  0  0  0
 52 53  1  0  0  0
 44 54  1  0  0  0
  1 55  1  0  0  0
  1 56  1  0  0  0
  1 57  1  0  0  0
  2 58  1  0  0  0
  5 59  1  0  0  0
  5 60  1  0  0  0
  6 61  1  0  0  0
  7 62  1  0  0  0
  7 63  1  0  0  0
  7 64  1  0  0  0
  8 65  1  0  0  0
  8 66  1  0  0  0
  8 67  1  0  0  0
  9 68  1  0  0  0
 10 69  1  0  0  0
 10 70  1  0  0  0
 13 71  1  0  0  0
 14 72  1  0  0  0
 17 73  1  0  0  0
 17 74  1  0  0  0
 18 75  1  0  0  0
 18 76  1  0  0  0
 19 77  1  0  0  0
 19 78  1  0  0  0
 20 79  1  0  0  0
 20 80  1  0  0  0
 21 81  1  0  0  0
 21 82  1  0  0  0
 21 83  1  0  0  0
 22 84  1  0  0  0
 23 85  1  0  0  0
 26 86  1  0  0  0
 26 87  1  0  0  0
 27 88  1  0  0  0
 27 89  1  0  0  0
 28 90  1  0  0  0
 28 91  1  0  0  0
 29 92  1  0  0  0
 31 93  1  0  0  0
 31 94  1  0  0  0
 32 95  1  0  0  0
 33 96  1  0  0  0
 34 97  1  0  0  0
 37 98  1  0  0  0
 37 99  1  0  0  0
 38100  1  0  0  0
 38101  1  0  0  0
 39102  1  0  0  0
 39103  1  0  0  0
 40104  1  0  0  0
 40105  1  0  0  0
 41106  1  0  0  0
 41107  1  0  0  0
 41108  1  0  0  0
 42109  1  0  0  0
 43110  1  0  0  0
 46111  1  0  0  0
 46112  1  0  0  0
 48113  1  0  0  0
 49114  1  0  0  0
 50115  1  0  0  0
 51116  1  0  0  0
 53117  1  0  0  0
 54118  1  0  0  0
M  END
$$$$
