### 
### Created by X-TOOL on Mon Sep 10 21:13:14 2018
### 

@<TRIPOS>MOLECULE
4ba3_ligand
  118   118     1     0     0
SMALL
GAST_HUCK


@<TRIPOS>ATOM
      1 N           2.0970   12.1970    5.7940 N.4       1 LEU         0.2379
      2 CA          1.9300   12.2890    4.3430 C.3       1 LEU         0.0652
      3 C           0.8160   11.3200    3.8870 C.2       1 LEU         0.2265
      4 O           0.9790   10.5360    2.9450 O.2       1 LEU        -0.3907
      5 CB          3.2660   12.0420    3.5980 C.3       1 LEU         0.0102
      6 CG          4.4070   13.0600    3.8440 C.3       1 LEU        -0.0394
      7 CD1         5.7460   12.5070    3.3730 C.3       1 LEU        -0.0623
      8 CD2         4.1210   14.4180    3.1870 C.3       1 LEU        -0.0623
      9 N          -0.3170   11.4280    4.5750 N.am      1 GLY        -0.2637
     10 CA         -1.5270   10.6560    4.3360 C.3       1 GLY         0.1202
     11 C          -1.7780    9.6970    5.4750 C.2       1 GLY         0.2007
     12 O          -2.3680   10.0630    6.4970 O.2       1 GLY        -0.3947
     13 N          -1.3070    8.4640    5.2930 N.am      1 LYS        -0.2640
     14 CA         -1.4490    7.3490    6.2250 C.3       1 LYS         0.1310
     15 C          -0.1050    6.6590    6.4170 C.2       1 LYS         0.2039
     16 O           0.7420    6.6830    5.5160 O.2       1 LYS        -0.3944
     17 CB         -2.4950    6.3370    5.7170 C.3       1 LYS        -0.0122
     18 CG         -3.9160    6.8800    5.6400 C.3       1 LYS        -0.0440
     19 CD         -4.8200    5.9090    4.9020 C.3       1 LYS        -0.0124
     20 CE         -6.1810    6.5120    4.6640 C.3       1 LYS        -0.0354
     21 NZ         -7.0630    5.6360    3.8470 N.4       1 LYS         0.2185
     22 N           0.1010    6.0700    7.6010 N.am      1 ARG        -0.2637
     23 CA          1.3380    5.3620    7.9440 C.3       1 ARG         0.1311
     24 C           1.0300    4.1310    8.7740 C.2       1 ARG         0.2039
     25 O           0.2440    4.1950    9.7290 O.2       1 ARG        -0.3944
     26 CB          2.3440    6.2620    8.7250 C.3       1 ARG        -0.0092
     27 CG          2.4440    7.7430    8.3160 C.3       1 ARG        -0.0156
     28 CD          3.4460    8.0010    7.2060 C.3       1 ARG         0.0627
     29 NE          3.6400    9.4350    6.9650 N.pl3     1 ARG        -0.2723
     30 CZ          4.5060   10.2030    7.6250 C.cat     1 ARG         0.2882
     31 NH1         5.2640    9.6890    8.5880 N.pl3     1 ARG        -0.2849
     32 NH2         4.6160   11.4930    7.3320 N.pl3     1 ARG        -0.2849
     33 N           1.6550    3.0100    8.4140 N.am      1 LYS        -0.2637
     34 CA          1.5470    1.7690    9.1780 C.3       1 LYS         0.1309
     35 C           2.6980    1.7530   10.2120 C.2       1 LYS         0.2035
     36 O           3.7160    2.4160    9.9940 O.2       1 LYS        -0.3944
     37 CB          1.5490    0.5280    8.2560 C.3       1 LYS        -0.0122
     38 CG          2.8370    0.2840    7.4550 C.3       1 LYS        -0.0440
     39 CD          2.7380   -0.9410    6.5220 C.3       1 LYS        -0.0124
     40 CE          2.8160   -2.2800    7.2340 C.3       1 LYS        -0.0354
     41 NZ          3.0770   -3.3970    6.2870 N.4       1 LYS         0.2185
     42 N           2.5120    1.0430   11.3430 N.am      1 TYR        -0.2679
     43 CA          3.4930    0.9030   12.4240 C.3       1 TYR         0.1025
     44 C           4.2420   -0.4290   12.2770 C.2       1 TYR         0.0619
     45 O           3.6263   -1.4730   11.9328 O.co2     1 TYR        -0.5665
     46 CB          2.7650    1.0090   13.7850 C.3       1 TYR         0.0108
     47 CG          3.5760    0.9090   15.0690 C.ar      1 TYR        -0.0499
     48 CD1         4.9640    1.0330   15.0600 C.ar      1 TYR        -0.0686
     49 CD2         2.9490    0.7410   16.2980 C.ar      1 TYR        -0.0686
     50 CE1         5.7070    0.9350   16.2400 C.ar      1 TYR        -0.0398
     51 CE2         3.6790    0.6420   17.4810 C.ar      1 TYR        -0.0398
     52 CZ          5.0560    0.7500   17.4510 C.ar      1 TYR         0.0805
     53 OH          5.7560    0.6590   18.6300 O.3       1 TYR        -0.3376
     54 O           5.4807   -0.4786   12.5021 O.co2     1 TYR        -0.5665
     55 H1          2.8240   12.8297    6.0893 H         1 LEU         0.2015
     56 H2          2.3504   11.2540    6.0440 H         1 LEU         0.2015
     57 H3          1.2317   12.4440    6.2482 H         1 LEU         0.2015
     58 H4          1.6043   13.3121    4.1037 H         1 LEU         0.1098
     59 H5          3.0493   12.0408    2.5196 H         1 LEU         0.0348
     60 H6          3.6354   11.0505    3.8989 H         1 LEU         0.0348
     61 H7          4.4749   13.2242    4.9295 H         1 LEU         0.0299
     62 H8          6.5356   13.2497    3.5599 H         1 LEU         0.0232
     63 H9          5.6946   12.2897    2.2959 H         1 LEU         0.0232
     64 H10         5.9748   11.5824    3.9231 H         1 LEU         0.0232
     65 H11         3.1513   14.7991    3.5399 H         1 LEU         0.0232
     66 H12         4.0918   14.2977    2.0940 H         1 LEU         0.0232
     67 H13         4.9149   15.1302    3.4564 H         1 LEU         0.0232
     68 H14        -0.3392   12.0958    5.3190 H         1 GLY         0.1882
     69 H15        -1.4140   10.0863    3.4018 H         1 GLY         0.0763
     70 H16        -2.3820   11.3422    4.2459 H         1 GLY         0.0763
     71 H17        -0.8122    8.2864    4.4423 H         1 LYS         0.1883
     72 H18        -1.7859    7.7435    7.1950 H         1 LYS         0.0800
     73 H19        -2.4944    5.4722    6.3968 H         1 LYS         0.0312
     74 H20        -2.1968    6.0116    4.7094 H         1 LYS         0.0312
     75 H21        -3.9070    7.8420    5.1067 H         1 LYS         0.0269
     76 H22        -4.3016    7.0294    6.6593 H         1 LYS         0.0269
     77 H23        -4.9320    4.9943    5.5027 H         1 LYS         0.0317
     78 H24        -4.3635    5.6579    3.9332 H         1 LYS         0.0317
     79 H25        -6.0542    7.4706    4.1396 H         1 LYS         0.0813
     80 H26        -6.6632    6.6872    5.6370 H         1 LYS         0.0813
     81 H27        -7.9564    6.0848    3.7185 H         1 LYS         0.1994
     82 H28        -7.1942    4.7559    4.3205 H         1 LYS         0.1994
     83 H29        -6.6362    5.4738    2.9484 H         1 LYS         0.1994
     84 H30        -0.6257    6.1152    8.2864 H         1 ARG         0.1883
     85 H31         1.8174    5.0434    7.0066 H         1 ARG         0.0800
     86 H32         3.3437    5.8193    8.6040 H         1 ARG         0.0313
     87 H33         2.0560    6.2328    9.7862 H         1 ARG         0.0313
     88 H34         2.7441    8.3278    9.1980 H         1 ARG         0.0301
     89 H35         1.4532    8.0770    7.9744 H         1 ARG         0.0301
     90 H36         3.0803    7.5315    6.2809 H         1 ARG         0.0689
     91 H37         4.4110    7.5542    7.4874 H         1 ARG         0.0689
     92 H38         3.0663    9.8795    6.2341 H         1 ARG         0.2642
     93 H39         5.9312   10.2890    9.0938 H         1 ARG         0.2615
     94 H40         5.1843    8.6907    8.8286 H         1 ARG         0.2615
     95 H41         4.0342   11.9035    6.5878 H         1 ARG         0.2615
     96 H42         5.2832   12.0835    7.8489 H         1 ARG         0.2615
     97 H43         2.2199    3.0186    7.5889 H         1 LYS         0.1883
     98 H44         0.5918    1.7752    9.7235 H         1 LYS         0.0800
     99 H45         0.7231    0.6410    7.5383 H         1 LYS         0.0312
    100 H46         1.3707   -0.3575    8.8837 H         1 LYS         0.0312
    101 H47         3.6647    0.1219    8.1612 H         1 LYS         0.0269
    102 H48         3.0452    1.1749    6.8443 H         1 LYS         0.0269
    103 H49         3.5633   -0.8886    5.7966 H         1 LYS         0.0317
    104 H50         1.7773   -0.8905    5.9887 H         1 LYS         0.0317
    105 H51         1.8615   -2.4655    7.7484 H         1 LYS         0.0813
    106 H52         3.6298   -2.2429    7.9732 H         1 LYS         0.0813
    107 H53         3.1216   -4.2657    6.7963 H         1 LYS         0.1994
    108 H54         3.9533   -3.2392    5.8145 H         1 LYS         0.1994
    109 H55         2.3330   -3.4431    5.6085 H         1 LYS         0.1994
    110 H56         1.6354    0.5746   11.4535 H         1 TYR         0.1877
    111 H57         4.2234    1.7224   12.3529 H         1 TYR         0.0747
    112 H58         2.0171    0.2029   13.8134 H         1 TYR         0.0446
    113 H59         2.2548    1.9834   13.8019 H         1 TYR         0.0446
    114 H60         5.4767    1.2086   14.1212 H         1 TYR         0.0530
    115 H61         1.8671    0.6857   16.3373 H         1 TYR         0.0530
    116 H62         6.7884    1.0033   16.2089 H         1 TYR         0.0525
    117 H63         3.1674    0.4806   18.4229 H         1 TYR         0.0525
    118 H64         6.6849    0.7510   18.4534 H         1 TYR         0.2458
@<TRIPOS>BOND
     1    1    2 1  
     2    2    3 1  
     3    2    5 1  
     4    3    4 2  
     5    3    9 am 
     6    5    6 1  
     7    6    7 1  
     8    6    8 1  
     9    9   10 1  
    10   10   11 1  
    11   11   12 2  
    12   11   13 am 
    13   13   14 1  
    14   14   15 1  
    15   14   17 1  
    16   15   16 2  
    17   15   22 am 
    18   17   18 1  
    19   18   19 1  
    20   19   20 1  
    21   20   21 1  
    22   22   23 1  
    23   23   24 1  
    24   23   26 1  
    25   24   25 2  
    26   24   33 am 
    27   26   27 1  
    28   27   28 1  
    29   28   29 1  
    30   29   30 ar 
    31   30   31 ar 
    32   30   32 ar 
    33   33   34 1  
    34   34   35 1  
    35   34   37 1  
    36   35   36 2  
    37   35   42 am 
    38   37   38 1  
    39   38   39 1  
    40   39   40 1  
    41   40   41 1  
    42   42   43 1  
    43   43   44 1  
    44   43   46 1  
    45   44   45 ar 
    46   46   47 1  
    47   47   48 ar 
    48   47   49 ar 
    49   48   50 ar 
    50   49   51 ar 
    51   50   52 ar 
    52   51   52 ar 
    53   52   53 1  
    54   44   54 ar 
    55    1   55 1  
    56    1   56 1  
    57    1   57 1  
    58    2   58 1  
    59    5   59 1  
    60    5   60 1  
    61    6   61 1  
    62    7   62 1  
    63    7   63 1  
    64    7   64 1  
    65    8   65 1  
    66    8   66 1  
    67    8   67 1  
    68    9   68 1  
    69   10   69 1  
    70   10   70 1  
    71   13   71 1  
    72   14   72 1  
    73   17   73 1  
    74   17   74 1  
    75   18   75 1  
    76   18   76 1  
    77   19   77 1  
    78   19   78 1  
    79   20   79 1  
    80   20   80 1  
    81   21   81 1  
    82   21   82 1  
    83   21   83 1  
    84   22   84 1  
    85   23   85 1  
    86   26   86 1  
    87   26   87 1  
    88   27   88 1  
    89   27   89 1  
    90   28   90 1  
    91   28   91 1  
    92   29   92 1  
    93   31   93 1  
    94   31   94 1  
    95   32   95 1  
    96   32   96 1  
    97   33   97 1  
    98   34   98 1  
    99   37   99 1  
   100   37  100 1  
   101   38  101 1  
   102   38  102 1  
   103   39  103 1  
   104   39  104 1  
   105   40  105 1  
   106   40  106 1  
   107   41  107 1  
   108   41  108 1  
   109   41  109 1  
   110   42  110 1  
   111   43  111 1  
   112   46  112 1  
   113   46  113 1  
   114   48  114 1  
   115   49  115 1  
   116   50  116 1  
   117   51  117 1  
   118   53  118 1  
@<TRIPOS>SUBSTRUCTURE
     1 LEU         1

