5jf8_ligand
  -I-interpret- 

 33 32  0  0  0  0  0  0  0  0999 V2000
   -5.2620   -3.5840   11.7910 C   0  0  0  0  0
   -4.4010   -4.5690   11.4960 O   0  0  0  0  0
   -4.9410   -2.5360   12.4570 N   0  0  0  0  0
   -3.6300   -2.3250   12.9460 O   0  0  0  0  0
   -5.9780   -1.5340   12.7350 C   0  0  0  0  0
   -5.4600   -0.1830   12.2320 C   0  0  0  0  0
   -6.2430    1.0050   12.8290 C   0  0  0  0  0
   -5.4560   -0.1000   10.7560 N   0  0  0  0  0
   -6.4540   -0.2690    9.9750 C   0  0  0  0  0
   -7.6570   -0.5950   10.4580 O   0  0  0  0  0
   -6.2660   -0.1050    8.5320 O   0  0  0  0  0
   -7.2260   -0.5390    7.5330 C   0  0  0  0  0
   -8.5120    0.2920    7.6390 C   0  0  0  0  0
   -6.6340   -0.2960    6.1570 C   0  0  0  0  0
   -7.4800   -2.0350    7.7260 C   0  0  0  0  0
   -6.2914   -3.6794   11.4457 H   0  0  0  0  0
   -3.0703   -3.0601   12.6854 H   0  0  0  0  0
   -6.1867   -1.4881   13.8038 H   0  0  0  0  0
   -6.9075   -1.7975   12.2304 H   0  0  0  0  0
   -4.4288   -0.1146   12.5784 H   0  0  0  0  0
   -5.7713    1.9392   12.5244 H   0  0  0  0  0
   -7.2706    0.9802   12.4664 H   0  0  0  0  0
   -6.2383    0.9318   13.9165 H   0  0  0  0  0
   -4.5623    0.1149   10.3138 H   0  0  0  0  0
   -8.9452    0.1638    8.6310 H   0  0  0  0  0
   -8.2776    1.3441    7.4767 H   0  0  0  0  0
   -9.2233   -0.0437    6.8843 H   0  0  0  0  0
   -6.4250    0.7668    6.0353 H   0  0  0  0  0
   -5.7089   -0.8635    6.0555 H   0  0  0  0  0
   -7.3444   -0.6174    5.3953 H   0  0  0  0  0
   -6.5435   -2.5797    7.6058 H   0  0  0  0  0
   -7.8771   -2.2088    8.7261 H   0  0  0  0  0
   -8.1997   -2.3788    6.9831 H   0  0  0  0  0
  1  2  2  0  0  0
  1  3  1  0  0  0
  3  4  1  0  0  0
  3  5  1  0  0  0
  5  6  1  0  0  0
  6  7  1  0  0  0
  6  8  1  0  0  0
  8  9  1  0  0  0
  9 10  2  0  0  0
  9 11  1  0  0  0
 11 12  1  0  0  0
 12 13  1  0  0  0
 12 14  1  0  0  0
 12 15  1  0  0  0
  1 16  1  0  0  0
  4 17  1  0  0  0
  5 18  1  0  0  0
  5 19  1  0  0  0
  6 20  1  0  0  0
  7 21  1  0  0  0
  7 22  1  0  0  0
  7 23  1  0  0  0
  8 24  1  0  0  0
 13 25  1  0  0  0
 13 26  1  0  0  0
 13 27  1  0  0  0
 14 28  1  0  0  0
 14 29  1  0  0  0
 14 30  1  0  0  0
 15 31  1  0  0  0
 15 32  1  0  0  0
 15 33  1  0  0  0
M  END
$$$$
