6ndl_ligand
  -I-interpret- 

 65 68  0  0  0  0  0  0  0  0999 V2000
   48.2890   17.1210   22.1590 C   0  0  0  0  0
   49.1720   16.6440   18.3030 C   0  0  0  0  0
   51.1180   17.8980   17.1630 C   0  0  0  0  0
   54.8040   20.0430   18.0570 C   0  0  0  0  0
   55.3880   22.0890   19.5200 C   0  0  0  0  0
   52.2560   23.8460   22.2060 C   0  0  0  0  0
   48.6770   14.2030   25.1070 C   0  0  0  0  0
   46.3950   14.5280   24.6010 C   0  0  0  0  0
   47.3680   14.8770   23.2510 C   0  0  0  0  0
   45.7640   15.7590   24.9570 C   0  0  0  0  0
   47.0320   16.4810   22.9570 C   0  0  0  0  0
   48.5530   16.3680   20.8480 C   0  0  0  0  0
   49.1990   17.3290   19.7550 C   0  0  0  0  0
   54.2640   21.3890   18.5930 C   0  0  0  0  0
   55.0430   23.5080   19.8520 C   0  0  0  0  0
   52.8790   24.1070   20.9720 C   0  0  0  0  0
   54.1990   22.8590   22.1490 C   0  0  0  0  0
   50.9820   25.3950   20.3170 C   0  0  0  0  0
   50.9020   24.4400   22.4420 C   0  0  0  0  0
   47.2310   14.1320   25.6050 N   0  0  0  0  0
   48.6110   14.6960   23.5640 N   0  0  0  0  0
   49.6760   17.5120   17.2860 N   0  0  0  0  0
   51.5400   18.7870   16.0640 N   0  0  0  0  0
   53.6880   19.2000   17.6910 N   0  0  0  0  0
   54.0580   23.4860   20.9850 N   0  0  0  0  0
   53.0980   23.0820   22.9040 N   0  0  0  0  0
   52.2470   24.8570   20.0600 N   0  0  0  0  0
   50.3400   25.1740   21.5120 N   0  0  0  0  0
   50.2170   24.2130   23.6770 N   0  0  0  0  0
   49.6570   13.9540   25.7340 O   0  0  0  0  0
   51.9250   17.5130   17.8820 O   0  0  0  0  0
   53.9950   18.0160   15.4020 O   0  0  0  0  0
   53.5640   20.3230   15.3420 O   0  0  0  0  0
   46.7970   17.0530   24.3340 S   0  0  0  0  0
   53.2290   19.0950   16.0830 S   0  0  0  0  0
   49.1758   17.0468   22.7884 H   0  0  0  0  0
   48.0601   18.1605   21.9240 H   0  0  0  0  0
   48.1367   16.4040   18.0609 H   0  0  0  0  0
   49.8045   15.7569   18.3352 H   0  0  0  0  0
   55.3979   19.5522   18.8280 H   0  0  0  0  0
   55.4322   20.2205   17.1841 H   0  0  0  0  0
   56.3295   22.0882   18.9708 H   0  0  0  0  0
   55.4556   21.5290   20.4527 H   0  0  0  0  0
   45.6533   13.7522   24.4106 H   0  0  0  0  0
   47.1792   14.2499   22.3796 H   0  0  0  0  0
   45.6477   15.8392   26.0378 H   0  0  0  0  0
   44.7623   15.8209   24.5317 H   0  0  0  0  0
   46.1648   16.6810   22.3276 H   0  0  0  0  0
   47.6045   15.9918   20.4648 H   0  0  0  0  0
   49.2468   15.5516   21.0483 H   0  0  0  0  0
   48.6236   18.2540   19.7172 H   0  0  0  0  0
   50.2349   17.5269   20.0303 H   0  0  0  0  0
   53.3652   21.2109   19.1834 H   0  0  0  0  0
   54.0241   22.0439   17.7554 H   0  0  0  0  0
   54.6112   24.0061   18.9840 H   0  0  0  0  0
   55.9388   24.0586   20.1392 H   0  0  0  0  0
   55.0612   22.2623   22.4468 H   0  0  0  0  0
   50.4951   26.0021   19.5538 H   0  0  0  0  0
   46.9393   13.8365   26.5367 H   0  0  0  0  0
   49.4104   14.8388   22.9468 H   0  0  0  0  0
   49.0168   17.8900   16.6056 H   0  0  0  0  0
   50.9003   19.1751   15.3708 H   0  0  0  0  0
   53.1846   18.6739   18.4052 H   0  0  0  0  0
   50.6507   23.6434   24.4036 H   0  0  0  0  0
   49.2948   24.6207   23.8311 H   0  0  0  0  0
  1 11  1  0  0  0
 12  1  1  0  0  0
  2 13  1  0  0  0
 22  2  1  0  0  0
  3 22  1  0  0  0
 23  3  1  0  0  0
  3 31  2  0  0  0
  4 14  1  0  0  0
 24  4  1  0  0  0
 14  5  1  0  0  0
  5 15  1  0  0  0
 16  6  4  0  0  0
  6 19  4  0  0  0
 26  6  4  0  0  0
  7 20  1  0  0  0
 21  7  1  0  0  0
  7 30  2  0  0  0
  9  8  1  0  0  0
 10  8  1  0  0  0
  8 20  1  0  0  0
 11  9  1  0  0  0
  9 21  1  0  0  0
 34 10  1  0  0  0
 11 34  1  0  0  0
 13 12  1  0  0  0
 15 25  1  0  0  0
 25 16  4  0  0  0
 16 27  4  0  0  0
 25 17  4  0  0  0
 17 26  4  0  0  0
 27 18  4  0  0  0
 18 28  4  0  0  0
 19 28  4  0  0  0
 19 29  1  0  0  0
 35 23  1  0  0  0
 24 35  1  0  0  0
 35 32  2  0  0  0
 35 33  2  0  0  0
  1 36  1  0  0  0
  1 37  1  0  0  0
  2 38  1  0  0  0
  2 39  1  0  0  0
  4 40  1  0  0  0
  4 41  1  0  0  0
  5 42  1  0  0  0
  5 43  1  0  0  0
  8 44  1  0  0  0
  9 45  1  0  0  0
 10 46  1  0  0  0
 10 47  1  0  0  0
 11 48  1  0  0  0
 12 49  1  0  0  0
 12 50  1  0  0  0
 13 51  1  0  0  0
 13 52  1  0  0  0
 14 53  1  0  0  0
 14 54  1  0  0  0
 15 55  1  0  0  0
 15 56  1  0  0  0
 17 57  1  0  0  0
 18 58  1  0  0  0
 20 59  1  0  0  0
 21 60  1  0  0  0
 22 61  1  0  0  0
 23 62  1  0  0  0
 24 63  1  0  0  0
 29 64  1  0  0  0
 29 65  1  0  0  0
M  END
$$$$
