1e3g_ligand
  -I-interpret- 

 45 48  0  0  0  0  0  0  0  0999 V2000
    0.4140   28.0700    4.1030 C   0  0  0  0  0
    1.1950   26.9990    4.8320 C   0  0  0  0  0
    2.6610   27.1400    4.5320 C   0  0  0  0  0
    3.1740   28.4570    4.7940 C   0  0  0  0  0
    2.3670   29.5530    4.7800 C   0  0  0  0  0
    2.9730   30.9060    5.1160 C   0  0  0  0  0
    2.2070   32.0300    4.4570 C   0  0  0  0  0
    0.7330   31.9620    4.8980 C   0  0  0  0  0
    0.1240   30.5970    4.5140 C   0  0  0  0  0
    0.9120   29.4800    4.4760 C   0  0  0  0  0
   -1.3160   30.5830    4.2510 C   0  0  0  0  0
   -2.1020   31.6750    4.3100 C   0  0  0  0  0
   -1.5350   33.0390    4.6640 C   0  0  0  0  0
   -0.0560   33.0660    4.2610 C   0  0  0  0  0
    0.3870   34.5090    4.5720 C   0  0  0  0  0
   -0.8990   35.2990    4.3110 C   0  0  0  0  0
   -2.0010   34.2820    3.9000 C   0  0  0  0  0
   -1.7250   33.2280    6.1890 C   0  0  0  0  0
   -2.0340   34.0500    2.4120 C   0  0  0  0  0
    3.3750   26.2120    4.1620 O   0  0  0  0  0
   -3.2570   34.7970    4.3450 O   0  0  0  0  0
   -0.6353   27.9870    4.3862 H   0  0  0  0  0
    0.5483   27.9275    3.0307 H   0  0  0  0  0
    0.8535   26.0179    4.5018 H   0  0  0  0  0
    1.0360   27.1061    5.9050 H   0  0  0  0  0
    4.2353   28.5810    5.0092 H   0  0  0  0  0
    4.0002   30.9261    4.7519 H   0  0  0  0  0
    2.9328   31.0455    6.1963 H   0  0  0  0  0
    2.2704   31.9308    3.3734 H   0  0  0  0  0
    2.6344   32.9879    4.7532 H   0  0  0  0  0
    0.6922   32.0792    5.9809 H   0  0  0  0  0
   -1.7800   29.6314    3.9918 H   0  0  0  0  0
   -3.1670   31.5780    4.0994 H   0  0  0  0  0
    0.1227   32.8502    3.2076 H   0  0  0  0  0
    1.2294   34.8424    3.9660 H   0  0  0  0  0
    0.7730   34.6339    5.5837 H   0  0  0  0  0
   -0.7416   36.0299    3.5179 H   0  0  0  0  0
   -1.1990   35.8432    5.2065 H   0  0  0  0  0
   -2.7867   33.1776    6.4306 H   0  0  0  0  0
   -1.1923   32.4396    6.7207 H   0  0  0  0  0
   -1.3293   34.1994    6.4855 H   0  0  0  0  0
   -1.0343   33.7905    2.0638 H   0  0  0  0  0
   -2.7214   33.2343    2.1879 H   0  0  0  0  0
   -2.3702   34.9580    1.9114 H   0  0  0  0  0
   -3.4863   35.5711    3.8256 H   0  0  0  0  0
  1  2  1  0  0  0
  1 10  1  0  0  0
  2  3  1  0  0  0
  3  4  1  0  0  0
  3 20  2  0  0  0
  4  5  2  0  0  0
  5  6  1  0  0  0
  5 10  1  0  0  0
  6  7  1  0  0  0
  7  8  1  0  0  0
  8  9  1  0  0  0
  8 14  1  0  0  0
  9 10  2  0  0  0
  9 11  1  0  0  0
 11 12  2  0  0  0
 12 13  1  0  0  0
 13 14  1  0  0  0
 13 17  1  0  0  0
 13 18  1  0  0  0
 14 15  1  0  0  0
 15 16  1  0  0  0
 16 17  1  0  0  0
 17 19  1  0  0  0
 17 21  1  0  0  0
  1 22  1  0  0  0
  1 23  1  0  0  0
  2 24  1  0  0  0
  2 25  1  0  0  0
  4 26  1  0  0  0
  6 27  1  0  0  0
  6 28  1  0  0  0
  7 29  1  0  0  0
  7 30  1  0  0  0
  8 31  1  0  0  0
 11 32  1  0  0  0
 12 33  1  0  0  0
 14 34  1  0  0  0
 15 35  1  0  0  0
 15 36  1  0  0  0
 16 37  1  0  0  0
 16 38  1  0  0  0
 18 39  1  0  0  0
 18 40  1  0  0  0
 18 41  1  0  0  0
 19 42  1  0  0  0
 19 43  1  0  0  0
 19 44  1  0  0  0
 21 45  1  0  0  0
M  END
$$$$
