5c1y_ligand
  -I-interpret- 

 60 61  0  0  0  0  0  0  0  0999 V2000
    6.6860    5.9650   -2.8510 O   0  0  0  0  0
    7.0860    7.0610   -2.5310 C   0  0  0  0  0
    7.6690    7.3090   -1.1830 C   0  0  0  0  0
    8.8230    6.3030   -1.0260 C   0  0  0  0  0
   10.0900    6.7810   -0.3140 C   0  0  0  0  0
   11.0940    5.8310   -0.1050 C   0  0  0  0  0
   12.2790    6.1750    0.5580 C   0  0  0  0  0
   12.4730    7.4830    1.0210 C   0  0  0  0  0
   11.4850    8.4440    0.8200 C   0  0  0  0  0
   10.3110    8.0960    0.1530 C   0  0  0  0  0
    6.5160    7.2010   -0.2420 N   0  0  0  0  0
    5.8590    6.1190    0.2000 C   0  0  0  0  0
    4.7240    6.3560    1.1080 O   0  0  0  0  0
    4.6810    5.5990    2.3280 C   0  0  0  0  0
    4.3540    4.1310    2.0350 C   0  0  0  0  0
    3.6520    6.2350    3.2710 C   0  0  0  0  0
    6.1460    4.9730   -0.1220 O   0  0  0  0  0
    6.9450    8.0190   -3.3310 N   0  0  0  0  0
    6.3180    7.7160   -4.6180 C   0  0  0  0  0
    7.3600    8.0600   -5.7310 C   0  0  0  0  0
    8.4860    7.5270   -5.3170 O   0  0  0  0  0
    5.0180    8.5740   -4.6260 C   0  0  0  0  0
    4.0090    8.5500   -3.4480 C   0  0  0  0  0
    3.0660    7.3460   -3.3660 C   0  0  0  0  0
    1.6720    7.8500   -2.9320 C   0  0  0  0  0
    1.8800    9.2840   -2.9870 N   0  3  0  0  0
    2.9600    9.6390   -3.5550 C   0  0  0  0  0
    3.0470   10.7910   -4.2360 O   0  0  0  0  0
    8.1210    8.2829   -0.9949 H   0  0  0  0  0
    9.1342    6.0550   -2.0407 H   0  0  0  0  0
    8.4264    5.4980   -0.4073 H   0  0  0  0  0
   10.9531    4.8108   -0.4621 H   0  0  0  0  0
   13.0524    5.4229    0.7141 H   0  0  0  0  0
   13.3955    7.7481    1.5376 H   0  0  0  0  0
   11.6287    9.4621    1.1820 H   0  0  0  0  0
    9.5467    8.8554   -0.0118 H   0  0  0  0  0
    6.1738    8.0902    0.1223 H   0  0  0  0  0
    5.6564    5.6177    2.8141 H   0  0  0  0  0
    3.3835    4.0675    1.5429 H   0  0  0  0  0
    5.1211    3.7122    1.3837 H   0  0  0  0  0
    4.3256    3.5727    2.9707 H   0  0  0  0  0
    3.9437    7.2633    3.4847 H   0  0  0  0  0
    2.6710    6.2255    2.7959 H   0  0  0  0  0
    3.6126    5.6666    4.2002 H   0  0  0  0  0
    7.2526    8.9624   -3.0950 H   0  0  0  0  0
    6.0409    6.6760   -4.7905 H   0  0  0  0  0
    7.4525    9.1358   -5.8799 H   0  0  0  0  0
    7.0593    7.6666   -6.7021 H   0  0  0  0  0
    9.1770    7.7019   -5.9600 H   0  0  0  0  0
    4.4472    8.1660   -5.4602 H   0  0  0  0  0
    5.3880    9.5993   -4.6251 H   0  0  0  0  0
    4.7123    8.6059   -2.6172 H   0  0  0  0  0
    3.4442    6.6237   -2.6426 H   0  0  0  0  0
    3.0005    6.8558   -4.3373 H   0  0  0  0  0
    1.3494    7.4837   -1.9574 H   0  0  0  0  0
    0.8545    7.4940   -3.5590 H   0  0  0  0  0
    1.9266    9.6158   -2.0236 H   0  0  0  0  0
    1.1129    9.6760   -3.5332 H   0  0  0  0  0
    3.5656   10.5431   -3.6184 H   0  0  0  0  0
    2.2334   11.2885   -4.1262 H   0  0  0  0  0
  1  2  2  0  0  0
  2  3  1  0  0  0
  2 18  1  0  0  0
  3  4  1  0  0  0
  3 11  1  0  0  0
  4  5  1  0  0  0
  5  6  4  0  0  0
  5 10  4  0  0  0
  6  7  4  0  0  0
  7  8  4  0  0  0
  8  9  4  0  0  0
  9 10  4  0  0  0
 11 12  1  0  0  0
 12 13  1  0  0  0
 12 17  2  0  0  0
 13 14  1  0  0  0
 14 15  1  0  0  0
 14 16  1  0  0  0
 18 19  1  0  0  0
 19 20  1  0  0  0
 19 22  1  0  0  0
 20 21  1  0  0  0
 22 23  1  0  0  0
 23 24  1  0  0  0
 23 27  1  0  0  0
 24 25  1  0  0  0
 25 26  1  0  0  0
 26 27  1  0  0  0
 27 28  1  0  0  0
  3 29  1  0  0  0
  4 30  1  0  0  0
  4 31  1  0  0  0
  6 32  1  0  0  0
  7 33  1  0  0  0
  8 34  1  0  0  0
  9 35  1  0  0  0
 10 36  1  0  0  0
 11 37  1  0  0  0
 14 38  1  0  0  0
 15 39  1  0  0  0
 15 40  1  0  0  0
 15 41  1  0  0  0
 16 42  1  0  0  0
 16 43  1  0  0  0
 16 44  1  0  0  0
 18 45  1  0  0  0
 19 46  1  0  0  0
 20 47  1  0  0  0
 20 48  1  0  0  0
 21 49  1  0  0  0
 22 50  1  0  0  0
 22 51  1  0  0  0
 23 52  1  0  0  0
 24 53  1  0  0  0
 24 54  1  0  0  0
 25 55  1  0  0  0
 25 56  1  0  0  0
 26 57  1  0  0  0
 26 58  1  0  0  0
 27 59  1  0  0  0
 28 60  1  0  0  0
M  END
$$$$
