5d9l_ligand
  -I-interpret- 

 30 32  0  0  0  0  0  0  0  0999 V2000
   -1.5470   11.3340   27.6370 C   0  0  0  0  0
   -0.5350   10.4580   28.0250 C   0  0  0  0  0
   -2.7330   11.0800   26.7740 C   0  0  0  0  0
   -6.0880   10.3660   24.4160 O   0  0  0  0  0
   -0.0490    5.0010   26.8070 O   0  0  0  0  0
   -3.7460   10.0460   24.8370 C   0  0  0  0  0
    0.9940    7.1430   27.1030 C   0  0  0  0  0
   -1.3480    6.8210   27.5460 C   0  0  0  0  0
   -4.9740   10.6040   25.1740 C   0  0  0  0  0
   -0.1210    6.3130   27.1480 C   0  0  0  0  0
   -1.2430   12.5450   28.2810 C   0  0  0  0  0
   -0.3700    9.0130   27.7960 C   0  0  0  0  0
    0.3060   11.1520   28.8250 N   0  0  0  0  0
   -3.9690   11.6460   27.0880 C   0  0  0  0  0
   -2.6350   10.2860   25.6300 C   0  0  0  0  0
   -0.1300   12.4300   28.9970 N   0  0  0  0  0
    0.8710    8.4820   27.4340 C   0  0  0  0  0
   -1.4690    8.1610   27.8660 C   0  0  0  0  0
   -5.0830   11.4060   26.3020 C   0  0  0  0  0
   -6.8377   10.8291   24.7968 H   0  0  0  0  0
   -0.9155    4.5988   26.9021 H   0  0  0  0  0
   -3.6570    9.4199   23.9492 H   0  0  0  0  0
    1.9629    6.7403   26.8077 H   0  0  0  0  0
   -2.2164    6.1650   27.6066 H   0  0  0  0  0
   -1.8388   13.4545   28.2037 H   0  0  0  0  0
   -4.0588   12.2867   27.9652 H   0  0  0  0  0
   -1.6740    9.8499   25.3574 H   0  0  0  0  0
    1.7493    9.1271   27.4120 H   0  0  0  0  0
   -2.4366    8.5550   28.1768 H   0  0  0  0  0
   -6.0441   11.8459   26.5683 H   0  0  0  0  0
  2  1  4  0  0  0
  1  3  1  0  0  0
  1 11  4  0  0  0
 12  2  1  0  0  0
  2 13  4  0  0  0
  3 14  4  0  0  0
  3 15  4  0  0  0
  9  4  1  0  0  0
 10  5  1  0  0  0
  6  9  4  0  0  0
 15  6  4  0  0  0
  7 10  4  0  0  0
 17  7  4  0  0  0
 10  8  4  0  0  0
  8 18  4  0  0  0
  9 19  4  0  0  0
 11 16  4  0  0  0
 12 17  4  0  0  0
 12 18  4  0  0  0
 13 16  4  0  0  0
 14 19  4  0  0  0
  4 20  1  0  0  0
  5 21  1  0  0  0
  6 22  1  0  0  0
  7 23  1  0  0  0
  8 24  1  0  0  0
 11 25  1  0  0  0
 14 26  1  0  0  0
 15 27  1  0  0  0
 17 28  1  0  0  0
 18 29  1  0  0  0
 19 30  1  0  0  0
M  END
$$$$
