5ito_ligand
  -I-interpret- 

 36 35  0  0  0  0  0  0  0  0999 V2000
   21.2640   -4.8220   -3.1330 O   0  0  0  0  0
   20.2450   -5.4670   -2.7580 C   0  0  0  0  0
   20.0820   -6.9120   -3.1950 C   0  0  0  0  0
   20.7250   -7.7870   -2.1530 C   0  0  0  0  0
   18.6790   -7.2930   -3.4940 N   0  3  0  0  0
   17.8750   -6.3720   -4.3340 C   0  0  0  0  0
   16.5240   -6.9810   -4.6230 C   0  0  0  0  0
   15.5970   -6.3120   -5.1710 O   0  0  0  0  0
   16.3200   -8.1880   -4.3250 O   0  0  0  0  0
   18.5380   -5.9700   -5.6470 C   0  0  0  0  0
   18.9000   -7.1410   -6.5190 C   0  0  0  0  0
   19.5450   -6.8800   -7.8250 C   0  0  0  0  0
   20.1890   -8.0740   -8.3210 N   0  0  0  0  0
   20.9090   -8.0820   -9.5540 C   0  0  0  0  0
   21.0150   -7.0200  -10.2750 N   0  0  0  0  0
   21.4870   -9.2040   -9.9140 N   0  0  0  0  0
   19.3670   -4.9590   -2.0160 O   0  0  0  0  0
   21.8090   -5.3825   -3.6901 H   0  0  0  0  0
   20.5863   -7.0514   -4.1512 H   0  0  0  0  0
   20.1595   -7.7186   -1.2237 H   0  0  0  0  0
   20.7308   -8.8199   -2.5011 H   0  0  0  0  0
   21.7487   -7.4540   -1.9822 H   0  0  0  0  0
   18.2062   -7.3196   -2.5906 H   0  0  0  0  0
   18.7405   -8.1616   -4.0252 H   0  0  0  0  0
   17.7764   -5.4574   -3.7494 H   0  0  0  0  0
   15.9035   -5.4171   -5.3348 H   0  0  0  0  0
   19.4619   -5.4466   -5.4009 H   0  0  0  0  0
   17.8257   -5.3575   -6.1998 H   0  0  0  0  0
   17.9506   -7.6184   -6.7617 H   0  0  0  0  0
   19.6366   -7.7044   -5.9462 H   0  0  0  0  0
   20.2958   -6.1000   -7.6987 H   0  0  0  0  0
   18.7833   -6.5667   -8.5390 H   0  0  0  0  0
   20.1278   -8.9341   -7.7761 H   0  0  0  0  0
   20.5797   -6.1500   -9.9685 H   0  0  0  0  0
   22.0302   -9.2440  -10.7764 H   0  0  0  0  0
   21.3930  -10.0359   -9.3314 H   0  0  0  0  0
  1  2  1  0  0  0
  2  3  1  0  0  0
  2 17  2  0  0  0
  3  4  1  0  0  0
  3  5  1  0  0  0
  5  6  1  0  0  0
  6  7  1  0  0  0
  6 10  1  0  0  0
  7  8  1  0  0  0
  7  9  2  0  0  0
 10 11  1  0  0  0
 11 12  1  0  0  0
 12 13  1  0  0  0
 13 14  1  0  0  0
 14 15  2  0  0  0
 14 16  1  0  0  0
  1 18  1  0  0  0
  3 19  1  0  0  0
  4 20  1  0  0  0
  4 21  1  0  0  0
  4 22  1  0  0  0
  5 23  1  0  0  0
  5 24  1  0  0  0
  6 25  1  0  0  0
  8 26  1  0  0  0
 10 27  1  0  0  0
 10 28  1  0  0  0
 11 29  1  0  0  0
 11 30  1  0  0  0
 12 31  1  0  0  0
 12 32  1  0  0  0
 13 33  1  0  0  0
 15 34  1  0  0  0
 16 35  1  0  0  0
 16 36  1  0  0  0
M  END
$$$$
