4hai_ligand
  -I-interpret- 

 62 64  0  0  0  0  0  0  0  0999 V2000
   16.8890   10.7120   17.2100 O   0  0  0  0  0
   16.1000   10.7500   16.2920 C   0  0  0  0  0
   14.8020   11.0980   16.4820 N   0  0  0  0  0
   14.0860   11.3790   17.7560 C   0  0  0  0  0
   14.8690   12.0960   18.8600 C   0  0  0  0  0
   13.9400   12.9710   19.7110 C   0  0  0  0  0
   13.1740   12.2420   20.8210 C   0  0  0  0  0
   12.1990   11.2250   20.2580 C   0  0  0  0  0
   12.9780   10.0060   19.7660 C   0  0  0  0  0
   13.4830   10.0690   18.3050 C   0  0  0  0  0
   16.6490   10.3150   14.9270 C   0  0  0  0  0
   17.7060   11.2580   14.3650 C   0  0  0  0  0
   18.5310   10.5850   13.2630 C   0  0  0  0  0
   17.7130    9.6790   12.4400 N   0  0  0  0  0
   16.2360    9.7630   12.4360 C   0  0  0  0  0
   15.6270   10.1590   13.7950 C   0  0  0  0  0
   18.4840    8.6530   11.5570 S   0  0  0  0  0
   19.5060    9.3800   10.8510 O   0  0  0  0  0
   19.1540    7.7190   12.4310 O   0  0  0  0  0
   17.6280    7.8470   10.4300 C   0  0  0  0  0
   17.4950    6.3430   10.4030 C   0  0  0  0  0
   18.1290    5.4350   11.4290 C   0  0  0  0  0
   16.7450    5.7330    9.3960 C   0  0  0  0  0
   16.1150    6.4730    8.3910 C   0  0  0  0  0
   15.3190    5.7600    7.3240 C   0  0  0  0  0
   16.2090    7.8660    8.3540 C   0  0  0  0  0
   16.9330    8.5770    9.3150 C   0  0  0  0  0
   16.9810   10.0800    9.1960 C   0  0  0  0  0
   14.2397   11.1780   15.6348 H   0  0  0  0  0
   13.3212   12.1033   17.4757 H   0  0  0  0  0
   15.6233   12.7326   18.3975 H   0  0  0  0  0
   15.3321   11.3479   19.5034 H   0  0  0  0  0
   13.1894   13.3759   19.0322 H   0  0  0  0  0
   14.5751   13.7062   20.2053 H   0  0  0  0  0
   12.6087   12.9806   21.3893 H   0  0  0  0  0
   13.8951   11.7157   21.4464 H   0  0  0  0  0
   11.6462   11.6665   19.4288 H   0  0  0  0  0
   11.4956   10.9224   21.0337 H   0  0  0  0  0
   12.2899    9.1621   19.8161 H   0  0  0  0  0
   13.8660    9.9359   20.3943 H   0  0  0  0  0
   14.3044    9.3534   18.2684 H   0  0  0  0  0
   12.5915    9.9037   17.7001 H   0  0  0  0  0
   17.0528    9.3380   15.1924 H   0  0  0  0  0
   18.3786   11.5438   15.1738 H   0  0  0  0  0
   17.2026   12.1255   13.9382 H   0  0  0  0  0
   19.3191    9.9990   13.7359 H   0  0  0  0  0
   18.9354   11.3631   12.6156 H   0  0  0  0  0
   15.8565    8.7717   12.1882 H   0  0  0  0  0
   15.9581   10.5361   11.7196 H   0  0  0  0  0
   15.1490   11.1293   13.6603 H   0  0  0  0  0
   14.9476    9.3579   14.0862 H   0  0  0  0  0
   19.2104    5.5709   11.4137 H   0  0  0  0  0
   17.7444    5.6825   12.4184 H   0  0  0  0  0
   17.8884    4.3984   11.1930 H   0  0  0  0  0
   16.6477    4.6474    9.3932 H   0  0  0  0  0
   15.9716    5.0753    6.7823 H   0  0  0  0  0
   14.5090    5.1994    7.7905 H   0  0  0  0  0
   14.9039    6.4925    6.6317 H   0  0  0  0  0
   15.7054    8.4119    7.5562 H   0  0  0  0  0
   16.5479   10.5280   10.0903 H   0  0  0  0  0
   18.0171   10.4021    9.0921 H   0  0  0  0  0
   16.4125   10.3922    8.3199 H   0  0  0  0  0
  1  2  2  0  0  0
  2  3  1  0  0  0
  2 11  1  0  0  0
  3  4  1  0  0  0
  4  5  1  0  0  0
  4 10  1  0  0  0
  5  6  1  0  0  0
  6  7  1  0  0  0
  7  8  1  0  0  0
  8  9  1  0  0  0
  9 10  1  0  0  0
 11 12  1  0  0  0
 11 16  1  0  0  0
 12 13  1  0  0  0
 13 14  1  0  0  0
 14 15  1  0  0  0
 14 17  1  0  0  0
 15 16  1  0  0  0
 17 18  2  0  0  0
 17 19  2  0  0  0
 17 20  1  0  0  0
 20 21  4  0  0  0
 20 27  4  0  0  0
 21 22  1  0  0  0
 21 23  4  0  0  0
 23 24  4  0  0  0
 24 25  1  0  0  0
 24 26  4  0  0  0
 26 27  4  0  0  0
 27 28  1  0  0  0
  3 29  1  0  0  0
  4 30  1  0  0  0
  5 31  1  0  0  0
  5 32  1  0  0  0
  6 33  1  0  0  0
  6 34  1  0  0  0
  7 35  1  0  0  0
  7 36  1  0  0  0
  8 37  1  0  0  0
  8 38  1  0  0  0
  9 39  1  0  0  0
  9 40  1  0  0  0
 10 41  1  0  0  0
 10 42  1  0  0  0
 11 43  1  0  0  0
 12 44  1  0  0  0
 12 45  1  0  0  0
 13 46  1  0  0  0
 13 47  1  0  0  0
 15 48  1  0  0  0
 15 49  1  0  0  0
 16 50  1  0  0  0
 16 51  1  0  0  0
 22 52  1  0  0  0
 22 53  1  0  0  0
 22 54  1  0  0  0
 23 55  1  0  0  0
 25 56  1  0  0  0
 25 57  1  0  0  0
 25 58  1  0  0  0
 26 59  1  0  0  0
 28 60  1  0  0  0
 28 61  1  0  0  0
 28 62  1  0  0  0
M  END
$$$$
