1f40_ligand
  -I-interpret- 

 54 55  0  0  0  0  0  0  0  0999 V2000
   -3.8610    1.6840   -0.8040 C   0  0  0  0  0
   -4.1450    3.1480   -0.4470 N   0  0  0  0  0
   -2.7720    3.8430   -0.5040 C   0  0  0  0  0
   -2.4470    1.4110   -0.3280 C   0  0  0  0  0
   -1.7110    2.7370   -0.4470 C   0  0  0  0  0
   -4.8330    0.7670   -0.0420 C   0  0  0  0  0
   -4.4610    0.2050    0.9910 O   0  0  0  0  0
   -6.1000    0.5710   -0.5160 O   0  0  0  0  0
   -7.0380    0.5410    0.5660 C   0  0  0  0  0
   -8.4530    0.8080    0.0230 C   0  0  0  0  0
   -9.3760   -0.3610    0.4020 C   0  0  0  0  0
  -11.3570    1.2290    3.2950 N   0  0  0  0  0
  -11.0830    0.3410    4.3590 C   0  0  0  0  0
  -10.2540   -0.7750    4.1390 C   0  0  0  0  0
   -9.7040   -0.9980    2.8570 C   0  0  0  0  0
   -9.9790   -0.1100    1.7950 C   0  0  0  0  0
  -10.8070    1.0070    2.0140 C   0  0  0  0  0
   -5.3050    3.6950   -0.1600 C   0  0  0  0  0
   -6.3260    3.0110   -0.1540 O   0  0  0  0  0
   -5.3820    5.1970    0.1730 C   0  0  0  0  0
   -5.0690    6.0280   -0.6770 O   0  0  0  0  0
   -5.8500    5.6650    1.5650 C   0  0  0  0  0
   -5.0260    6.8920    1.9930 C   0  0  0  0  0
   -5.6530    4.5360    2.5930 C   0  0  0  0  0
   -7.3390    6.0470    1.5040 C   0  0  0  0  0
   -7.5410    7.1600    0.4610 C   0  0  0  0  0
   -3.9791    1.5009   -1.8720 H   0  0  0  0  0
   -2.6540    4.5357    0.3293 H   0  0  0  0  0
   -2.6722    4.4283   -1.4181 H   0  0  0  0  0
   -1.9686    0.6351   -0.9257 H   0  0  0  0  0
   -2.4366    1.0406    0.6971 H   0  0  0  0  0
   -1.0482    2.8853    0.4055 H   0  0  0  0  0
   -1.0924    2.7528   -1.3443 H   0  0  0  0  0
   -6.7772    1.3079    1.2953 H   0  0  0  0  0
   -7.0104   -0.4379    1.0447 H   0  0  0  0  0
   -8.4139    0.9031   -1.0621 H   0  0  0  0  0
   -8.8397    1.7311    0.4548 H   0  0  0  0  0
   -8.8010   -1.2869    0.4172 H   0  0  0  0  0
  -10.1784   -0.4420   -0.3313 H   0  0  0  0  0
  -11.5114    0.5192    5.3453 H   0  0  0  0  0
  -10.0372   -1.4646    4.9548 H   0  0  0  0  0
   -9.0623   -1.8625    2.6867 H   0  0  0  0  0
  -11.0225    1.6973    1.1984 H   0  0  0  0  0
   -3.9705    6.6230    2.0337 H   0  0  0  0  0
   -5.1700    7.6949    1.2700 H   0  0  0  0  0
   -5.3558    7.2242    2.9774 H   0  0  0  0  0
   -6.2362    3.6659    2.2914 H   0  0  0  0  0
   -4.5972    4.2690    2.6397 H   0  0  0  0  0
   -5.9866    4.8766    3.5732 H   0  0  0  0  0
   -7.6631    6.4026    2.4821 H   0  0  0  0  0
   -7.9268    5.1736    1.2216 H   0  0  0  0  0
   -6.9528    8.0328    0.7444 H   0  0  0  0  0
   -7.2165    6.8033   -0.5166 H   0  0  0  0  0
   -8.5963    7.4296    0.4189 H   0  0  0  0  0
  1  2  1  0  0  0
  1  4  1  0  0  0
  6  1  1  0  0  0
  2  3  1  0  0  0
  2 18  1  0  0  0
  5  3  1  0  0  0
  4  5  1  0  0  0
  6  7  2  0  0  0
  8  6  1  0  0  0
  9  8  1  0  0  0
 10  9  1  0  0  0
 11 10  1  0  0  0
 16 11  1  0  0  0
 13 12  4  0  0  0
 12 17  4  0  0  0
 14 13  4  0  0  0
 15 14  4  0  0  0
 15 16  4  0  0  0
 16 17  4  0  0  0
 18 19  2  0  0  0
 18 20  1  0  0  0
 20 21  2  0  0  0
 20 22  1  0  0  0
 22 23  1  0  0  0
 22 24  1  0  0  0
 22 25  1  0  0  0
 25 26  1  0  0  0
  1 27  1  0  0  0
  3 28  1  0  0  0
  3 29  1  0  0  0
  4 30  1  0  0  0
  4 31  1  0  0  0
  5 32  1  0  0  0
  5 33  1  0  0  0
  9 34  1  0  0  0
  9 35  1  0  0  0
 10 36  1  0  0  0
 10 37  1  0  0  0
 11 38  1  0  0  0
 11 39  1  0  0  0
 13 40  1  0  0  0
 14 41  1  0  0  0
 15 42  1  0  0  0
 17 43  1  0  0  0
 23 44  1  0  0  0
 23 45  1  0  0  0
 23 46  1  0  0  0
 24 47  1  0  0  0
 24 48  1  0  0  0
 24 49  1  0  0  0
 25 50  1  0  0  0
 25 51  1  0  0  0
 26 52  1  0  0  0
 26 53  1  0  0  0
 26 54  1  0  0  0
M  END
$$$$
