5ost_ligand
  -I-interpret- 

 25 26  0  0  0  0  0  0  0  0999 V2000
  -29.7280  -13.3650  -17.5360 C   0  0  0  0  0
  -29.1740  -13.6210  -18.9350 C   0  0  0  0  0
  -28.0420  -14.6460  -19.0010 C   0  0  0  0  0
  -30.3300  -14.0700  -19.7510 C   0  0  0  0  0
  -31.7160  -15.0260  -21.1390 C   0  0  0  0  0
  -30.7810  -12.2490  -17.6120 C   0  0  0  0  0
  -31.6730  -13.5190  -19.5600 C   0  0  0  0  0
  -32.0160  -12.5500  -18.4970 C   0  0  0  0  0
  -32.7060  -11.3880  -18.9730 O   0  0  0  0  0
  -28.6200  -12.9710  -16.7230 O   0  0  0  0  0
  -31.2530  -11.9540  -16.2900 O   0  0  0  0  0
  -27.3760  -14.5460  -20.2850 O   0  0  0  0  0
  -32.4590  -14.1460  -20.4290 N   0  0  0  0  0
  -30.4280  -14.9910  -20.7250 N   0  0  0  0  0
  -30.2074  -14.2488  -17.1151 H   0  0  0  0  0
  -28.7168  -12.7029  -19.3041 H   0  0  0  0  0
  -28.4516  -15.6489  -18.8806 H   0  0  0  0  0
  -27.3258  -14.4492  -18.2032 H   0  0  0  0  0
  -32.0994  -15.6702  -21.9303 H   0  0  0  0  0
  -30.2644  -11.4112  -18.0803 H   0  0  0  0  0
  -32.7550  -13.0223  -17.8498 H   0  0  0  0  0
  -32.8964  -10.8053  -18.2342 H   0  0  0  0  0
  -27.9779  -13.6840  -16.6918 H   0  0  0  0  0
  -30.5049  -11.7632  -15.7195 H   0  0  0  0  0
  -26.6650  -15.1898  -20.3264 H   0  0  0  0  0
  2  1  1  0  0  0
  1  6  1  0  0  0
  1 10  1  0  0  0
  2  3  1  0  0  0
  4  2  1  0  0  0
  3 12  1  0  0  0
  4  7  4  0  0  0
 14  4  4  0  0  0
  5 13  4  0  0  0
  5 14  4  0  0  0
  6  8  1  0  0  0
  6 11  1  0  0  0
  7  8  1  0  0  0
  7 13  4  0  0  0
  8  9  1  0  0  0
  1 15  1  0  0  0
  2 16  1  0  0  0
  3 17  1  0  0  0
  3 18  1  0  0  0
  5 19  1  0  0  0
  6 20  1  0  0  0
  8 21  1  0  0  0
  9 22  1  0  0  0
 10 23  1  0  0  0
 11 24  1  0  0  0
 12 25  1  0  0  0
M  END
$$$$
