1veb_ligand
  -I-interpret- 

 65 68  0  0  0  0  0  0  0  0999 V2000
   16.8240   11.9770   -3.3020 F   0  0  0  0  0
   15.8530   11.7290   -4.1690 C   0  0  0  0  0
   16.1500   11.0570   -5.3140 C   0  0  0  0  0
   17.4690   10.7100   -5.4620 O   0  0  0  0  0
   18.0560   10.6450   -6.7560 C   0  0  0  0  0
   15.1360   10.7910   -6.2300 C   0  0  0  0  0
   13.8390   11.2110   -5.9470 C   0  0  0  0  0
   13.5570   11.8930   -4.7480 C   0  0  0  0  0
   12.3110   12.2920   -4.4700 O   0  0  0  0  0
   14.5960   12.1430   -3.8540 C   0  0  0  0  0
   14.5430   12.8900   -2.5590 C   0  0  0  0  0
   15.2520   13.8790   -2.4840 O   0  0  0  0  0
   13.8030   12.5010   -1.3470 C   0  0  0  0  0
   13.5010   11.1890   -1.1020 C   0  0  0  0  0
   12.8310   10.8320    0.0810 C   0  0  0  0  0
   13.4680   13.4670   -0.4180 C   0  0  0  0  0
   12.8010   13.1110    0.7520 C   0  0  0  0  0
   12.4680   11.7820    1.0270 C   0  0  0  0  0
   11.7440   11.4020    2.3160 C   0  0  0  0  0
   11.1540   10.1240    2.2150 O   0  0  0  0  0
   10.4810    9.6310    3.3640 C   0  0  0  0  0
   11.5120    9.1520    4.3610 C   0  0  0  0  0
   12.6820    8.3870    3.7700 C   0  0  0  0  0
   12.3730    6.9230    3.6020 C   0  0  0  0  0
   11.2480    6.7470    2.7220 N   0  3  0  0  0
    9.9620    7.0790    3.2880 C   0  0  0  0  0
    9.5220    8.5090    2.9420 C   0  0  0  0  0
    8.1780    8.7210    3.4780 N   0  0  0  0  0
    7.1590    8.9870    2.6590 C   0  0  0  0  0
    7.3670    9.1610    1.4620 O   0  0  0  0  0
    5.7400    9.0830    3.1800 C   0  0  0  0  0
    4.6720    9.2630    2.3010 C   0  0  0  0  0
    3.3770    9.3330    2.7790 C   0  0  0  0  0
    3.1440    9.2170    4.0740 N   0  0  0  0  0
    4.1200    9.0440    4.9540 C   0  0  0  0  0
    5.4440    8.9780    4.5360 C   0  0  0  0  0
   17.5243    9.9082   -7.3582 H   0  0  0  0  0
   17.9893   11.6227   -7.2333 H   0  0  0  0  0
   19.1026   10.3545   -6.6646 H   0  0  0  0  0
   15.3546   10.2607   -7.1569 H   0  0  0  0  0
   13.0373   11.0106   -6.6578 H   0  0  0  0  0
   12.3010   12.7370   -3.6194 H   0  0  0  0  0
   13.7798   10.4213   -1.8237 H   0  0  0  0  0
   12.5905    9.7841    0.2603 H   0  0  0  0  0
   13.7262   14.5101   -0.6009 H   0  0  0  0  0
   12.5328   13.8867    1.4693 H   0  0  0  0  0
   10.9575   12.1337    2.5009 H   0  0  0  0  0
   12.4692   11.3861    3.1296 H   0  0  0  0  0
    9.8880   10.4130    3.8382 H   0  0  0  0  0
   10.9988    8.4651    5.0340 H   0  0  0  0  0
   11.9281   10.0430    4.8312 H   0  0  0  0  0
   13.5284    8.4804    4.4504 H   0  0  0  0  0
   12.8996    8.8040    2.7867 H   0  0  0  0  0
   12.1329    6.4962    4.5758 H   0  0  0  0  0
   13.2415    6.4232    3.1731 H   0  0  0  0  0
   11.2152    5.7553    2.4856 H   0  0  0  0  0
   11.3920    7.3794    1.9348 H   0  0  0  0  0
   10.0411    7.0035    4.3725 H   0  0  0  0  0
    9.2243    6.3902    2.8764 H   0  0  0  0  0
    9.5318    8.5785    1.8543 H   0  0  0  0  0
    8.0187    8.6652    4.4839 H   0  0  0  0  0
    4.8598    9.3490    1.2307 H   0  0  0  0  0
    2.5481    9.4839    2.0874 H   0  0  0  0  0
    3.8825    8.9528    6.0139 H   0  0  0  0  0
    6.2440    8.8451    5.2643 H   0  0  0  0  0
  1  2  1  0  0  0
  2  3  4  0  0  0
  2 10  4  0  0  0
  3  4  1  0  0  0
  3  6  4  0  0  0
  4  5  1  0  0  0
  6  7  4  0  0  0
  7  8  4  0  0  0
  8  9  1  0  0  0
  8 10  4  0  0  0
 10 11  1  0  0  0
 11 12  2  0  0  0
 11 13  1  0  0  0
 13 14  4  0  0  0
 13 16  4  0  0  0
 14 15  4  0  0  0
 15 18  4  0  0  0
 16 17  4  0  0  0
 17 18  4  0  0  0
 18 19  1  0  0  0
 19 20  1  0  0  0
 20 21  1  0  0  0
 21 22  1  0  0  0
 21 27  1  0  0  0
 22 23  1  0  0  0
 23 24  1  0  0  0
 24 25  1  0  0  0
 25 26  1  0  0  0
 26 27  1  0  0  0
 27 28  1  0  0  0
 28 29  1  0  0  0
 29 30  2  0  0  0
 29 31  1  0  0  0
 31 32  4  0  0  0
 31 36  4  0  0  0
 32 33  4  0  0  0
 33 34  4  0  0  0
 34 35  4  0  0  0
 35 36  4  0  0  0
  5 37  1  0  0  0
  5 38  1  0  0  0
  5 39  1  0  0  0
  6 40  1  0  0  0
  7 41  1  0  0  0
  9 42  1  0  0  0
 14 43  1  0  0  0
 15 44  1  0  0  0
 16 45  1  0  0  0
 17 46  1  0  0  0
 19 47  1  0  0  0
 19 48  1  0  0  0
 21 49  1  0  0  0
 22 50  1  0  0  0
 22 51  1  0  0  0
 23 52  1  0  0  0
 23 53  1  0  0  0
 24 54  1  0  0  0
 24 55  1  0  0  0
 25 56  1  0  0  0
 25 57  1  0  0  0
 26 58  1  0  0  0
 26 59  1  0  0  0
 27 60  1  0  0  0
 28 61  1  0  0  0
 32 62  1  0  0  0
 33 63  1  0  0  0
 35 64  1  0  0  0
 36 65  1  0  0  0
M  END
$$$$
