5npd_ligand
  -I-interpret- 

 26 27  0  0  0  0  0  0  0  0999 V2000
   29.6660   80.0320   34.7440 C   0  0  0  0  0
   28.1650   79.8580   34.7300 C   0  0  0  0  0
   27.4150   80.4100   35.9420 C   0  0  0  0  0
   28.0320   79.7990   37.2010 C   0  0  0  0  0
   29.5310   80.1430   37.3910 C   0  0  0  0  0
   30.1750   79.2380   38.4620 C   0  0  0  0  0
   30.3510   80.1080   36.1020 C   0  0  0  0  0
   30.0030   77.8490   38.2000 O   0  0  0  0  0
   27.2970   80.2440   38.3230 O   0  0  0  0  0
   26.0520   80.0080   35.8090 O   0  0  0  0  0
   27.7390   80.3550   33.4830 O   0  0  0  0  0
   30.2650   81.2940   35.2110 N   0  3  0  0  0
   29.7693   79.4344   33.8383 H   0  0  0  0  0
   27.9105   78.8034   34.8358 H   0  0  0  0  0
   27.4784   81.4962   36.0076 H   0  0  0  0  0
   27.9813   78.7155   37.0930 H   0  0  0  0  0
   29.5476   81.1788   37.7299 H   0  0  0  0  0
   29.6911   79.4570   39.4138 H   0  0  0  0  0
   31.2455   79.4430   38.4673 H   0  0  0  0  0
   31.1356   79.5286   36.5887 H   0  0  0  0  0
   30.4226   77.3388   38.8966 H   0  0  0  0  0
   26.3692   80.0293   38.2020 H   0  0  0  0  0
   25.6801   80.3994   35.0152 H   0  0  0  0  0
   28.2628   79.9555   32.7847 H   0  0  0  0  0
   29.9867   82.2722   35.2895 H   0  0  0  0  0
   30.8990   82.0039   34.8443 H   0  0  0  0  0
  1  2  1  0  0  0
  1  7  1  0  0  0
  1 12  1  0  0  0
  2  3  1  0  0  0
  2 11  1  0  0  0
  3  4  1  0  0  0
  3 10  1  0  0  0
  4  5  1  0  0  0
  4  9  1  0  0  0
  5  6  1  0  0  0
  5  7  1  0  0  0
  6  8  1  0  0  0
  7 12  1  0  0  0
  1 13  1  0  0  0
  2 14  1  0  0  0
  3 15  1  0  0  0
  4 16  1  0  0  0
  5 17  1  0  0  0
  6 18  1  0  0  0
  6 19  1  0  0  0
  7 20  1  0  0  0
  8 21  1  0  0  0
  9 22  1  0  0  0
 10 23  1  0  0  0
 11 24  1  0  0  0
 12 25  1  0  0  0
 12 26  1  0  0  0
M  END
$$$$
