4ft2_ligand
  -I-interpret- 

121120  0  0  0  0  0  0  0  0999 V2000
  -33.1020   32.9440  -11.5570 N   0  3  0  0  0
  -32.3860   31.7570  -11.9590 C   0  0  0  0  0
  -31.9820   32.0640  -13.3650 C   0  0  0  0  0
  -30.8320   31.8480  -13.7750 O   0  0  0  0  0
  -33.3220   30.5410  -11.9140 C   0  0  0  0  0
  -32.9270   29.3720  -12.8200 C   0  0  0  0  0
  -32.5080   28.1280  -12.0470 C   0  0  0  0  0
  -32.8720   27.9480  -10.8810 O   0  0  0  0  0
  -31.7350   27.2640  -12.6960 N   0  0  0  0  0
  -32.9560   32.5880  -14.1000 N   0  0  0  0  0
  -32.7860   32.8320  -15.5130 C   0  0  0  0  0
  -33.7130   33.9180  -16.0700 C   0  0  0  0  0
  -34.7640   34.2320  -15.5030 O   0  0  0  0  0
  -32.9950   31.5190  -16.3100 C   0  0  0  0  0
  -33.9770   30.7070  -15.6500 O   0  0  0  0  0
  -31.7060   30.7290  -16.4100 C   0  0  0  0  0
  -33.3030   34.4770  -17.2000 N   0  0  0  0  0
  -34.1200   35.4380  -17.9230 C   0  0  0  0  0
  -33.6930   35.4650  -19.3780 C   0  0  0  0  0
  -32.7800   34.7440  -19.7730 O   0  0  0  0  0
  -33.9980   36.8220  -17.3070 C   0  0  0  0  0
  -34.3450   36.3040  -20.1730 N   0  0  0  0  0
  -34.0350   36.3670  -21.5950 C   0  0  0  0  0
  -33.8890   37.7830  -22.1400 C   0  0  0  0  0
  -34.6310   38.6940  -21.7760 O   0  0  0  0  0
  -35.0770   35.5980  -22.4110 C   0  0  0  0  0
  -36.5150   35.9600  -22.0900 C   0  0  0  0  0
  -37.3870   35.8700  -23.3300 C   0  0  0  0  0
  -36.9160   34.8410  -24.2530 N   0  0  0  0  0
  -37.1240   33.5380  -24.0920 C   0  0  0  0  0
  -36.6590   32.6750  -24.9840 N   0  0  0  0  0
  -37.7930   33.0980  -23.0360 N   0  0  0  0  0
  -32.9060   37.9380  -23.0180 N   0  0  0  0  0
  -32.6660   39.1670  -23.7820 C   0  0  0  0  0
  -31.3950   38.8790  -24.5570 C   0  0  0  0  0
  -30.2410   38.7230  -23.5810 C   0  0  0  0  0
  -28.9970   38.3090  -24.3360 C   0  0  0  0  0
  -27.7720   38.2810  -23.4370 C   0  0  0  0  0
  -26.7160   37.7080  -24.2600 N   0  3  0  0  0
  -27.0910   36.2940  -24.3220 C   0  0  0  0  0
  -25.3500   37.9040  -23.7790 C   0  0  0  0  0
  -33.7700   39.5640  -24.7540 C   0  0  0  0  0
  -34.5770   38.7100  -25.1860 O   0  0  0  0  0
  -33.7820   40.8470  -25.0950 N   0  0  0  0  0
  -34.7470   41.4180  -26.0150 C   0  0  0  0  0
  -34.0080   42.2280  -27.0760 C   0  0  0  0  0
  -32.8780   42.6680  -26.8490 O   0  0  0  0  0
  -35.7160   42.3190  -25.2520 C   0  0  0  0  0
  -35.0120   43.2820  -24.4840 O   0  0  0  0  0
  -34.6530   42.4180  -28.2250 N   0  0  0  0  0
  -34.0740   43.1550  -29.3510 C   0  0  0  0  0
  -33.6470   44.5560  -28.9130 C   0  0  0  0  0
  -34.2073   45.5856  -29.3751 O   0  0  0  0  0
  -35.0640   43.2440  -30.5540 C   0  0  0  0  0
  -35.5990   41.9450  -30.8410 O   0  0  0  0  0
  -34.3680   43.7820  -31.8060 C   0  0  0  0  0
  -32.7164   44.6836  -28.0732 O   0  0  0  0  0
  -32.4731   33.7464  -11.5898 H   0  0  0  0  0
  -33.8854   33.0984  -12.1917 H   0  0  0  0  0
  -33.4517   32.8231  -10.6065 H   0  0  0  0  0
  -31.5383   31.5179  -11.3169 H   0  0  0  0  0
  -34.2964   30.8862  -12.2596 H   0  0  0  0  0
  -33.2934   30.1648  -10.8914 H   0  0  0  0  0
  -32.0739   29.6917  -13.4184 H   0  0  0  0  0
  -33.7986   29.1100  -13.4198 H   0  0  0  0  0
  -31.4192   26.4129  -12.2309 H   0  0  0  0  0
  -31.4574   27.4518  -13.6594 H   0  0  0  0  0
  -33.8439   32.8233  -13.6566 H   0  0  0  0  0
  -31.7662   33.1977  -15.6331 H   0  0  0  0  0
  -33.3279   31.7844  -17.3134 H   0  0  0  0  0
  -34.1044   29.8947  -16.1456 H   0  0  0  0  0
  -30.9519   31.3295  -16.9187 H   0  0  0  0  0
  -31.3570   30.4773  -15.4085 H   0  0  0  0  0
  -31.8851   29.8139  -16.9744 H   0  0  0  0  0
  -32.3876   34.2255  -17.5731 H   0  0  0  0  0
  -35.1652   35.1354  -17.8588 H   0  0  0  0  0
  -34.3308   36.7872  -16.2696 H   0  0  0  0  0
  -32.9577   37.1450  -17.3456 H   0  0  0  0  0
  -34.6184   37.5229  -17.8656 H   0  0  0  0  0
  -35.0687   36.9094  -19.7855 H   0  0  0  0  0
  -33.0571   35.8971  -21.6998 H   0  0  0  0  0
  -34.9525   34.5412  -22.1747 H   0  0  0  0  0
  -34.9104   35.8471  -23.4590 H   0  0  0  0  0
  -36.5433   36.9832  -21.7154 H   0  0  0  0  0
  -36.8939   35.2615  -21.3439 H   0  0  0  0  0
  -37.3523   36.8312  -23.8429 H   0  0  0  0  0
  -38.3992   35.6123  -23.0182 H   0  0  0  0  0
  -36.3930   35.1419  -25.0754 H   0  0  0  0  0
  -36.8164   31.6753  -24.8567 H   0  0  0  0  0
  -36.1437   33.0105  -25.7978 H   0  0  0  0  0
  -38.1489   33.7594  -22.3458 H   0  0  0  0  0
  -32.2759   37.1508  -23.1717 H   0  0  0  0  0
  -32.6111   40.0092  -23.0923 H   0  0  0  0  0
  -31.1880   39.7026  -25.2404 H   0  0  0  0  0
  -31.5161   37.9603  -25.1309 H   0  0  0  0  0
  -30.4893   37.9607  -22.8426 H   0  0  0  0  0
  -30.0611   39.6717  -23.0753 H   0  0  0  0  0
  -28.8217   39.0346  -25.1303 H   0  0  0  0  0
  -29.1546   37.3052  -24.7305 H   0  0  0  0  0
  -27.9454   37.6943  -22.5349 H   0  0  0  0  0
  -27.5104   39.2765  -23.0783 H   0  0  0  0  0
  -26.6665   38.1740  -25.1660 H   0  0  0  0  0
  -27.1124   35.8806  -23.3137 H   0  0  0  0  0
  -28.0778   36.2007  -24.7753 H   0  0  0  0  0
  -26.3609   35.7518  -24.9230 H   0  0  0  0  0
  -25.1385   38.9713  -23.7147 H   0  0  0  0  0
  -25.2449   37.4514  -22.7930 H   0  0  0  0  0
  -24.6514   37.4350  -24.4718 H   0  0  0  0  0
  -33.0768   41.4624  -24.6894 H   0  0  0  0  0
  -35.3125   40.6200  -26.4962 H   0  0  0  0  0
  -36.3132   41.7026  -24.5800 H   0  0  0  0  0
  -36.3512   42.8385  -25.9695 H   0  0  0  0  0
  -35.6397   43.8359  -24.0141 H   0  0  0  0  0
  -35.5923   42.0333  -28.3259 H   0  0  0  0  0
  -33.1947   42.6037  -29.6841 H   0  0  0  0  0
  -35.8658   43.9285  -30.2769 H   0  0  0  0  0
  -36.2068   42.0069  -31.5815 H   0  0  0  0  0
  -33.9769   44.7789  -31.6027 H   0  0  0  0  0
  -33.5482   43.1173  -32.0784 H   0  0  0  0  0
  -35.0848   43.8317  -32.6256 H   0  0  0  0  0
  -32.3950   43.8154  -27.8190 H   0  0  0  0  0
  1  2  1  0  0  0
  2  3  1  0  0  0
  2  5  1  0  0  0
  3  4  2  0  0  0
  3 10  1  0  0  0
  5  6  1  0  0  0
  6  7  1  0  0  0
  7  8  2  0  0  0
  7  9  1  0  0  0
 10 11  1  0  0  0
 11 12  1  0  0  0
 11 14  1  0  0  0
 12 13  2  0  0  0
 12 17  1  0  0  0
 14 15  1  0  0  0
 14 16  1  0  0  0
 17 18  1  0  0  0
 18 19  1  0  0  0
 18 21  1  0  0  0
 19 20  2  0  0  0
 19 22  1  0  0  0
 22 23  1  0  0  0
 23 24  1  0  0  0
 23 26  1  0  0  0
 24 25  2  0  0  0
 24 33  1  0  0  0
 26 27  1  0  0  0
 27 28  1  0  0  0
 28 29  1  0  0  0
 29 30  1  0  0  0
 30 31  1  0  0  0
 30 32  2  0  0  0
 33 34  1  0  0  0
 34 35  1  0  0  0
 34 42  1  0  0  0
 35 36  1  0  0  0
 36 37  1  0  0  0
 37 38  1  0  0  0
 38 39  1  0  0  0
 39 40  1  0  0  0
 39 41  1  0  0  0
 42 43  2  0  0  0
 42 44  1  0  0  0
 44 45  1  0  0  0
 45 46  1  0  0  0
 45 48  1  0  0  0
 46 47  2  0  0  0
 46 50  1  0  0  0
 48 49  1  0  0  0
 50 51  1  0  0  0
 51 52  1  0  0  0
 51 54  1  0  0  0
 52 53  2  0  0  0
 54 55  1  0  0  0
 54 56  1  0  0  0
 52 57  1  0  0  0
  1 58  1  0  0  0
  1 59  1  0  0  0
  1 60  1  0  0  0
  2 61  1  0  0  0
  5 62  1  0  0  0
  5 63  1  0  0  0
  6 64  1  0  0  0
  6 65  1  0  0  0
  9 66  1  0  0  0
  9 67  1  0  0  0
 10 68  1  0  0  0
 11 69  1  0  0  0
 14 70  1  0  0  0
 15 71  1  0  0  0
 16 72  1  0  0  0
 16 73  1  0  0  0
 16 74  1  0  0  0
 17 75  1  0  0  0
 18 76  1  0  0  0
 21 77  1  0  0  0
 21 78  1  0  0  0
 21 79  1  0  0  0
 22 80  1  0  0  0
 23 81  1  0  0  0
 26 82  1  0  0  0
 26 83  1  0  0  0
 27 84  1  0  0  0
 27 85  1  0  0  0
 28 86  1  0  0  0
 28 87  1  0  0  0
 29 88  1  0  0  0
 31 89  1  0  0  0
 31 90  1  0  0  0
 32 91  1  0  0  0
 33 92  1  0  0  0
 34 93  1  0  0  0
 35 94  1  0  0  0
 35 95  1  0  0  0
 36 96  1  0  0  0
 36 97  1  0  0  0
 37 98  1  0  0  0
 37 99  1  0  0  0
 38100  1  0  0  0
 38101  1  0  0  0
 39102  1  0  0  0
 40103  1  0  0  0
 40104  1  0  0  0
 40105  1  0  0  0
 41106  1  0  0  0
 41107  1  0  0  0
 41108  1  0  0  0
 44109  1  0  0  0
 45110  1  0  0  0
 48111  1  0  0  0
 48112  1  0  0  0
 49113  1  0  0  0
 50114  1  0  0  0
 51115  1  0  0  0
 54116  1  0  0  0
 55117  1  0  0  0
 56118  1  0  0  0
 56119  1  0  0  0
 56120  1  0  0  0
 57121  1  0  0  0
M  END
$$$$
