### 
### Created by X-TOOL on Mon Sep 10 21:13:11 2018
### 

@<TRIPOS>MOLECULE
4ft2_ligand
  120   119     1     0     0
SMALL
GAST_HUCK


@<TRIPOS>ATOM
      1 N         -33.1020   32.9440  -11.5570 N.4       1 GLN         0.2380
      2 CA        -32.3860   31.7570  -11.9590 C.3       1 GLN         0.0671
      3 C         -31.9820   32.0640  -13.3650 C.2       1 GLN         0.2269
      4 O         -30.8320   31.8480  -13.7750 O.2       1 GLN        -0.3907
      5 CB        -33.3220   30.5410  -11.9140 C.3       1 GLN         0.0247
      6 CG        -32.9270   29.3720  -12.8200 C.3       1 GLN         0.0443
      7 CD        -32.5080   28.1280  -12.0470 C.2       1 GLN         0.1738
      8 OE1       -32.8720   27.9480  -10.8810 O.2       1 GLN        -0.3973
      9 NE2       -31.7350   27.2640  -12.6960 N.am      1 GLN        -0.3009
     10 N         -32.9560   32.5880  -14.1000 N.am      1 THR        -0.2586
     11 CA        -32.7860   32.8320  -15.5130 C.3       1 THR         0.1566
     12 C         -33.7130   33.9180  -16.0700 C.2       1 THR         0.2065
     13 O         -34.7640   34.2320  -15.5030 O.2       1 THR        -0.3943
     14 CB        -32.9950   31.5190  -16.3100 C.3       1 THR         0.0924
     15 OG1       -33.9770   30.7070  -15.6500 O.3       1 THR        -0.3874
     16 CG2       -31.7060   30.7290  -16.4100 C.3       1 THR        -0.0346
     17 N         -33.3030   34.4770  -17.2000 N.am      1 ALA        -0.2639
     18 CA        -34.1200   35.4380  -17.9230 C.3       1 ALA         0.1282
     19 C         -33.6930   35.4650  -19.3780 C.2       1 ALA         0.2036
     20 O         -32.7800   34.7440  -19.7730 O.2       1 ALA        -0.3944
     21 CB        -33.9980   36.8220  -17.3070 C.3       1 ALA        -0.0244
     22 N         -34.3450   36.3040  -20.1730 N.am      1 ARG        -0.2637
     23 CA        -34.0350   36.3670  -21.5950 C.3       1 ARG         0.1311
     24 C         -33.8890   37.7830  -22.1400 C.2       1 ARG         0.2039
     25 O         -34.6310   38.6940  -21.7760 O.2       1 ARG        -0.3944
     26 CB        -35.0770   35.5980  -22.4110 C.3       1 ARG        -0.0092
     27 CG        -36.5150   35.9600  -22.0900 C.3       1 ARG        -0.0156
     28 CD        -37.3870   35.8700  -23.3300 C.3       1 ARG         0.0627
     29 NE        -36.9160   34.8410  -24.2530 N.pl3     1 ARG        -0.2723
     30 CZ        -37.1240   33.5380  -24.0920 C.cat     1 ARG         0.2882
     31 NH1       -36.6590   32.6750  -24.9840 N.pl3     1 ARG        -0.2849
     32 NH2       -37.7930   33.0980  -23.0360 N.pl3     1 ARG        -0.2849
     33 N         -32.9060   37.9380  -23.0180 N.am      1 MLY        -0.2637
     34 CA        -32.6660   39.1670  -23.7820 C.3       1 MLY         0.1310
     35 CB        -31.3950   38.8790  -24.5570 C.3       1 MLY        -0.0125
     36 CG        -30.2410   38.7230  -23.5810 C.3       1 MLY        -0.0507
     37 CD        -28.9970   38.3090  -24.3360 C.3       1 MLY        -0.0716
     38 CE        -27.7720   38.2810  -23.4370 C.3       1 MLY        -0.1138
     39 NZ        -26.7160   37.7080  -24.2600 N.4       1 MLY         0.3986
     40 CH1       -27.0910   36.2940  -24.3220 C.3       1 MLY        -0.1260
     41 CH2       -25.3500   37.9040  -23.7790 C.3       1 MLY        -0.1260
     42 C         -33.7700   39.5640  -24.7540 C.2       1 MLY         0.2040
     43 O         -34.5770   38.7100  -25.1860 O.2       1 MLY        -0.3944
     44 N         -33.7820   40.8470  -25.0950 N.am      1 SER        -0.2616
     45 CA        -34.7470   41.4180  -26.0150 C.3       1 SER         0.1539
     46 C         -34.0080   42.2280  -27.0760 C.2       1 SER         0.2057
     47 O         -32.8780   42.6680  -26.8490 O.2       1 SER        -0.3943
     48 CB        -35.7160   42.3190  -25.2520 C.3       1 SER         0.0843
     49 OG        -35.0120   43.2820  -24.4840 O.3       1 SER        -0.3903
     50 N         -34.6530   42.4180  -28.2250 N.am      1 THR        -0.2669
     51 CA        -34.0740   43.1550  -29.3510 C.3       1 THR         0.1198
     52 C         -33.6470   44.5560  -28.9130 C.2       1 THR         0.0626
     53 O         -34.2073   45.5856  -29.3751 O.co2     1 THR        -0.5665
     54 CB        -35.0640   43.2440  -30.5540 C.3       1 THR         0.0869
     55 OG1       -35.5990   41.9450  -30.8410 O.3       1 THR        -0.3880
     56 CG2       -34.3680   43.7820  -31.8060 C.3       1 THR        -0.0352
     57 H         -32.4731   33.7464  -11.5898 H         1 GLN         0.2015
     58 H         -33.8854   33.0984  -12.1917 H         1 GLN         0.2015
     59 H         -33.4517   32.8231  -10.6065 H         1 GLN         0.2015
     60 H         -31.5383   31.5179  -11.3169 H         1 GLN         0.1100
     61 H         -34.2964   30.8862  -12.2596 H         1 GLN         0.0370
     62 H         -33.2934   30.1648  -10.8914 H         1 GLN         0.0370
     63 H         -32.0739   29.6917  -13.4184 H         1 GLN         0.0506
     64 H         -33.7986   29.1100  -13.4198 H         1 GLN         0.0506
     65 H         -31.4192   26.4129  -12.2309 H         1 GLN         0.1814
     66 H         -31.4574   27.4518  -13.6594 H         1 GLN         0.1814
     67 H         -33.8439   32.8233  -13.6566 H         1 THR         0.1885
     68 H         -31.7662   33.1977  -15.6331 H         1 THR         0.0826
     69 H         -33.3279   31.7844  -17.3134 H         1 THR         0.0639
     70 H         -34.1044   29.8947  -16.1456 H         1 THR         0.2101
     71 H         -30.9519   31.3295  -16.9187 H         1 THR         0.0257
     72 H         -31.3570   30.4773  -15.4085 H         1 THR         0.0257
     73 H         -31.8851   29.8139  -16.9744 H         1 THR         0.0257
     74 H         -32.3876   34.2255  -17.5731 H         1 ALA         0.1883
     75 H         -35.1652   35.1354  -17.8588 H         1 ALA         0.0797
     76 H         -34.3308   36.7872  -16.2696 H         1 ALA         0.0277
     77 H         -32.9577   37.1450  -17.3456 H         1 ALA         0.0277
     78 H         -34.6184   37.5229  -17.8656 H         1 ALA         0.0277
     79 H         -35.0687   36.9094  -19.7855 H         1 ARG         0.1883
     80 H         -33.0571   35.8971  -21.6998 H         1 ARG         0.0800
     81 H         -34.9525   34.5412  -22.1747 H         1 ARG         0.0313
     82 H         -34.9104   35.8471  -23.4590 H         1 ARG         0.0313
     83 H         -36.5433   36.9832  -21.7154 H         1 ARG         0.0301
     84 H         -36.8939   35.2615  -21.3439 H         1 ARG         0.0301
     85 H         -37.3523   36.8312  -23.8429 H         1 ARG         0.0689
     86 H         -38.3992   35.6123  -23.0182 H         1 ARG         0.0689
     87 H         -36.3930   35.1419  -25.0754 H         1 ARG         0.2642
     88 H         -36.1405   33.0103  -25.7959 H         1 ARG         0.2615
     89 H         -36.8197   31.6756  -24.8586 H         1 ARG         0.2615
     90 H         -38.1489   33.7594  -22.3458 H         1 ARG         0.2615
     91 H         -37.9521   32.0980  -22.9134 H         1 ARG         0.2615
     92 H         -32.2759   37.1508  -23.1717 H         1 MLY         0.1883
     93 H         -32.6111   40.0092  -23.0923 H         1 MLY         0.0800
     94 H         -31.1880   39.7026  -25.2404 H         1 MLY         0.0312
     95 H         -31.5161   37.9603  -25.1309 H         1 MLY         0.0312
     96 H         -30.4893   37.9607  -22.8426 H         1 MLY         0.0267
     97 H         -30.0611   39.6717  -23.0753 H         1 MLY         0.0267
     98 H         -28.8217   39.0346  -25.1303 H         1 MLY         0.0246
     99 H         -29.1546   37.3052  -24.7305 H         1 MLY         0.0246
    100 H         -27.9454   37.6943  -22.5349 H         1 MLY         0.0017
    101 H         -27.5104   39.2765  -23.0783 H         1 MLY         0.0017
    102 H         -27.1124   35.8806  -23.3137 H         1 MLY        -0.0019
    103 H         -28.0778   36.2007  -24.7753 H         1 MLY        -0.0019
    104 H         -26.3609   35.7518  -24.9230 H         1 MLY        -0.0019
    105 H         -25.1385   38.9713  -23.7147 H         1 MLY        -0.0019
    106 H         -25.2449   37.4514  -22.7930 H         1 MLY        -0.0019
    107 H         -24.6514   37.4350  -24.4718 H         1 MLY        -0.0019
    108 H         -33.0768   41.4624  -24.6894 H         1 SER         0.1884
    109 H         -35.3125   40.6200  -26.4962 H         1 SER         0.0823
    110 H         -36.3132   41.7026  -24.5800 H         1 SER         0.0606
    111 H         -36.3512   42.8385  -25.9695 H         1 SER         0.0606
    112 H         -34.4442   42.8335  -23.8530 H         1 SER         0.2097
    113 H         -35.5923   42.0333  -28.3259 H         1 THR         0.1876
    114 H         -33.1947   42.6037  -29.6841 H         1 THR         0.0752
    115 O         -32.7164   44.6836  -28.0732 O.co2     1 THR        -0.5665
    116 H         -35.8658   43.9285  -30.2769 H         1 THR         0.0632
    117 H         -36.2068   42.0069  -31.5815 H         1 THR         0.2100
    118 H         -33.9769   44.7789  -31.6027 H         1 THR         0.0256
    119 H         -33.5482   43.1173  -32.0784 H         1 THR         0.0256
    120 H         -35.0848   43.8317  -32.6256 H         1 THR         0.0256
@<TRIPOS>BOND
     1    1    2 1  
     2    2    3 1  
     3    2    5 1  
     4    3    4 2  
     5    3   10 am 
     6    5    6 1  
     7    6    7 1  
     8    7    8 2  
     9    7    9 am 
    10   10   11 1  
    11   11   12 1  
    12   11   14 1  
    13   12   13 2  
    14   12   17 am 
    15   14   15 1  
    16   14   16 1  
    17   17   18 1  
    18   18   19 1  
    19   18   21 1  
    20   19   20 2  
    21   19   22 am 
    22   22   23 1  
    23   23   24 1  
    24   23   26 1  
    25   24   25 2  
    26   24   33 am 
    27   26   27 1  
    28   27   28 1  
    29   28   29 1  
    30   29   30 ar 
    31   30   31 ar 
    32   30   32 ar 
    33   33   34 1  
    34   34   35 1  
    35   34   42 1  
    36   35   36 1  
    37   36   37 1  
    38   37   38 1  
    39   38   39 1  
    40   39   40 1  
    41   39   41 1  
    42   42   43 2  
    43   42   44 am 
    44   44   45 1  
    45   45   46 1  
    46   45   48 1  
    47   46   47 2  
    48   46   50 am 
    49   48   49 1  
    50   50   51 1  
    51   51   52 1  
    52   51   54 1  
    53   52   53 ar 
    54   54   55 1  
    55   54   56 1  
    56    1   57 1  
    57    1   58 1  
    58    1   59 1  
    59    2   60 1  
    60    5   61 1  
    61    5   62 1  
    62    6   63 1  
    63    6   64 1  
    64    9   65 1  
    65    9   66 1  
    66   10   67 1  
    67   11   68 1  
    68   14   69 1  
    69   15   70 1  
    70   16   71 1  
    71   16   72 1  
    72   16   73 1  
    73   17   74 1  
    74   18   75 1  
    75   21   76 1  
    76   21   77 1  
    77   21   78 1  
    78   22   79 1  
    79   23   80 1  
    80   26   81 1  
    81   26   82 1  
    82   27   83 1  
    83   27   84 1  
    84   28   85 1  
    85   28   86 1  
    86   29   87 1  
    87   31   88 1  
    88   31   89 1  
    89   32   90 1  
    90   32   91 1  
    91   33   92 1  
    92   34   93 1  
    93   35   94 1  
    94   35   95 1  
    95   36   96 1  
    96   36   97 1  
    97   37   98 1  
    98   37   99 1  
    99   38  100 1  
   100   38  101 1  
   101   40  102 1  
   102   40  103 1  
   103   40  104 1  
   104   41  105 1  
   105   41  106 1  
   106   41  107 1  
   107   44  108 1  
   108   45  109 1  
   109   48  110 1  
   110   48  111 1  
   111   49  112 1  
   112   50  113 1  
   113   51  114 1  
   114   52  115 ar 
   115   54  116 1  
   116   55  117 1  
   117   56  118 1  
   118   56  119 1  
   119   56  120 1  
@<TRIPOS>SUBSTRUCTURE
     1 GLN         1

