4wpn_ligand
  -I-interpret- 

 59 61  0  0  0  0  0  0  0  0999 V2000
   38.4730   19.5130   16.4480 C   0  0  0  0  0
   37.5260   19.0490   15.4080 C   0  0  0  0  0
   37.1920   19.9130   14.2860 C   0  0  0  0  0
   36.1230   18.0200   14.1210 C   0  0  0  0  0
   36.8550   17.9070   15.2610 N   0  0  0  0  0
   36.8920   16.7580   16.1700 C   0  0  0  0  0
   38.3250   16.3160   16.4660 C   0  0  0  0  0
   37.4240   13.9730   16.8310 C   0  0  0  0  0
   39.8970   14.4050   16.8460 C   0  0  0  0  0
   35.2060   16.9480   13.5670 C   0  0  0  0  0
   35.0050   14.4920   13.8180 C   0  0  0  0  0
   34.9340   13.5940   12.5860 C   0  0  0  0  0
   36.8930   14.6000   11.5840 C   0  0  0  0  0
   37.0820   15.5650   12.7510 C   0  0  0  0  0
   36.5120   12.1230   11.3000 C   0  0  0  0  0
   39.9470   21.3380   17.2610 C   0  0  0  0  0
   38.7860   18.8060   17.4280 O   0  0  0  0  0
   39.0030   20.8100   16.2710 N   0  0  0  0  0
   38.6320   21.5990   15.1460 C   0  0  0  0  0
   39.1280   22.7390   15.0270 O   0  0  0  0  0
   37.7200   21.1340   14.1540 N   0  0  0  0  0
   37.3690   21.9870   13.0150 C   0  0  0  0  0
   36.3220   19.2320   13.5190 N   0  0  0  0  0
   38.5530   14.8210   16.2550 C   0  0  0  0  0
   35.8750   15.6530   13.5840 N   0  3  0  0  0
   36.3780   13.3180   12.2110 C   0  0  0  0  0
   36.5610   11.0120   11.8000 O   0  0  0  0  0
   36.5830   12.2810    9.9770 N   0  0  0  0  0
   36.3681   15.9282   15.6956 H   0  0  0  0  0
   36.4216   17.0484   17.1094 H   0  0  0  0  0
   38.5268   16.5348   17.5146 H   0  0  0  0  0
   38.9823   16.8492   15.7791 H   0  0  0  0  0
   37.3460   14.1539   17.9030 H   0  0  0  0  0
   36.4855   14.2424   16.3465 H   0  0  0  0  0
   37.6364   12.9187   16.6537 H   0  0  0  0  0
   40.6959   14.9613   16.3557 H   0  0  0  0  0
   39.9050   14.6207   17.9144 H   0  0  0  0  0
   40.0467   13.3369   16.6886 H   0  0  0  0  0
   34.9436   17.1999   12.5395 H   0  0  0  0  0
   34.3087   16.8935   14.1834 H   0  0  0  0  0
   35.4145   13.9131   14.6458 H   0  0  0  0  0
   34.0009   14.8511   14.0436 H   0  0  0  0  0
   34.3912   14.0722   11.7706 H   0  0  0  0  0
   34.3887   12.6727   12.7909 H   0  0  0  0  0
   37.8238   14.4374   11.0406 H   0  0  0  0  0
   36.1972   14.9944   10.8434 H   0  0  0  0  0
   37.2936   16.5551   12.3472 H   0  0  0  0  0
   37.9008   15.1989   13.3703 H   0  0  0  0  0
   40.8955   21.5626   16.7731 H   0  0  0  0  0
   39.5389   22.2479   17.7011 H   0  0  0  0  0
   40.1059   20.5946   18.0422 H   0  0  0  0  0
   36.9123   22.9073   13.3791 H   0  0  0  0  0
   38.2702   22.2258   12.4502 H   0  0  0  0  0
   36.6644   21.4601   12.3716 H   0  0  0  0  0
   38.5636   14.6420   15.1799 H   0  0  0  0  0
   36.3629   15.5712   14.4760 H   0  0  0  0  0
   36.9722   13.0515   13.0850 H   0  0  0  0  0
   36.6795   11.4666    9.3706 H   0  0  0  0  0
   36.5408   13.2162    9.5721 H   0  0  0  0  0
  2  1  1  0  0  0
  1 17  2  0  0  0
  1 18  1  0  0  0
  3  2  4  0  0  0
  5  2  4  0  0  0
  3 21  1  0  0  0
 23  3  4  0  0  0
  4  5  4  0  0  0
 10  4  1  0  0  0
  4 23  4  0  0  0
  5  6  1  0  0  0
  6  7  1  0  0  0
  7 24  1  0  0  0
 24  8  1  0  0  0
 24  9  1  0  0  0
 25 10  1  0  0  0
 12 11  1  0  0  0
 11 25  1  0  0  0
 26 12  1  0  0  0
 13 14  1  0  0  0
 13 26  1  0  0  0
 14 25  1  0  0  0
 26 15  1  0  0  0
 15 27  2  0  0  0
 15 28  1  0  0  0
 18 16  1  0  0  0
 18 19  1  0  0  0
 19 20  2  0  0  0
 19 21  1  0  0  0
 21 22  1  0  0  0
  6 29  1  0  0  0
  6 30  1  0  0  0
  7 31  1  0  0  0
  7 32  1  0  0  0
  8 33  1  0  0  0
  8 34  1  0  0  0
  8 35  1  0  0  0
  9 36  1  0  0  0
  9 37  1  0  0  0
  9 38  1  0  0  0
 10 39  1  0  0  0
 10 40  1  0  0  0
 11 41  1  0  0  0
 11 42  1  0  0  0
 12 43  1  0  0  0
 12 44  1  0  0  0
 13 45  1  0  0  0
 13 46  1  0  0  0
 14 47  1  0  0  0
 14 48  1  0  0  0
 16 49  1  0  0  0
 16 50  1  0  0  0
 16 51  1  0  0  0
 22 52  1  0  0  0
 22 53  1  0  0  0
 22 54  1  0  0  0
 24 55  1  0  0  0
 25 56  1  0  0  0
 26 57  1  0  0  0
 28 58  1  0  0  0
 28 59  1  0  0  0
M  END
$$$$
