1ujk_ligand
  -I-interpret- 

125124  0  0  0  0  0  0  0  0999 V2000
   12.7100  -19.9980  -16.5290 N   0  3  0  0  0
   14.0930  -20.4070  -16.9050 C   0  0  0  0  0
   14.8630  -19.2440  -17.5220 C   0  0  0  0  0
   14.3560  -18.1240  -17.6030 O   0  0  0  0  0
   14.0460  -21.5800  -17.8890 C   0  0  0  0  0
   13.1970  -21.2830  -19.1110 C   0  0  0  0  0
   13.0910  -22.1650  -19.9910 O   0  0  0  0  0
   12.6340  -20.1710  -19.1930 O   0  0  0  0  0
   16.0900  -19.5180  -17.9540 N   0  0  0  0  0
   16.9380  -18.4980  -18.5570 C   0  0  0  0  0
   18.1040  -19.1720  -19.2750 C   0  0  0  0  0
   18.3100  -20.3760  -19.1260 O   0  0  0  0  0
   17.4470  -17.5470  -17.4650 C   0  0  0  0  0
   18.2400  -16.3800  -18.0230 C   0  0  0  0  0
   17.9520  -15.9480  -19.1590 O   0  0  0  0  0
   19.1370  -15.8800  -17.3120 O   0  0  0  0  0
   18.8560  -18.4040  -20.0590 N   0  0  0  0  0
   19.9940  -18.9480  -20.7940 C   0  0  0  0  0
   21.3110  -18.5730  -20.1330 C   0  0  0  0  0
   21.3280  -17.9000  -19.1030 O   0  0  0  0  0
   20.0180  -18.4430  -22.2570 C   0  0  0  0  0
   20.1080  -16.9140  -22.2860 C   0  0  0  0  0
   18.7780  -18.9250  -22.9940 C   0  0  0  0  0
   20.2070  -16.3290  -23.6860 C   0  0  0  0  0
   22.4140  -19.0100  -20.7330 N   0  0  0  0  0
   23.7370  -18.7200  -20.1950 C   0  0  0  0  0
   24.7670  -19.7660  -20.6460 C   0  0  0  0  0
   24.6030  -19.9240  -21.9960 O   0  0  0  0  0
   24.2020  -17.3360  -20.6300 C   0  0  0  0  0
   23.7330  -16.7930  -21.6300 O   0  0  0  0  0
   25.0900  -21.3460  -22.0050 P   0  0  0  0  0
   26.5700  -21.7370  -21.7100 O   0  0  0  0  0
   24.8380  -21.3950  -23.5830 O   0  0  0  0  0
   24.0220  -22.1670  -21.2080 O   0  0  0  0  0
   25.1310  -16.7760  -19.8630 N   0  0  0  0  0
   25.6950  -15.4650  -20.1520 C   0  0  0  0  0
   26.5160  -15.5040  -21.4390 C   0  0  0  0  0
   27.2960  -16.4300  -21.6600 O   0  0  0  0  0
   26.5940  -15.0160  -18.9940 C   0  0  0  0  0
   27.4540  -13.7710  -19.2310 C   0  0  0  0  0
   26.5530  -12.5610  -19.4190 C   0  0  0  0  0
   28.3970  -13.5590  -18.0560 C   0  0  0  0  0
   26.3340  -14.4900  -22.2790 N   0  0  0  0  0
   27.0650  -14.3870  -23.5360 C   0  0  0  0  0
   28.4490  -13.8150  -23.2510 C   0  0  0  0  0
   28.5790  -12.6630  -22.8320 O   0  0  0  0  0
   26.3160  -13.4700  -24.5050 C   0  0  0  0  0
   26.9360  -13.2560  -25.8870 C   0  0  0  0  0
   26.9690  -14.5730  -26.6470 C   0  0  0  0  0
   26.1250  -12.2250  -26.6510 C   0  0  0  0  0
   29.4840  -14.6190  -23.4760 N   0  0  0  0  0
   30.8500  -14.1750  -23.2230 C   0  0  0  0  0
   31.4010  -13.3750  -24.4010 C   0  0  0  0  0
   30.7830  -13.4150  -25.4860 O   0  0  0  0  0
   31.7500  -15.3840  -22.9570 C   0  0  0  0  0
   31.1260  -16.4370  -22.0440 C   0  0  0  0  0
   30.7720  -15.8850  -20.6670 C   0  0  0  0  0
   32.0130  -15.5780  -19.8420 C   0  0  0  0  0
   31.6640  -15.1060  -18.4690 N   0  3  0  0  0
   32.4500  -12.7220  -24.2260 O   0  0  0  0  0
   12.7538  -19.2171  -15.8742 H   0  0  0  0  0
   12.2015  -19.7132  -17.3661 H   0  0  0  0  0
   12.2315  -20.7847  -16.0902 H   0  0  0  0  0
   14.6112  -20.7167  -15.9975 H   0  0  0  0  0
   13.6047  -22.4329  -17.3733 H   0  0  0  0  0
   15.0637  -21.7751  -18.2271 H   0  0  0  0  0
   13.5999  -22.9367  -19.7319 H   0  0  0  0  0
   16.4478  -20.4686  -17.8608 H   0  0  0  0  0
   16.3681  -17.9188  -19.2835 H   0  0  0  0  0
   18.1066  -18.1151  -16.8091 H   0  0  0  0  0
   16.5791  -17.1419  -16.9446 H   0  0  0  0  0
   19.1925  -16.3614  -16.4833 H   0  0  0  0  0
   18.6324  -17.4128  -20.1485 H   0  0  0  0  0
   19.8770  -20.0317  -20.7860 H   0  0  0  0  0
   20.8968  -18.8470  -22.7597 H   0  0  0  0  0
   21.0157  -16.6325  -21.7522 H   0  0  0  0  0
   19.1934  -16.5269  -21.8369 H   0  0  0  0  0
   18.7554  -20.0148  -22.9904 H   0  0  0  0  0
   17.8882  -18.5402  -22.4957 H   0  0  0  0  0
   18.8048  -18.5642  -24.0222 H   0  0  0  0  0
   21.1003  -16.7147  -24.1772 H   0  0  0  0  0
   19.3245  -16.6118  -24.2598 H   0  0  0  0  0
   20.2670  -15.2426  -23.6210 H   0  0  0  0  0
   22.3325  -19.5600  -21.5881 H   0  0  0  0  0
   23.6589  -18.7525  -19.1083 H   0  0  0  0  0
   24.6154  -20.7105  -20.1234 H   0  0  0  0  0
   25.7803  -19.4382  -20.4139 H   0  0  0  0  0
   23.9272  -21.1546  -23.7681 H   0  0  0  0  0
   23.1431  -21.8643  -21.4477 H   0  0  0  0  0
   25.4612  -17.2828  -19.0417 H   0  0  0  0  0
   24.8736  -14.7592  -20.2757 H   0  0  0  0  0
   27.2929  -15.8347  -18.8226 H   0  0  0  0  0
   25.9221  -14.7642  -18.1735 H   0  0  0  0  0
   28.0529  -13.9081  -20.1314 H   0  0  0  0  0
   25.9032  -12.7236  -20.2789 H   0  0  0  0  0
   25.9459  -12.4192  -18.5249 H   0  0  0  0  0
   27.1662  -11.6757  -19.5876 H   0  0  0  0  0
   27.8149  -13.4254  -17.1442 H   0  0  0  0  0
   29.0453  -14.4289  -17.9506 H   0  0  0  0  0
   29.0039  -12.6714  -18.2344 H   0  0  0  0  0
   25.6623  -13.7617  -22.0366 H   0  0  0  0  0
   27.1557  -15.3738  -23.9900 H   0  0  0  0  0
   26.3023  -12.4881  -24.0319 H   0  0  0  0  0
   25.3544  -13.9511  -24.6837 H   0  0  0  0  0
   27.9576  -12.8924  -25.7762 H   0  0  0  0  0
   27.5660  -15.2965  -26.0918 H   0  0  0  0  0
   25.9528  -14.9503  -26.7619 H   0  0  0  0  0
   27.4117  -14.4127  -27.6301 H   0  0  0  0  0
   25.1006  -12.5804  -26.7626 H   0  0  0  0  0
   26.1265  -11.2836  -26.1016 H   0  0  0  0  0
   26.5676  -12.0733  -27.6355 H   0  0  0  0  0
   29.3200  -15.5610  -23.8311 H   0  0  0  0  0
   30.8360  -13.5269  -22.3467 H   0  0  0  0  0
   30.0091  -13.9752  -25.3917 H   0  0  0  0  0
   32.6464  -15.0152  -22.4584 H   0  0  0  0  0
   31.9400  -15.8622  -23.9179 H   0  0  0  0  0
   31.8544  -17.2363  -21.9075 H   0  0  0  0  0
   30.2052  -16.7838  -22.5129 H   0  0  0  0  0
   30.1873  -16.6372  -20.1375 H   0  0  0  0  0
   30.2147  -14.9582  -20.8035 H   0  0  0  0  0
   32.5712  -14.7878  -20.3442 H   0  0  0  0  0
   32.5986  -16.4928  -19.7511 H   0  0  0  0  0
   32.5201  -14.9116  -17.9498 H   0  0  0  0  0
   31.1045  -14.2557  -18.5351 H   0  0  0  0  0
   31.1298  -15.8294  -17.9876 H   0  0  0  0  0
  1  2  1  0  0  0
  2  3  1  0  0  0
  2  5  1  0  0  0
  3  4  2  0  0  0
  3  9  1  0  0  0
  5  6  1  0  0  0
  6  7  1  0  0  0
  6  8  2  0  0  0
  9 10  1  0  0  0
 10 11  1  0  0  0
 10 13  1  0  0  0
 11 12  2  0  0  0
 11 17  1  0  0  0
 13 14  1  0  0  0
 14 15  2  0  0  0
 14 16  1  0  0  0
 17 18  1  0  0  0
 18 19  1  0  0  0
 18 21  1  0  0  0
 19 20  2  0  0  0
 19 25  1  0  0  0
 21 22  1  0  0  0
 21 23  1  0  0  0
 22 24  1  0  0  0
 25 26  1  0  0  0
 26 27  1  0  0  0
 26 29  1  0  0  0
 27 28  1  0  0  0
 28 31  1  0  0  0
 29 30  2  0  0  0
 29 35  1  0  0  0
 31 32  2  0  0  0
 31 33  1  0  0  0
 31 34  1  0  0  0
 35 36  1  0  0  0
 36 37  1  0  0  0
 36 39  1  0  0  0
 37 38  2  0  0  0
 37 43  1  0  0  0
 39 40  1  0  0  0
 40 41  1  0  0  0
 40 42  1  0  0  0
 43 44  1  0  0  0
 44 45  1  0  0  0
 44 47  1  0  0  0
 45 46  2  0  0  0
 45 51  1  0  0  0
 47 48  1  0  0  0
 48 49  1  0  0  0
 48 50  1  0  0  0
 51 52  1  0  0  0
 52 53  1  0  0  0
 52 55  1  0  0  0
 53 54  1  0  0  0
 53 60  2  0  0  0
 55 56  1  0  0  0
 56 57  1  0  0  0
 57 58  1  0  0  0
 58 59  1  0  0  0
  1 61  1  0  0  0
  1 62  1  0  0  0
  1 63  1  0  0  0
  2 64  1  0  0  0
  5 65  1  0  0  0
  5 66  1  0  0  0
  7 67  1  0  0  0
  9 68  1  0  0  0
 10 69  1  0  0  0
 13 70  1  0  0  0
 13 71  1  0  0  0
 16 72  1  0  0  0
 17 73  1  0  0  0
 18 74  1  0  0  0
 21 75  1  0  0  0
 22 76  1  0  0  0
 22 77  1  0  0  0
 23 78  1  0  0  0
 23 79  1  0  0  0
 23 80  1  0  0  0
 24 81  1  0  0  0
 24 82  1  0  0  0
 24 83  1  0  0  0
 25 84  1  0  0  0
 26 85  1  0  0  0
 27 86  1  0  0  0
 27 87  1  0  0  0
 33 88  1  0  0  0
 34 89  1  0  0  0
 35 90  1  0  0  0
 36 91  1  0  0  0
 39 92  1  0  0  0
 39 93  1  0  0  0
 40 94  1  0  0  0
 41 95  1  0  0  0
 41 96  1  0  0  0
 41 97  1  0  0  0
 42 98  1  0  0  0
 42 99  1  0  0  0
 42100  1  0  0  0
 43101  1  0  0  0
 44102  1  0  0  0
 47103  1  0  0  0
 47104  1  0  0  0
 48105  1  0  0  0
 49106  1  0  0  0
 49107  1  0  0  0
 49108  1  0  0  0
 50109  1  0  0  0
 50110  1  0  0  0
 50111  1  0  0  0
 51112  1  0  0  0
 52113  1  0  0  0
 54114  1  0  0  0
 55115  1  0  0  0
 55116  1  0  0  0
 56117  1  0  0  0
 56118  1  0  0  0
 57119  1  0  0  0
 57120  1  0  0  0
 58121  1  0  0  0
 58122  1  0  0  0
 59123  1  0  0  0
 59124  1  0  0  0
 59125  1  0  0  0
M  END
$$$$
