### 
### Created by X-TOOL on Mon Sep 10 21:12:51 2018
### 

@<TRIPOS>MOLECULE
1ujk_ligand
  120   119     1     0     0
SMALL
GAST_HUCK


@<TRIPOS>ATOM
      1 N          12.7100  -19.9980  -16.5290 N.4       1 ASP         0.2391
      2 CA         14.0930  -20.4070  -16.9050 C.3       1 ASP         0.0764
      3 C          14.8630  -19.2440  -17.5220 C.2       1 ASP         0.2285
      4 O          14.3560  -18.1240  -17.6030 O.2       1 ASP        -0.3906
      5 CB         14.0460  -21.5800  -17.8890 C.3       1 ASP         0.0607
      6 CG         13.1970  -21.2830  -19.1110 C.2       1 ASP         0.0425
      7 OD1        13.0910  -22.1650  -19.9910 O.co2     1 ASP        -0.5686
      8 OD2        12.6340  -20.1710  -19.1930 O.co2     1 ASP        -0.5686
      9 N          16.0900  -19.5180  -17.9540 N.am      1 ASP        -0.2594
     10 CA         16.9380  -18.4980  -18.5570 C.3       1 ASP         0.1424
     11 C          18.1040  -19.1720  -19.2750 C.2       1 ASP         0.2056
     12 O          18.3100  -20.3760  -19.1260 O.2       1 ASP        -0.3943
     13 CB         17.4470  -17.5470  -17.4650 C.3       1 ASP         0.0406
     14 CG         18.2400  -16.3800  -18.0230 C.2       1 ASP         0.0393
     15 OD1        17.9520  -15.9480  -19.1590 O.co2     1 ASP        -0.5688
     16 OD2        19.1370  -15.8800  -17.3120 O.co2     1 ASP        -0.5688
     17 N          18.8560  -18.4040  -20.0590 N.am      1 ILE        -0.2634
     18 CA         19.9940  -18.9480  -20.7940 C.3       1 ILE         0.1335
     19 C          21.3110  -18.5730  -20.1330 C.2       1 ILE         0.2042
     20 O          21.3280  -17.9000  -19.1030 O.2       1 ILE        -0.3944
     21 CB         20.0180  -18.4430  -22.2570 C.3       1 ILE        -0.0037
     22 CG1        20.1080  -16.9140  -22.2860 C.3       1 ILE        -0.0491
     23 CG2        18.7780  -18.9250  -22.9940 C.3       1 ILE        -0.0582
     24 CD1        20.2070  -16.3290  -23.6860 C.3       1 ILE        -0.0648
     25 N          22.4140  -19.0100  -20.7330 N.am      1 SEP        -0.2613
     26 CA         23.7370  -18.7200  -20.1950 C.3       1 SEP         0.1586
     27 CB         24.7670  -19.7660  -20.6460 C.3       1 SEP         0.1184
     28 OG         24.6030  -19.9240  -21.9960 O.3       1 SEP        -0.2714
     29 C          24.2020  -17.3360  -20.6300 C.2       1 SEP         0.2065
     30 O          23.7330  -16.7930  -21.6300 O.2       1 SEP        -0.3943
     31 P          25.0900  -21.3460  -22.0050 P.3       1 SEP         0.2010
     32 O1P        26.5700  -21.7370  -21.7100 O.co2     1 SEP        -0.5537
     33 O2P        24.8380  -21.3950  -23.5830 O.co2     1 SEP        -0.5537
     34 O3P        24.0220  -22.1670  -21.2080 O.co2     1 SEP        -0.5537
     35 N          25.1310  -16.7760  -19.8630 N.am      1 LEU        -0.2636
     36 CA         25.6950  -15.4650  -20.1520 C.3       1 LEU         0.1312
     37 C          26.5160  -15.5040  -21.4390 C.2       1 LEU         0.2039
     38 O          27.2960  -16.4300  -21.6600 O.2       1 LEU        -0.3944
     39 CB         26.5940  -15.0160  -18.9940 C.3       1 LEU        -0.0101
     40 CG         27.4540  -13.7710  -19.2310 C.3       1 LEU        -0.0425
     41 CD1        26.5530  -12.5610  -19.4190 C.3       1 LEU        -0.0625
     42 CD2        28.3970  -13.5590  -18.0560 C.3       1 LEU        -0.0625
     43 N          26.3340  -14.4900  -22.2790 N.am      1 LEU        -0.2637
     44 CA         27.0650  -14.3870  -23.5360 C.3       1 LEU         0.1312
     45 C          28.4490  -13.8150  -23.2510 C.2       1 LEU         0.2033
     46 O          28.5790  -12.6630  -22.8320 O.2       1 LEU        -0.3944
     47 CB         26.3160  -13.4700  -24.5050 C.3       1 LEU        -0.0101
     48 CG         26.9360  -13.2560  -25.8870 C.3       1 LEU        -0.0425
     49 CD1        26.9690  -14.5730  -26.6470 C.3       1 LEU        -0.0625
     50 CD2        26.1250  -12.2250  -26.6510 C.3       1 LEU        -0.0625
     51 N          29.4840  -14.6190  -23.4760 N.am      1 LYS        -0.2695
     52 CA         30.8500  -14.1750  -23.2230 C.3       1 LYS         0.0944
     53 C          31.4010  -13.3750  -24.4010 C.2       1 LYS         0.0601
     54 O          30.7830  -13.4150  -25.4860 O.co2     1 LYS        -0.5666
     55 CB         31.7500  -15.3840  -22.9570 C.3       1 LYS        -0.0177
     56 CG         31.1260  -16.4370  -22.0440 C.3       1 LYS        -0.0446
     57 CD         30.7720  -15.8850  -20.6670 C.3       1 LYS        -0.0125
     58 CE         32.0130  -15.5780  -19.8420 C.3       1 LYS        -0.0354
     59 NZ         31.6640  -15.1060  -18.4690 N.4       1 LYS         0.2185
     60 OXT        32.4500  -12.7220  -24.2260 O.co2     1 LYS        -0.5666
     61 H1         12.2254  -20.7840  -16.1248 H         1 ASP         0.2016
     62 H2         12.2168  -19.6856  -17.3507 H         1 ASP         0.2016
     63 H3         12.7524  -19.2478  -15.8571 H         1 ASP         0.2016
     64 H4         14.6197  -20.7307  -15.9952 H         1 ASP         0.1117
     65 H5         13.6263  -22.4561  -17.3730 H         1 ASP         0.0512
     66 H6         15.0711  -21.8047  -18.2185 H         1 ASP         0.0512
     67 H7         16.4407  -20.4500  -17.8626 H         1 ASP         0.1886
     68 H8         16.3510  -17.9226  -19.2880 H         1 ASP         0.0819
     69 H9         18.0927  -18.1141  -16.7784 H         1 ASP         0.0478
     70 H10        16.5820  -17.1516  -16.9124 H         1 ASP         0.0478
     71 H11        18.6368  -17.4323  -20.1468 H         1 ILE         0.1883
     72 H12        19.9032  -20.0442  -20.8016 H         1 ILE         0.0803
     73 H13        20.9061  -18.8555  -22.7582 H         1 ILE         0.0345
     74 H14        21.0000  -16.6087  -21.7193 H         1 ILE         0.0267
     75 H15        19.2086  -16.5049  -21.8026 H         1 ILE         0.0267
     76 H16        18.7350  -20.0236  -22.9598 H         1 ILE         0.0235
     77 H17        18.8215  -18.5922  -24.0415 H         1 ILE         0.0235
     78 H18        17.8806  -18.5079  -22.5137 H         1 ILE         0.0235
     79 H19        20.2676  -15.2326  -23.6218 H         1 ILE         0.0230
     80 H20        19.3168  -16.6136  -24.2662 H         1 ILE         0.0230
     81 H21        21.1082  -16.7175  -24.1829 H         1 ILE         0.0230
     82 H22        22.3341  -19.5492  -21.5714 H         1 SEP         0.1884
     83 H23        23.6748  -18.7416  -19.0970 H         1 SEP         0.0827
     84 H24        24.5896  -20.7203  -20.1285 H         1 SEP         0.0662
     85 H25        25.7857  -19.4138  -20.4267 H         1 SEP         0.0662
     86 H26        25.4548  -17.2729  -19.0578 H         1 LEU         0.1883
     87 H27        24.8739  -14.7431  -20.2724 H         1 LEU         0.0800
     88 H28        27.2723  -15.8489  -18.7568 H         1 LEU         0.0315
     89 H29        25.9459  -14.8131  -18.1287 H         1 LEU         0.0315
     90 H30        28.0513  -13.9159  -20.1433 H         1 LEU         0.0298
     91 H31        27.1707  -11.6669  -19.5892 H         1 LEU         0.0232
     92 H32        25.9398  -12.4168  -18.5172 H         1 LEU         0.0232
     93 H33        25.8967  -12.7238  -20.2866 H         1 LEU         0.0232
     94 H34        29.0392  -14.4441  -17.9370 H         1 LEU         0.0232
     95 H35        27.8105  -13.4055  -17.1382 H         1 LEU         0.0232
     96 H36        29.0231  -12.6742  -18.2433 H         1 LEU         0.0232
     97 H37        25.6755  -13.7760  -22.0414 H         1 LEU         0.1883
     98 H38        27.1650  -15.3860  -23.9854 H         1 LEU         0.0800
     99 H39        26.2278  -12.4838  -24.0258 H         1 LEU         0.0315
    100 H40        25.3129  -13.8959  -24.6549 H         1 LEU         0.0315
    101 H41        27.9651  -12.8862  -25.7675 H         1 LEU         0.0298
    102 H42        27.4156  -14.4126  -27.6394 H         1 LEU         0.0232
    103 H43        25.9440  -14.9548  -26.7637 H         1 LEU         0.0232
    104 H44        27.5712  -15.3041  -26.0877 H         1 LEU         0.0232
    105 H45        26.1109  -11.2796  -26.0888 H         1 LEU         0.0232
    106 H46        25.0955  -12.5903  -26.7798 H         1 LEU         0.0232
    107 H47        26.5809  -12.0578  -27.6380 H         1 LEU         0.0232
    108 H48        29.3232  -15.5426  -23.8241 H         1 LYS         0.1875
    109 H49        30.8483  -13.5302  -22.3318 H         1 LYS         0.0726
    110 H50        32.6787  -15.0268  -22.4880 H         1 LYS         0.0305
    111 H51        31.9851  -15.8584  -23.9212 H         1 LYS         0.0305
    112 H52        31.8414  -17.2632  -21.9189 H         1 LYS         0.0269
    113 H53        30.2084  -16.8152  -22.5183 H         1 LYS         0.0269
    114 H54        30.1641  -16.6289  -20.1313 H         1 LYS         0.0317
    115 H55        30.1913  -14.9594  -20.7935 H         1 LYS         0.0317
    116 H56        32.5938  -14.7946  -20.3507 H         1 LYS         0.0813
    117 H57        32.6212  -16.4909  -19.7606 H         1 LYS         0.0813
    118 H58        32.5094  -14.9135  -17.9549 H         1 LYS         0.1994
    119 H59        31.1361  -15.8202  -17.9922 H         1 LYS         0.1994
    120 H60        31.1110  -14.2657  -18.5330 H         1 LYS         0.1994
@<TRIPOS>BOND
     1    1    2 1  
     2    2    3 1  
     3    2    5 1  
     4    3    4 2  
     5    3    9 am 
     6    5    6 1  
     7    6    7 ar 
     8    6    8 ar 
     9    9   10 1  
    10   10   11 1  
    11   10   13 1  
    12   11   12 2  
    13   11   17 am 
    14   13   14 1  
    15   14   15 ar 
    16   14   16 ar 
    17   17   18 1  
    18   18   19 1  
    19   18   21 1  
    20   19   20 2  
    21   19   25 am 
    22   21   22 1  
    23   21   23 1  
    24   22   24 1  
    25   25   26 1  
    26   26   27 1  
    27   26   29 1  
    28   27   28 1  
    29   28   31 1  
    30   29   30 2  
    31   29   35 am 
    32   31   32 ar 
    33   31   33 ar 
    34   31   34 ar 
    35   35   36 1  
    36   36   37 1  
    37   36   39 1  
    38   37   38 2  
    39   37   43 am 
    40   39   40 1  
    41   40   41 1  
    42   40   42 1  
    43   43   44 1  
    44   44   45 1  
    45   44   47 1  
    46   45   46 2  
    47   45   51 am 
    48   47   48 1  
    49   48   49 1  
    50   48   50 1  
    51   51   52 1  
    52   52   53 1  
    53   52   55 1  
    54   53   54 ar 
    55   53   60 ar 
    56   55   56 1  
    57   56   57 1  
    58   57   58 1  
    59   58   59 1  
    60    1   61 1  
    61    1   62 1  
    62    1   63 1  
    63    2   64 1  
    64    5   65 1  
    65    5   66 1  
    66    9   67 1  
    67   10   68 1  
    68   13   69 1  
    69   13   70 1  
    70   17   71 1  
    71   18   72 1  
    72   21   73 1  
    73   22   74 1  
    74   22   75 1  
    75   23   76 1  
    76   23   77 1  
    77   23   78 1  
    78   24   79 1  
    79   24   80 1  
    80   24   81 1  
    81   25   82 1  
    82   26   83 1  
    83   27   84 1  
    84   27   85 1  
    85   35   86 1  
    86   36   87 1  
    87   39   88 1  
    88   39   89 1  
    89   40   90 1  
    90   41   91 1  
    91   41   92 1  
    92   41   93 1  
    93   42   94 1  
    94   42   95 1  
    95   42   96 1  
    96   43   97 1  
    97   44   98 1  
    98   47   99 1  
    99   47  100 1  
   100   48  101 1  
   101   49  102 1  
   102   49  103 1  
   103   49  104 1  
   104   50  105 1  
   105   50  106 1  
   106   50  107 1  
   107   51  108 1  
   108   52  109 1  
   109   55  110 1  
   110   55  111 1  
   111   56  112 1  
   112   56  113 1  
   113   57  114 1  
   114   57  115 1  
   115   58  116 1  
   116   58  117 1  
   117   59  118 1  
   118   59  119 1  
   119   59  120 1  
@<TRIPOS>SUBSTRUCTURE
     1 ASP         1

