4jzr_ligand
  -I-interpret- 

 59 63  0  0  0  0  0  0  0  0999 V2000
   40.7090   18.8840   -4.5670 N   0  0  0  0  0
   42.3830   21.9920   -4.5080 N   0  3  0  0  0
   41.1160   20.0520   -4.0260 C   0  0  0  0  0
   42.4850   20.6380   -4.0510 C   0  0  0  0  0
   43.5300   22.7770   -3.9370 C   0  0  0  0  0
   44.9150   22.5160   -4.5060 C   0  0  0  0  0
   44.9530   22.5970   -6.0320 C   0  0  0  0  0
   46.3820   22.7600   -7.9150 C   0  0  0  0  0
   45.4240   25.7030   -9.4410 C   0  0  0  0  0
   46.9680   27.5540   -9.8250 C   0  0  0  0  0
   47.3260   25.9370   -8.0250 C   0  0  0  0  0
   47.1220   30.3160  -12.3540 C   0  0  0  0  0
   48.3180   30.9420  -12.0210 C   0  0  0  0  0
   49.0640   30.4500  -10.9620 C   0  0  0  0  0
   43.7700   21.7730   -6.5710 C   0  0  0  0  0
   41.4450   17.8520   -5.3130 C   0  0  0  0  0
   39.4060   18.7960   -4.3110 C   0  0  0  0  0
   38.9970   19.8570   -3.6320 C   0  0  0  0  0
   40.0830   20.6660   -3.4580 N   0  0  0  0  0
   42.4350   22.1410   -5.9220 C   0  0  0  0  0
   44.9940   24.0230   -6.5440 C   0  0  0  0  0
   44.4110   24.9840   -6.0520 O   0  0  0  0  0
   46.2610   22.0210   -6.5840 C   0  0  0  0  0
   45.8050   24.0810   -7.6110 N   0  0  0  0  0
   46.1700   25.2480   -8.3610 C   0  0  0  0  0
   45.8080   26.8350  -10.1640 C   0  0  0  0  0
   47.7180   27.0700   -8.7400 C   0  0  0  0  0
   47.3950   28.6930  -10.5560 C   0  0  0  0  0
   48.6020   29.3450  -10.2580 C   0  0  0  0  0
   46.6670   29.2080  -11.6370 C   0  0  0  0  0
   41.4699   22.3253   -4.1989 H   0  0  0  0  0
   42.9229   20.6109   -3.0532 H   0  0  0  0  0
   43.1266   20.0638   -4.7194 H   0  0  0  0  0
   43.5865   22.4902   -2.8869 H   0  0  0  0  0
   43.3122   23.8205   -4.1648 H   0  0  0  0  0
   45.2098   21.5070   -4.2177 H   0  0  0  0  0
   45.5864   23.2801   -4.1142 H   0  0  0  0  0
   45.8680   22.2509   -8.7303 H   0  0  0  0  0
   47.4093   22.8192   -8.2746 H   0  0  0  0  0
   44.5207   25.1658   -9.7301 H   0  0  0  0  0
   47.9364   25.5891   -7.1916 H   0  0  0  0  0
   46.5309   30.6960  -13.1872 H   0  0  0  0  0
   48.6641   31.8080  -12.5853 H   0  0  0  0  0
   50.0046   30.9255  -10.6839 H   0  0  0  0  0
   43.9683   20.7247   -6.3476 H   0  0  0  0  0
   43.6854   21.9754   -7.6387 H   0  0  0  0  0
   41.8713   18.2918   -6.2147 H   0  0  0  0  0
   42.2447   17.4545   -4.6880 H   0  0  0  0  0
   40.7626   17.0475   -5.5872 H   0  0  0  0  0
   38.7662   17.9682   -4.6168 H   0  0  0  0  0
   37.9838   20.0484   -3.2785 H   0  0  0  0  0
   42.2683   23.1979   -6.1302 H   0  0  0  0  0
   41.6901   21.4606   -6.3345 H   0  0  0  0  0
   46.2506   20.9359   -6.6870 H   0  0  0  0  0
   47.1156   22.1688   -5.9238 H   0  0  0  0  0
   45.1985   27.1664  -11.0047 H   0  0  0  0  0
   48.6293   27.5926   -8.4491 H   0  0  0  0  0
   49.2063   28.9657   -9.4339 H   0  0  0  0  0
   45.7279   28.7346  -11.9234 H   0  0  0  0  0
  3  1  4  0  0  0
  1 16  1  0  0  0
  1 17  4  0  0  0
  2  4  1  0  0  0
  5  2  1  0  0  0
 20  2  1  0  0  0
  4  3  1  0  0  0
  3 19  4  0  0  0
  6  5  1  0  0  0
  7  6  1  0  0  0
  7 15  1  0  0  0
 21  7  1  0  0  0
  7 23  1  0  0  0
  8 23  1  0  0  0
 24  8  1  0  0  0
  9 25  4  0  0  0
 26  9  4  0  0  0
 10 26  4  0  0  0
 10 27  4  0  0  0
 28 10  1  0  0  0
 11 25  4  0  0  0
 27 11  4  0  0  0
 13 12  4  0  0  0
 12 30  4  0  0  0
 14 13  4  0  0  0
 29 14  4  0  0  0
 15 20  1  0  0  0
 18 17  4  0  0  0
 19 18  4  0  0  0
 21 22  2  0  0  0
 24 21  1  0  0  0
 25 24  1  0  0  0
 28 29  4  0  0  0
 28 30  4  0  0  0
  2 31  1  0  0  0
  4 32  1  0  0  0
  4 33  1  0  0  0
  5 34  1  0  0  0
  5 35  1  0  0  0
  6 36  1  0  0  0
  6 37  1  0  0  0
  8 38  1  0  0  0
  8 39  1  0  0  0
  9 40  1  0  0  0
 11 41  1  0  0  0
 12 42  1  0  0  0
 13 43  1  0  0  0
 14 44  1  0  0  0
 15 45  1  0  0  0
 15 46  1  0  0  0
 16 47  1  0  0  0
 16 48  1  0  0  0
 16 49  1  0  0  0
 17 50  1  0  0  0
 18 51  1  0  0  0
 20 52  1  0  0  0
 20 53  1  0  0  0
 23 54  1  0  0  0
 23 55  1  0  0  0
 26 56  1  0  0  0
 27 57  1  0  0  0
 29 58  1  0  0  0
 30 59  1  0  0  0
M  END
$$$$
