### 
### Created by X-TOOL on Mon Sep 10 21:12:56 2018
### 

@<TRIPOS>MOLECULE
2p99_ligand
   23    24     1     0     0
SMALL
GAST_HUCK


@<TRIPOS>ATOM
      1 CLAP       -5.9060    1.2490    9.6940 Cl        1 YE6        -0.0703
      2 CAG        -5.7530   -0.0300    8.5380 C.ar      1 YE6         0.0495
      3 CAH        -6.9030   -0.4750    7.8930 C.ar      1 YE6        -0.0487
      4 CAI        -6.8310   -1.4580    6.9130 C.ar      1 YE6        -0.0627
      5 CAJ        -5.5970   -2.0030    6.5730 C.ar      1 YE6        -0.0625
      6 CAK        -4.4480   -1.5630    7.2180 C.ar      1 YE6        -0.0523
      7 CAF        -4.5180   -0.5790    8.2020 C.ar      1 YE6         0.0282
      8 CAD        -3.3290   -0.2080    8.8200 C.2       1 YE6         0.1292
      9 OAN        -2.1310   -0.4230    8.2010 O.3       1 YE6        -0.2424
     10 CAC        -3.1060    0.3830    9.9950 C.2       1 YE6        -0.0433
     11 CAB        -1.7960    0.5550   10.1500 C.2       1 YE6        -0.0365
     12 CAA        -1.1960    0.0690    9.0640 C.2       1 YE6         0.1939
     13 CAE         0.3080    0.0660    8.7880 C.2       1 YE6         0.2941
     14 OAO         0.7340    0.0070    7.6370 O.2       1 YE6        -0.3404
     15 NAL         1.0890    0.1210    9.8640 N.2       1 YE6        -0.0977
     16 NAM         2.3120    0.1260    9.7160 N.2       1 YE6        -0.1900
     17 H1         -7.8648   -0.0507    8.1576 H         1 YE6         0.0620
     18 H2         -7.7322   -1.7984    6.4159 H         1 YE6         0.0606
     19 H3         -5.5323   -2.7680    5.8077 H         1 YE6         0.0615
     20 H4         -3.4873   -1.9895    6.9531 H         1 YE6         0.0613
     21 H5         -3.8720    0.6769   10.7111 H         1 YE6         0.0414
     22 H6         -1.3036    1.0101   11.0081 H         1 YE6         0.0464
     23 H7          2.9170    0.1674   10.5212 H         1 YE6         0.2187
@<TRIPOS>BOND
     1    1    2 1  
     2    2    3 ar 
     3    2    7 ar 
     4    3    4 ar 
     5    4    5 ar 
     6    5    6 ar 
     7    6    7 ar 
     8    7    8 1  
     9    8    9 1  
    10    8   10 2  
    11    9   12 1  
    12   10   11 1  
    13   11   12 2  
    14   12   13 1  
    15   13   14 2  
    16   13   15 1  
    17   15   16 2  
    18    3   17 1  
    19    4   18 1  
    20    5   19 1  
    21    6   20 1  
    22   10   21 1  
    23   11   22 1  
    24   16   23 1  
@<TRIPOS>SUBSTRUCTURE
     1 YE6         1

