6g93_ligand
  -I-interpret- 

 41 44  0  0  0  0  0  0  0  0999 V2000
    9.1500    6.4730   45.1270 C   0  0  0  0  0
   10.4270    5.9830   44.9390 C   0  0  0  0  0
   11.3300    6.6210   44.1990 N   0  0  0  0  0
   10.9200    7.7880   43.6610 C   0  0  0  0  0
   11.6070    9.7510   42.3170 C   0  0  0  0  0
   12.9310   10.4820   42.1350 C   0  0  0  0  0
   10.8410   10.9010   40.2090 C   0  0  0  0  0
   10.8900    9.5900   40.9730 C   0  0  0  0  0
    8.7710    7.6770   44.5030 C   0  0  0  0  0
    7.4590    8.3830   44.5650 C   0  0  0  0  0
    7.4080    9.7540   44.2880 C   0  0  0  0  0
    3.6290   10.3120   44.7690 C   0  0  0  0  0
    3.6810    8.0150   45.2320 C   0  0  0  0  0
    5.0650    8.4430   44.9210 C   0  0  0  0  0
    6.2590    7.7310   44.8840 C   0  0  0  0  0
    8.0620    5.5650   46.1160 Cl  0  0  0  0  0
   11.8170    8.4580   42.9290 N   0  0  0  0  0
   12.7560   11.7350   41.2870 C   0  0  0  0  0
   12.1520   11.4300   40.0140 O   0  0  0  0  0
    9.6810    8.3130   43.7800 N   0  0  0  0  0
    6.2130   10.4530   44.3340 C   0  0  0  0  0
    5.0390    9.8000   44.6530 C   0  0  0  0  0
    2.8860    9.0760   44.9630 N   0  0  0  0  0
    3.2950    6.9260   45.6590 O   0  0  0  0  0
   10.7048    5.0415   45.4129 H   0  0  0  0  0
   10.9784   10.3488   42.9770 H   0  0  0  0  0
   13.6302    9.8152   41.6305 H   0  0  0  0  0
   13.3044   10.7752   43.1162 H   0  0  0  0  0
   10.2567   11.6190   40.7845 H   0  0  0  0  0
   10.3887   10.7202   39.2339 H   0  0  0  0  0
    9.8679    9.2627   41.1636 H   0  0  0  0  0
   11.4370    8.8615   40.3746 H   0  0  0  0  0
    8.3264   10.2819   44.0311 H   0  0  0  0  0
    3.3010   10.8867   43.9028 H   0  0  0  0  0
    3.4920   11.0341   45.5739 H   0  0  0  0  0
    6.2622    6.6633   45.1035 H   0  0  0  0  0
   12.7273    8.0190   42.7907 H   0  0  0  0  0
   13.7387   12.1711   41.1077 H   0  0  0  0  0
   12.1047   12.4262   41.8219 H   0  0  0  0  0
    6.1994   11.5213   44.1178 H   0  0  0  0  0
    1.8696    9.0157   44.9024 H   0  0  0  0  0
  1  2  4  0  0  0
  9  1  4  0  0  0
  1 16  1  0  0  0
  2  3  4  0  0  0
  4  3  4  0  0  0
  4 17  1  0  0  0
 20  4  4  0  0  0
  5  6  1  0  0  0
  5  8  1  0  0  0
 17  5  1  0  0  0
  6 18  1  0  0  0
  8  7  1  0  0  0
  7 19  1  0  0  0
 10  9  1  0  0  0
  9 20  4  0  0  0
 10 11  4  0  0  0
 15 10  4  0  0  0
 11 21  4  0  0  0
 12 22  1  0  0  0
 23 12  1  0  0  0
 14 13  1  0  0  0
 13 23  1  0  0  0
 13 24  2  0  0  0
 14 15  4  0  0  0
 14 22  4  0  0  0
 18 19  1  0  0  0
 21 22  4  0  0  0
  2 25  1  0  0  0
  5 26  1  0  0  0
  6 27  1  0  0  0
  6 28  1  0  0  0
  7 29  1  0  0  0
  7 30  1  0  0  0
  8 31  1  0  0  0
  8 32  1  0  0  0
 11 33  1  0  0  0
 12 34  1  0  0  0
 12 35  1  0  0  0
 15 36  1  0  0  0
 17 37  1  0  0  0
 18 38  1  0  0  0
 18 39  1  0  0  0
 21 40  1  0  0  0
 23 41  1  0  0  0
M  END
$$$$
