5htb_ligand
  -I-interpret- 

 63 65  0  0  0  0  0  0  0  0999 V2000
   31.0550   32.4380    5.5230 N   0  0  0  0  0
   32.4520   30.3800    6.8740 C   0  0  0  0  0
   29.7360   32.5100    7.5580 N   0  0  0  0  0
   29.8180   31.7860    8.7170 C   0  0  0  0  0
   28.8110   33.6080    7.2300 C   0  0  0  0  0
   27.5930   33.2000    6.3940 C   0  0  0  0  0
   26.8930   33.8870    8.5500 C   0  0  0  0  0
   26.4100   33.9070   13.1050 C   0  0  0  0  0
   25.9880   33.3050   14.4290 C   0  0  0  0  0
   26.5100   33.0160   16.8920 C   0  0  0  0  0
   25.0400   32.9870   17.2430 C   0  0  0  0  0
   23.0330   31.6060   17.4120 C   0  0  0  0  0
   22.7130   30.1190   17.2910 C   0  0  0  0  0
   21.4250   29.6530   17.9000 C   0  0  0  0  0
   26.6160   32.8000    7.4940 C   0  0  0  0  0
   33.1110   29.3650    7.4300 N   0  0  0  0  0
   26.5970   33.3800    9.9450 C   0  0  0  0  0
   25.3730   33.6780   12.0190 C   0  0  0  0  0
   26.7680   33.8390   15.6310 C   0  0  0  0  0
   30.7700   30.8900    8.7240 N   0  0  0  0  0
   24.4570   33.9930   17.6350 O   0  0  0  0  0
   25.8110   34.1340   10.7090 N   0  0  0  0  0
   27.1110   32.3410   10.3470 O   0  0  0  0  0
   28.2970   34.1830    8.4260 O   0  0  0  0  0
   25.2510   32.7840    7.0560 O   0  0  0  0  0
   27.1200   34.3110    5.6390 O   0  0  0  0  0
   31.3650   31.0330    7.4830 C   0  0  0  0  0
   30.7390   32.0310    6.7530 C   0  0  0  0  0
   32.0990   31.7470    5.0480 C   0  0  0  0  0
   32.8060   30.7760    5.6440 N   0  0  0  0  0
   24.4170   31.8270   17.0400 N   0  0  0  0  0
   22.0920   32.4580   16.5630 C   0  0  0  0  0
   21.0720   33.0410   17.1910 N   0  0  0  0  0
   22.3160   32.6090   15.3630 O   0  0  0  0  0
   20.9170   30.2390   18.8610 O   0  0  0  0  0
   29.1471   31.9431    9.5616 H   0  0  0  0  0
   29.4121   34.3002    6.6404 H   0  0  0  0  0
   27.7711   32.4164    5.6576 H   0  0  0  0  0
   26.2640   34.7631    8.3925 H   0  0  0  0  0
   27.3395   33.4297   12.7946 H   0  0  0  0  0
   26.5284   34.9819   13.2418 H   0  0  0  0  0
   26.1761   32.2329   14.3716 H   0  0  0  0  0
   24.9402   33.5632   14.5826 H   0  0  0  0  0
   26.8422   31.9937   16.7112 H   0  0  0  0  0
   27.0537   33.4720   17.7193 H   0  0  0  0  0
   22.8838   31.9127   18.4473 H   0  0  0  0  0
   23.5045   29.5978   17.8295 H   0  0  0  0  0
   22.6295   29.9168   16.2232 H   0  0  0  0  0
   20.9257   28.7773   17.4853 H   0  0  0  0  0
   26.7559   31.7819    7.8574 H   0  0  0  0  0
   32.8345   29.0198    8.3491 H   0  0  0  0  0
   33.8922   28.9329    6.9367 H   0  0  0  0  0
   24.4813   34.2449   12.2867 H   0  0  0  0  0
   25.1923   32.6051   11.9536 H   0  0  0  0  0
   26.4444   34.8626   15.8199 H   0  0  0  0  0
   27.8316   33.7832   15.3992 H   0  0  0  0  0
   25.5102   35.0479   10.3702 H   0  0  0  0  0
   25.1342   32.0914    6.4016 H   0  0  0  0  0
   27.7612   34.5308    4.9592 H   0  0  0  0  0
   32.4176   32.0097    4.0392 H   0  0  0  0  0
   24.9347   31.0632   16.6052 H   0  0  0  0  0
   20.4331   33.6453   16.6742 H   0  0  0  0  0
   20.9299   32.8831   18.1886 H   0  0  0  0  0
 28  1  4  0  0  0
  1 29  4  0  0  0
  2 16  1  0  0  0
 27  2  4  0  0  0
  2 30  4  0  0  0
  4  3  4  0  0  0
  3  5  1  0  0  0
  3 28  4  0  0  0
 20  4  4  0  0  0
  5  6  1  0  0  0
  5 24  1  0  0  0
  6 15  1  0  0  0
  6 26  1  0  0  0
  7 15  1  0  0  0
  7 17  1  0  0  0
 24  7  1  0  0  0
  8  9  1  0  0  0
 18  8  1  0  0  0
  9 19  1  0  0  0
 10 11  1  0  0  0
 19 10  1  0  0  0
 11 21  2  0  0  0
 11 31  1  0  0  0
 12 13  1  0  0  0
 31 12  1  0  0  0
 12 32  1  0  0  0
 13 14  1  0  0  0
 14 35  2  0  0  0
 15 25  1  0  0  0
 17 22  1  0  0  0
 17 23  2  0  0  0
 22 18  1  0  0  0
 20 27  4  0  0  0
 27 28  4  0  0  0
 29 30  4  0  0  0
 32 33  1  0  0  0
 32 34  2  0  0  0
  4 36  1  0  0  0
  5 37  1  0  0  0
  6 38  1  0  0  0
  7 39  1  0  0  0
  8 40  1  0  0  0
  8 41  1  0  0  0
  9 42  1  0  0  0
  9 43  1  0  0  0
 10 44  1  0  0  0
 10 45  1  0  0  0
 12 46  1  0  0  0
 13 47  1  0  0  0
 13 48  1  0  0  0
 14 49  1  0  0  0
 15 50  1  0  0  0
 16 51  1  0  0  0
 16 52  1  0  0  0
 18 53  1  0  0  0
 18 54  1  0  0  0
 19 55  1  0  0  0
 19 56  1  0  0  0
 22 57  1  0  0  0
 25 58  1  0  0  0
 26 59  1  0  0  0
 29 60  1  0  0  0
 31 61  1  0  0  0
 33 62  1  0  0  0
 33 63  1  0  0  0
M  END
$$$$
