3qdd_ligand
  -I-interpret- 

 37 39  0  0  0  0  0  0  0  0999 V2000
    1.5940   34.8750   25.7580 N   0  0  0  0  0
    1.3230   34.2990   24.6010 C   0  0  0  0  0
    2.3430   33.8000   23.9490 N   0  0  0  0  0
    0.0960   34.2200   24.0790 N   0  0  0  0  0
   -0.9480   34.7420   24.7590 C   0  0  0  0  0
   -0.7210   35.3390   26.0190 C   0  0  0  0  0
    0.5780   35.3890   26.4700 C   0  0  0  0  0
    0.9770   36.1350   28.0080 Cl  0  0  0  0  0
   -1.9240   35.8120   26.4480 N   0  0  0  0  0
   -2.8620   35.4420   25.5740 C   0  0  0  0  0
   -2.2570   34.8210   24.5490 N   0  0  0  0  0
   -4.5440   29.4950   26.3880 C   0  0  0  0  0
   -7.1600   30.5510   24.7860 C   0  0  0  0  0
   -2.2590   31.3860   24.3800 C   0  0  0  0  0
   -6.2670   32.7750   23.9830 C   0  0  0  0  0
   -2.9480   34.2740   23.3670 C   0  0  0  0  0
   -5.2630   33.6260   23.6720 N   0  0  0  0  0
   -4.4450   29.7890   25.0020 O   0  0  0  0  0
   -6.0190   31.4930   24.4680 C   0  0  0  0  0
   -3.6860   31.9250   24.2390 C   0  0  0  0  0
   -3.9870   33.2430   23.7850 C   0  0  0  0  0
   -4.7130   31.0540   24.5460 C   0  0  0  0  0
    3.2821   33.8692   24.3410 H   0  0  0  0  0
    2.1985   33.3421   23.0491 H   0  0  0  0  0
   -3.9336   35.6141   25.6748 H   0  0  0  0  0
   -3.8503   30.1269   26.9426 H   0  0  0  0  0
   -5.5621   29.6864   26.7269 H   0  0  0  0  0
   -4.2953   28.4469   26.5544 H   0  0  0  0  0
   -7.7946   30.9966   25.5521 H   0  0  0  0  0
   -7.7462   30.3749   23.8841 H   0  0  0  0  0
   -6.7581   29.6055   25.1501 H   0  0  0  0  0
   -1.7643   31.4128   23.4091 H   0  0  0  0  0
   -1.7068   32.0042   25.0878 H   0  0  0  0  0
   -2.2942   30.3588   24.7431 H   0  0  0  0  0
   -7.2986   33.1012   23.8505 H   0  0  0  0  0
   -2.2145   33.7943   22.7190 H   0  0  0  0  0
   -3.4484   35.0876   22.8418 H   0  0  0  0  0
  2  1  4  0  0  0
  7  1  4  0  0  0
  2  3  1  0  0  0
  4  2  4  0  0  0
  5  4  4  0  0  0
  5  6  4  0  0  0
 11  5  4  0  0  0
  6  7  4  0  0  0
  9  6  4  0  0  0
  7  8  1  0  0  0
 10  9  4  0  0  0
 11 10  4  0  0  0
 16 11  1  0  0  0
 18 12  1  0  0  0
 19 13  1  0  0  0
 20 14  1  0  0  0
 17 15  4  0  0  0
 15 19  4  0  0  0
 21 16  1  0  0  0
 21 17  4  0  0  0
 22 18  1  0  0  0
 19 22  4  0  0  0
 20 21  4  0  0  0
 20 22  4  0  0  0
  3 23  1  0  0  0
  3 24  1  0  0  0
 10 25  1  0  0  0
 12 26  1  0  0  0
 12 27  1  0  0  0
 12 28  1  0  0  0
 13 29  1  0  0  0
 13 30  1  0  0  0
 13 31  1  0  0  0
 14 32  1  0  0  0
 14 33  1  0  0  0
 14 34  1  0  0  0
 15 35  1  0  0  0
 16 36  1  0  0  0
 16 37  1  0  0  0
M  END
$$$$
