1w84_ligand
  -I-interpret- 

 30 32  0  0  0  0  0  0  0  0999 V2000
    4.2610   12.2020   29.5010 C   0  0  0  0  0
    2.9350   12.9270   29.3820 C   0  0  0  0  0
    1.9570   12.5880   30.5180 C   0  0  0  0  0
    1.5400   11.1380   30.4810 C   0  0  0  0  0
    2.0360   10.2480   31.4190 C   0  0  0  0  0
    1.6560    8.9190   31.3680 C   0  0  0  0  0
    0.8230    8.4650   30.4420 N   0  0  0  0  0
    0.3280    9.2890   29.5300 C   0  0  0  0  0
    0.6680   10.6400   29.5150 C   0  0  0  0  0
    4.6930   11.2060   28.7080 C   0  0  0  0  0
    5.5180   13.3360   31.5440 C   0  0  0  0  0
    5.3430   12.4500   30.4720 C   0  0  0  0  0
    6.3790   11.5270   30.1670 C   0  0  0  0  0
    7.5610   11.4980   30.9170 C   0  0  0  0  0
    7.7030   12.3920   31.9710 C   0  0  0  0  0
    5.9510   10.8040   29.0960 N   0  0  0  0  0
    6.6830   13.3030   32.2750 C   0  0  0  0  0
    2.4725   12.6188   28.4444 H   0  0  0  0  0
    3.1377   13.9970   29.4284 H   0  0  0  0  0
    1.0661   13.2048   30.3999 H   0  0  0  0  0
    2.4554   12.7780   31.4686 H   0  0  0  0  0
    2.7218   10.5928   32.1929 H   0  0  0  0  0
    2.0525    8.2257   32.1098 H   0  0  0  0  0
   -0.3586    8.9023   28.7769 H   0  0  0  0  0
    0.2552   11.3020   28.7538 H   0  0  0  0  0
    4.1292   10.7790   27.8786 H   0  0  0  0  0
    4.7335   14.0489   31.7977 H   0  0  0  0  0
    8.3535   10.7886   30.6788 H   0  0  0  0  0
    8.6159   12.3845   32.5665 H   0  0  0  0  0
    6.8147   13.9974   33.1048 H   0  0  0  0  0
  1  2  1  0  0  0
  1 10  4  0  0  0
  1 12  4  0  0  0
  2  3  1  0  0  0
  3  4  1  0  0  0
  4  5  4  0  0  0
  4  9  4  0  0  0
  5  6  4  0  0  0
  6  7  4  0  0  0
  7  8  4  0  0  0
  8  9  4  0  0  0
 10 16  4  0  0  0
 12 11  4  0  0  0
 11 17  4  0  0  0
 12 13  4  0  0  0
 13 14  4  0  0  0
 13 16  4  0  0  0
 14 15  4  0  0  0
 15 17  4  0  0  0
  2 18  1  0  0  0
  2 19  1  0  0  0
  3 20  1  0  0  0
  3 21  1  0  0  0
  5 22  1  0  0  0
  6 23  1  0  0  0
  8 24  1  0  0  0
  9 25  1  0  0  0
 10 26  1  0  0  0
 11 27  1  0  0  0
 14 28  1  0  0  0
 15 29  1  0  0  0
 17 30  1  0  0  0
M  END
$$$$
