5kpk_ligand
  -I-interpret- 

 50 54  0  0  0  0  0  0  0  0999 V2000
   15.6280   -2.0070    0.4960 O   0  0  0  0  0
   15.5400   -2.3010   -0.6880 C   0  0  0  0  0
   14.6340   -3.3890   -1.1300 C   0  0  0  0  0
   14.6570   -3.7680   -2.4390 C   0  0  0  0  0
   15.5220   -3.0490   -3.4480 C   0  0  0  0  0
   15.8390   -1.5900   -3.0970 C   0  0  0  0  0
   14.5970   -0.7250   -3.0830 C   0  0  0  0  0
   16.8330   -1.0710   -4.1430 C   0  0  0  0  0
   16.4480   -1.6070   -1.6960 C   0  0  0  0  0
   13.7770   -4.0630   -0.0800 C   0  0  0  0  0
   14.6070   -4.8300    0.9390 C   0  0  0  0  0
   12.7810   -3.1200    0.5600 C   0  0  0  0  0
   12.6400   -2.9390    1.9590 C   0  0  0  0  0
   11.6380   -2.0960    2.4480 C   0  0  0  0  0
   10.7920   -1.4250    1.5980 C   0  0  0  0  0
   10.9220   -1.6130    0.2070 C   0  0  0  0  0
   11.9040   -2.4510   -0.3020 C   0  0  0  0  0
   13.0170   -5.1290   -0.7610 C   0  0  0  0  0
   12.0450   -6.1090   -0.2540 C   0  0  0  0  0
   11.4680   -6.2200    1.1030 C   0  0  0  0  0
   11.6230   -7.4080    2.0100 C   0  0  0  0  0
   10.3070   -7.1780    1.2550 C   0  0  0  0  0
   11.6250   -6.9330   -1.3580 N   0  0  0  0  0
   12.3150   -6.5280   -2.5320 N   0  0  0  0  0
   13.1030   -5.5190   -2.1520 C   0  0  0  0  0
   13.9720   -4.8090   -3.0220 N   0  0  0  0  0
   14.9695   -3.0363   -4.3875 H   0  0  0  0  0
   16.4732   -3.5799   -3.4858 H   0  0  0  0  0
   14.8727    0.3004   -2.8367 H   0  0  0  0  0
   14.1272   -0.7501   -4.0663 H   0  0  0  0  0
   13.8998   -1.1046   -2.3360 H   0  0  0  0  0
   16.3680   -1.0968   -5.1285 H   0  0  0  0  0
   17.1134   -0.0464   -3.8989 H   0  0  0  0  0
   17.7216   -1.7022   -4.1425 H   0  0  0  0  0
   17.3897   -2.1541   -1.7400 H   0  0  0  0  0
   16.5903   -0.5756   -1.3734 H   0  0  0  0  0
   15.1653   -4.1253    1.5553 H   0  0  0  0  0
   13.9464   -5.4234    1.5711 H   0  0  0  0  0
   15.3018   -5.4887    0.4179 H   0  0  0  0  0
   13.3086   -3.4539    2.6489 H   0  0  0  0  0
   11.5255   -1.9683    3.5246 H   0  0  0  0  0
   10.0292   -0.7551    1.9948 H   0  0  0  0  0
   10.2459   -1.0961   -0.4741 H   0  0  0  0  0
   11.9930   -2.5892   -1.3795 H   0  0  0  0  0
   11.6825   -5.1645    1.2702 H   0  0  0  0  0
   11.9590   -7.6271    3.0235 H   0  0  0  0  0
   12.3342   -8.2140    2.1907 H   0  0  0  0  0
    9.6071   -7.7319    0.6294 H   0  0  0  0  0
    9.2356   -7.1509    1.4539 H   0  0  0  0  0
   14.0804   -5.0528   -4.0065 H   0  0  0  0  0
  1  2  2  0  0  0
  2  3  1  0  0  0
  2  9  1  0  0  0
  3  4  2  0  0  0
  3 10  1  0  0  0
  4  5  1  0  0  0
  4 26  1  0  0  0
  5  6  1  0  0  0
  6  7  1  0  0  0
  6  8  1  0  0  0
  6  9  1  0  0  0
 10 11  1  0  0  0
 10 12  1  0  0  0
 10 18  1  0  0  0
 12 13  4  0  0  0
 12 17  4  0  0  0
 13 14  4  0  0  0
 14 15  4  0  0  0
 15 16  4  0  0  0
 16 17  4  0  0  0
 18 19  4  0  0  0
 18 25  4  0  0  0
 19 20  1  0  0  0
 19 23  4  0  0  0
 20 21  1  0  0  0
 20 22  1  0  0  0
 21 22  1  0  0  0
 23 24  4  0  0  0
 24 25  4  0  0  0
 25 26  1  0  0  0
  5 27  1  0  0  0
  5 28  1  0  0  0
  7 29  1  0  0  0
  7 30  1  0  0  0
  7 31  1  0  0  0
  8 32  1  0  0  0
  8 33  1  0  0  0
  8 34  1  0  0  0
  9 35  1  0  0  0
  9 36  1  0  0  0
 11 37  1  0  0  0
 11 38  1  0  0  0
 11 39  1  0  0  0
 13 40  1  0  0  0
 14 41  1  0  0  0
 15 42  1  0  0  0
 16 43  1  0  0  0
 17 44  1  0  0  0
 20 45  1  0  0  0
 21 46  1  0  0  0
 21 47  1  0  0  0
 22 48  1  0  0  0
 22 49  1  0  0  0
 26 50  1  0  0  0
M  END
$$$$
