2h02_ligand
  -I-interpret- 

 49 50  0  0  0  0  0  0  0  0999 V2000
    6.7400    3.9860   41.0050 O   0  0  0  0  0
    7.3110    5.2190   40.4260 S   0  0  0  0  0
    8.7890    5.1150   40.5320 O   0  0  0  0  0
    6.9480    5.4930   39.0100 O   0  0  0  0  0
    6.8510    6.4710   41.3370 N   0  0  0  0  0
    5.5700    6.9030   41.3300 C   0  0  0  0  0
    5.1540    7.9000   40.4370 C   0  0  0  0  0
    4.6670    6.3030   42.2090 C   0  0  0  0  0
    3.3370    6.6980   42.2430 C   0  0  0  0  0
    2.9020    7.6830   41.3620 C   0  0  0  0  0
    3.8100    8.2740   40.4690 C   0  0  0  0  0
    1.4360    8.0830   41.4390 C   0  0  0  0  0
    1.1200    9.3290   42.2860 C   0  0  0  0  0
   -0.3830    9.6270   42.3600 C   0  0  0  0  0
   -0.8410   10.7570   42.2220 O   0  0  0  0  0
   -1.3900    8.6100   42.6200 O   0  0  0  0  0
   -2.8050    8.7370   42.8280 C   0  0  0  0  0
    1.8040   10.4760   41.5650 C   0  0  0  0  0
    1.3290   10.9060   40.2510 O   0  0  0  0  0
    2.0020   11.8520   39.4170 C   0  0  0  0  0
    2.7580   11.0580   42.0540 O   0  0  0  0  0
    1.7070    9.1150   43.6860 C   0  0  0  0  0
    1.0280    9.8910   44.7960 C   0  0  0  0  0
    1.5960   11.0850   45.2580 C   0  0  0  0  0
    1.0050   11.8370   46.2730 C   0  0  0  0  0
   -0.1910   11.3670   46.8070 C   0  0  0  0  0
   -0.7800   10.1840   46.3480 C   0  0  0  0  0
   -0.1670    9.4310   45.3480 C   0  0  0  0  0
    7.3645    6.3101   38.7264 H   0  0  0  0  0
    7.5371    6.9426   41.9262 H   0  0  0  0  0
    5.8541    8.3658   39.7435 H   0  0  0  0  0
    5.0109    5.5138   42.8776 H   0  0  0  0  0
    2.6431    6.2430   42.9498 H   0  0  0  0  0
    3.4563    9.0442   39.7836 H   0  0  0  0  0
    0.9161    7.2506   41.9133 H   0  0  0  0  0
    1.1294    8.3197   40.4201 H   0  0  0  0  0
   -2.9879    9.3670   43.6985 H   0  0  0  0  0
   -3.2611    9.1900   41.9477 H   0  0  0  0  0
   -3.2364    7.7501   42.9951 H   0  0  0  0  0
    2.0842   12.8036   39.9421 H   0  0  0  0  0
    2.9984   11.4800   39.1785 H   0  0  0  0  0
    1.4348   11.9912   38.4967 H   0  0  0  0  0
    2.7398    9.4615   43.6485 H   0  0  0  0  0
    1.5801    8.0581   43.9203 H   0  0  0  0  0
    2.5262   11.4364   44.8116 H   0  0  0  0  0
    1.4626   12.7580   46.6343 H   0  0  0  0  0
   -0.6795   11.9329   47.6002 H   0  0  0  0  0
   -1.7250    9.8487   46.7754 H   0  0  0  0  0
   -0.6141    8.4986   45.0034 H   0  0  0  0  0
  1  2  2  0  0  0
  2  3  2  0  0  0
  2  4  1  0  0  0
  2  5  1  0  0  0
  5  6  1  0  0  0
  6  7  4  0  0  0
  6  8  4  0  0  0
  7 11  4  0  0  0
  8  9  4  0  0  0
  9 10  4  0  0  0
 10 11  4  0  0  0
 10 12  1  0  0  0
 12 13  1  0  0  0
 13 14  1  0  0  0
 13 18  1  0  0  0
 13 22  1  0  0  0
 14 15  2  0  0  0
 14 16  1  0  0  0
 16 17  1  0  0  0
 18 19  1  0  0  0
 18 21  2  0  0  0
 19 20  1  0  0  0
 22 23  1  0  0  0
 23 24  4  0  0  0
 23 28  4  0  0  0
 24 25  4  0  0  0
 25 26  4  0  0  0
 26 27  4  0  0  0
 27 28  4  0  0  0
  4 29  1  0  0  0
  5 30  1  0  0  0
  7 31  1  0  0  0
  8 32  1  0  0  0
  9 33  1  0  0  0
 11 34  1  0  0  0
 12 35  1  0  0  0
 12 36  1  0  0  0
 17 37  1  0  0  0
 17 38  1  0  0  0
 17 39  1  0  0  0
 20 40  1  0  0  0
 20 41  1  0  0  0
 20 42  1  0  0  0
 22 43  1  0  0  0
 22 44  1  0  0  0
 24 45  1  0  0  0
 25 46  1  0  0  0
 26 47  1  0  0  0
 27 48  1  0  0  0
 28 49  1  0  0  0
M  END
$$$$
