3uvq_ligand
  -I-interpret- 

 66 70  0  0  0  0  0  0  0  0999 V2000
   -0.5410   -1.8270  -15.4310 O   0  0  0  0  0
   -2.2270    4.3980  -23.0010 O   0  0  0  0  0
   -5.7270    6.8740  -29.5600 O   0  0  0  0  0
   -4.9810    4.7820  -30.9480 O   0  0  0  0  0
   -4.9910   -1.4070  -14.9830 F   0  0  0  0  0
    0.0610   -5.3060  -11.9570 C   0  0  0  0  0
   -0.5840   -5.8000  -13.0830 C   0  0  0  0  0
    0.2400   -3.9110  -11.8150 C   0  0  0  0  0
   -4.4160   -0.3360  -18.3180 C   0  0  0  0  0
   -2.8780    1.4230  -20.2900 C   0  0  0  0  0
   -1.0320   -4.8950  -14.0680 C   0  0  0  0  0
   -0.2180   -3.0280  -12.7860 C   0  0  0  0  0
   -5.0340   -0.5200  -17.0700 C   0  0  0  0  0
   -1.8500    2.7510  -27.5020 C   0  0  0  0  0
   -0.9480    2.0030  -26.7330 C   0  0  0  0  0
   -2.6890    2.4000  -21.2750 C   0  0  0  0  0
   -1.7380   -0.1400  -21.7580 C   0  0  0  0  0
   -2.5810   -1.7380  -17.5310 C   0  0  0  0  0
   -2.7780    3.7670  -25.5060 C   0  0  0  0  0
   -5.6090    5.6990  -28.7450 C   0  0  0  0  0
   -0.0430    1.3510  -24.6910 C   0  0  0  0  0
   -0.8610    0.2970  -23.8840 C   0  0  0  0  0
   -3.7700    3.9800  -29.0090 C   0  0  0  0  0
   -2.6580   -2.6820  -15.2860 N   0  0  0  0  0
   -2.4950   -0.8820  -19.6980 N   0  0  0  0  0
   -3.6470    4.3630  -27.6270 O   0  0  0  0  0
   -1.3470   -2.6130  -14.9310 C   0  0  0  0  0
   -2.0040    3.2510  -23.3830 C   0  0  0  0  0
   -2.3950    0.1440  -20.5410 C   0  0  0  0  0
   -3.1770   -0.9460  -18.5390 C   0  0  0  0  0
   -4.4270   -1.3000  -16.0610 C   0  0  0  0  0
   -2.7580    3.6210  -26.8930 C   0  0  0  0  0
   -0.8950   -3.5040  -13.9190 C   0  0  0  0  0
   -0.9580    2.1650  -25.3510 C   0  0  0  0  0
   -1.5390    0.8420  -22.7440 C   0  0  0  0  0
   -3.1900   -1.9100  -16.2760 C   0  0  0  0  0
   -2.0270    2.1410  -22.4950 C   0  0  0  0  0
   -1.8550    3.0460  -24.7450 C   0  0  0  0  0
   -5.1140    4.4740  -29.5510 C   0  0  0  0  0
   -6.0357    7.6061  -29.0212 H   0  0  0  0  0
   -4.6732    4.0037  -31.4182 H   0  0  0  0  0
    0.4262   -5.9880  -11.1891 H   0  0  0  0  0
   -0.7419   -6.8717  -13.2041 H   0  0  0  0  0
    0.7448   -3.5219  -10.9308 H   0  0  0  0  0
   -4.8895    0.2661  -19.0935 H   0  0  0  0  0
   -3.3879    1.6580  -19.3557 H   0  0  0  0  0
   -1.4986   -5.2862  -14.9721 H   0  0  0  0  0
   -0.0499   -1.9577  -12.6663 H   0  0  0  0  0
   -5.9994   -0.0524  -16.8768 H   0  0  0  0  0
   -1.8430    2.6529  -28.5876 H   0  0  0  0  0
   -0.2537    1.3094  -27.2073 H   0  0  0  0  0
   -3.0697    3.4048  -21.0919 H   0  0  0  0  0
   -1.3740   -1.1514  -21.9385 H   0  0  0  0  0
   -1.6274   -2.2264  -17.7317 H   0  0  0  0  0
   -3.4984    4.4295  -25.0263 H   0  0  0  0  0
   -6.5951    5.4646  -28.3441 H   0  0  0  0  0
   -4.8819    5.9036  -27.9592 H   0  0  0  0  0
    0.6178    0.8592  -25.4049 H   0  0  0  0  0
    0.5850    1.9418  -24.0241 H   0  0  0  0  0
   -0.1572   -0.4504  -23.5177 H   0  0  0  0  0
   -1.6212   -0.1067  -24.5527 H   0  0  0  0  0
   -3.7183    2.8945  -29.0936 H   0  0  0  0  0
   -2.9580    4.4237  -29.5851 H   0  0  0  0  0
   -3.2662   -3.3359  -14.7931 H   0  0  0  0  0
   -1.9904   -1.7274  -19.9645 H   0  0  0  0  0
   -5.8617    3.6888  -29.4389 H   0  0  0  0  0
 27  1  2  0  0  0
 28  2  2  0  0  0
 20  3  1  0  0  0
 39  4  1  0  0  0
 31  5  1  0  0  0
  7  6  4  0  0  0
  8  6  4  0  0  0
 11  7  4  0  0  0
 12  8  4  0  0  0
  9 13  4  0  0  0
 30  9  4  0  0  0
 16 10  4  0  0  0
 10 29  4  0  0  0
 33 11  4  0  0  0
 33 12  4  0  0  0
 13 31  4  0  0  0
 15 14  4  0  0  0
 14 32  4  0  0  0
 34 15  4  0  0  0
 37 16  4  0  0  0
 29 17  4  0  0  0
 17 35  4  0  0  0
 30 18  4  0  0  0
 18 36  4  0  0  0
 32 19  4  0  0  0
 19 38  4  0  0  0
 39 20  1  0  0  0
 22 21  1  0  0  0
 21 34  1  0  0  0
 35 22  1  0  0  0
 26 23  1  0  0  0
 23 39  1  0  0  0
 24 27  1  0  0  0
 36 24  1  0  0  0
 29 25  1  0  0  0
 25 30  1  0  0  0
 32 26  1  0  0  0
 27 33  1  0  0  0
 28 37  1  0  0  0
 28 38  1  0  0  0
 31 36  4  0  0  0
 34 38  4  0  0  0
 35 37  4  0  0  0
  3 40  1  0  0  0
  4 41  1  0  0  0
  6 42  1  0  0  0
  7 43  1  0  0  0
  8 44  1  0  0  0
  9 45  1  0  0  0
 10 46  1  0  0  0
 11 47  1  0  0  0
 12 48  1  0  0  0
 13 49  1  0  0  0
 14 50  1  0  0  0
 15 51  1  0  0  0
 16 52  1  0  0  0
 17 53  1  0  0  0
 18 54  1  0  0  0
 19 55  1  0  0  0
 20 56  1  0  0  0
 20 57  1  0  0  0
 21 58  1  0  0  0
 21 59  1  0  0  0
 22 60  1  0  0  0
 22 61  1  0  0  0
 23 62  1  0  0  0
 23 63  1  0  0  0
 24 64  1  0  0  0
 25 65  1  0  0  0
 39 66  1  0  0  0
M  END
$$$$
