4yoi_ligand
  -I-interpret- 

 52 56  0  0  0  0  0  0  0  0999 V2000
   -6.0130  -23.9520   26.9780 C   0  0  0  0  0
   -7.3670  -21.4030   29.1080 O   0  0  0  0  0
   -7.3060  -22.2460   28.2430 C   0  0  0  0  0
   -6.0780  -22.9310   28.0110 N   0  0  0  0  0
   -4.8940  -22.6400   28.8070 C   0  0  0  0  0
   -3.7190  -22.4810   27.8280 C   0  0  0  0  0
   -2.7390  -23.4940   27.5160 C   0  0  0  0  0
   -1.6830  -22.9370   26.4070 S   0  0  0  0  0
   -2.2710  -21.4500   26.1720 C   0  0  0  0  0
   -3.4390  -21.2260   26.9930 C   0  0  0  0  0
   -5.7520  -23.6350   25.6420 C   0  0  0  0  0
   -5.6790  -24.6680   24.6870 C   0  0  0  0  0
   -5.8990  -25.9930   25.0860 C   0  0  0  0  0
   -5.7880  -27.0660   24.1220 N   0  0  0  0  0
   -6.5120  -28.3050   24.1620 C   0  0  0  0  0
   -6.1710  -29.3090   23.0530 C   0  0  0  0  0
   -4.9280  -29.3190   22.3260 C   0  0  0  0  0
   -4.9510  -30.4720   21.3120 C   0  0  0  0  0
   -6.2040  -31.1740   21.4190 C   0  0  0  0  0
   -7.1310  -30.5000   22.5640 S   0  0  0  0  0
   -7.3500  -28.5730   24.9960 O   0  0  0  0  0
   -6.1380  -26.3000   26.4250 C   0  0  0  0  0
   -6.2040  -25.2700   27.3730 C   0  0  0  0  0
   -8.4870  -22.6030   27.3650 C   0  0  0  0  0
   -9.6740  -21.9350   27.7870 N   0  0  0  0  0
  -10.6340  -22.5150   28.5910 C   0  0  0  0  0
  -10.7320  -23.7930   29.2010 C   0  0  0  0  0
  -11.8540  -24.1080   29.9800 C   0  0  0  0  0
  -12.8670  -23.1510   30.1650 C   0  0  0  0  0
  -12.7620  -21.8900   29.5630 C   0  0  0  0  0
  -11.6310  -21.5730   28.7660 C   0  0  0  0  0
  -11.2270  -20.4420   28.0510 N   0  0  0  0  0
  -10.0440  -20.6880   27.4670 N   0  0  0  0  0
   -4.6987  -23.4455   29.5149 H   0  0  0  0  0
   -5.0359  -21.7294   29.3890 H   0  0  0  0  0
   -2.7096  -24.4895   27.9590 H   0  0  0  0  0
   -1.8448  -20.7163   25.4878 H   0  0  0  0  0
   -4.0281  -20.3092   27.0151 H   0  0  0  0  0
   -5.6062  -22.5974   25.3416 H   0  0  0  0  0
   -5.4531  -24.4383   23.6457 H   0  0  0  0  0
   -5.1391  -26.9305   23.3468 H   0  0  0  0  0
   -4.1038  -28.6208   22.4719 H   0  0  0  0  0
   -4.1459  -30.7200   20.6203 H   0  0  0  0  0
   -6.4882  -32.0361   20.8155 H   0  0  0  0  0
   -6.2729  -27.3368   26.7331 H   0  0  0  0  0
   -6.4049  -25.5027   28.4187 H   0  0  0  0  0
   -8.6539  -23.6781   27.4318 H   0  0  0  0  0
   -8.2628  -22.2955   26.3436 H   0  0  0  0  0
   -9.9377  -24.5268   29.0642 H   0  0  0  0  0
  -11.9407  -25.0920   30.4409 H   0  0  0  0  0
  -13.7359  -23.3904   30.7780 H   0  0  0  0  0
  -13.5503  -21.1511   29.7070 H   0  0  0  0  0
  4  1  1  0  0  0
  1 11  4  0  0  0
  1 23  4  0  0  0
  3  2  2  0  0  0
  3  4  1  0  0  0
  3 24  1  0  0  0
  4  5  1  0  0  0
  5  6  1  0  0  0
  6  7  4  0  0  0
  6 10  4  0  0  0
  7  8  4  0  0  0
  8  9  4  0  0  0
  9 10  4  0  0  0
 11 12  4  0  0  0
 12 13  4  0  0  0
 13 14  1  0  0  0
 13 22  4  0  0  0
 14 15  1  0  0  0
 15 16  1  0  0  0
 15 21  2  0  0  0
 16 17  4  0  0  0
 16 20  4  0  0  0
 17 18  4  0  0  0
 18 19  4  0  0  0
 19 20  4  0  0  0
 22 23  4  0  0  0
 24 25  1  0  0  0
 25 26  4  0  0  0
 25 33  4  0  0  0
 26 27  4  0  0  0
 26 31  4  0  0  0
 27 28  4  0  0  0
 28 29  4  0  0  0
 29 30  4  0  0  0
 30 31  4  0  0  0
 31 32  4  0  0  0
 32 33  4  0  0  0
  5 34  1  0  0  0
  5 35  1  0  0  0
  7 36  1  0  0  0
  9 37  1  0  0  0
 10 38  1  0  0  0
 11 39  1  0  0  0
 12 40  1  0  0  0
 14 41  1  0  0  0
 17 42  1  0  0  0
 18 43  1  0  0  0
 19 44  1  0  0  0
 22 45  1  0  0  0
 23 46  1  0  0  0
 24 47  1  0  0  0
 24 48  1  0  0  0
 27 49  1  0  0  0
 28 50  1  0  0  0
 29 51  1  0  0  0
 30 52  1  0  0  0
M  END
$$$$
