### 
### Created by X-TOOL on Mon Sep 10 21:13:06 2018
### 

@<TRIPOS>MOLECULE
3hau_ligand
  123   122     1     0     0
SMALL
GAST_HUCK


@<TRIPOS>ATOM
      1 C           4.3590   -9.0510   16.5790 C.2       1 2NC         0.1752
      2 O           3.5360   -8.6630   17.3910 O.2       1 2NC        -0.3972
      3 CH3         4.0380   -9.7770   15.3070 C.3       1 2NC         0.0258
      4 N           5.6480   -8.7830   16.7840 N.am      1 2NC        -0.2635
      5 CA          6.1500   -8.1730   17.9980 C.3       1 2NC         0.1564
      6 C1          6.7200   -6.7430   17.8420 C.2       1 2NC         0.2065
      7 O1          6.9940   -6.0890   18.8220 O.2       1 2NC        -0.3943
      8 CB          7.2440   -9.0470   18.6230 C.3       1 2NC         0.0924
      9 OG1         8.3370   -9.1290   17.7190 O.3       1 2NC        -0.3874
     10 CG2         6.6910  -10.4370   19.0040 C.3       1 2NC        -0.0346
     11 N1          6.8250   -6.2590   16.6150 N.am      1 2NC        -0.2634
     12 CA1         7.3550   -4.9590   16.3150 C.3       1 2NC         0.1334
     13 C2          6.2860   -4.1460   15.6020 C.2       1 2NC         0.2023
     14 O2          6.1910   -4.1530   14.3740 O.2       1 2NC        -0.3945
     15 CB1         8.6580   -5.0070   15.4960 C.3       1 2NC        -0.0037
     16 CG1         9.6900   -5.9750   16.0690 C.3       1 2NC        -0.0491
     17 CG21        9.2760   -3.6320   15.3430 C.3       1 2NC        -0.0582
     18 CD1        10.2100   -5.7590   17.4820 C.3       1 2NC        -0.0648
     19 N2          5.5230   -3.3900   16.3580 N.am      1 2NC        -0.2769
     20 CA2         4.3250   -2.7340   15.8150 C.3       1 2NC         0.0817
     21 C3          4.5040   -1.2350   15.6840 C.3       1 2NC        -0.0081
     22 CB2         3.0720   -3.0580   16.6060 C.3       1 2NC        -0.0249
     23 CG          2.7930   -4.5580   16.8220 C.3       1 2NC        -0.0510
     24 CD          2.7170   -5.4150   15.5620 C.3       1 2NC        -0.0558
     25 CE          1.6300   -4.9130   14.6200 C.3       1 2NC        -0.0653
     26 N3          5.7570   -0.9190   14.9920 N.4       1 2NC         0.2477
     27 CA3         5.7310    0.3480   14.1900 C.3       1 2NC         0.0668
     28 C4          4.6690    0.2930   13.1020 C.2       1 2NC         0.2268
     29 O3          4.4090   -0.7400   12.4990 O.2       1 2NC        -0.3907
     30 CB3         7.1210    0.5860   13.6090 C.3       1 2NC         0.0079
     31 CG3         7.3200    1.8040   12.7260 C.3       1 2NC        -0.0460
     32 CD2         7.4990    1.3860   11.2620 C.3       1 2NC        -0.0556
     33 CE1         8.6030    0.3820   10.8540 C.3       1 2NC        -0.0653
     34 N4          4.0730    1.4460   12.7900 N.am      1 2NC        -0.2609
     35 CA4         3.1490    1.5280   11.6630 C.3       1 2NC         0.1331
     36 C5          3.2010    2.9260   11.0550 C.2       1 2NC         0.2040
     37 O4          3.3130    3.9610   11.7490 O.2       1 2NC        -0.3944
     38 CB4         1.7600    1.1810   12.1140 C.3       1 2NC         0.0045
     39 CG4         0.6520    1.3450   11.0580 C.3       1 2NC         0.0412
     40 CD3         0.0960    2.7390   10.9200 C.2       1 2NC         0.1737
     41 OE1         0.1320    3.4910   11.8720 O.2       1 2NC        -0.3973
     42 NE2        -0.4340    3.0770    9.7490 N.am      1 2NC        -0.3009
     43 N5          3.1390    2.9670    9.7320 N.am      1 2NC        -0.2637
     44 CA5         3.2430    4.1890    9.0110 C.3       1 2NC         0.1307
     45 C6          2.1500    4.3280    8.0120 C.2       1 2NC         0.1992
     46 O5          1.8330    3.3600    7.3040 O.2       1 2NC        -0.3947
     47 CB5         4.5710    4.2380    8.3200 C.3       1 2NC        -0.0092
     48 CG5         5.7320    4.5570    9.2400 C.3       1 2NC        -0.0156
     49 CD4         6.9120    3.7380    8.8010 C.3       1 2NC         0.0627
     50 NE          8.1980    4.3860    8.6220 N.pl3     1 2NC        -0.2723
     51 CZ          8.4440    5.4970    7.9080 C.cat     1 2NC         0.2882
     52 NH1         7.4810    6.2230    7.3530 N.pl3     1 2NC        -0.2849
     53 NH2         9.6890    5.9190    7.7620 N.pl3     1 2NC        -0.2849
     54 N6          1.4400    5.4610    8.0880 N.am      1 2NC        -0.2990
     55 H           3.5165  -10.7050   15.5415 H         1 2NC         0.0467
     56 H           3.4023   -9.1494   14.6824 H         1 2NC         0.0467
     57 H           4.9626  -10.0026   14.7756 H         1 2NC         0.0467
     58 H           6.3147   -9.0193   16.0491 H         1 2NC         0.1883
     59 H           5.2690   -8.0928   18.6348 H         1 2NC         0.0826
     60 H           7.5959   -8.5953   19.5505 H         1 2NC         0.0639
     61 H           8.0398   -9.5195   16.8939 H         1 2NC         0.2101
     62 H           6.3478  -10.9490   18.1050 H         1 2NC         0.0257
     63 H           7.4785  -11.0223   19.4787 H         1 2NC         0.0257
     64 H           5.8576  -10.3178   19.6963 H         1 2NC         0.0257
     65 H           6.5119   -6.8422   15.8389 H         1 2NC         0.1883
     66 H           7.6238   -4.4808   17.2569 H         1 2NC         0.0802
     67 H           8.3683   -5.3783   14.5130 H         1 2NC         0.0345
     68 H          10.5652   -5.8588   15.4298 H         1 2NC         0.0267
     69 H           9.1790   -6.9371   16.1048 H         1 2NC         0.0267
     70 H           8.5732   -2.9740   14.8318 H         1 2NC         0.0235
     71 H           9.5047   -3.2261   16.3284 H         1 2NC         0.0235
     72 H          10.1931   -3.7102   14.7591 H         1 2NC         0.0235
     73 H          10.6899   -4.7824   17.5458 H         1 2NC         0.0230
     74 H           9.3779   -5.8030   18.1847 H         1 2NC         0.0230
     75 H          10.9335   -6.5373   17.7245 H         1 2NC         0.0230
     76 H           5.7662   -3.2558   17.3394 H         1 2NC         0.1857
     77 H           4.1917   -3.1438   14.8138 H         1 2NC         0.0609
     78 H           4.5328   -0.7960   16.6813 H         1 2NC         0.0837
     79 H           3.6722   -0.8308   15.1071 H         1 2NC         0.0837
     80 H           2.2325   -2.6657   16.0320 H         1 2NC         0.0289
     81 H           3.2084   -2.6221   17.5957 H         1 2NC         0.0289
     82 H           1.8124   -4.6212   17.2937 H         1 2NC         0.0266
     83 H           3.6306   -4.9436   17.4033 H         1 2NC         0.0266
     84 H           2.4814   -6.4392   15.8512 H         1 2NC         0.0263
     85 H           3.6760   -5.3622   15.0466 H         1 2NC         0.0263
     86 H           0.6657   -4.9517   15.1266 H         1 2NC         0.0230
     87 H           1.8485   -3.8853   14.3300 H         1 2NC         0.0230
     88 H           1.6008   -5.5442   13.7318 H         1 2NC         0.0230
     89 H           5.9333   -1.6805   14.3367 H         1 2NC         0.2036
     90 H           6.4703   -0.7994   15.7113 H         1 2NC         0.2036
     91 H           5.4651    1.1838   14.8372 H         1 2NC         0.1099
     92 H           7.3194   -0.2732   12.9683 H         1 2NC         0.0346
     93 H           7.7730    0.7404   14.4687 H         1 2NC         0.0346
     94 H           8.2138    2.3352   13.0533 H         1 2NC         0.0269
     95 H           6.4419    2.4449   12.8054 H         1 2NC         0.0269
     96 H           7.7783    2.3091   10.7542 H         1 2NC         0.0263
     97 H           6.5691    0.8730   11.0164 H         1 2NC         0.0263
     98 H           9.5782    0.7859   11.1261 H         1 2NC         0.0230
     99 H           8.4423   -0.5633   11.3724 H         1 2NC         0.0230
    100 H           8.5637    0.2185    9.7771 H         1 2NC         0.0230
    101 H           4.2655    2.2794   13.3456 H         1 2NC         0.1885
    102 H           3.4430    0.8118   10.8957 H         1 2NC         0.0801
    103 H           1.5181    1.8698   12.9234 H         1 2NC         0.0337
    104 H           1.7778    0.1241   12.3798 H         1 2NC         0.0337
    105 H          -0.1753    0.7084   11.3718 H         1 2NC         0.0504
    106 H           1.0968    1.0895   10.0963 H         1 2NC         0.0504
    107 H          -0.8353    4.0058    9.6199 H         1 2NC         0.1814
    108 H          -0.4395    2.4076    8.9794 H         1 2NC         0.1814
    109 H           3.0130    2.0967    9.2152 H         1 2NC         0.1883
    110 H           3.1544    5.0149    9.7168 H         1 2NC         0.0800
    111 H           4.5196    5.0330    7.5761 H         1 2NC         0.0313
    112 H           4.7536    3.2492    7.8993 H         1 2NC         0.0313
    113 H           5.4714    4.3187   10.2712 H         1 2NC         0.0301
    114 H           5.9714    5.6192    9.1892 H         1 2NC         0.0301
    115 H           6.6440    3.3722    7.8098 H         1 2NC         0.0689
    116 H           7.0704    3.0227    9.6081 H         1 2NC         0.0689
    117 H           8.9970    3.9536    9.0858 H         1 2NC         0.2642
    118 H           6.5058    5.9441    7.4604 H         1 2NC         0.2615
    119 H           7.7163    7.0597    6.8192 H         1 2NC         0.2615
    120 H          10.4565    5.4015    8.1905 H         1 2NC         0.2615
    121 H           9.8816    6.7619    7.2209 H         1 2NC         0.2615
    122 H           0.5837    5.5637    7.5435 H         1 2NC         0.1815
    123 H           1.7556    6.2212    8.6904 H         1 2NC         0.1815
@<TRIPOS>BOND
     1    1    2 2  
     2    1    3 1  
     3    1    4 am 
     4    4    5 1  
     5    5    6 1  
     6    5    8 1  
     7    6    7 2  
     8    6   11 am 
     9    8    9 1  
    10    8   10 1  
    11   11   12 1  
    12   12   13 1  
    13   12   15 1  
    14   13   14 2  
    15   13   19 am 
    16   15   16 1  
    17   15   17 1  
    18   16   18 1  
    19   19   20 1  
    20   20   21 1  
    21   20   22 1  
    22   21   26 1  
    23   22   23 1  
    24   23   24 1  
    25   24   25 1  
    26   26   27 1  
    27   27   28 1  
    28   27   30 1  
    29   28   29 2  
    30   28   34 am 
    31   30   31 1  
    32   31   32 1  
    33   32   33 1  
    34   34   35 1  
    35   35   36 1  
    36   35   38 1  
    37   36   37 2  
    38   36   43 am 
    39   38   39 1  
    40   39   40 1  
    41   40   41 2  
    42   40   42 am 
    43   43   44 1  
    44   44   45 1  
    45   44   47 1  
    46   45   46 2  
    47   45   54 am 
    48   47   48 1  
    49   48   49 1  
    50   49   50 1  
    51   50   51 ar 
    52   51   52 ar 
    53   51   53 ar 
    54    3   55 1  
    55    3   56 1  
    56    3   57 1  
    57    4   58 1  
    58    5   59 1  
    59    8   60 1  
    60    9   61 1  
    61   10   62 1  
    62   10   63 1  
    63   10   64 1  
    64   11   65 1  
    65   12   66 1  
    66   15   67 1  
    67   16   68 1  
    68   16   69 1  
    69   17   70 1  
    70   17   71 1  
    71   17   72 1  
    72   18   73 1  
    73   18   74 1  
    74   18   75 1  
    75   19   76 1  
    76   20   77 1  
    77   21   78 1  
    78   21   79 1  
    79   22   80 1  
    80   22   81 1  
    81   23   82 1  
    82   23   83 1  
    83   24   84 1  
    84   24   85 1  
    85   25   86 1  
    86   25   87 1  
    87   25   88 1  
    88   26   89 1  
    89   26   90 1  
    90   27   91 1  
    91   30   92 1  
    92   30   93 1  
    93   31   94 1  
    94   31   95 1  
    95   32   96 1  
    96   32   97 1  
    97   33   98 1  
    98   33   99 1  
    99   33  100 1  
   100   34  101 1  
   101   35  102 1  
   102   38  103 1  
   103   38  104 1  
   104   39  105 1  
   105   39  106 1  
   106   42  107 1  
   107   42  108 1  
   108   43  109 1  
   109   44  110 1  
   110   47  111 1  
   111   47  112 1  
   112   48  113 1  
   113   48  114 1  
   114   49  115 1  
   115   49  116 1  
   116   50  117 1  
   117   52  118 1  
   118   52  119 1  
   119   53  120 1  
   120   53  121 1  
   121   54  122 1  
   122   54  123 1  
@<TRIPOS>SUBSTRUCTURE
     1 2NC         1

