3hau_ligand
  -I-interpret- 

122121  0  0  0  0  0  0  0  0999 V2000
    4.3590   -9.0510   16.5790 C   0  0  0  0  0
    3.5360   -8.6630   17.3910 O   0  0  0  0  0
    4.0380   -9.7770   15.3070 C   0  0  0  0  0
    5.6480   -8.7830   16.7840 N   0  0  0  0  0
    6.1500   -8.1730   17.9980 C   0  0  0  0  0
    6.7200   -6.7430   17.8420 C   0  0  0  0  0
    6.9940   -6.0890   18.8220 O   0  0  0  0  0
    7.2440   -9.0470   18.6230 C   0  0  0  0  0
    8.3370   -9.1290   17.7190 O   0  0  0  0  0
    6.6910  -10.4370   19.0040 C   0  0  0  0  0
    6.8250   -6.2590   16.6150 N   0  0  0  0  0
    7.3550   -4.9590   16.3150 C   0  0  0  0  0
    6.2860   -4.1460   15.6020 C   0  0  0  0  0
    6.1910   -4.1530   14.3740 O   0  0  0  0  0
    8.6580   -5.0070   15.4960 C   0  0  0  0  0
    9.6900   -5.9750   16.0690 C   0  0  0  0  0
    9.2760   -3.6320   15.3430 C   0  0  0  0  0
   10.2100   -5.7590   17.4820 C   0  0  0  0  0
    5.5230   -3.3900   16.3580 N   0  0  0  0  0
    4.3250   -2.7340   15.8150 C   0  0  0  0  0
    4.5040   -1.2350   15.6840 C   0  0  0  0  0
    3.0720   -3.0580   16.6060 C   0  0  0  0  0
    2.7930   -4.5580   16.8220 C   0  0  0  0  0
    2.7170   -5.4150   15.5620 C   0  0  0  0  0
    1.6300   -4.9130   14.6200 C   0  0  0  0  0
    5.7570   -0.9190   14.9920 N   0  3  0  0  0
    5.7310    0.3480   14.1900 C   0  0  0  0  0
    4.6690    0.2930   13.1020 C   0  0  0  0  0
    4.4090   -0.7400   12.4990 O   0  0  0  0  0
    7.1210    0.5860   13.6090 C   0  0  0  0  0
    7.3200    1.8040   12.7260 C   0  0  0  0  0
    7.4990    1.3860   11.2620 C   0  0  0  0  0
    8.6030    0.3820   10.8540 C   0  0  0  0  0
    4.0730    1.4460   12.7900 N   0  0  0  0  0
    3.1490    1.5280   11.6630 C   0  0  0  0  0
    3.2010    2.9260   11.0550 C   0  0  0  0  0
    3.3130    3.9610   11.7490 O   0  0  0  0  0
    1.7600    1.1810   12.1140 C   0  0  0  0  0
    0.6520    1.3450   11.0580 C   0  0  0  0  0
    0.0960    2.7390   10.9200 C   0  0  0  0  0
    0.1320    3.4910   11.8720 O   0  0  0  0  0
   -0.4340    3.0770    9.7490 N   0  0  0  0  0
    3.1390    2.9670    9.7320 N   0  0  0  0  0
    3.2430    4.1890    9.0110 C   0  0  0  0  0
    2.1500    4.3280    8.0120 C   0  0  0  0  0
    1.8330    3.3600    7.3040 O   0  0  0  0  0
    4.5710    4.2380    8.3200 C   0  0  0  0  0
    5.7320    4.5570    9.2400 C   0  0  0  0  0
    6.9120    3.7380    8.8010 C   0  0  0  0  0
    8.1980    4.3860    8.6220 N   0  0  0  0  0
    8.4440    5.4970    7.9080 C   0  0  0  0  0
    7.4810    6.2230    7.3530 N   0  0  0  0  0
    9.6890    5.9190    7.7620 N   0  0  0  0  0
    1.4400    5.4610    8.0880 N   0  0  0  0  0
    3.5165  -10.7050   15.5415 H   0  0  0  0  0
    3.4023   -9.1494   14.6824 H   0  0  0  0  0
    4.9626  -10.0026   14.7756 H   0  0  0  0  0
    6.3147   -9.0193   16.0491 H   0  0  0  0  0
    5.2690   -8.0928   18.6348 H   0  0  0  0  0
    7.5959   -8.5953   19.5505 H   0  0  0  0  0
    8.6463   -8.2442   17.5116 H   0  0  0  0  0
    6.3478  -10.9490   18.1050 H   0  0  0  0  0
    7.4785  -11.0223   19.4787 H   0  0  0  0  0
    5.8576  -10.3178   19.6963 H   0  0  0  0  0
    6.5119   -6.8422   15.8389 H   0  0  0  0  0
    7.6238   -4.4808   17.2569 H   0  0  0  0  0
    8.3683   -5.3783   14.5130 H   0  0  0  0  0
   10.5652   -5.8588   15.4298 H   0  0  0  0  0
    9.1790   -6.9371   16.1048 H   0  0  0  0  0
    8.5732   -2.9740   14.8318 H   0  0  0  0  0
    9.5047   -3.2261   16.3284 H   0  0  0  0  0
   10.1931   -3.7102   14.7591 H   0  0  0  0  0
   10.6899   -4.7824   17.5458 H   0  0  0  0  0
    9.3779   -5.8030   18.1847 H   0  0  0  0  0
   10.9335   -6.5373   17.7245 H   0  0  0  0  0
    5.7662   -3.2558   17.3394 H   0  0  0  0  0
    4.1917   -3.1438   14.8138 H   0  0  0  0  0
    4.5328   -0.7960   16.6813 H   0  0  0  0  0
    3.6722   -0.8308   15.1071 H   0  0  0  0  0
    2.2325   -2.6657   16.0320 H   0  0  0  0  0
    3.2084   -2.6221   17.5957 H   0  0  0  0  0
    1.8124   -4.6212   17.2937 H   0  0  0  0  0
    3.6306   -4.9436   17.4033 H   0  0  0  0  0
    2.4814   -6.4392   15.8512 H   0  0  0  0  0
    3.6760   -5.3622   15.0466 H   0  0  0  0  0
    0.6657   -4.9517   15.1266 H   0  0  0  0  0
    1.8485   -3.8853   14.3300 H   0  0  0  0  0
    1.6008   -5.5442   13.7318 H   0  0  0  0  0
    5.9333   -1.6805   14.3367 H   0  0  0  0  0
    6.4703   -0.7994   15.7113 H   0  0  0  0  0
    5.4651    1.1838   14.8372 H   0  0  0  0  0
    7.3194   -0.2732   12.9683 H   0  0  0  0  0
    7.7730    0.7404   14.4687 H   0  0  0  0  0
    8.2138    2.3352   13.0533 H   0  0  0  0  0
    6.4419    2.4449   12.8054 H   0  0  0  0  0
    7.7783    2.3091   10.7542 H   0  0  0  0  0
    6.5691    0.8730   11.0164 H   0  0  0  0  0
    9.5782    0.7859   11.1261 H   0  0  0  0  0
    8.4423   -0.5633   11.3724 H   0  0  0  0  0
    8.5637    0.2185    9.7771 H   0  0  0  0  0
    4.2655    2.2794   13.3456 H   0  0  0  0  0
    3.4430    0.8118   10.8957 H   0  0  0  0  0
    1.5181    1.8698   12.9234 H   0  0  0  0  0
    1.7778    0.1241   12.3798 H   0  0  0  0  0
   -0.1753    0.7084   11.3718 H   0  0  0  0  0
    1.0968    1.0895   10.0963 H   0  0  0  0  0
   -0.8353    4.0058    9.6199 H   0  0  0  0  0
   -0.4395    2.4076    8.9794 H   0  0  0  0  0
    3.0130    2.0967    9.2152 H   0  0  0  0  0
    3.1544    5.0149    9.7168 H   0  0  0  0  0
    4.5196    5.0330    7.5761 H   0  0  0  0  0
    4.7536    3.2492    7.8993 H   0  0  0  0  0
    5.4714    4.3187   10.2712 H   0  0  0  0  0
    5.9714    5.6192    9.1892 H   0  0  0  0  0
    6.6440    3.3722    7.8098 H   0  0  0  0  0
    7.0704    3.0227    9.6081 H   0  0  0  0  0
    8.9970    3.9536    9.0858 H   0  0  0  0  0
    7.7147    7.0715    6.8374 H   0  0  0  0  0
    6.5074    5.9323    7.4422 H   0  0  0  0  0
   10.4565    5.4015    8.1905 H   0  0  0  0  0
    0.5837    5.5637    7.5435 H   0  0  0  0  0
    1.7556    6.2212    8.6904 H   0  0  0  0  0
  1  2  2  0  0  0
  1  3  1  0  0  0
  1  4  1  0  0  0
  4  5  1  0  0  0
  5  6  1  0  0  0
  5  8  1  0  0  0
  6  7  2  0  0  0
  6 11  1  0  0  0
  8  9  1  0  0  0
  8 10  1  0  0  0
 11 12  1  0  0  0
 12 13  1  0  0  0
 12 15  1  0  0  0
 13 14  2  0  0  0
 13 19  1  0  0  0
 15 16  1  0  0  0
 15 17  1  0  0  0
 16 18  1  0  0  0
 19 20  1  0  0  0
 20 21  1  0  0  0
 20 22  1  0  0  0
 21 26  1  0  0  0
 22 23  1  0  0  0
 23 24  1  0  0  0
 24 25  1  0  0  0
 26 27  1  0  0  0
 27 28  1  0  0  0
 27 30  1  0  0  0
 28 29  2  0  0  0
 28 34  1  0  0  0
 30 31  1  0  0  0
 31 32  1  0  0  0
 32 33  1  0  0  0
 34 35  1  0  0  0
 35 36  1  0  0  0
 35 38  1  0  0  0
 36 37  2  0  0  0
 36 43  1  0  0  0
 38 39  1  0  0  0
 39 40  1  0  0  0
 40 41  2  0  0  0
 40 42  1  0  0  0
 43 44  1  0  0  0
 44 45  1  0  0  0
 44 47  1  0  0  0
 45 46  2  0  0  0
 45 54  1  0  0  0
 47 48  1  0  0  0
 48 49  1  0  0  0
 49 50  1  0  0  0
 50 51  1  0  0  0
 51 52  1  0  0  0
 51 53  2  0  0  0
  3 55  1  0  0  0
  3 56  1  0  0  0
  3 57  1  0  0  0
  4 58  1  0  0  0
  5 59  1  0  0  0
  8 60  1  0  0  0
  9 61  1  0  0  0
 10 62  1  0  0  0
 10 63  1  0  0  0
 10 64  1  0  0  0
 11 65  1  0  0  0
 12 66  1  0  0  0
 15 67  1  0  0  0
 16 68  1  0  0  0
 16 69  1  0  0  0
 17 70  1  0  0  0
 17 71  1  0  0  0
 17 72  1  0  0  0
 18 73  1  0  0  0
 18 74  1  0  0  0
 18 75  1  0  0  0
 19 76  1  0  0  0
 20 77  1  0  0  0
 21 78  1  0  0  0
 21 79  1  0  0  0
 22 80  1  0  0  0
 22 81  1  0  0  0
 23 82  1  0  0  0
 23 83  1  0  0  0
 24 84  1  0  0  0
 24 85  1  0  0  0
 25 86  1  0  0  0
 25 87  1  0  0  0
 25 88  1  0  0  0
 26 89  1  0  0  0
 26 90  1  0  0  0
 27 91  1  0  0  0
 30 92  1  0  0  0
 30 93  1  0  0  0
 31 94  1  0  0  0
 31 95  1  0  0  0
 32 96  1  0  0  0
 32 97  1  0  0  0
 33 98  1  0  0  0
 33 99  1  0  0  0
 33100  1  0  0  0
 34101  1  0  0  0
 35102  1  0  0  0
 38103  1  0  0  0
 38104  1  0  0  0
 39105  1  0  0  0
 39106  1  0  0  0
 42107  1  0  0  0
 42108  1  0  0  0
 43109  1  0  0  0
 44110  1  0  0  0
 47111  1  0  0  0
 47112  1  0  0  0
 48113  1  0  0  0
 48114  1  0  0  0
 49115  1  0  0  0
 49116  1  0  0  0
 50117  1  0  0  0
 52118  1  0  0  0
 52119  1  0  0  0
 53120  1  0  0  0
 54121  1  0  0  0
 54122  1  0  0  0
M  END
$$$$
