2xde_ligand
  -I-interpret- 

 58 61  0  0  0  0  0  0  0  0999 V2000
    1.1970    4.6210   18.6350 O   0  0  0  0  0
    0.0920    4.1490   18.4170 C   0  0  0  0  0
   -0.1120    2.8540   18.1640 N   0  0  0  0  0
    0.9840    1.9240   17.9150 C   0  0  0  0  0
    1.4780    2.0460   16.4950 C   0  0  0  0  0
    2.8010    2.0990   16.2580 N   0  0  0  0  0
    3.7260    1.9350   17.3050 C   0  0  0  0  0
    4.1510    0.6480   17.6590 C   0  0  0  0  0
    5.0650    0.4890   18.6900 C   0  0  0  0  0
    5.5620    1.6070   19.3640 C   0  0  0  0  0
    5.1510    2.8890   19.0110 C   0  0  0  0  0
    4.2300    3.0580   17.9770 C   0  0  0  0  0
    3.3740    2.3470   14.9390 C   0  0  0  0  0
    0.6690    2.1180   15.5870 O   0  0  0  0  0
    0.5610    0.4810   18.2020 C   0  0  0  0  0
    0.2680    0.3300   19.6780 C   0  0  0  0  0
    1.2810    0.0130   20.5840 C   0  0  0  0  0
    1.0030   -0.1170   21.9410 C   0  0  0  0  0
   -0.2960    0.0810   22.4060 C   0  0  0  0  0
   -1.3050    0.4000   21.5030 C   0  0  0  0  0
   -1.0310    0.5220   20.1430 C   0  0  0  0  0
   -1.1250    5.0430   18.4380 C   0  0  0  0  0
   -1.0650    5.8400   19.7220 C   0  0  0  0  0
   -1.0220    5.2950   21.1000 C   0  0  0  0  0
   -1.0310    3.9810   21.5670 C   0  0  0  0  0
   -0.9850    3.7570   22.9430 C   0  0  0  0  0
   -0.9290    4.8410   23.8240 C   0  0  0  0  0
   -0.9210    6.1490   23.3350 C   0  0  0  0  0
   -0.9620    6.3790   21.9600 C   0  0  0  0  0
   -0.9650    7.5120   21.2070 N   0  0  0  0  0
   -1.0230    7.2260   19.8770 C   0  0  0  0  0
   -1.0390    8.2540   18.7750 C   0  0  0  0  0
   -1.0692    2.5021   18.1441 H   0  0  0  0  0
    1.7972    2.1844   18.5924 H   0  0  0  0  0
    3.7660   -0.2225   17.1278 H   0  0  0  0  0
    5.3959   -0.5098   18.9747 H   0  0  0  0  0
    6.2788    1.4741   20.1744 H   0  0  0  0  0
    5.5466    3.7563   19.5396 H   0  0  0  0  0
    3.9036    4.0583   17.6927 H   0  0  0  0  0
    3.9679    3.2605   14.9682 H   0  0  0  0  0
    4.0096    1.5077   14.6568 H   0  0  0  0  0
    2.5709    2.4573   14.2103 H   0  0  0  0  0
    1.3650   -0.1981   17.9183 H   0  0  0  0  0
   -0.3330    0.2415   17.6262 H   0  0  0  0  0
    2.2996   -0.1341   20.2251 H   0  0  0  0  0
    1.7997   -0.3733   22.6394 H   0  0  0  0  0
   -0.5195   -0.0134   23.4687 H   0  0  0  0  0
   -2.3216    0.5562   21.8640 H   0  0  0  0  0
   -1.8309    0.7671   19.4443 H   0  0  0  0  0
   -2.0394    4.4514   18.3933 H   0  0  0  0  0
   -1.1322    5.7055   17.5725 H   0  0  0  0  0
   -1.0732    3.1444   20.8696 H   0  0  0  0  0
   -0.9927    2.7383   23.3307 H   0  0  0  0  0
   -0.8914    4.6642   24.8989 H   0  0  0  0  0
   -0.8827    6.9898   24.0276 H   0  0  0  0  0
   -0.1768    8.1022   18.1257 H   0  0  0  0  0
   -1.9556    8.1484   18.1946 H   0  0  0  0  0
   -0.9962    9.2523   19.2105 H   0  0  0  0  0
  1  2  2  0  0  0
  2  3  1  0  0  0
  2 22  1  0  0  0
  3  4  1  0  0  0
  4  5  1  0  0  0
  4 15  1  0  0  0
  5  6  1  0  0  0
  5 14  2  0  0  0
  6  7  1  0  0  0
  6 13  1  0  0  0
  7  8  4  0  0  0
  7 12  4  0  0  0
  8  9  4  0  0  0
  9 10  4  0  0  0
 10 11  4  0  0  0
 11 12  4  0  0  0
 15 16  1  0  0  0
 16 17  4  0  0  0
 16 21  4  0  0  0
 17 18  4  0  0  0
 18 19  4  0  0  0
 19 20  4  0  0  0
 20 21  4  0  0  0
 22 23  1  0  0  0
 23 24  4  0  0  0
 23 31  4  0  0  0
 24 25  4  0  0  0
 24 29  4  0  0  0
 25 26  4  0  0  0
 26 27  4  0  0  0
 27 28  4  0  0  0
 28 29  4  0  0  0
 29 30  4  0  0  0
 30 31  4  0  0  0
 31 32  1  0  0  0
  3 33  1  0  0  0
  4 34  1  0  0  0
  8 35  1  0  0  0
  9 36  1  0  0  0
 10 37  1  0  0  0
 11 38  1  0  0  0
 12 39  1  0  0  0
 13 40  1  0  0  0
 13 41  1  0  0  0
 13 42  1  0  0  0
 15 43  1  0  0  0
 15 44  1  0  0  0
 17 45  1  0  0  0
 18 46  1  0  0  0
 19 47  1  0  0  0
 20 48  1  0  0  0
 21 49  1  0  0  0
 22 50  1  0  0  0
 22 51  1  0  0  0
 25 52  1  0  0  0
 26 53  1  0  0  0
 27 54  1  0  0  0
 28 55  1  0  0  0
 32 56  1  0  0  0
 32 57  1  0  0  0
 32 58  1  0  0  0
M  END
$$$$
