5xpp_ligand
  -I-interpret- 

 79 82  0  0  0  0  0  0  0  0999 V2000
    6.1100    2.2730   29.0310 O   0  0  0  0  0
    7.0300    1.4610   28.4630 C   0  0  0  0  0
    8.1020    1.9760   27.7500 C   0  0  0  0  0
    9.0090    1.1050   27.1770 C   0  0  0  0  0
    6.8510    0.1050   28.6100 C   0  0  0  0  0
    7.7510   -0.7790   28.0400 C   0  0  0  0  0
    8.8400   -0.2870   27.3170 C   0  0  0  0  0
    9.7730   -1.2970   26.7290 C   0  0  0  0  0
   10.1060   -2.2520   27.7670 O   0  0  0  0  0
   11.0070   -0.6460   26.0660 C   0  0  0  0  0
   11.9660    0.0110   27.0830 C   0  0  0  0  0
   12.9600    0.9740   26.4140 C   0  0  0  0  0
   13.3090    2.1660   27.3020 C   0  0  0  0  0
   13.7630    1.6390   28.6700 C   0  0  0  0  0
   14.3860    3.0930   26.7200 C   0  0  0  0  0
   13.9290    4.4320   26.1580 C   0  0  0  0  0
   12.8390    4.2890   25.0910 C   0  0  0  0  0
   13.4930    5.4810   27.1660 C   0  0  0  0  0
   13.4450    6.8720   26.5290 C   0  0  0  0  0
   14.7320    7.2680   25.7770 C   0  0  0  0  0
   15.2670    2.5110   25.6100 C   0  0  0  0  0
   15.8670    3.6890   24.8570 C   0  0  0  0  0
   15.2530    4.8720   25.5750 C   0  0  0  0  0
   15.0670    6.1420   24.8320 C   0  0  0  0  0
   15.2140    6.2090   23.5070 C   0  0  0  0  0
   14.9900    7.4390   22.7530 C   0  0  0  0  0
   14.8540    7.4680   21.4090 C   0  0  0  0  0
   14.9750    6.2010   20.5780 C   0  0  0  0  0
   14.5720    8.8160   20.7610 C   0  0  0  0  0
   15.2230    8.8900   19.3740 C   0  0  0  0  0
   16.6610    8.8900   19.4270 O   0  0  0  0  0
   14.8050    7.6790   18.5940 C   0  0  0  0  0
   14.0250    7.8040   17.5300 C   0  0  0  0  0
   15.3240    6.3720   19.1090 C   0  0  0  0  0
   14.7540    5.2320   18.4650 O   0  0  0  0  0
    5.4481    1.7409   29.4787 H   0  0  0  0  0
    8.2276    3.0534   27.6429 H   0  0  0  0  0
    9.8574    1.4957   26.6152 H   0  0  0  0  0
    5.9998   -0.2737   29.1758 H   0  0  0  0  0
    7.6105   -1.8538   28.1549 H   0  0  0  0  0
    9.2853   -1.8246   25.9093 H   0  0  0  0  0
   10.7058   -2.9123   27.4123 H   0  0  0  0  0
   10.6490    0.1356   25.3959 H   0  0  0  0  0
   11.5590   -1.4319   25.5505 H   0  0  0  0  0
   12.5376   -0.7806   27.5674 H   0  0  0  0  0
   11.3663    0.5834   27.7907 H   0  0  0  0  0
   12.4965    1.3569   25.5048 H   0  0  0  0  0
   13.8792    0.4230   26.2149 H   0  0  0  0  0
   12.4089    2.7754   27.3831 H   0  0  0  0  0
   12.9561    1.0620   29.1217 H   0  0  0  0  0
   14.6383    1.0024   28.5405 H   0  0  0  0  0
   14.0160    2.4797   29.3161 H   0  0  0  0  0
   14.9402    3.2282   27.6488 H   0  0  0  0  0
   13.2199    3.6925   24.2620 H   0  0  0  0  0
   11.9694    3.7960   25.5256 H   0  0  0  0  0
   12.5549    5.2771   24.7289 H   0  0  0  0  0
   14.2120    5.4974   27.9851 H   0  0  0  0  0
   12.4953    5.2270   27.5240 H   0  0  0  0  0
   13.3105    7.5912   27.3370 H   0  0  0  0  0
   12.6357    6.8635   25.7989 H   0  0  0  0  0
   15.5491    7.4331   26.4792 H   0  0  0  0  0
   14.5822    8.1968   25.2265 H   0  0  0  0  0
   14.6797    1.8830   24.9401 H   0  0  0  0  0
   16.0512    1.8809   26.0297 H   0  0  0  0  0
   15.6490    3.6732   23.7891 H   0  0  0  0  0
   16.9569    3.6970   24.8684 H   0  0  0  0  0
   16.0030    5.1441   26.3177 H   0  0  0  0  0
   15.5129    5.3106   22.9670 H   0  0  0  0  0
   14.9296    8.3794   23.3008 H   0  0  0  0  0
   13.9893    5.7360   20.5981 H   0  0  0  0  0
   15.7971    5.6347   21.0158 H   0  0  0  0  0
   14.9851    9.6050   21.3894 H   0  0  0  0  0
   13.4943    8.9397   20.6541 H   0  0  0  0  0
   14.8996    9.8240   18.9145 H   0  0  0  0  0
   17.0130    8.9375   18.5351 H   0  0  0  0  0
   13.6836    8.7908   17.2174 H   0  0  0  0  0
   13.7248    6.9200   16.9674 H   0  0  0  0  0
   16.3967    6.4139   18.9200 H   0  0  0  0  0
   14.9369    5.2730   17.5235 H   0  0  0  0  0
  1  2  1  0  0  0
  2  3  4  0  0  0
  2  5  4  0  0  0
  3  4  4  0  0  0
  4  7  4  0  0  0
  5  6  4  0  0  0
  6  7  4  0  0  0
  7  8  1  0  0  0
  8  9  1  0  0  0
  8 10  1  0  0  0
 10 11  1  0  0  0
 11 12  1  0  0  0
 12 13  1  0  0  0
 13 14  1  0  0  0
 13 15  1  0  0  0
 15 16  1  0  0  0
 15 21  1  0  0  0
 16 17  1  0  0  0
 16 18  1  0  0  0
 16 23  1  0  0  0
 18 19  1  0  0  0
 19 20  1  0  0  0
 20 24  1  0  0  0
 21 22  1  0  0  0
 22 23  1  0  0  0
 23 24  1  0  0  0
 24 25  2  0  0  0
 25 26  1  0  0  0
 26 27  2  0  0  0
 27 28  1  0  0  0
 27 29  1  0  0  0
 28 34  1  0  0  0
 29 30  1  0  0  0
 30 31  1  0  0  0
 30 32  1  0  0  0
 32 33  2  0  0  0
 32 34  1  0  0  0
 34 35  1  0  0  0
  1 36  1  0  0  0
  3 37  1  0  0  0
  4 38  1  0  0  0
  5 39  1  0  0  0
  6 40  1  0  0  0
  8 41  1  0  0  0
  9 42  1  0  0  0
 10 43  1  0  0  0
 10 44  1  0  0  0
 11 45  1  0  0  0
 11 46  1  0  0  0
 12 47  1  0  0  0
 12 48  1  0  0  0
 13 49  1  0  0  0
 14 50  1  0  0  0
 14 51  1  0  0  0
 14 52  1  0  0  0
 15 53  1  0  0  0
 17 54  1  0  0  0
 17 55  1  0  0  0
 17 56  1  0  0  0
 18 57  1  0  0  0
 18 58  1  0  0  0
 19 59  1  0  0  0
 19 60  1  0  0  0
 20 61  1  0  0  0
 20 62  1  0  0  0
 21 63  1  0  0  0
 21 64  1  0  0  0
 22 65  1  0  0  0
 22 66  1  0  0  0
 23 67  1  0  0  0
 25 68  1  0  0  0
 26 69  1  0  0  0
 28 70  1  0  0  0
 28 71  1  0  0  0
 29 72  1  0  0  0
 29 73  1  0  0  0
 30 74  1  0  0  0
 31 75  1  0  0  0
 33 76  1  0  0  0
 33 77  1  0  0  0
 34 78  1  0  0  0
 35 79  1  0  0  0
M  END
$$$$
