### 
### Created by X-TOOL on Sun Sep  9 21:50:03 2018
### 

@<TRIPOS>MOLECULE
1oeb_ligand
  187   189     1     0     0
SMALL
GAST_HUCK


@<TRIPOS>ATOM
      1 N          -2.2290   23.6410   21.8460 N.4       1 NON         0.2377
      2 CA         -0.8300   23.1520   22.1510 C.3       1 NON         0.0623
      3 C           0.1090   24.2970   22.5700 C.2       1 NON         0.2289
      4 O           0.0840   25.3620   21.9480 O.2       1 NON        -0.3905
      5 CB         -0.2330   22.4200   20.9440 C.3       1 NON        -0.0040
      6 N           0.9630   24.0700   23.5780 N.am      1 NON        -0.2471
      7 CA          1.9240   25.0990   23.9940 C.3       1 NON         0.1339
      8 C           2.9900   25.3770   22.9260 C.2       1 NON         0.2042
      9 O           3.3200   24.5200   22.1100 O.2       1 NON        -0.3944
     10 CB          2.6000   24.4940   25.2250 C.3       1 NON        -0.0104
     11 CG          1.7070   23.3650   25.6600 C.3       1 NON        -0.0281
     12 CD          1.0490   22.8520   24.4210 C.3       1 NON         0.0371
     13 N           3.5220   26.5910   22.9750 N.am      1 NON        -0.2616
     14 CA          4.6510   26.9960   22.1390 C.3       1 NON         0.1539
     15 C           5.8170   26.0830   22.3890 C.2       1 NON         0.2062
     16 O           5.9990   25.5880   23.5030 O.2       1 NON        -0.3943
     17 CB          5.0310   28.4540   22.4700 C.3       1 NON         0.0843
     18 OG          4.0210   29.2980   21.9250 O.3       1 NON        -0.3903
     19 N           6.5830   25.7980   21.3390 N.am      1 NON        -0.2634
     20 CA          7.7970   24.9990   21.4830 C.3       1 NON         0.1335
     21 C           9.0140   25.8840   21.2840 C.2       1 NON         0.2042
     22 O           9.1750   26.4870   20.2150 O.2       1 NON        -0.3944
     23 CB          7.8080   23.8040   20.4950 C.3       1 NON        -0.0037
     24 CG1         6.6420   22.8350   20.7820 C.3       1 NON        -0.0491
     25 CG2         9.0930   23.0380   20.5850 C.3       1 NON        -0.0582
     26 CD1         6.4360   21.7730   19.6450 C.3       1 NON        -0.0648
     27 N           9.8780   25.9310   22.2960 N.am      1 NON        -0.2622
     28 CA         11.1460   26.6440   22.1850 C.3       1 NON         0.1423
     29 C          12.3570   25.7160   22.3350 C.2       1 NON         0.2056
     30 O          12.7530   25.3890   23.4450 O.2       1 NON        -0.3943
     31 CB         11.2280   27.7460   23.2130 C.3       1 NON         0.0406
     32 CG         12.4510   28.6190   23.0350 C.2       1 NON         0.0393
     33 OD1        13.2090   28.4440   22.0580 O.co2     1 NON        -0.5688
     34 OD2        12.7260   29.5380   23.8330 O.co2     1 NON        -0.5688
     35 N          12.9370   25.3200   21.2010 N.am      1 NON        -0.2636
     36 CA         14.1100   24.4270   21.1800 C.3       1 NON         0.1311
     37 C          15.3810   25.0760   21.7240 C.2       1 NON         0.2040
     38 O          16.3020   24.3670   22.1490 O.2       1 NON        -0.3944
     39 CB         14.3620   23.8500   19.7690 C.3       1 NON        -0.0092
     40 CG         13.2500   22.9570   19.2190 C.3       1 NON        -0.0156
     41 CD         13.6620   22.0130   18.0950 C.3       1 NON         0.0627
     42 NE         12.7180   20.8840   18.0660 N.pl3     1 NON        -0.2723
     43 CZ         11.4430   21.0080   17.7570 C.cat     1 NON         0.2882
     44 NH1        10.9710   22.1990   17.3960 N.pl3     1 NON        -0.2849
     45 NH2        10.6190   19.9650   17.8470 N.pl3     1 NON        -0.2849
     46 N          15.4270   26.4150   21.7680 N.am      1 NON        -0.2616
     47 CA         16.5750   27.1140   22.3950 C.3       1 NON         0.1539
     48 C          16.8160   26.7850   23.9030 C.2       1 NON         0.2063
     49 O          17.9390   26.9310   24.4040 O.2       1 NON        -0.3943
     50 CB         16.4990   28.6370   22.1590 C.3       1 NON         0.0843
     51 OG         15.6600   29.2820   23.1110 O.3       1 NON        -0.3903
     52 N          15.7830   26.3300   24.6090 N.am      1 NON        -0.2613
     53 CA         15.9190   25.9440   26.0190 C.3       1 NON         0.1565
     54 C          16.1990   24.4500   26.2200 C.2       1 NON         0.2065
     55 O          16.2810   23.9680   27.3540 O.2       1 NON        -0.3943
     56 CB         14.6770   26.3240   26.8310 C.3       1 NON         0.0924
     57 OG1        13.5290   25.6880   26.2490 O.3       1 NON        -0.3874
     58 CG2        14.4050   27.7990   26.7260 C.3       1 NON        -0.0346
     59 N          16.3730   23.7240   25.1230 N.am      1 NON        -0.2636
     60 CA         16.6580   22.3000   25.2290 C.3       1 NON         0.1312
     61 C          18.0170   22.0460   25.8850 C.2       1 NON         0.2064
     62 O          19.0330   22.6090   25.4130 O.2       1 NON        -0.3942
     63 CB         16.7050   21.7030   23.8360 C.3       1 NON        -0.0122
     64 CG         15.4070   21.1410   23.4110 C.3       1 NON        -0.0440
     65 CD         15.4510   20.7000   21.9550 C.3       1 NON        -0.0124
     66 CE         16.3250   19.4770   21.7840 C.3       1 NON        -0.0354
     67 NZ         16.3510   19.0240   20.3660 N.4       1 NON         0.2185
     68 N          18.0510   21.2050   26.9310 N.am      1 NON        -0.2498
     69 CA         19.3370   20.7310   27.4710 C.3       1 NON         0.1340
     70 C          19.8490   19.5700   26.6210 C.2       1 NON         0.2066
     71 O          19.0860   19.0640   25.7630 O.2       1 NON        -0.3942
     72 CB         18.9830   20.2740   28.8870 C.3       1 NON        -0.0104
     73 CG         17.4920   19.7260   28.7290 C.3       1 NON        -0.0281
     74 CD         16.8960   20.5830   27.6290 C.3       1 NON         0.0369
     75 N          21.1220   19.1780   26.7720 N.am      1 NON        -0.2498
     76 CA         21.5960   17.9700   26.0970 C.3       1 NON         0.1337
     77 C          20.8410   16.7500   26.6170 C.2       1 NON         0.2035
     78 O          20.4530   16.6980   27.7930 O.2       1 NON        -0.3944
     79 CB         23.0760   17.8680   26.5020 C.3       1 NON        -0.0104
     80 CG         23.4640   19.1970   27.0080 C.3       1 NON        -0.0281
     81 CD         22.1860   19.8390   27.5600 C.3       1 NON         0.0369
     82 N          20.6130   15.7720   25.7520 N.am      1 NON        -0.2695
     83 CA         20.0440   14.5200   26.2300 C.3       1 NON         0.0946
     84 C          21.1240   13.7320   26.9600 C.2       1 NON         0.0601
     85 O          22.0350   13.2850   26.2300 O.co2     1 NON        -0.5666
     86 CB         19.4670   13.7000   25.0760 C.3       1 NON        -0.0156
     87 CG         18.9370   12.2780   25.3410 C.3       1 NON        -0.0431
     88 CD1        17.8390   12.3070   26.3860 C.3       1 NON        -0.0625
     89 CD2        18.4630   11.6800   24.0180 C.3       1 NON        -0.0625
     90 OXT        20.9940   13.5920   28.2080 O.co2     1 NON        -0.5666
     91 H1         -2.8067   22.8600   21.5771 H         1 NON         0.2015
     92 H2         -2.1946   24.3088   21.0918 H         1 NON         0.2015
     93 H3         -2.6178   24.0799   22.6659 H         1 NON         0.2015
     94 H4         -0.8972   22.4419   22.9884 H         1 NON         0.1095
     95 H5          0.7821   22.0748   21.1899 H         1 NON         0.0310
     96 H6         -0.1891   23.1051   20.0846 H         1 NON         0.0310
     97 H7         -0.8634   21.5547   20.6914 H         1 NON         0.0310
     98 H8          1.4024   26.0344   24.2447 H         1 NON         0.0802
     99 H9          2.6868   25.2451   26.0240 H         1 NON         0.0313
    100 H10         3.6001   24.1155   24.9673 H         1 NON         0.0313
    101 H11         0.9504   23.7294   26.3704 H         1 NON         0.0287
    102 H12         2.3013   22.5695   26.1332 H         1 NON         0.0287
    103 H13         1.6608   22.0760   23.9378 H         1 NON         0.0524
    104 H14         0.0495   22.4479   24.6395 H         1 NON         0.0524
    105 H15         3.1342   27.2580   23.6112 H         1 NON         0.1884
    106 H16         4.3621   26.9293   21.0797 H         1 NON         0.0823
    107 H17         6.0055   28.6983   22.0221 H         1 NON         0.0606
    108 H18         5.0843   28.5892   23.5603 H         1 NON         0.0606
    109 H19         4.2311   30.2048   22.1151 H         1 NON         0.2097
    110 H20         6.3227   26.1370   20.4349 H         1 NON         0.1883
    111 H21         7.8256   24.5949   22.5057 H         1 NON         0.0803
    112 H22         7.7000   24.1984   19.4739 H         1 NON         0.0345
    113 H23         5.7168   23.4206   20.8870 H         1 NON         0.0267
    114 H24         6.8495   22.3053   21.7235 H         1 NON         0.0267
    115 H25         9.9374   23.7134   20.3830 H         1 NON         0.0235
    116 H26         9.0881   22.2253   19.8437 H         1 NON         0.0235
    117 H27         9.1967   22.6131   21.5943 H         1 NON         0.0235
    118 H28         5.5946   21.1145   19.9065 H         1 NON         0.0230
    119 H29         7.3509   21.1724   19.5341 H         1 NON         0.0230
    120 H30         6.2181   22.2877   18.6976 H         1 NON         0.0230
    121 H31         9.6524   25.4666   23.1524 H         1 NON         0.1884
    122 H32        11.1885   27.0992   21.1845 H         1 NON         0.0819
    123 H33        11.2623   27.2918   24.2142 H         1 NON         0.0478
    124 H34        10.3303   28.3757   23.1266 H         1 NON         0.0478
    125 H35        12.5618   25.6412   20.3315 H         1 NON         0.1883
    126 H36        13.8742   23.5807   21.8420 H         1 NON         0.0800
    127 H37        15.2875   23.2566   19.8050 H         1 NON         0.0313
    128 H38        14.4941   24.6937   19.0757 H         1 NON         0.0313
    129 H39        12.4494   23.6082   18.8382 H         1 NON         0.0301
    130 H40        12.8632   22.3473   20.0489 H         1 NON         0.0301
    131 H41        14.6808   21.6406   18.2775 H         1 NON         0.0689
    132 H42        13.6332   22.5459   17.1331 H         1 NON         0.0689
    133 H43        13.0734   19.9460   18.3000 H         1 NON         0.2642
    134 H44         9.9760   22.3064   17.1526 H         1 NON         0.2615
    135 H45        11.6008   23.0132   17.3601 H         1 NON         0.2615
    136 H46        10.9837   19.0431   18.1263 H         1 NON         0.2615
    137 H47         9.6172   20.0805   17.6373 H         1 NON         0.2615
    138 H48        14.6788   26.9486   21.3736 H         1 NON         0.1884
    139 H49        17.4698   26.7575   21.8637 H         1 NON         0.0823
    140 H50        16.0992   28.8208   21.1509 H         1 NON         0.0606
    141 H51        17.5119   29.0592   22.2344 H         1 NON         0.0606
    142 H52        14.7810   28.9271   23.0487 H         1 NON         0.2097
    143 H53        14.8898   26.2489   24.1667 H         1 NON         0.1884
    144 H54        16.7755   26.5017   26.4256 H         1 NON         0.0826
    145 H55        14.8069   26.0247   27.8815 H         1 NON         0.0639
    146 H56        12.7538   25.9189   26.7473 H         1 NON         0.2101
    147 H57        13.5107   28.0498   27.3153 H         1 NON         0.0257
    148 H58        14.2368   28.0668   25.6724 H         1 NON         0.0257
    149 H59        15.2685   28.3596   27.1135 H         1 NON         0.0257
    150 H60        16.3084   24.1551   24.2230 H         1 NON         0.1883
    151 H61        15.8677   21.8150   25.8208 H         1 NON         0.0800
    152 H62        17.4570   20.9003   23.8226 H         1 NON         0.0312
    153 H63        16.9967   22.4905   23.1256 H         1 NON         0.0312
    154 H64        14.6272   21.9075   23.5307 H         1 NON         0.0269
    155 H65        15.1676   20.2726   24.0422 H         1 NON         0.0269
    156 H66        15.8559   21.5196   21.3432 H         1 NON         0.0317
    157 H67        14.4305   20.4622   21.6204 H         1 NON         0.0317
    158 H68        15.9312   18.6646   22.4124 H         1 NON         0.0813
    159 H69        17.3496   19.7218   22.1006 H         1 NON         0.0813
    160 H70        16.9398   18.2099   20.2841 H         1 NON         0.1994
    161 H71        16.7153   19.7620   19.7841 H         1 NON         0.1994
    162 H72        15.4156   18.7932   20.0698 H         1 NON         0.1994
    163 H73        20.0855   21.5368   27.4922 H         1 NON         0.0802
    164 H74        19.0214   21.1153   29.5946 H         1 NON         0.0313
    165 H75        19.6622   19.4781   29.2264 H         1 NON         0.0313
    166 H76        16.9299   19.8481   29.6666 H         1 NON         0.0287
    167 H77        17.4949   18.6650   28.4387 H         1 NON         0.0287
    168 H78        16.3158   19.9616   26.9310 H         1 NON         0.0524
    169 H79        16.2445   21.3586   28.0580 H         1 NON         0.0524
    170 H80        21.4828   18.0513   25.0059 H         1 NON         0.0802
    171 H81        23.6908   17.5989   25.6305 H         1 NON         0.0313
    172 H82        23.2033   17.1099   27.2888 H         1 NON         0.0313
    173 H83        23.8758   19.8095   26.1924 H         1 NON         0.0287
    174 H84        24.2145   19.0963   27.8059 H         1 NON         0.0287
    175 H85        22.0705   19.6321   28.6342 H         1 NON         0.0524
    176 H86        22.1850   20.9264   27.3939 H         1 NON         0.0524
    177 H87        20.8291   15.8925   24.7831 H         1 NON         0.1875
    178 H88        19.2313   14.7474   26.9355 H         1 NON         0.0726
    179 H89        20.2616   13.6087   24.3208 H         1 NON         0.0308
    180 H90        18.6302   14.2799   24.6596 H         1 NON         0.0308
    181 H91        19.7600   11.6590   25.7277 H         1 NON         0.0297
    182 H92        17.4733   11.2846   26.5620 H         1 NON         0.0232
    183 H93        17.0103   12.9366   26.0298 H         1 NON         0.0232
    184 H94        18.2367   12.7207   27.3244 H         1 NON         0.0232
    185 H95        19.2933   11.6817   23.2965 H         1 NON         0.0232
    186 H96        17.6313   12.2806   23.6212 H         1 NON         0.0232
    187 H97        18.1231   10.6470   24.1834 H         1 NON         0.0232
@<TRIPOS>BOND
     1    1    2 1  
     2    2    3 1  
     3    2    5 1  
     4    3    4 2  
     5    3    6 am 
     6    6    7 1  
     7    6   12 1  
     8    7    8 1  
     9    7   10 1  
    10    8    9 2  
    11    8   13 am 
    12   10   11 1  
    13   11   12 1  
    14   13   14 1  
    15   14   15 1  
    16   14   17 1  
    17   15   16 2  
    18   15   19 am 
    19   17   18 1  
    20   19   20 1  
    21   20   21 1  
    22   20   23 1  
    23   21   22 2  
    24   21   27 am 
    25   23   24 1  
    26   23   25 1  
    27   24   26 1  
    28   27   28 1  
    29   28   29 1  
    30   28   31 1  
    31   29   30 2  
    32   29   35 am 
    33   31   32 1  
    34   32   33 ar 
    35   32   34 ar 
    36   35   36 1  
    37   36   37 1  
    38   36   39 1  
    39   37   38 2  
    40   37   46 am 
    41   39   40 1  
    42   40   41 1  
    43   41   42 1  
    44   42   43 ar 
    45   43   44 ar 
    46   43   45 ar 
    47   46   47 1  
    48   47   48 1  
    49   47   50 1  
    50   48   49 2  
    51   48   52 am 
    52   50   51 1  
    53   52   53 1  
    54   53   54 1  
    55   53   56 1  
    56   54   55 2  
    57   54   59 am 
    58   56   57 1  
    59   56   58 1  
    60   59   60 1  
    61   60   61 1  
    62   60   63 1  
    63   61   62 2  
    64   61   68 am 
    65   63   64 1  
    66   64   65 1  
    67   65   66 1  
    68   66   67 1  
    69   68   69 1  
    70   68   74 1  
    71   69   70 1  
    72   69   72 1  
    73   70   71 2  
    74   70   75 am 
    75   72   73 1  
    76   73   74 1  
    77   75   76 1  
    78   75   81 1  
    79   76   77 1  
    80   76   79 1  
    81   77   78 2  
    82   77   82 am 
    83   79   80 1  
    84   80   81 1  
    85   82   83 1  
    86   83   84 1  
    87   83   86 1  
    88   84   85 ar 
    89   84   90 ar 
    90   86   87 1  
    91   87   88 1  
    92   87   89 1  
    93    1   91 1  
    94    1   92 1  
    95    1   93 1  
    96    2   94 1  
    97    5   95 1  
    98    5   96 1  
    99    5   97 1  
   100    7   98 1  
   101   10   99 1  
   102   10  100 1  
   103   11  101 1  
   104   11  102 1  
   105   12  103 1  
   106   12  104 1  
   107   13  105 1  
   108   14  106 1  
   109   17  107 1  
   110   17  108 1  
   111   18  109 1  
   112   19  110 1  
   113   20  111 1  
   114   23  112 1  
   115   24  113 1  
   116   24  114 1  
   117   25  115 1  
   118   25  116 1  
   119   25  117 1  
   120   26  118 1  
   121   26  119 1  
   122   26  120 1  
   123   27  121 1  
   124   28  122 1  
   125   31  123 1  
   126   31  124 1  
   127   35  125 1  
   128   36  126 1  
   129   39  127 1  
   130   39  128 1  
   131   40  129 1  
   132   40  130 1  
   133   41  131 1  
   134   41  132 1  
   135   42  133 1  
   136   44  134 1  
   137   44  135 1  
   138   45  136 1  
   139   45  137 1  
   140   46  138 1  
   141   47  139 1  
   142   50  140 1  
   143   50  141 1  
   144   51  142 1  
   145   52  143 1  
   146   53  144 1  
   147   56  145 1  
   148   57  146 1  
   149   58  147 1  
   150   58  148 1  
   151   58  149 1  
   152   59  150 1  
   153   60  151 1  
   154   63  152 1  
   155   63  153 1  
   156   64  154 1  
   157   64  155 1  
   158   65  156 1  
   159   65  157 1  
   160   66  158 1  
   161   66  159 1  
   162   67  160 1  
   163   67  161 1  
   164   67  162 1  
   165   69  163 1  
   166   72  164 1  
   167   72  165 1  
   168   73  166 1  
   169   73  167 1  
   170   74  168 1  
   171   74  169 1  
   172   76  170 1  
   173   79  171 1  
   174   79  172 1  
   175   80  173 1  
   176   80  174 1  
   177   81  175 1  
   178   81  176 1  
   179   82  177 1  
   180   83  178 1  
   181   86  179 1  
   182   86  180 1  
   183   87  181 1  
   184   88  182 1  
   185   88  183 1  
   186   88  184 1  
   187   89  185 1  
   188   89  186 1  
   189   89  187 1  
@<TRIPOS>SUBSTRUCTURE
     1 NON         1

