1oeb_ligand
  -I-interpret- 

188190  0  0  0  0  0  0  0  0999 V2000
   -2.2290   23.6410   21.8460 N   0  3  0  0  0
   -0.8300   23.1520   22.1510 C   0  0  0  0  0
    0.1090   24.2970   22.5700 C   0  0  0  0  0
    0.0840   25.3620   21.9480 O   0  0  0  0  0
   -0.2330   22.4200   20.9440 C   0  0  0  0  0
    0.9630   24.0700   23.5780 N   0  0  0  0  0
    1.9240   25.0990   23.9940 C   0  0  0  0  0
    2.9900   25.3770   22.9260 C   0  0  0  0  0
    3.3200   24.5200   22.1100 O   0  0  0  0  0
    2.6000   24.4940   25.2250 C   0  0  0  0  0
    1.7070   23.3650   25.6600 C   0  0  0  0  0
    1.0490   22.8520   24.4210 C   0  0  0  0  0
    3.5220   26.5910   22.9750 N   0  0  0  0  0
    4.6510   26.9960   22.1390 C   0  0  0  0  0
    5.8170   26.0830   22.3890 C   0  0  0  0  0
    5.9990   25.5880   23.5030 O   0  0  0  0  0
    5.0310   28.4540   22.4700 C   0  0  0  0  0
    4.0210   29.2980   21.9250 O   0  0  0  0  0
    6.5830   25.7980   21.3390 N   0  0  0  0  0
    7.7970   24.9990   21.4830 C   0  0  0  0  0
    9.0140   25.8840   21.2840 C   0  0  0  0  0
    9.1750   26.4870   20.2150 O   0  0  0  0  0
    7.8080   23.8040   20.4950 C   0  0  0  0  0
    6.6420   22.8350   20.7820 C   0  0  0  0  0
    9.0930   23.0380   20.5850 C   0  0  0  0  0
    6.4360   21.7730   19.6450 C   0  0  0  0  0
    9.8780   25.9310   22.2960 N   0  0  0  0  0
   11.1460   26.6440   22.1850 C   0  0  0  0  0
   12.3570   25.7160   22.3350 C   0  0  0  0  0
   12.7530   25.3890   23.4450 O   0  0  0  0  0
   11.2280   27.7460   23.2130 C   0  0  0  0  0
   12.4510   28.6190   23.0350 C   0  0  0  0  0
   13.2090   28.4440   22.0580 O   0  0  0  0  0
   12.7260   29.5380   23.8330 O   0  0  0  0  0
   12.9370   25.3200   21.2010 N   0  0  0  0  0
   14.1100   24.4270   21.1800 C   0  0  0  0  0
   15.3810   25.0760   21.7240 C   0  0  0  0  0
   16.3020   24.3670   22.1490 O   0  0  0  0  0
   14.3620   23.8500   19.7690 C   0  0  0  0  0
   13.2500   22.9570   19.2190 C   0  0  0  0  0
   13.6620   22.0130   18.0950 C   0  0  0  0  0
   12.7180   20.8840   18.0660 N   0  0  0  0  0
   11.4430   21.0080   17.7570 C   0  0  0  0  0
   10.9710   22.1990   17.3960 N   0  0  0  0  0
   10.6190   19.9650   17.8470 N   0  0  0  0  0
   15.4270   26.4150   21.7680 N   0  0  0  0  0
   16.5750   27.1140   22.3950 C   0  0  0  0  0
   16.8160   26.7850   23.9030 C   0  0  0  0  0
   17.9390   26.9310   24.4040 O   0  0  0  0  0
   16.4990   28.6370   22.1590 C   0  0  0  0  0
   15.6600   29.2820   23.1110 O   0  0  0  0  0
   15.7830   26.3300   24.6090 N   0  0  0  0  0
   15.9190   25.9440   26.0190 C   0  0  0  0  0
   16.1990   24.4500   26.2200 C   0  0  0  0  0
   16.2810   23.9680   27.3540 O   0  0  0  0  0
   14.6770   26.3240   26.8310 C   0  0  0  0  0
   13.5290   25.6880   26.2490 O   0  0  0  0  0
   14.4050   27.7990   26.7260 C   0  0  0  0  0
   16.3730   23.7240   25.1230 N   0  0  0  0  0
   16.6580   22.3000   25.2290 C   0  0  0  0  0
   18.0170   22.0460   25.8850 C   0  0  0  0  0
   19.0330   22.6090   25.4130 O   0  0  0  0  0
   16.7050   21.7030   23.8360 C   0  0  0  0  0
   15.4070   21.1410   23.4110 C   0  0  0  0  0
   15.4510   20.7000   21.9550 C   0  0  0  0  0
   16.3250   19.4770   21.7840 C   0  0  0  0  0
   16.3510   19.0240   20.3660 N   0  3  0  0  0
   18.0510   21.2050   26.9310 N   0  0  0  0  0
   19.3370   20.7310   27.4710 C   0  0  0  0  0
   19.8490   19.5700   26.6210 C   0  0  0  0  0
   19.0860   19.0640   25.7630 O   0  0  0  0  0
   18.9830   20.2740   28.8870 C   0  0  0  0  0
   17.4920   19.7260   28.7290 C   0  0  0  0  0
   16.8960   20.5830   27.6290 C   0  0  0  0  0
   21.1220   19.1780   26.7720 N   0  0  0  0  0
   21.5960   17.9700   26.0970 C   0  0  0  0  0
   20.8410   16.7500   26.6170 C   0  0  0  0  0
   20.4530   16.6980   27.7930 O   0  0  0  0  0
   23.0760   17.8680   26.5020 C   0  0  0  0  0
   23.4640   19.1970   27.0080 C   0  0  0  0  0
   22.1860   19.8390   27.5600 C   0  0  0  0  0
   20.6130   15.7720   25.7520 N   0  0  0  0  0
   20.0440   14.5200   26.2300 C   0  0  0  0  0
   21.1240   13.7320   26.9600 C   0  0  0  0  0
   22.0350   13.2850   26.2300 O   0  0  0  0  0
   19.4670   13.7000   25.0760 C   0  0  0  0  0
   18.9370   12.2780   25.3410 C   0  0  0  0  0
   17.8390   12.3070   26.3860 C   0  0  0  0  0
   18.4630   11.6800   24.0180 C   0  0  0  0  0
   20.9940   13.5920   28.2080 O   0  0  0  0  0
   -2.6046   24.1238   22.6622 H   0  0  0  0  0
   -2.1984   24.2830   21.0540 H   0  0  0  0  0
   -2.8238   22.8447   21.6169 H   0  0  0  0  0
   -0.9179   22.4618   22.9901 H   0  0  0  0  0
   -0.1193   23.1198   20.1161 H   0  0  0  0  0
    0.7414   22.0124   21.2134 H   0  0  0  0  0
   -0.8980   21.6090   20.6472 H   0  0  0  0  0
    1.4230   26.0499   24.1752 H   0  0  0  0  0
    2.7234   25.2332   26.0165 H   0  0  0  0  0
    3.6058   24.1419   24.9956 H   0  0  0  0  0
    0.9678   23.7060   26.3848 H   0  0  0  0  0
    2.2791   22.5800   26.1546 H   0  0  0  0  0
    1.6025   22.0416   23.9467 H   0  0  0  0  0
    0.0785   22.3933   24.6104 H   0  0  0  0  0
    3.1264   27.2714   23.6239 H   0  0  0  0  0
    4.3744   26.9295   21.0868 H   0  0  0  0  0
    6.0029   28.6997   22.0420 H   0  0  0  0  0
    5.1004   28.5928   23.5489 H   0  0  0  0  0
    4.2333   30.2143   22.1171 H   0  0  0  0  0
    6.3175   26.1438   20.4169 H   0  0  0  0  0
    7.8230   24.5816   22.4896 H   0  0  0  0  0
    7.7007   24.2216   19.4939 H   0  0  0  0  0
    5.7288   23.4256   20.8551 H   0  0  0  0  0
    6.8746   22.2975   21.7013 H   0  0  0  0  0
    9.9258   23.6981   20.3424 H   0  0  0  0  0
    9.2153   22.6538   21.5977 H   0  0  0  0  0
    9.0692   22.2069   19.8801 H   0  0  0  0  0
    6.2202   22.2842   18.7068 H   0  0  0  0  0
    7.3432   21.1786   19.5361 H   0  0  0  0  0
    5.6020   21.1211   19.9052 H   0  0  0  0  0
    9.6479   25.4573   23.1695 H   0  0  0  0  0
   11.1751   27.0707   21.1824 H   0  0  0  0  0
   11.2878   27.2821   24.1976 H   0  0  0  0  0
   10.3464   28.3769   23.0991 H   0  0  0  0  0
   12.8841   27.7114   21.5295 H   0  0  0  0  0
   12.5543   25.6476   20.3141 H   0  0  0  0  0
   13.8613   23.6087   21.8558 H   0  0  0  0  0
   15.2542   23.2280   19.8414 H   0  0  0  0  0
   14.4406   24.7018   19.0934 H   0  0  0  0  0
   12.4939   23.6231   18.8034 H   0  0  0  0  0
   12.9186   22.3290   20.0460 H   0  0  0  0  0
   14.6745   21.6479   18.2672 H   0  0  0  0  0
   13.6431   22.5392   17.1406 H   0  0  0  0  0
   13.0699   19.9551   18.2977 H   0  0  0  0  0
   11.5947   23.0053   17.3604 H   0  0  0  0  0
    9.6269   20.0794   17.6393 H   0  0  0  0  0
   10.9802   19.0521   18.1236 H   0  0  0  0  0
   14.6639   26.9593   21.3657 H   0  0  0  0  0
   17.4513   26.7144   21.8847 H   0  0  0  0  0
   16.0829   28.8081   21.1662 H   0  0  0  0  0
   17.5039   29.0479   22.2561 H   0  0  0  0  0
   15.6392   30.2247   22.9307 H   0  0  0  0  0
   14.8719   26.2473   24.1579 H   0  0  0  0  0
   16.7846   26.5005   26.3783 H   0  0  0  0  0
   14.8515   26.0259   27.8648 H   0  0  0  0  0
   12.7457   25.9213   26.7526 H   0  0  0  0  0
   15.2613   28.3533   27.1102 H   0  0  0  0  0
   14.2385   28.0630   25.6816 H   0  0  0  0  0
   13.5187   28.0462   27.3103 H   0  0  0  0  0
   16.3071   24.1637   24.2050 H   0  0  0  0  0
   15.8754   21.8475   25.8379 H   0  0  0  0  0
   17.4335   20.8922   23.8444 H   0  0  0  0  0
   16.9683   22.4994   23.1399 H   0  0  0  0  0
   14.6418   21.9097   23.5196 H   0  0  0  0  0
   15.1827   20.2734   24.0315 H   0  0  0  0  0
   15.8649   21.5116   21.3566 H   0  0  0  0  0
   14.4389   20.4537   21.6339 H   0  0  0  0  0
   15.9196   18.6725   22.3977 H   0  0  0  0  0
   17.3410   19.7320   22.0853 H   0  0  0  0  0
   16.9470   18.2003   20.2843 H   0  0  0  0  0
   15.4040   18.7908   20.0674 H   0  0  0  0  0
   16.7198   19.7716   19.7782 H   0  0  0  0  0
   20.1239   21.4852   27.4682 H   0  0  0  0  0
   19.0613   21.0764   29.6205 H   0  0  0  0  0
   19.6704   19.5201   29.2705 H   0  0  0  0  0
   16.9267   19.7973   29.6582 H   0  0  0  0  0
   17.4676   18.6645   28.4826 H   0  0  0  0  0
   16.2927   19.9869   26.9443 H   0  0  0  0  0
   16.2237   21.3388   28.0350 H   0  0  0  0  0
   21.4505   18.0104   25.0175 H   0  0  0  0  0
   23.6941   17.5782   25.6522 H   0  0  0  0  0
   23.2200   17.1027   27.2647 H   0  0  0  0  0
   23.8973   19.8066   26.2150 H   0  0  0  0  0
   24.2263   19.1137   27.7826 H   0  0  0  0  0
   22.0692   19.6971   28.6344 H   0  0  0  0  0
   22.1778   20.9242   27.4585 H   0  0  0  0  0
   20.8334   15.8950   24.7637 H   0  0  0  0  0
   19.2249   14.7397   26.9148 H   0  0  0  0  0
   20.3047   13.5586   24.3931 H   0  0  0  0  0
   18.5929   14.2629   24.7486 H   0  0  0  0  0
   19.7296   11.6460   25.7415 H   0  0  0  0  0
   18.2343   12.7172   27.3153 H   0  0  0  0  0
   17.0186   12.9311   26.0319 H   0  0  0  0  0
   17.4775   11.2935   26.5595 H   0  0  0  0  0
   17.6690   12.3013   23.6037 H   0  0  0  0  0
   19.2980   11.6410   23.3185 H   0  0  0  0  0
   18.0849   10.6724   24.1909 H   0  0  0  0  0
   20.1985   14.0441   28.4984 H   0  0  0  0  0
  1  2  1  0  0  0
  2  3  1  0  0  0
  2  5  1  0  0  0
  3  4  2  0  0  0
  3  6  1  0  0  0
  6  7  1  0  0  0
  6 12  1  0  0  0
  7  8  1  0  0  0
  7 10  1  0  0  0
  8  9  2  0  0  0
  8 13  1  0  0  0
 10 11  1  0  0  0
 11 12  1  0  0  0
 13 14  1  0  0  0
 14 15  1  0  0  0
 14 17  1  0  0  0
 15 16  2  0  0  0
 15 19  1  0  0  0
 17 18  1  0  0  0
 19 20  1  0  0  0
 20 21  1  0  0  0
 20 23  1  0  0  0
 21 22  2  0  0  0
 21 27  1  0  0  0
 23 24  1  0  0  0
 23 25  1  0  0  0
 24 26  1  0  0  0
 27 28  1  0  0  0
 28 29  1  0  0  0
 28 31  1  0  0  0
 29 30  2  0  0  0
 29 35  1  0  0  0
 31 32  1  0  0  0
 32 33  1  0  0  0
 32 34  2  0  0  0
 35 36  1  0  0  0
 36 37  1  0  0  0
 36 39  1  0  0  0
 37 38  2  0  0  0
 37 46  1  0  0  0
 39 40  1  0  0  0
 40 41  1  0  0  0
 41 42  1  0  0  0
 42 43  1  0  0  0
 43 44  2  0  0  0
 43 45  1  0  0  0
 46 47  1  0  0  0
 47 48  1  0  0  0
 47 50  1  0  0  0
 48 49  2  0  0  0
 48 52  1  0  0  0
 50 51  1  0  0  0
 52 53  1  0  0  0
 53 54  1  0  0  0
 53 56  1  0  0  0
 54 55  2  0  0  0
 54 59  1  0  0  0
 56 57  1  0  0  0
 56 58  1  0  0  0
 59 60  1  0  0  0
 60 61  1  0  0  0
 60 63  1  0  0  0
 61 62  2  0  0  0
 61 68  1  0  0  0
 63 64  1  0  0  0
 64 65  1  0  0  0
 65 66  1  0  0  0
 66 67  1  0  0  0
 68 69  1  0  0  0
 68 74  1  0  0  0
 69 70  1  0  0  0
 69 72  1  0  0  0
 70 71  2  0  0  0
 70 75  1  0  0  0
 72 73  1  0  0  0
 73 74  1  0  0  0
 75 76  1  0  0  0
 75 81  1  0  0  0
 76 77  1  0  0  0
 76 79  1  0  0  0
 77 78  2  0  0  0
 77 82  1  0  0  0
 79 80  1  0  0  0
 80 81  1  0  0  0
 82 83  1  0  0  0
 83 84  1  0  0  0
 83 86  1  0  0  0
 84 85  2  0  0  0
 84 90  1  0  0  0
 86 87  1  0  0  0
 87 88  1  0  0  0
 87 89  1  0  0  0
  1 91  1  0  0  0
  1 92  1  0  0  0
  1 93  1  0  0  0
  2 94  1  0  0  0
  5 95  1  0  0  0
  5 96  1  0  0  0
  5 97  1  0  0  0
  7 98  1  0  0  0
 10 99  1  0  0  0
 10100  1  0  0  0
 11101  1  0  0  0
 11102  1  0  0  0
 12103  1  0  0  0
 12104  1  0  0  0
 13105  1  0  0  0
 14106  1  0  0  0
 17107  1  0  0  0
 17108  1  0  0  0
 18109  1  0  0  0
 19110  1  0  0  0
 20111  1  0  0  0
 23112  1  0  0  0
 24113  1  0  0  0
 24114  1  0  0  0
 25115  1  0  0  0
 25116  1  0  0  0
 25117  1  0  0  0
 26118  1  0  0  0
 26119  1  0  0  0
 26120  1  0  0  0
 27121  1  0  0  0
 28122  1  0  0  0
 31123  1  0  0  0
 31124  1  0  0  0
 33125  1  0  0  0
 35126  1  0  0  0
 36127  1  0  0  0
 39128  1  0  0  0
 39129  1  0  0  0
 40130  1  0  0  0
 40131  1  0  0  0
 41132  1  0  0  0
 41133  1  0  0  0
 42134  1  0  0  0
 44135  1  0  0  0
 45136  1  0  0  0
 45137  1  0  0  0
 46138  1  0  0  0
 47139  1  0  0  0
 50140  1  0  0  0
 50141  1  0  0  0
 51142  1  0  0  0
 52143  1  0  0  0
 53144  1  0  0  0
 56145  1  0  0  0
 57146  1  0  0  0
 58147  1  0  0  0
 58148  1  0  0  0
 58149  1  0  0  0
 59150  1  0  0  0
 60151  1  0  0  0
 63152  1  0  0  0
 63153  1  0  0  0
 64154  1  0  0  0
 64155  1  0  0  0
 65156  1  0  0  0
 65157  1  0  0  0
 66158  1  0  0  0
 66159  1  0  0  0
 67160  1  0  0  0
 67161  1  0  0  0
 67162  1  0  0  0
 69163  1  0  0  0
 72164  1  0  0  0
 72165  1  0  0  0
 73166  1  0  0  0
 73167  1  0  0  0
 74168  1  0  0  0
 74169  1  0  0  0
 76170  1  0  0  0
 79171  1  0  0  0
 79172  1  0  0  0
 80173  1  0  0  0
 80174  1  0  0  0
 81175  1  0  0  0
 81176  1  0  0  0
 82177  1  0  0  0
 83178  1  0  0  0
 86179  1  0  0  0
 86180  1  0  0  0
 87181  1  0  0  0
 88182  1  0  0  0
 88183  1  0  0  0
 88184  1  0  0  0
 89185  1  0  0  0
 89186  1  0  0  0
 89187  1  0  0  0
 90188  1  0  0  0
M  END
$$$$
