3oqk_ligand
  -I-interpret- 

 54 58  0  0  0  0  0  0  0  0999 V2000
  -13.5620  -20.8620   -2.8560 C   0  0  0  0  0
   -9.6150  -21.9180    0.1330 O   0  0  0  0  0
  -13.7190  -22.2560   -2.9000 C   0  0  0  0  0
  -12.6670  -23.0820   -2.4690 C   0  0  0  0  0
  -11.4240  -22.5600   -2.0040 C   0  0  0  0  0
  -11.3210  -21.1370   -2.0160 C   0  0  0  0  0
  -12.3590  -20.2990   -2.4110 C   0  0  0  0  0
  -10.3430  -23.3090   -1.6350 N   0  0  0  0  0
   -9.8820  -24.3720   -2.3460 C   0  0  0  0  0
   -8.6550  -24.7560   -1.7310 C   0  0  0  0  0
   -8.4260  -23.8700   -0.6780 C   0  0  0  0  0
   -9.4510  -22.9570   -0.7190 C   0  0  0  0  0
  -10.3900  -25.1190   -3.4180 C   0  0  0  0  0
   -9.6650  -26.2290   -3.8680 C   0  0  0  0  0
   -8.4580  -26.6010   -3.2470 C   0  0  0  0  0
   -7.9390  -25.8640   -2.1780 C   0  0  0  0  0
   -9.3580  -22.0380    1.4670 C   0  0  0  0  0
   -8.5240  -21.0750    2.0650 C   0  0  0  0  0
   -8.2510  -21.1990    3.4350 C   0  0  0  0  0
   -8.7810  -22.2610    4.1920 C   0  0  0  0  0
   -9.5950  -23.2000    3.5660 C   0  0  0  0  0
   -9.8940  -23.1010    2.2040 C   0  0  0  0  0
   -7.1890  -23.8150    0.1810 C   0  0  0  0  0
   -6.7020  -24.8170    0.9520 N   0  0  0  0  0
   -6.6030  -22.7020    0.1160 O   0  0  0  0  0
   -7.2860  -26.1540    1.1000 C   0  0  0  0  0
   -7.5970  -26.3810    2.5760 C   0  0  0  0  0
   -6.5550  -25.9060    3.4560 N   0  3  0  0  0
   -5.9190  -24.6280    3.1800 C   0  0  0  0  0
   -5.4770  -24.5800    1.7220 C   0  0  0  0  0
  -14.3805  -20.2141   -3.1697 H   0  0  0  0  0
  -14.6481  -22.6938   -3.2650 H   0  0  0  0  0
  -12.8064  -24.1628   -2.4909 H   0  0  0  0  0
  -10.3816  -20.6835   -1.6997 H   0  0  0  0  0
  -12.2375  -19.2164   -2.3746 H   0  0  0  0  0
  -11.3313  -24.8410   -3.8921 H   0  0  0  0  0
  -10.0398  -26.8120   -4.7093 H   0  0  0  0  0
   -7.9189  -27.4780   -3.6052 H   0  0  0  0  0
   -6.9985  -26.1492   -1.7067 H   0  0  0  0  0
   -8.1027  -20.2570    1.4807 H   0  0  0  0  0
   -7.6165  -20.4591    3.9229 H   0  0  0  0  0
   -8.5565  -22.3467    5.2552 H   0  0  0  0  0
  -10.0060  -24.0258    4.1468 H   0  0  0  0  0
  -10.5347  -23.8401    1.7231 H   0  0  0  0  0
   -6.5846  -26.9093    0.7455 H   0  0  0  0  0
   -8.1992  -26.2302    0.5098 H   0  0  0  0  0
   -7.6966  -27.4553    2.7314 H   0  0  0  0  0
   -8.5060  -25.8274    2.8112 H   0  0  0  0  0
   -5.8067  -26.5937    3.3688 H   0  0  0  0  0
   -7.0135  -25.7794    4.3583 H   0  0  0  0  0
   -5.0490  -24.5098    3.8259 H   0  0  0  0  0
   -6.6283  -23.8224    3.3698 H   0  0  0  0  0
   -5.0164  -23.6251    1.4686 H   0  0  0  0  0
   -4.7108  -25.3243    1.5053 H   0  0  0  0  0
  3  1  4  0  0  0
  7  1  4  0  0  0
 12  2  1  0  0  0
  2 17  1  0  0  0
  4  3  4  0  0  0
  5  4  4  0  0  0
  5  6  4  0  0  0
  8  5  1  0  0  0
  6  7  4  0  0  0
  8  9  4  0  0  0
  8 12  4  0  0  0
  9 10  4  0  0  0
  9 13  4  0  0  0
 10 11  4  0  0  0
 10 16  4  0  0  0
 11 12  4  0  0  0
 11 23  1  0  0  0
 13 14  4  0  0  0
 14 15  4  0  0  0
 15 16  4  0  0  0
 17 18  4  0  0  0
 17 22  4  0  0  0
 18 19  4  0  0  0
 19 20  4  0  0  0
 20 21  4  0  0  0
 21 22  4  0  0  0
 23 24  1  0  0  0
 23 25  2  0  0  0
 24 26  1  0  0  0
 24 30  1  0  0  0
 26 27  1  0  0  0
 27 28  1  0  0  0
 28 29  1  0  0  0
 29 30  1  0  0  0
  1 31  1  0  0  0
  3 32  1  0  0  0
  4 33  1  0  0  0
  6 34  1  0  0  0
  7 35  1  0  0  0
 13 36  1  0  0  0
 14 37  1  0  0  0
 15 38  1  0  0  0
 16 39  1  0  0  0
 18 40  1  0  0  0
 19 41  1  0  0  0
 20 42  1  0  0  0
 21 43  1  0  0  0
 22 44  1  0  0  0
 26 45  1  0  0  0
 26 46  1  0  0  0
 27 47  1  0  0  0
 27 48  1  0  0  0
 28 49  1  0  0  0
 28 50  1  0  0  0
 29 51  1  0  0  0
 29 52  1  0  0  0
 30 53  1  0  0  0
 30 54  1  0  0  0
M  END
$$$$
