3nim_ligand
  -I-interpret- 

 70 69  0  0  0  0  0  0  0  0999 V2000
  -30.4490   -2.7610   -4.9540 N   0  3  0  0  0
  -30.9280   -3.6120   -6.0840 C   0  0  0  0  0
  -29.8220   -4.5240   -6.6050 C   0  0  0  0  0
  -28.6550   -4.3700   -6.2400 O   0  0  0  0  0
  -31.4510   -2.7430   -7.2330 C   0  0  0  0  0
  -32.2670   -1.5280   -6.8240 C   0  0  0  0  0
  -33.6390   -1.9180   -6.3260 C   0  0  0  0  0
  -34.6040   -0.8280   -6.4530 N   0  0  0  0  0
  -34.6530    0.2490   -5.6660 C   0  0  0  0  0
  -33.7820    0.4120   -4.6730 N   0  0  0  0  0
  -35.5890    1.1700   -5.8720 N   0  0  0  0  0
  -30.1940   -5.4660   -7.4710 N   0  0  0  0  0
  -29.2300   -6.3540   -8.1100 C   0  0  0  0  0
  -29.0200   -5.8980   -9.5450 C   0  0  0  0  0
  -29.9480   -5.3650  -10.1600 O   0  0  0  0  0
  -29.7270   -7.8020   -8.0760 C   0  0  0  0  0
  -30.8860   -8.0870   -9.0190 C   0  0  0  0  0
  -31.7710   -9.2010   -8.5160 C   0  0  0  0  0
  -31.2890  -10.5320   -8.8820 N   0  0  0  0  0
  -31.7080  -11.6720   -8.3270 C   0  0  0  0  0
  -32.6190  -11.6730   -7.3570 N   0  0  0  0  0
  -31.2030  -12.8250   -8.7460 N   0  0  0  0  0
  -27.8100   -6.1050  -10.0680 N   0  0  0  0  0
  -27.4900   -5.7660  -11.4610 C   0  0  0  0  0
  -28.2620   -6.6610  -12.4310 C   0  0  0  0  0
  -28.0160   -7.8710  -12.5080 O   0  0  0  0  0
  -25.9770   -5.8480  -11.7190 C   0  0  0  0  0
  -29.2070   -6.0420  -13.1450 N   0  0  0  0  0
  -30.1180   -6.7070  -14.0990 C   0  0  0  0  0
  -31.0690   -7.7250  -13.4540 C   0  0  0  0  0
  -30.9050   -8.1230  -12.2970 O   0  0  0  0  0
  -29.3440   -7.3260  -15.2790 C   0  0  0  0  0
  -32.0420   -8.1740  -14.0680 O   0  0  0  0  0
  -30.1060   -3.3584   -4.2017 H   0  0  0  0  0
  -29.6949   -2.1569   -5.2808 H   0  0  0  0  0
  -31.2201   -2.1885   -4.6104 H   0  0  0  0  0
  -31.7381   -4.2315   -5.6992 H   0  0  0  0  0
  -32.1153   -3.3766   -7.8207 H   0  0  0  0  0
  -30.5734   -2.3629   -7.7558 H   0  0  0  0  0
  -32.3881   -0.8861   -7.6966 H   0  0  0  0  0
  -31.7413   -1.0170   -6.0173 H   0  0  0  0  0
  -33.5556   -2.1752   -5.2701 H   0  0  0  0  0
  -33.9925   -2.7552   -6.9279 H   0  0  0  0  0
  -35.2938   -0.8954   -7.2013 H   0  0  0  0  0
  -33.8362    1.2384   -4.0776 H   0  0  0  0  0
  -33.0603   -0.2895   -4.5074 H   0  0  0  0  0
  -36.2638    1.0512   -6.6276 H   0  0  0  0  0
  -31.1840   -5.5691   -7.6938 H   0  0  0  0  0
  -28.2839   -6.3131   -7.5703 H   0  0  0  0  0
  -30.0814   -7.9962   -7.0637 H   0  0  0  0  0
  -28.8959   -8.4342   -8.3884 H   0  0  0  0  0
  -30.4731   -8.3906   -9.9810 H   0  0  0  0  0
  -31.4901   -7.1830   -9.0960 H   0  0  0  0  0
  -32.7542   -9.0706   -8.9682 H   0  0  0  0  0
  -31.7864   -9.1438   -7.4276 H   0  0  0  0  0
  -30.5816  -10.5942   -9.6142 H   0  0  0  0  0
  -32.9224  -12.5545   -6.9432 H   0  0  0  0  0
  -33.0138  -10.7922   -7.0273 H   0  0  0  0  0
  -30.5010  -12.8355   -9.4859 H   0  0  0  0  0
  -27.0825   -6.5125   -9.4805 H   0  0  0  0  0
  -27.8001   -4.7355  -11.6341 H   0  0  0  0  0
  -25.4593   -5.1487  -11.0624 H   0  0  0  0  0
  -25.6299   -6.8616  -11.5184 H   0  0  0  0  0
  -25.7726   -5.5916  -12.7585 H   0  0  0  0  0
  -29.3068   -5.0344  -13.0220 H   0  0  0  0  0
  -30.7608   -5.9160  -14.4853 H   0  0  0  0  0
  -28.8017   -6.5419  -15.8074 H   0  0  0  0  0
  -28.6385   -8.0659  -14.9009 H   0  0  0  0  0
  -30.0462   -7.8065  -15.9603 H   0  0  0  0  0
  -32.0653   -7.7949  -14.9497 H   0  0  0  0  0
  1  2  1  0  0  0
  2  3  1  0  0  0
  2  5  1  0  0  0
  3  4  2  0  0  0
  3 12  1  0  0  0
  5  6  1  0  0  0
  6  7  1  0  0  0
  7  8  1  0  0  0
  8  9  1  0  0  0
  9 10  1  0  0  0
  9 11  2  0  0  0
 12 13  1  0  0  0
 13 14  1  0  0  0
 13 16  1  0  0  0
 14 15  2  0  0  0
 14 23  1  0  0  0
 16 17  1  0  0  0
 17 18  1  0  0  0
 18 19  1  0  0  0
 19 20  1  0  0  0
 20 21  1  0  0  0
 20 22  2  0  0  0
 23 24  1  0  0  0
 24 25  1  0  0  0
 24 27  1  0  0  0
 25 26  2  0  0  0
 25 28  1  0  0  0
 28 29  1  0  0  0
 29 30  1  0  0  0
 29 32  1  0  0  0
 30 31  2  0  0  0
 30 33  1  0  0  0
  1 34  1  0  0  0
  1 35  1  0  0  0
  1 36  1  0  0  0
  2 37  1  0  0  0
  5 38  1  0  0  0
  5 39  1  0  0  0
  6 40  1  0  0  0
  6 41  1  0  0  0
  7 42  1  0  0  0
  7 43  1  0  0  0
  8 44  1  0  0  0
 10 45  1  0  0  0
 10 46  1  0  0  0
 11 47  1  0  0  0
 12 48  1  0  0  0
 13 49  1  0  0  0
 16 50  1  0  0  0
 16 51  1  0  0  0
 17 52  1  0  0  0
 17 53  1  0  0  0
 18 54  1  0  0  0
 18 55  1  0  0  0
 19 56  1  0  0  0
 21 57  1  0  0  0
 21 58  1  0  0  0
 22 59  1  0  0  0
 23 60  1  0  0  0
 24 61  1  0  0  0
 27 62  1  0  0  0
 27 63  1  0  0  0
 27 64  1  0  0  0
 28 65  1  0  0  0
 29 66  1  0  0  0
 32 67  1  0  0  0
 32 68  1  0  0  0
 32 69  1  0  0  0
 33 70  1  0  0  0
M  END
$$$$
