### 
### Created by X-TOOL on Mon Sep 10 21:13:28 2018
### 

@<TRIPOS>MOLECULE
4z0e_ligand
  199   203     1     0     0
SMALL
GAST_HUCK


@<TRIPOS>ATOM
      1 N          -9.6730   19.5320  -28.6050 N.4       1 CYS         0.2385
      2 CA        -10.8010   20.3180  -28.1130 C.3       1 CYS         0.0749
      3 C         -11.8210   19.4690  -27.3540 C.2       1 CYS         0.2276
      4 O         -12.2310   18.3990  -27.8100 O.2       1 CYS        -0.3907
      5 CB        -11.4910   21.0410  -29.2710 C.3       1 CYS         0.0643
      6 SG        -10.6900   22.5830  -29.7730 S.3       1 CYS        -0.0848
      7 N         -12.2250   19.9650  -26.1900 N.am      1 TRN        -0.2599
      8 CA        -13.2300   19.3240  -25.3790 C.3       1 TRN         0.1355
      9 CB        -12.7120   18.6450  -24.0920 C.3       1 TRN         0.0056
     10 CG        -11.8350   17.5130  -24.4100 C.2       1 TRN        -0.0338
     11 CD1       -12.1980   16.1620  -24.3950 C.2       1 TRN         0.0225
     12 CD2       -10.4480   17.5720  -24.8080 C.ar      1 TRN         0.0056
     13 NE1       -11.1160   15.3590  -24.7550 N.pl3     1 TRN        -0.2745
     14 CE2       -10.0190   16.1940  -25.0210 C.ar      1 TRN         0.1319
     15 CE3        -9.5080   18.5840  -25.0160 C.ar      1 TRN        -0.0554
     16 NZ2        -8.7590   15.8250  -25.4090 N.ar      1 TRN        -0.2874
     17 CH2        -7.9100   16.8440  -25.5880 C.ar      1 TRN        -0.0063
     18 CZ3        -8.2280   18.2170  -25.4090 C.ar      1 TRN        -0.0511
     19 C         -14.2160   20.3900  -24.9410 C.2       1 TRN         0.2052
     20 O         -13.9560   21.5940  -24.9250 O.2       1 TRN        -0.3942
     21 N         -15.4070   19.9320  -24.5710 N.am      1 THR        -0.2612
     22 CA        -16.4400   20.8310  -24.0720 C.3       1 THR         0.1565
     23 C         -16.8390   20.4410  -22.6530 C.2       1 THR         0.2065
     24 O         -17.1460   19.2810  -22.3860 O.2       1 THR        -0.3943
     25 CB        -17.6890   20.8280  -24.9810 C.3       1 THR         0.0924
     26 OG1       -17.3280   21.2690  -26.2970 O.3       1 THR        -0.3874
     27 CG2       -18.7580   21.7570  -24.4250 C.3       1 THR        -0.0346
     28 N         -16.8210   21.4060  -21.7390 N.am      1 THR        -0.2613
     29 CA        -17.2030   21.1280  -20.3620 C.3       1 THR         0.1565
     30 C         -18.6880   20.8090  -20.2770 C.2       1 THR         0.2065
     31 O         -19.5060   21.4140  -20.9720 O.2       1 THR        -0.3943
     32 CB        -16.8770   22.2970  -19.4230 C.3       1 THR         0.0924
     33 OG1       -17.5210   23.4910  -19.8900 O.3       1 THR        -0.3874
     34 CG2       -15.3820   22.5140  -19.3710 C.3       1 THR        -0.0346
     35 N         -19.0270   19.8440  -19.4300 N.am      1 ARG        -0.2636
     36 CA        -20.4110   19.4340  -19.2580 C.3       1 ARG         0.1311
     37 C         -21.1160   20.3050  -18.2230 C.2       1 ARG         0.2039
     38 O         -22.3220   20.5330  -18.3110 O.2       1 ARG        -0.3944
     39 CB        -20.4820   17.9600  -18.8530 C.3       1 ARG        -0.0092
     40 CG        -19.8690   17.0120  -19.8740 C.3       1 ARG        -0.0156
     41 CD        -20.0570   15.5560  -19.4650 C.3       1 ARG         0.0627
     42 NE        -19.8090   14.6450  -20.5800 N.pl3     1 ARG        -0.2723
     43 CZ        -18.6610   14.0050  -20.7930 C.cat     1 ARG         0.2882
     44 NH1       -17.6370   14.1600  -19.9610 N.pl3     1 ARG        -0.2849
     45 NH2       -18.5400   13.2000  -21.8390 N.pl3     1 ARG        -0.2849
     46 N         -20.3610   20.7960  -17.2450 N.am      1 MET        -0.2637
     47 CA        -20.9400   21.6100  -16.1790 C.3       1 MET         0.1317
     48 C         -20.9820   23.0930  -16.5400 C.2       1 MET         0.2039
     49 O         -20.0800   23.6110  -17.2020 O.2       1 MET        -0.3944
     50 CB        -20.1690   21.4090  -14.8720 C.3       1 MET        -0.0034
     51 CG        -20.4840   20.0920  -14.1820 C.3       1 MET        -0.0024
     52 SD        -19.5880   19.8450  -12.6380 S.3       1 MET        -0.1639
     53 CE        -17.9080   19.6600  -13.2290 C.3       1 MET        -0.0181
     54 N         -22.0440   23.7630  -16.1020 N.am      1 SER        -0.2640
     55 CA        -22.2360   25.1840  -16.3690 C.3       1 SER         0.1284
     56 C         -21.2010   26.0230  -15.6280 C.2       1 SER         0.2061
     57 O         -20.9190   25.7700  -14.4580 O.2       1 SER        -0.3942
     58 CB        -23.6490   25.6180  -15.9720 C.3       1 SER        -0.0244
     59 N         -20.6320   27.0310  -16.3080 N.am      1 PRO        -0.2498
     60 CA        -20.9400   27.3800  -17.7000 C.3       1 PRO         0.1340
     61 C         -20.1760   26.5310  -18.7140 C.2       1 PRO         0.2066
     62 O         -18.9820   26.2890  -18.5350 O.2       1 PRO        -0.3942
     63 CB        -20.5080   28.8440  -17.7870 C.3       1 PRO        -0.0104
     64 CG        -19.3730   28.9390  -16.8240 C.3       1 PRO        -0.0281
     65 CD        -19.6890   27.9860  -15.6980 C.3       1 PRO         0.0369
     66 N         -20.8660   26.0770  -19.7710 N.am      1 PRO        -0.2498
     67 CA        -20.2330   25.2920  -20.8360 C.3       1 PRO         0.1338
     68 C         -19.2090   26.1150  -21.6090 C.2       1 PRO         0.2041
     69 O         -19.4880   27.2570  -21.9730 O.2       1 PRO        -0.3944
     70 CB        -21.4120   24.8980  -21.7380 C.3       1 PRO        -0.0104
     71 CG        -22.6340   25.0860  -20.8930 C.3       1 PRO        -0.0281
     72 CD        -22.3140   26.2310  -19.9880 C.3       1 PRO         0.0369
     73 N         -18.0380   25.5380  -21.8510 N.am      1 GLN        -0.2636
     74 CA        -16.9830   26.2230  -22.5870 C.3       1 GLN         0.1330
     75 C         -16.1700   25.2330  -23.4140 C.2       1 GLN         0.2040
     76 O         -16.2020   24.0280  -23.1640 O.2       1 GLN        -0.3944
     77 CB        -16.0670   26.9870  -21.6280 C.3       1 GLN         0.0045
     78 CG        -15.1660   26.0930  -20.7930 C.3       1 GLN         0.0412
     79 CD        -14.3980   26.8570  -19.7310 C.2       1 GLN         0.1737
     80 OE1       -13.3940   27.5100  -20.0230 O.2       1 GLN        -0.3973
     81 NE2       -14.8630   26.7740  -18.4890 N.am      1 GLN        -0.3009
     82 N         -15.4420   25.7460  -24.3980 N.am      1 GLN        -0.2640
     83 CA        -14.6080   24.9020  -25.2440 C.3       1 GLN         0.1282
     84 C         -13.1420   25.0570  -24.8690 C.2       1 GLN         0.2036
     85 O         -12.5890   26.1560  -24.9250 O.2       1 GLN        -0.3944
     86 CB        -14.8150   25.2390  -26.7210 C.3       1 GLN        -0.0244
     87 N         -12.5210   23.9480  -24.4840 N.am      1 ILE        -0.2635
     88 CA        -11.1140   23.9440  -24.1050 C.3       1 ILE         0.1335
     89 C         -10.3170   23.0770  -25.0700 C.2       1 ILE         0.2036
     90 O         -10.6030   21.8920  -25.2230 O.2       1 ILE        -0.3944
     91 CB        -10.9220   23.4320  -22.6670 C.3       1 ILE        -0.0037
     92 CG1       -11.7370   24.2850  -21.6910 C.3       1 ILE        -0.0491
     93 CG2        -9.4450   23.4350  -22.2920 C.3       1 ILE        -0.0582
     94 CD1       -11.7680   23.7400  -20.2820 C.3       1 ILE        -0.0648
     95 N          -9.3190   23.6700  -25.7170 N.am      1 CYS        -0.2686
     96 CA         -8.5650   22.9750  -26.7570 C.3       1 CYS         0.1041
     97 C          -7.1240   22.6860  -26.3420 C.2       1 CYS         0.0609
     98 O          -6.4720   23.5150  -25.7100 O.co2     1 CYS        -0.5666
     99 CB         -8.5810   23.7940  -28.0490 C.3       1 CYS         0.0388
    100 SG        -10.2430   24.2040  -28.6340 S.3       1 CYS        -0.0887
    101 OXT        -6.5870   21.6190  -26.6320 O.co2     1 CYS        -0.5666
    102 H1         -9.0319   20.1353  -29.0961 H         1 CYS         0.2015
    103 H2        -10.0091   18.8177  -29.2317 H         1 CYS         0.2015
    104 H3         -9.1992   19.1006  -27.8269 H         1 CYS         0.2015
    105 H4        -10.4063   21.0742  -27.4185 H         1 CYS         0.1107
    106 H5        -12.5223   21.2725  -28.9664 H         1 CYS         0.0466
    107 H6        -11.5079   20.3641  -30.1379 H         1 CYS         0.0466
    108 H7        -11.8158   20.8169  -25.8631 H         1 TRN         0.1886
    109 H8        -13.7392   18.5667  -25.9932 H         1 TRN         0.0815
    110 H9        -13.5697   18.2819  -23.5069 H         1 TRN         0.0398
    111 H10       -12.1487   19.3806  -23.4991 H         1 TRN         0.0398
    112 H11       -13.1883   15.7890  -24.1378 H         1 TRN         0.0826
    113 H12       -11.1208   14.3308  -24.8153 H         1 TRN         0.2255
    114 H13        -9.7704   19.6262  -24.8746 H         1 TRN         0.0672
    115 H14        -6.8986   16.6023  -25.8941 H         1 TRN         0.0747
    116 H15        -7.4731   18.9762  -25.5788 H         1 TRN         0.0593
    117 H16       -15.5982   18.9526  -24.6361 H         1 THR         0.1884
    118 H17       -16.0282   21.8508  -24.0534 H         1 THR         0.0826
    119 H18       -18.0911   19.8056  -25.0358 H         1 THR         0.0639
    120 H19       -16.6732   20.6828  -26.6577 H         1 THR         0.2101
    121 H20       -19.6375   21.7407  -25.0854 H         1 THR         0.0257
    122 H21       -18.3607   22.7812  -24.3688 H         1 THR         0.0257
    123 H22       -19.0488   21.4208  -23.4188 H         1 THR         0.0257
    124 H23       -16.5428   22.3305  -21.9994 H         1 THR         0.1884
    125 H24       -16.6366   20.2479  -20.0235 H         1 THR         0.0826
    126 H25       -17.2428   22.0606  -18.4129 H         1 THR         0.0639
    127 H26       -18.4611   23.3557  -19.9088 H         1 THR         0.2101
    128 H27       -15.1566   23.3530  -18.6963 H         1 THR         0.0257
    129 H28       -15.0096   22.7447  -20.3800 H         1 THR         0.0257
    130 H29       -14.8919   21.6023  -18.9988 H         1 THR         0.0257
    131 H30       -18.3132   19.3886  -18.8979 H         1 ARG         0.1883
    132 H31       -20.9290   19.5550  -20.2208 H         1 ARG         0.0800
    133 H32       -21.5393   17.6879  -18.7182 H         1 ARG         0.0313
    134 H33       -19.9471   17.8361  -17.8999 H         1 ARG         0.0313
    135 H34       -18.7929   17.2239  -19.9580 H         1 ARG         0.0301
    136 H35       -20.3520   17.1750  -20.8487 H         1 ARG         0.0301
    137 H36       -21.0894   15.4152  -19.1126 H         1 ARG         0.0689
    138 H37       -19.3562   15.3212  -18.6503 H         1 ARG         0.0689
    139 H38       -20.5764   14.4867  -21.2485 H         1 ARG         0.2642
    140 H39       -16.7528   13.6608  -20.1339 H         1 ARG         0.2615
    141 H40       -17.7272   14.7794  -19.1430 H         1 ARG         0.2615
    142 H41       -19.3305   13.0759  -22.4875 H         1 ARG         0.2615
    143 H42       -17.6554   12.6986  -22.0033 H         1 ARG         0.2615
    144 H43       -19.3795   20.6047  -17.2390 H         1 MET         0.1883
    145 H44       -21.9749   21.2716  -16.0229 H         1 MET         0.0800
    146 H45       -20.4236   22.2311  -14.1870 H         1 MET         0.0320
    147 H46       -19.0921   21.4372  -15.0945 H         1 MET         0.0320
    148 H47       -20.2259   19.2713  -14.8674 H         1 MET         0.0378
    149 H48       -21.5621   20.0635  -13.9653 H         1 MET         0.0378
    150 H49       -17.2344   19.4987  -12.3745 H         1 MET         0.0340
    151 H50       -17.6062   20.5707  -13.7670 H         1 MET         0.0340
    152 H51       -17.8513   18.7969  -13.9085 H         1 MET         0.0340
    153 H52       -22.7361   23.2748  -15.5703 H         1 SER         0.1883
    154 H53       -22.1103   25.3527  -17.4487 H         1 SER         0.0797
    155 H54       -23.7751   26.6907  -16.1802 H         1 SER         0.0277
    156 H55       -23.8016   25.4325  -14.8986 H         1 SER         0.0277
    157 H56       -24.3858   25.0429  -16.5519 H         1 SER         0.0277
    158 H57       -22.0184   27.2773  -17.8911 H         1 PRO         0.0802
    159 H58       -21.3295   29.5131  -17.4913 H         1 PRO         0.0313
    160 H59       -20.1790   29.0954  -18.8061 H         1 PRO         0.0313
    161 H60       -19.2850   29.9659  -16.4398 H         1 PRO         0.0287
    162 H61       -18.4322   28.6492  -17.3149 H         1 PRO         0.0287
    163 H62       -18.7800   27.4731  -15.3506 H         1 PRO         0.0524
    164 H63       -20.1564   28.5154  -14.8547 H         1 PRO         0.0524
    165 H64       -19.7418   24.3994  -20.4214 H         1 PRO         0.0802
    166 H65       -21.3206   23.8489  -22.0557 H         1 PRO         0.0313
    167 H66       -21.4529   25.5475  -22.6248 H         1 PRO         0.0313
    168 H67       -22.8412   24.1782  -20.3075 H         1 PRO         0.0287
    169 H68       -23.5047   25.3234  -21.5218 H         1 PRO         0.0287
    170 H69       -22.5428   27.1931  -20.4696 H         1 PRO         0.0524
    171 H70       -22.8675   26.1543  -19.0405 H         1 PRO         0.0524
    172 H71       -17.8756   24.6086  -21.5194 H         1 GLN         0.1883
    173 H72       -17.4513   26.9457  -23.2714 H         1 GLN         0.0801
    174 H73       -16.6956   27.5785  -20.9462 H         1 GLN         0.0337
    175 H74       -15.4319   27.6624  -22.2200 H         1 GLN         0.0337
    176 H75       -14.4448   25.5993  -21.4609 H         1 GLN         0.0504
    177 H76       -15.7875   25.3324  -20.2979 H         1 GLN         0.0504
    178 H77       -14.3973   27.2569  -17.7474 H         1 GLN         0.1814
    179 H78       -15.6786   26.2286  -18.2959 H         1 GLN         0.1814
    180 H79       -15.4663   26.7321  -24.5623 H         1 GLN         0.1883
    181 H80       -14.9000   23.8538  -25.0829 H         1 GLN         0.0797
    182 H81       -14.1761   24.5901  -27.3381 H         1 GLN         0.0277
    183 H82       -14.5483   26.2914  -26.8979 H         1 GLN         0.0277
    184 H83       -15.8694   25.0778  -26.9896 H         1 GLN         0.0277
    185 H84       -13.0342   23.0903  -24.4533 H         1 ILE         0.1883
    186 H85       -10.7358   24.9754  -24.1613 H         1 ILE         0.0803
    187 H86       -11.2898   22.3967  -22.6136 H         1 ILE         0.0345
    188 H87       -12.7707   24.3444  -22.0624 H         1 ILE         0.0267
    189 H88       -11.2989   25.2936  -21.6629 H         1 ILE         0.0267
    190 H89        -8.8838   22.8162  -23.0076 H         1 ILE         0.0235
    191 H90        -9.3232   23.0252  -21.2785 H         1 ILE         0.0235
    192 H91        -9.0618   24.4657  -22.3193 H         1 ILE         0.0235
    193 H92       -12.3697   24.4049  -19.6449 H         1 ILE         0.0230
    194 H93       -10.7426   23.6838  -19.8879 H         1 ILE         0.0230
    195 H94       -12.2144   22.7347  -20.2874 H         1 ILE         0.0230
    196 H95        -9.0790   24.6130  -25.4866 H         1 CYS         0.1876
    197 H96        -9.0615   22.0124  -26.9490 H         1 CYS         0.0734
    198 H97        -8.0706   23.2151  -28.8328 H         1 CYS         0.0425
    199 H98        -8.0347   24.7321  -27.8716 H         1 CYS         0.0425
@<TRIPOS>BOND
     1    1    2 1  
     2    2    3 1  
     3    2    5 1  
     4    3    4 2  
     5    3    7 am 
     6    5    6 1  
     7    6  100 1  
     8    7    8 1  
     9    8    9 1  
    10    8   19 1  
    11    9   10 1  
    12   10   11 2  
    13   10   12 1  
    14   11   13 1  
    15   12   14 ar 
    16   12   15 ar 
    17   13   14 1  
    18   14   16 ar 
    19   15   18 ar 
    20   16   17 ar 
    21   17   18 ar 
    22   19   20 2  
    23   19   21 am 
    24   21   22 1  
    25   22   23 1  
    26   22   25 1  
    27   23   24 2  
    28   23   28 am 
    29   25   26 1  
    30   25   27 1  
    31   28   29 1  
    32   29   30 1  
    33   29   32 1  
    34   30   31 2  
    35   30   35 am 
    36   32   33 1  
    37   32   34 1  
    38   35   36 1  
    39   36   37 1  
    40   36   39 1  
    41   37   38 2  
    42   37   46 am 
    43   39   40 1  
    44   40   41 1  
    45   41   42 1  
    46   42   43 ar 
    47   43   44 ar 
    48   43   45 ar 
    49   46   47 1  
    50   47   48 1  
    51   47   50 1  
    52   48   49 2  
    53   48   54 am 
    54   50   51 1  
    55   51   52 1  
    56   52   53 1  
    57   54   55 1  
    58   55   56 1  
    59   55   58 1  
    60   56   57 2  
    61   56   59 am 
    62   59   60 1  
    63   59   65 1  
    64   60   61 1  
    65   60   63 1  
    66   61   62 2  
    67   61   66 am 
    68   63   64 1  
    69   64   65 1  
    70   66   67 1  
    71   66   72 1  
    72   67   68 1  
    73   67   70 1  
    74   68   69 2  
    75   68   73 am 
    76   70   71 1  
    77   71   72 1  
    78   73   74 1  
    79   74   75 1  
    80   74   77 1  
    81   75   76 2  
    82   75   82 am 
    83   77   78 1  
    84   78   79 1  
    85   79   80 2  
    86   79   81 am 
    87   82   83 1  
    88   83   84 1  
    89   83   86 1  
    90   84   85 2  
    91   84   87 am 
    92   87   88 1  
    93   88   89 1  
    94   88   91 1  
    95   89   90 2  
    96   89   95 am 
    97   91   92 1  
    98   91   93 1  
    99   92   94 1  
   100   95   96 1  
   101   96   97 1  
   102   96   99 1  
   103   97   98 ar 
   104   97  101 ar 
   105   99  100 1  
   106    1  102 1  
   107    1  103 1  
   108    1  104 1  
   109    2  105 1  
   110    5  106 1  
   111    5  107 1  
   112    7  108 1  
   113    8  109 1  
   114    9  110 1  
   115    9  111 1  
   116   11  112 1  
   117   13  113 1  
   118   15  114 1  
   119   17  115 1  
   120   18  116 1  
   121   21  117 1  
   122   22  118 1  
   123   25  119 1  
   124   26  120 1  
   125   27  121 1  
   126   27  122 1  
   127   27  123 1  
   128   28  124 1  
   129   29  125 1  
   130   32  126 1  
   131   33  127 1  
   132   34  128 1  
   133   34  129 1  
   134   34  130 1  
   135   35  131 1  
   136   36  132 1  
   137   39  133 1  
   138   39  134 1  
   139   40  135 1  
   140   40  136 1  
   141   41  137 1  
   142   41  138 1  
   143   42  139 1  
   144   44  140 1  
   145   44  141 1  
   146   45  142 1  
   147   45  143 1  
   148   46  144 1  
   149   47  145 1  
   150   50  146 1  
   151   50  147 1  
   152   51  148 1  
   153   51  149 1  
   154   53  150 1  
   155   53  151 1  
   156   53  152 1  
   157   54  153 1  
   158   55  154 1  
   159   58  155 1  
   160   58  156 1  
   161   58  157 1  
   162   60  158 1  
   163   63  159 1  
   164   63  160 1  
   165   64  161 1  
   166   64  162 1  
   167   65  163 1  
   168   65  164 1  
   169   67  165 1  
   170   70  166 1  
   171   70  167 1  
   172   71  168 1  
   173   71  169 1  
   174   72  170 1  
   175   72  171 1  
   176   73  172 1  
   177   74  173 1  
   178   77  174 1  
   179   77  175 1  
   180   78  176 1  
   181   78  177 1  
   182   81  178 1  
   183   81  179 1  
   184   82  180 1  
   185   83  181 1  
   186   86  182 1  
   187   86  183 1  
   188   86  184 1  
   189   87  185 1  
   190   88  186 1  
   191   91  187 1  
   192   92  188 1  
   193   92  189 1  
   194   93  190 1  
   195   93  191 1  
   196   93  192 1  
   197   94  193 1  
   198   94  194 1  
   199   94  195 1  
   200   95  196 1  
   201   96  197 1  
   202   99  198 1  
   203   99  199 1  
@<TRIPOS>SUBSTRUCTURE
     1 CYS         1

