4z0e_ligand
  -I-interpret- 

198202  0  0  0  0  0  0  0  0999 V2000
   -9.6730   19.5320  -28.6050 N   0  3  0  0  0
  -10.8010   20.3180  -28.1130 C   0  0  0  0  0
  -11.8210   19.4690  -27.3540 C   0  0  0  0  0
  -12.2310   18.3990  -27.8100 O   0  0  0  0  0
  -11.4910   21.0410  -29.2710 C   0  0  0  0  0
  -10.6900   22.5830  -29.7730 S   0  0  0  0  0
  -12.2250   19.9650  -26.1900 N   0  0  0  0  0
  -13.2300   19.3240  -25.3790 C   0  0  0  0  0
  -12.7120   18.6450  -24.0920 C   0  0  0  0  0
  -11.8350   17.5130  -24.4100 C   0  0  0  0  0
  -12.1980   16.1620  -24.3950 C   0  0  0  0  0
  -10.4480   17.5720  -24.8080 C   0  0  0  0  0
  -11.1160   15.3590  -24.7550 N   0  0  0  0  0
  -10.0190   16.1940  -25.0210 C   0  0  0  0  0
   -9.5080   18.5840  -25.0160 C   0  0  0  0  0
   -8.7590   15.8250  -25.4090 N   0  0  0  0  0
   -7.9100   16.8440  -25.5880 C   0  0  0  0  0
   -8.2280   18.2170  -25.4090 C   0  0  0  0  0
  -14.2160   20.3900  -24.9410 C   0  0  0  0  0
  -13.9560   21.5940  -24.9250 O   0  0  0  0  0
  -15.4070   19.9320  -24.5710 N   0  0  0  0  0
  -16.4400   20.8310  -24.0720 C   0  0  0  0  0
  -16.8390   20.4410  -22.6530 C   0  0  0  0  0
  -17.1460   19.2810  -22.3860 O   0  0  0  0  0
  -17.6890   20.8280  -24.9810 C   0  0  0  0  0
  -17.3280   21.2690  -26.2970 O   0  0  0  0  0
  -18.7580   21.7570  -24.4250 C   0  0  0  0  0
  -16.8210   21.4060  -21.7390 N   0  0  0  0  0
  -17.2030   21.1280  -20.3620 C   0  0  0  0  0
  -18.6880   20.8090  -20.2770 C   0  0  0  0  0
  -19.5060   21.4140  -20.9720 O   0  0  0  0  0
  -16.8770   22.2970  -19.4230 C   0  0  0  0  0
  -17.5210   23.4910  -19.8900 O   0  0  0  0  0
  -15.3820   22.5140  -19.3710 C   0  0  0  0  0
  -19.0270   19.8440  -19.4300 N   0  0  0  0  0
  -20.4110   19.4340  -19.2580 C   0  0  0  0  0
  -21.1160   20.3050  -18.2230 C   0  0  0  0  0
  -22.3220   20.5330  -18.3110 O   0  0  0  0  0
  -20.4820   17.9600  -18.8530 C   0  0  0  0  0
  -19.8690   17.0120  -19.8740 C   0  0  0  0  0
  -20.0570   15.5560  -19.4650 C   0  0  0  0  0
  -19.8090   14.6450  -20.5800 N   0  0  0  0  0
  -18.6610   14.0050  -20.7930 C   0  0  0  0  0
  -17.6370   14.1600  -19.9610 N   0  0  0  0  0
  -18.5400   13.2000  -21.8390 N   0  0  0  0  0
  -20.3610   20.7960  -17.2450 N   0  0  0  0  0
  -20.9400   21.6100  -16.1790 C   0  0  0  0  0
  -20.9820   23.0930  -16.5400 C   0  0  0  0  0
  -20.0800   23.6110  -17.2020 O   0  0  0  0  0
  -20.1690   21.4090  -14.8720 C   0  0  0  0  0
  -20.4840   20.0920  -14.1820 C   0  0  0  0  0
  -19.5880   19.8450  -12.6380 S   0  0  0  0  0
  -17.9080   19.6600  -13.2290 C   0  0  0  0  0
  -22.0440   23.7630  -16.1020 N   0  0  0  0  0
  -22.2360   25.1840  -16.3690 C   0  0  0  0  0
  -21.2010   26.0230  -15.6280 C   0  0  0  0  0
  -20.9190   25.7700  -14.4580 O   0  0  0  0  0
  -23.6490   25.6180  -15.9720 C   0  0  0  0  0
  -20.6320   27.0310  -16.3080 N   0  0  0  0  0
  -20.9400   27.3800  -17.7000 C   0  0  0  0  0
  -20.1760   26.5310  -18.7140 C   0  0  0  0  0
  -18.9820   26.2890  -18.5350 O   0  0  0  0  0
  -20.5080   28.8440  -17.7870 C   0  0  0  0  0
  -19.3730   28.9390  -16.8240 C   0  0  0  0  0
  -19.6890   27.9860  -15.6980 C   0  0  0  0  0
  -20.8660   26.0770  -19.7710 N   0  0  0  0  0
  -20.2330   25.2920  -20.8360 C   0  0  0  0  0
  -19.2090   26.1150  -21.6090 C   0  0  0  0  0
  -19.4880   27.2570  -21.9730 O   0  0  0  0  0
  -21.4120   24.8980  -21.7380 C   0  0  0  0  0
  -22.6340   25.0860  -20.8930 C   0  0  0  0  0
  -22.3140   26.2310  -19.9880 C   0  0  0  0  0
  -18.0380   25.5380  -21.8510 N   0  0  0  0  0
  -16.9830   26.2230  -22.5870 C   0  0  0  0  0
  -16.1700   25.2330  -23.4140 C   0  0  0  0  0
  -16.2020   24.0280  -23.1640 O   0  0  0  0  0
  -16.0670   26.9870  -21.6280 C   0  0  0  0  0
  -15.1660   26.0930  -20.7930 C   0  0  0  0  0
  -14.3980   26.8570  -19.7310 C   0  0  0  0  0
  -13.3940   27.5100  -20.0230 O   0  0  0  0  0
  -14.8630   26.7740  -18.4890 N   0  0  0  0  0
  -15.4420   25.7460  -24.3980 N   0  0  0  0  0
  -14.6080   24.9020  -25.2440 C   0  0  0  0  0
  -13.1420   25.0570  -24.8690 C   0  0  0  0  0
  -12.5890   26.1560  -24.9250 O   0  0  0  0  0
  -14.8150   25.2390  -26.7210 C   0  0  0  0  0
  -12.5210   23.9480  -24.4840 N   0  0  0  0  0
  -11.1140   23.9440  -24.1050 C   0  0  0  0  0
  -10.3170   23.0770  -25.0700 C   0  0  0  0  0
  -10.6030   21.8920  -25.2230 O   0  0  0  0  0
  -10.9220   23.4320  -22.6670 C   0  0  0  0  0
  -11.7370   24.2850  -21.6910 C   0  0  0  0  0
   -9.4450   23.4350  -22.2920 C   0  0  0  0  0
  -11.7680   23.7400  -20.2820 C   0  0  0  0  0
   -9.3190   23.6700  -25.7170 N   0  0  0  0  0
   -8.5650   22.9750  -26.7570 C   0  0  0  0  0
   -7.1240   22.6860  -26.3420 C   0  0  0  0  0
   -6.4720   23.5150  -25.7100 O   0  0  0  0  0
   -8.5810   23.7940  -28.0490 C   0  0  0  0  0
  -10.2430   24.2040  -28.6340 S   0  0  0  0  0
   -6.5870   21.6190  -26.6320 O   0  0  0  0  0
   -9.2241   19.0567  -27.8221 H   0  0  0  0  0
  -10.0085   18.8413  -29.2764 H   0  0  0  0  0
   -9.0012   20.1509  -29.0590 H   0  0  0  0  0
  -10.3951   21.0469  -27.4116 H   0  0  0  0  0
  -12.4956   21.2973  -28.9347 H   0  0  0  0  0
  -11.4608   20.3706  -30.1299 H   0  0  0  0  0
  -11.8076   20.8339  -25.8566 H   0  0  0  0  0
  -13.6553   18.5367  -26.0013 H   0  0  0  0  0
  -13.5659   18.2764  -23.5236 H   0  0  0  0  0
  -12.1442   19.3756  -23.5159 H   0  0  0  0  0
  -13.1892   15.7887  -24.1376 H   0  0  0  0  0
   -9.7719   19.6320  -24.8738 H   0  0  0  0  0
   -6.8930   16.6010  -25.8958 H   0  0  0  0  0
   -7.4689   18.9804  -25.5798 H   0  0  0  0  0
  -15.6020   18.9330  -24.6374 H   0  0  0  0  0
  -16.0236   21.8383  -24.0718 H   0  0  0  0  0
  -18.0837   19.8128  -25.0210 H   0  0  0  0  0
  -18.1063   21.2659  -26.8590 H   0  0  0  0  0
  -19.0452   21.4228  -23.4280 H   0  0  0  0  0
  -18.3630   22.7714  -24.3698 H   0  0  0  0  0
  -19.6289   21.7400  -25.0802 H   0  0  0  0  0
  -16.5372   22.3490  -22.0046 H   0  0  0  0  0
  -16.6208   20.2650  -20.0391 H   0  0  0  0  0
  -17.2400   22.0601  -18.4229 H   0  0  0  0  0
  -17.3129   24.2178  -19.2983 H   0  0  0  0  0
  -14.8975   21.6100  -19.0021 H   0  0  0  0  0
  -15.0143   22.7424  -20.3714 H   0  0  0  0  0
  -15.1599   23.3456  -18.7022 H   0  0  0  0  0
  -18.2990   19.3795  -18.8872 H   0  0  0  0  0
  -20.9237   19.5614  -20.2114 H   0  0  0  0  0
  -21.5362   17.6992  -18.7592 H   0  0  0  0  0
  -19.9174   17.8498  -17.9272 H   0  0  0  0  0
  -18.8006   17.2178  -19.9393 H   0  0  0  0  0
  -20.3640   17.1687  -20.8324 H   0  0  0  0  0
  -21.0872   15.4223  -19.1350 H   0  0  0  0  0
  -19.3463   15.3280  -18.6707 H   0  0  0  0  0
  -20.5690   14.4882  -21.2420 H   0  0  0  0  0
  -16.7635   13.6608  -20.1288 H   0  0  0  0  0
  -17.7243   14.7782  -19.1544 H   0  0  0  0  0
  -19.3249   13.0723  -22.4778 H   0  0  0  0  0
  -19.3598   20.6009  -17.2389 H   0  0  0  0  0
  -21.9692   21.2765  -16.0466 H   0  0  0  0  0
  -20.4568   22.2123  -14.1938 H   0  0  0  0  0
  -19.1063   21.4071  -15.1143 H   0  0  0  0  0
  -20.1884   19.2916  -14.8603 H   0  0  0  0  0
  -21.5474   20.0973  -13.9427 H   0  0  0  0  0
  -17.8532   18.8045  -13.9022 H   0  0  0  0  0
  -17.6102   20.5630  -13.7619 H   0  0  0  0  0
  -17.2415   19.5003  -12.3814 H   0  0  0  0  0
  -22.7499   23.2651  -15.5596 H   0  0  0  0  0
  -22.1061   25.3458  -17.4391 H   0  0  0  0  0
  -24.3781   25.0474  -16.5473 H   0  0  0  0  0
  -23.7989   25.4336  -14.9082 H   0  0  0  0  0
  -23.7728   26.6810  -16.1788 H   0  0  0  0  0
  -21.9889   27.2068  -17.9405 H   0  0  0  0  0
  -21.3183   29.5306  -17.5419 H   0  0  0  0  0
  -20.2192   29.1317  -18.7979 H   0  0  0  0  0
  -19.2584   29.9577  -16.4537 H   0  0  0  0  0
  -18.4298   28.6782  -17.3041 H   0  0  0  0  0
  -18.7984   27.4979  -15.3021 H   0  0  0  0  0
  -20.1107   28.4916  -14.8293 H   0  0  0  0  0
  -19.6808   24.4350  -20.4504 H   0  0  0  0  0
  -21.3219   23.8707  -22.0912 H   0  0  0  0  0
  -21.4494   25.5088  -22.6400 H   0  0  0  0  0
  -22.8755   24.1845  -20.3300 H   0  0  0  0  0
  -23.5154   25.2891  -21.5012 H   0  0  0  0  0
  -22.5795   27.1979  -20.4154 H   0  0  0  0  0
  -22.8871   26.2134  -19.0610 H   0  0  0  0  0
  -17.8723   24.5901  -21.5128 H   0  0  0  0  0
  -17.4520   26.9363  -23.2648 H   0  0  0  0  0
  -16.7069   27.5371  -20.9380 H   0  0  0  0  0
  -15.4212   27.6224  -22.2340 H   0  0  0  0  0
  -14.4398   25.6328  -21.4630 H   0  0  0  0  0
  -15.7976   25.3629  -20.2870 H   0  0  0  0  0
  -14.3851   27.2625  -17.7318 H   0  0  0  0  0
  -15.6978   26.2218  -18.2928 H   0  0  0  0  0
  -15.4668   26.7518  -24.5656 H   0  0  0  0  0
  -14.9026   23.8648  -25.0842 H   0  0  0  0  0
  -15.8601   25.0789  -26.9859 H   0  0  0  0  0
  -14.5504   26.2820  -26.8949 H   0  0  0  0  0
  -14.1815   24.5955  -27.3314 H   0  0  0  0  0
  -13.0445   23.0731  -24.4527 H   0  0  0  0  0
  -10.7517   24.9710  -24.1516 H   0  0  0  0  0
  -11.2816   22.4047  -22.6080 H   0  0  0  0  0
  -12.7643   24.3026  -22.0549 H   0  0  0  0  0
  -11.2675   25.2678  -21.6487 H   0  0  0  0  0
   -8.8966   22.7867  -22.9755 H   0  0  0  0  0
   -9.0558   24.4508  -22.3617 H   0  0  0  0  0
   -9.3298   23.0696  -21.2715 H   0  0  0  0  0
  -12.2105   22.7439  -20.2888 H   0  0  0  0  0
  -10.7514   23.6848  -19.8927 H   0  0  0  0  0
  -12.3644   24.3996  -19.6517 H   0  0  0  0  0
   -9.0742   24.6319  -25.4820 H   0  0  0  0  0
   -9.0525   22.0138  -26.9199 H   0  0  0  0  0
   -7.0115   24.2937  -25.5545 H   0  0  0  0  0
   -8.1043   23.1909  -28.8217 H   0  0  0  0  0
   -8.0677   24.7336  -27.8443 H   0  0  0  0  0
  1  2  1  0  0  0
  2  3  1  0  0  0
  2  5  1  0  0  0
  3  4  2  0  0  0
  3  7  1  0  0  0
  5  6  1  0  0  0
  6100  1  0  0  0
  7  8  1  0  0  0
  8  9  1  0  0  0
  8 19  1  0  0  0
  9 10  1  0  0  0
 10 11  4  0  0  0
 10 12  4  0  0  0
 11 13  4  0  0  0
 12 14  4  0  0  0
 12 15  4  0  0  0
 13 14  4  0  0  0
 14 16  4  0  0  0
 15 18  4  0  0  0
 16 17  4  0  0  0
 17 18  4  0  0  0
 19 20  2  0  0  0
 19 21  1  0  0  0
 21 22  1  0  0  0
 22 23  1  0  0  0
 22 25  1  0  0  0
 23 24  2  0  0  0
 23 28  1  0  0  0
 25 26  1  0  0  0
 25 27  1  0  0  0
 28 29  1  0  0  0
 29 30  1  0  0  0
 29 32  1  0  0  0
 30 31  2  0  0  0
 30 35  1  0  0  0
 32 33  1  0  0  0
 32 34  1  0  0  0
 35 36  1  0  0  0
 36 37  1  0  0  0
 36 39  1  0  0  0
 37 38  2  0  0  0
 37 46  1  0  0  0
 39 40  1  0  0  0
 40 41  1  0  0  0
 41 42  1  0  0  0
 42 43  1  0  0  0
 43 44  1  0  0  0
 43 45  2  0  0  0
 46 47  1  0  0  0
 47 48  1  0  0  0
 47 50  1  0  0  0
 48 49  2  0  0  0
 48 54  1  0  0  0
 50 51  1  0  0  0
 51 52  1  0  0  0
 52 53  1  0  0  0
 54 55  1  0  0  0
 55 56  1  0  0  0
 55 58  1  0  0  0
 56 57  2  0  0  0
 56 59  1  0  0  0
 59 60  1  0  0  0
 59 65  1  0  0  0
 60 61  1  0  0  0
 60 63  1  0  0  0
 61 62  2  0  0  0
 61 66  1  0  0  0
 63 64  1  0  0  0
 64 65  1  0  0  0
 66 67  1  0  0  0
 66 72  1  0  0  0
 67 68  1  0  0  0
 67 70  1  0  0  0
 68 69  2  0  0  0
 68 73  1  0  0  0
 70 71  1  0  0  0
 71 72  1  0  0  0
 73 74  1  0  0  0
 74 75  1  0  0  0
 74 77  1  0  0  0
 75 76  2  0  0  0
 75 82  1  0  0  0
 77 78  1  0  0  0
 78 79  1  0  0  0
 79 80  2  0  0  0
 79 81  1  0  0  0
 82 83  1  0  0  0
 83 84  1  0  0  0
 83 86  1  0  0  0
 84 85  2  0  0  0
 84 87  1  0  0  0
 87 88  1  0  0  0
 88 89  1  0  0  0
 88 91  1  0  0  0
 89 90  2  0  0  0
 89 95  1  0  0  0
 91 92  1  0  0  0
 91 93  1  0  0  0
 92 94  1  0  0  0
 95 96  1  0  0  0
 96 97  1  0  0  0
 96 99  1  0  0  0
 97 98  1  0  0  0
 97101  2  0  0  0
 99100  1  0  0  0
  1102  1  0  0  0
  1103  1  0  0  0
  1104  1  0  0  0
  2105  1  0  0  0
  5106  1  0  0  0
  5107  1  0  0  0
  7108  1  0  0  0
  8109  1  0  0  0
  9110  1  0  0  0
  9111  1  0  0  0
 11112  1  0  0  0
 15113  1  0  0  0
 17114  1  0  0  0
 18115  1  0  0  0
 21116  1  0  0  0
 22117  1  0  0  0
 25118  1  0  0  0
 26119  1  0  0  0
 27120  1  0  0  0
 27121  1  0  0  0
 27122  1  0  0  0
 28123  1  0  0  0
 29124  1  0  0  0
 32125  1  0  0  0
 33126  1  0  0  0
 34127  1  0  0  0
 34128  1  0  0  0
 34129  1  0  0  0
 35130  1  0  0  0
 36131  1  0  0  0
 39132  1  0  0  0
 39133  1  0  0  0
 40134  1  0  0  0
 40135  1  0  0  0
 41136  1  0  0  0
 41137  1  0  0  0
 42138  1  0  0  0
 44139  1  0  0  0
 44140  1  0  0  0
 45141  1  0  0  0
 46142  1  0  0  0
 47143  1  0  0  0
 50144  1  0  0  0
 50145  1  0  0  0
 51146  1  0  0  0
 51147  1  0  0  0
 53148  1  0  0  0
 53149  1  0  0  0
 53150  1  0  0  0
 54151  1  0  0  0
 55152  1  0  0  0
 58153  1  0  0  0
 58154  1  0  0  0
 58155  1  0  0  0
 60156  1  0  0  0
 63157  1  0  0  0
 63158  1  0  0  0
 64159  1  0  0  0
 64160  1  0  0  0
 65161  1  0  0  0
 65162  1  0  0  0
 67163  1  0  0  0
 70164  1  0  0  0
 70165  1  0  0  0
 71166  1  0  0  0
 71167  1  0  0  0
 72168  1  0  0  0
 72169  1  0  0  0
 73170  1  0  0  0
 74171  1  0  0  0
 77172  1  0  0  0
 77173  1  0  0  0
 78174  1  0  0  0
 78175  1  0  0  0
 81176  1  0  0  0
 81177  1  0  0  0
 82178  1  0  0  0
 83179  1  0  0  0
 86180  1  0  0  0
 86181  1  0  0  0
 86182  1  0  0  0
 87183  1  0  0  0
 88184  1  0  0  0
 91185  1  0  0  0
 92186  1  0  0  0
 92187  1  0  0  0
 93188  1  0  0  0
 93189  1  0  0  0
 93190  1  0  0  0
 94191  1  0  0  0
 94192  1  0  0  0
 94193  1  0  0  0
 95194  1  0  0  0
 96195  1  0  0  0
 98196  1  0  0  0
 99197  1  0  0  0
 99198  1  0  0  0
M  END
$$$$
