4ipn_ligand
  -I-interpret- 

 50 51  0  0  0  0  0  0  0  0999 V2000
   28.8110   -1.6980   15.1760 O   0  0  0  0  0
   28.6840   -0.1920   15.1290 P   0  0  0  0  0
   28.7860    0.2650   13.6870 O   0  0  0  0  0
   29.7910    0.4140   15.9580 O   0  0  0  0  0
   27.2900    0.2710   15.7070 O   0  0  0  0  0
   27.0730    0.1990   17.0630 C   0  0  0  0  0
   27.3230   -1.1530   17.6890 C   0  0  0  0  0
   26.1200   -1.8550   17.8170 O   0  0  0  0  0
   28.1720   -1.0060   18.9590 C   0  0  0  0  0
   28.9380    0.1940   18.8410 O   0  0  0  0  0
   27.4900   -1.0420   20.2000 C   0  0  0  0  0
   28.4840   -1.4870   21.2350 O   0  0  0  0  0
   26.3560   -1.8980   20.2190 C   0  0  0  0  0
   25.5920   -1.7530   21.4310 O   0  0  0  0  0
   25.4380   -1.6630   19.0290 C   0  0  0  0  0
   23.9500   -2.6860   19.1050 S   0  0  0  0  0
   23.9040   -3.9240   17.7560 C   0  0  0  0  0
   23.2680   -5.1580   18.2770 C   0  0  0  0  0
   24.1210   -5.7130   19.3130 O   0  0  0  0  0
   23.0440   -6.1330   17.2930 C   0  0  0  0  0
   22.2880   -7.2500   17.8510 O   0  0  0  0  0
   22.3060   -5.5850   16.1010 C   0  0  0  0  0
   22.2690   -6.5260   15.1440 O   0  0  0  0  0
   22.9320   -4.3630   15.5670 O   0  0  0  0  0
   23.2140   -3.3810   16.5270 C   0  0  0  0  0
   24.0880   -2.3210   15.8700 C   0  0  0  0  0
   23.4780   -1.2290   15.2700 O   0  0  0  0  0
   28.1110   -2.0936   14.6514 H   0  0  0  0  0
   28.0753   -0.1297   13.1764 H   0  0  0  0  0
   26.0186    0.4250   17.2217 H   0  0  0  0  0
   27.7751    0.8914   17.5275 H   0  0  0  0  0
   27.9311   -1.7824   17.0393 H   0  0  0  0  0
   28.7926   -1.9010   19.0014 H   0  0  0  0  0
   29.4780    0.3061   19.6267 H   0  0  0  0  0
   27.0962   -0.0452   20.3984 H   0  0  0  0  0
   28.0558   -1.5235   22.0934 H   0  0  0  0  0
   26.7531   -2.9116   20.1646 H   0  0  0  0  0
   24.8374   -2.3458   21.4051 H   0  0  0  0  0
   25.1153   -0.6229   19.0763 H   0  0  0  0  0
   24.9172   -4.1633   17.4332 H   0  0  0  0  0
   22.2885   -4.8781   18.6648 H   0  0  0  0  0
   23.7212   -6.5138   19.6602 H   0  0  0  0  0
   24.0237   -6.4720   16.9563 H   0  0  0  0  0
   22.1419   -7.9089   17.1683 H   0  0  0  0  0
   21.2993   -5.3180   16.4224 H   0  0  0  0  0
   21.7997   -6.1848   14.3792 H   0  0  0  0  0
   22.2672   -2.9657   16.8722 H   0  0  0  0  0
   24.5991   -2.8397   15.0589 H   0  0  0  0  0
   24.6817   -1.9016   16.6822 H   0  0  0  0  0
   24.1501   -0.6508   14.9017 H   0  0  0  0  0
  1  2  1  0  0  0
  2  3  1  0  0  0
  2  4  2  0  0  0
  2  5  1  0  0  0
  5  6  1  0  0  0
  6  7  1  0  0  0
  7  8  1  0  0  0
  7  9  1  0  0  0
  8 15  1  0  0  0
  9 10  1  0  0  0
  9 11  1  0  0  0
 11 12  1  0  0  0
 11 13  1  0  0  0
 13 14  1  0  0  0
 13 15  1  0  0  0
 15 16  1  0  0  0
 16 17  1  0  0  0
 17 18  1  0  0  0
 17 25  1  0  0  0
 18 19  1  0  0  0
 18 20  1  0  0  0
 20 21  1  0  0  0
 20 22  1  0  0  0
 22 23  1  0  0  0
 22 24  1  0  0  0
 24 25  1  0  0  0
 25 26  1  0  0  0
 26 27  1  0  0  0
  1 28  1  0  0  0
  3 29  1  0  0  0
  6 30  1  0  0  0
  6 31  1  0  0  0
  7 32  1  0  0  0
  9 33  1  0  0  0
 10 34  1  0  0  0
 11 35  1  0  0  0
 12 36  1  0  0  0
 13 37  1  0  0  0
 14 38  1  0  0  0
 15 39  1  0  0  0
 17 40  1  0  0  0
 18 41  1  0  0  0
 19 42  1  0  0  0
 20 43  1  0  0  0
 21 44  1  0  0  0
 22 45  1  0  0  0
 23 46  1  0  0  0
 25 47  1  0  0  0
 26 48  1  0  0  0
 26 49  1  0  0  0
 27 50  1  0  0  0
M  END
$$$$
