4jht_ligand
  -I-interpret- 

 21 22  0  0  0  0  0  0  0  0999 V2000
   -4.2110    3.6990   -1.4620 O   0  0  0  0  0
   -2.6560    4.6800   -0.3180 O   0  0  0  0  0
   -4.0790   -0.6340    3.0870 O   0  0  0  0  0
   -1.1070    3.2420    3.2310 C   0  0  0  0  0
   -1.3090    2.1450    4.0420 C   0  0  0  0  0
   -4.6550    0.5420    1.0920 C   0  0  0  0  0
   -4.4860    1.6150    0.2540 C   0  0  0  0  0
   -1.8450    3.4310    2.0890 C   0  0  0  0  0
   -2.2570    1.2180    3.6790 N   0  0  0  0  0
   -3.4530    3.7180   -0.4550 C   0  0  0  0  0
   -3.9050    0.4250    2.2410 C   0  0  0  0  0
   -3.5540    2.5990    0.5300 C   0  0  0  0  0
   -2.7810    2.4890    1.6960 C   0  0  0  0  0
   -2.9650    1.3810    2.5390 C   0  0  0  0  0
   -4.7594    2.9116   -1.4335 H   0  0  0  0  0
   -3.4762   -0.5513    3.8295 H   0  0  0  0  0
   -0.3460    3.9737    3.5022 H   0  0  0  0  0
   -0.7273    2.0153    4.9546 H   0  0  0  0  0
   -5.3896   -0.2248    0.8461 H   0  0  0  0  0
   -5.0970    1.6934   -0.6452 H   0  0  0  0  0
   -1.6934    4.3277    1.4881 H   0  0  0  0  0
 10  1  1  0  0  0
 10  2  2  0  0  0
 11  3  1  0  0  0
  5  4  4  0  0  0
  4  8  4  0  0  0
  9  5  4  0  0  0
  6  7  4  0  0  0
 11  6  4  0  0  0
  7 12  4  0  0  0
  8 13  4  0  0  0
 14  9  4  0  0  0
 12 10  1  0  0  0
 11 14  4  0  0  0
 12 13  4  0  0  0
 13 14  4  0  0  0
  1 15  1  0  0  0
  3 16  1  0  0  0
  4 17  1  0  0  0
  5 18  1  0  0  0
  6 19  1  0  0  0
  7 20  1  0  0  0
  8 21  1  0  0  0
M  END
$$$$
