4anu_ligand
  -I-interpret- 

 33 35  0  0  0  0  0  0  0  0999 V2000
   47.8750   16.1040   31.9600 C   0  0  0  0  0
   47.3160   14.8270   31.4760 N   0  0  0  0  0
   48.1410   13.9380   30.8980 C   0  0  0  0  0
   49.3480   14.1330   30.7780 O   0  0  0  0  0
   47.4870   12.6110   30.4190 C   0  0  0  0  0
   46.2040   12.4270   30.7160 N   0  0  0  0  0
   48.1530   11.5820   29.7280 C   0  0  0  0  0
   49.4310   11.6870   29.4010 N   0  0  0  0  0
   47.5040   10.4640   29.3620 N   0  0  0  0  0
   46.2280   10.3130   29.6670 C   0  0  0  0  0
   45.5470   11.3230   30.3580 C   0  0  0  0  0
   44.2070   11.2430   30.7340 C   0  0  0  0  0
   43.7840   11.9900   31.8330 C   0  0  0  0  0
   43.2800   10.4360   30.0860 C   0  0  0  0  0
   41.9510   10.4040   30.5430 C   0  0  0  0  0
   41.5260   11.1610   31.6370 C   0  0  0  0  0
   42.4620   11.9580   32.2830 C   0  0  0  0  0
   42.1050   12.7500   33.3700 C   0  0  0  0  0
   41.7130   12.3730   34.5770 N   0  0  0  0  0
   41.5140   13.4070   35.2280 N   0  0  0  0  0
   41.7400   14.4210   34.5480 N   0  0  0  0  0
   42.1000   14.0800   33.4200 N   0  0  0  0  0
   48.6368   15.9034   32.7133 H   0  0  0  0  0
   48.3214   16.6435   31.1247 H   0  0  0  0  0
   47.0783   16.7050   32.3982 H   0  0  0  0  0
   46.3219   14.6230   31.5783 H   0  0  0  0  0
   49.9538   12.5267   29.6500 H   0  0  0  0  0
   49.8932   10.9282   28.9000 H   0  0  0  0  0
   45.7041    9.4011   29.3806 H   0  0  0  0  0
   44.5060   12.6171   32.3561 H   0  0  0  0  0
   43.5810    9.8323   29.2298 H   0  0  0  0  0
   41.2302    9.7690   30.0278 H   0  0  0  0  0
   40.4899   11.1272   31.9739 H   0  0  0  0  0
  1  2  1  0  0  0
  2  3  1  0  0  0
  3  4  2  0  0  0
  3  5  1  0  0  0
  5  6  4  0  0  0
  5  7  4  0  0  0
  6 11  4  0  0  0
  7  8  1  0  0  0
  7  9  4  0  0  0
  9 10  4  0  0  0
 10 11  4  0  0  0
 11 12  1  0  0  0
 12 13  4  0  0  0
 12 14  4  0  0  0
 13 17  4  0  0  0
 14 15  4  0  0  0
 15 16  4  0  0  0
 16 17  4  0  0  0
 17 18  1  0  0  0
 18 19  4  0  0  0
 18 22  4  0  0  0
 19 20  4  0  0  0
 20 21  4  0  0  0
 21 22  4  0  0  0
  1 23  1  0  0  0
  1 24  1  0  0  0
  1 25  1  0  0  0
  2 26  1  0  0  0
  8 27  1  0  0  0
  8 28  1  0  0  0
 10 29  1  0  0  0
 13 30  1  0  0  0
 14 31  1  0  0  0
 15 32  1  0  0  0
 16 33  1  0  0  0
M  END
$$$$
