5iee_ligand
  -I-interpret- 

 25 25  0  0  0  0  0  0  0  0999 V2000
    4.1660   15.2720    7.8780 C   0  0  0  0  0
    5.4530   15.2270    7.0700 C   0  0  0  0  0
    5.7270   16.5210    6.5400 O   0  0  0  0  0
    5.3660   14.1600    5.9890 C   0  0  0  0  0
    6.5960   14.1610    5.2590 O   0  0  0  0  0
    5.0620   12.7910    6.5970 C   0  0  0  0  0
    4.9130   11.8000    5.5780 O   0  0  0  0  0
    3.7810   12.8400    7.4280 C   0  0  0  0  0
    3.8390   13.9430    8.3980 N   0  3  0  0  0
    3.4680   11.5230    8.1360 C   0  0  0  0  0
    4.4790   11.2200    9.0930 O   0  0  0  0  0
    3.3547   15.6088    7.2326 H   0  0  0  0  0
    4.2980   15.9569    8.7156 H   0  0  0  0  0
    6.2865   14.9501    7.7155 H   0  0  0  0  0
    5.7721   17.1567    7.2580 H   0  0  0  0  0
    4.5457   14.3811    5.3061 H   0  0  0  0  0
    6.7498   15.0357    4.8945 H   0  0  0  0  0
    5.9030   12.5261    7.2378 H   0  0  0  0  0
    5.7141   11.7622    5.0503 H   0  0  0  0  0
    2.9655   13.0143    6.7260 H   0  0  0  0  0
    2.8992   14.0205    8.7869 H   0  0  0  0  0
    4.5912   13.7050    9.0445 H   0  0  0  0  0
    3.4287   10.7233    7.3963 H   0  0  0  0  0
    2.5105   11.6148    8.6486 H   0  0  0  0  0
    4.2678   10.3909    9.5283 H   0  0  0  0  0
  1  2  1  0  0  0
  1  9  1  0  0  0
  2  3  1  0  0  0
  2  4  1  0  0  0
  4  5  1  0  0  0
  4  6  1  0  0  0
  6  7  1  0  0  0
  6  8  1  0  0  0
  8  9  1  0  0  0
  8 10  1  0  0  0
 10 11  1  0  0  0
  1 12  1  0  0  0
  1 13  1  0  0  0
  2 14  1  0  0  0
  3 15  1  0  0  0
  4 16  1  0  0  0
  5 17  1  0  0  0
  6 18  1  0  0  0
  7 19  1  0  0  0
  8 20  1  0  0  0
  9 21  1  0  0  0
  9 22  1  0  0  0
 10 23  1  0  0  0
 10 24  1  0  0  0
 11 25  1  0  0  0
M  END
$$$$
