4u7v_ligand
  -I-interpret- 

 74 76  0  0  0  0  0  0  0  0999 V2000
    9.4130   15.9410    4.3890 C   0  0  0  0  0
    8.8940   15.6080    5.5640 C   0  0  0  0  0
   10.1710   13.8340    4.5600 C   0  0  0  0  0
    8.0100   16.5270    6.4510 C   0  0  0  0  0
    8.8220   16.6610    8.5070 C   0  0  0  0  0
    9.7330   16.7940   10.8790 C   0  0  0  0  0
    9.3430   17.9940   11.7980 C   0  0  0  0  0
    7.9640   18.5020   11.4980 C   0  0  0  0  0
    6.8790   17.5940   11.9990 C   0  0  0  0  0
   10.1090   14.9420    3.8330 N   0  0  0  0  0
    7.3320   16.0990   13.8890 C   0  0  0  0  0
    7.4770   16.0240   15.4520 C   0  0  0  0  0
    4.1610   16.5720   11.1820 C   0  0  0  0  0
    3.1330   15.7170   11.5240 C   0  0  0  0  0
    2.4890   15.8370   12.7780 C   0  0  0  0  0
    2.8660   16.8200   13.6660 C   0  0  0  0  0
    3.8930   17.6380   13.3180 C   0  0  0  0  0
    4.5240   17.5120   12.1010 C   0  0  0  0  0
    5.5620   18.3580   11.8290 C   0  0  0  0  0
    7.0690   17.3420   13.4120 N   0  0  0  0  0
    7.5380   15.1090   13.1480 O   0  0  0  0  0
    7.0610   14.6760   15.9470 N   0  3  0  0  0
    8.9380   16.3920   15.8780 C   0  0  0  0  0
    9.9580   15.3710   15.3210 C   0  0  0  0  0
    9.0500   16.5310   17.3990 C   0  0  0  0  0
   10.2460   19.1150   11.5400 O   0  0  0  0  0
   11.2170   16.3990   11.1950 C   0  0  0  0  0
   11.5170   15.2210   10.4780 C   0  0  0  0  0
   12.0090   15.2530    9.1760 C   0  0  0  0  0
   12.2870   14.0430    8.5230 C   0  0  0  0  0
   12.0840   12.8080    9.1610 C   0  0  0  0  0
   11.5780   12.8090   10.4510 C   0  0  0  0  0
   11.3200   13.9910   11.1030 C   0  0  0  0  0
    9.5480   17.2590    9.4790 N   0  0  0  0  0
    8.1490   15.6400    8.6850 O   0  0  0  0  0
    8.8270   17.2800    7.2860 O   0  0  0  0  0
    9.2740   14.1170    5.9360 S   0  0  0  0  0
    9.2865   16.9203    3.9274 H   0  0  0  0  0
   10.7043   12.9177    4.3069 H   0  0  0  0  0
    7.3361   15.9166    7.0522 H   0  0  0  0  0
    7.4228   17.1917    5.8174 H   0  0  0  0  0
    9.1209   15.9067   11.0409 H   0  0  0  0  0
    9.3985   17.6356   12.8259 H   0  0  0  0  0
    7.8648   18.5697   10.4146 H   0  0  0  0  0
    7.8490   19.4629   11.9995 H   0  0  0  0  0
    6.8846   16.6476   11.4582 H   0  0  0  0  0
    6.8129   16.7545   15.9140 H   0  0  0  0  0
    4.6623   16.4990   10.2169 H   0  0  0  0  0
    2.8153   14.9445   10.8237 H   0  0  0  0  0
    1.6885   15.1464   13.0433 H   0  0  0  0  0
    2.3545   16.9382   14.6213 H   0  0  0  0  0
    4.2235   18.4081   14.0150 H   0  0  0  0  0
    5.4789   18.7281   10.8071 H   0  0  0  0  0
    5.5361   19.2063   12.5129 H   0  0  0  0  0
    7.0033   18.1207   14.0675 H   0  0  0  0  0
    7.1603   14.6422   16.9616 H   0  0  0  0  0
    6.0874   14.5077   15.6937 H   0  0  0  0  0
    7.6525   13.9617   15.5223 H   0  0  0  0  0
    9.1799   17.3616   15.4427 H   0  0  0  0  0
    9.7231   14.3783   15.7050 H   0  0  0  0  0
    9.9045   15.3629   14.2323 H   0  0  0  0  0
   10.9626   15.6549   15.6346 H   0  0  0  0  0
    8.3777   17.3178   17.7411 H   0  0  0  0  0
    8.7761   15.5870   17.8700 H   0  0  0  0  0
   10.0757   16.7869   17.6646 H   0  0  0  0  0
   11.1497   18.8438   11.7173 H   0  0  0  0  0
   11.3423   16.2310   12.2647 H   0  0  0  0  0
   11.8917   17.2022   10.8988 H   0  0  0  0  0
   12.1758   16.2046    8.6713 H   0  0  0  0  0
   12.6675   14.0614    7.5017 H   0  0  0  0  0
   12.3187   11.8721    8.6539 H   0  0  0  0  0
   11.3825   11.8620   10.9541 H   0  0  0  0  0
   10.9540   13.9660   12.1294 H   0  0  0  0  0
   10.0213   18.1255    9.2230 H   0  0  0  0  0
  2  1  4  0  0  0
  1 10  4  0  0  0
  4  2  1  0  0  0
  2 37  4  0  0  0
  3 10  4  0  0  0
 37  3  4  0  0  0
 36  4  1  0  0  0
 34  5  1  0  0  0
  5 35  2  0  0  0
  5 36  1  0  0  0
  7  6  1  0  0  0
  6 27  1  0  0  0
  6 34  1  0  0  0
  8  7  1  0  0  0
  7 26  1  0  0  0
  9  8  1  0  0  0
 19  9  1  0  0  0
  9 20  1  0  0  0
 11 12  1  0  0  0
 20 11  1  0  0  0
 11 21  2  0  0  0
 12 22  1  0  0  0
 12 23  1  0  0  0
 13 14  4  0  0  0
 18 13  4  0  0  0
 14 15  4  0  0  0
 16 15  4  0  0  0
 17 16  4  0  0  0
 18 17  4  0  0  0
 18 19  1  0  0  0
 23 24  1  0  0  0
 23 25  1  0  0  0
 27 28  1  0  0  0
 28 29  4  0  0  0
 28 33  4  0  0  0
 29 30  4  0  0  0
 30 31  4  0  0  0
 31 32  4  0  0  0
 32 33  4  0  0  0
  1 38  1  0  0  0
  3 39  1  0  0  0
  4 40  1  0  0  0
  4 41  1  0  0  0
  6 42  1  0  0  0
  7 43  1  0  0  0
  8 44  1  0  0  0
  8 45  1  0  0  0
  9 46  1  0  0  0
 12 47  1  0  0  0
 13 48  1  0  0  0
 14 49  1  0  0  0
 15 50  1  0  0  0
 16 51  1  0  0  0
 17 52  1  0  0  0
 19 53  1  0  0  0
 19 54  1  0  0  0
 20 55  1  0  0  0
 22 56  1  0  0  0
 22 57  1  0  0  0
 22 58  1  0  0  0
 23 59  1  0  0  0
 24 60  1  0  0  0
 24 61  1  0  0  0
 24 62  1  0  0  0
 25 63  1  0  0  0
 25 64  1  0  0  0
 25 65  1  0  0  0
 26 66  1  0  0  0
 27 67  1  0  0  0
 27 68  1  0  0  0
 29 69  1  0  0  0
 30 70  1  0  0  0
 31 71  1  0  0  0
 32 72  1  0  0  0
 33 73  1  0  0  0
 34 74  1  0  0  0
M  END
$$$$
