4dru_ligand
  -I-interpret- 

 80 85  0  0  0  0  0  0  0  0999 V2000
   75.7040  -13.1060  -33.2770 O   0  0  0  0  0
   76.7090  -13.6060  -32.8130 C   0  0  0  0  0
   77.6450  -14.1250  -33.7190 N   0  0  0  0  0
   77.3150  -14.0600  -35.1670 C   0  0  0  0  0
   78.9330  -14.7780  -33.3580 C   0  0  0  0  0
   80.0160  -15.0020  -34.4400 C   0  0  0  0  0
   79.8710  -16.3910  -35.0930 C   0  0  0  0  0
   81.0820  -17.3130  -34.8420 C   0  0  0  0  0
   80.6580  -18.7450  -34.8510 N   0  0  0  0  0
   81.3640  -19.5690  -35.8630 C   0  0  0  0  0
   80.7850  -19.4550  -33.3560 S   0  0  0  0  0
   79.7200  -20.4090  -33.1900 O   0  0  0  0  0
   82.0540  -20.1160  -33.2170 O   0  0  0  0  0
   80.5960  -18.3200  -32.2050 N   0  0  0  0  0
   81.6270  -17.7600  -31.4830 C   0  0  0  0  0
   82.7840  -18.0480  -31.6740 O   0  0  0  0  0
   81.2610  -16.7070  -30.5490 C   0  0  0  0  0
   76.8290  -13.5680  -31.3290 C   0  0  0  0  0
   77.1860  -14.8220  -30.5130 C   0  0  0  0  0
   78.3900  -14.5830  -29.7250 N   0  0  0  0  0
   79.5740  -15.1870  -29.8240 C   0  0  0  0  0
   79.9640  -16.2170  -30.6450 C   0  0  0  0  0
   76.6490  -12.3220  -30.8100 C   0  0  0  0  0
   76.5800  -12.0780  -29.3600 C   0  0  0  0  0
   75.5480  -11.2460  -28.9520 C   0  0  0  0  0
   75.2900  -11.0380  -27.6040 C   0  0  0  0  0
   74.2880  -10.1920  -27.2110 O   0  0  0  0  0
   73.0470  -10.7040  -26.7200 C   0  0  0  0  0
   76.0570  -11.6890  -26.6510 C   0  0  0  0  0
   77.0680  -12.5440  -27.0550 C   0  0  0  0  0
   77.3440  -12.7540  -28.4040 C   0  0  0  0  0
   78.4620  -13.6560  -28.7760 C   0  0  0  0  0
   79.7620  -13.6610  -28.2550 C   0  0  0  0  0
   80.4460  -14.6430  -28.9320 C   0  0  0  0  0
   81.7530  -15.1010  -28.8270 C   0  0  0  0  0
   82.1670  -16.1400  -29.6530 C   0  0  0  0  0
   80.3400  -12.7490  -27.1740 C   0  0  0  0  0
   81.0140  -13.4900  -26.0090 C   0  0  0  0  0
   81.5200  -12.4360  -25.0060 C   0  0  0  0  0
   82.5460  -11.5200  -25.6900 C   0  0  0  0  0
   81.8600  -10.7740  -26.8440 C   0  0  0  0  0
   81.3410  -11.7980  -27.8570 C   0  0  0  0  0
   78.0898  -13.4995  -35.6901 H   0  0  0  0  0
   77.2600  -15.0707  -35.5715 H   0  0  0  0  0
   76.3541  -13.5623  -35.2974 H   0  0  0  0  0
   78.6506  -15.7825  -33.0428 H   0  0  0  0  0
   79.3956  -14.0939  -32.6466 H   0  0  0  0  0
   80.9971  -14.9391  -33.9692 H   0  0  0  0  0
   79.9004  -14.2406  -35.2114 H   0  0  0  0  0
   79.7883  -16.2418  -36.1696 H   0  0  0  0  0
   78.9955  -16.8708  -34.6555 H   0  0  0  0  0
   81.5121  -17.0766  -33.8687 H   0  0  0  0  0
   81.8171  -17.1558  -35.6313 H   0  0  0  0  0
   82.4165  -19.6520  -35.5920 H   0  0  0  0  0
   80.9168  -20.5624  -35.8969 H   0  0  0  0  0
   81.2755  -19.0957  -36.8409 H   0  0  0  0  0
   79.6482  -18.0011  -32.0042 H   0  0  0  0  0
   77.3647  -15.6531  -31.1952 H   0  0  0  0  0
   76.3606  -15.0581  -29.8414 H   0  0  0  0  0
   79.2646  -16.6449  -31.3632 H   0  0  0  0  0
   76.5527  -11.4767  -31.4914 H   0  0  0  0  0
   74.9310  -10.7485  -29.7003 H   0  0  0  0  0
   72.5776  -11.3159  -27.4903 H   0  0  0  0  0
   73.2312  -11.3114  -25.8338 H   0  0  0  0  0
   72.3892   -9.8738  -26.4628 H   0  0  0  0  0
   75.8655  -11.5289  -25.5900 H   0  0  0  0  0
   77.6603  -13.0636  -26.3018 H   0  0  0  0  0
   82.4417  -14.6540  -28.1101 H   0  0  0  0  0
   83.1915  -16.5085  -29.6007 H   0  0  0  0  0
   79.5109  -12.2099  -26.7156 H   0  0  0  0  0
   81.8456  -14.0919  -26.3754 H   0  0  0  0  0
   80.3025  -14.1596  -25.5258 H   0  0  0  0  0
   81.9912  -12.9384  -24.1612 H   0  0  0  0  0
   80.6788  -11.8378  -24.6557 H   0  0  0  0  0
   83.3710  -12.1176  -26.0778 H   0  0  0  0  0
   82.9359  -10.8019  -24.9686 H   0  0  0  0  0
   82.5735  -10.1065  -27.3272 H   0  0  0  0  0
   81.0291  -10.1830  -26.4586 H   0  0  0  0  0
   80.8416  -11.2756  -28.6730 H   0  0  0  0  0
   82.1792  -12.3765  -28.2455 H   0  0  0  0  0
  1  2  2  0  0  0
  2  3  1  0  0  0
  2 18  1  0  0  0
  3  4  1  0  0  0
  3  5  1  0  0  0
  5  6  1  0  0  0
  6  7  1  0  0  0
  7  8  1  0  0  0
  8  9  1  0  0  0
  9 10  1  0  0  0
  9 11  1  0  0  0
 11 12  2  0  0  0
 11 13  2  0  0  0
 11 14  1  0  0  0
 14 15  1  0  0  0
 15 16  2  0  0  0
 15 17  1  0  0  0
 17 22  4  0  0  0
 17 36  4  0  0  0
 18 19  1  0  0  0
 18 23  2  0  0  0
 19 20  1  0  0  0
 20 21  4  0  0  0
 20 32  4  0  0  0
 21 22  4  0  0  0
 21 34  4  0  0  0
 23 24  1  0  0  0
 24 25  4  0  0  0
 24 31  4  0  0  0
 25 26  4  0  0  0
 26 27  1  0  0  0
 26 29  4  0  0  0
 27 28  1  0  0  0
 29 30  4  0  0  0
 30 31  4  0  0  0
 31 32  1  0  0  0
 32 33  4  0  0  0
 33 34  4  0  0  0
 33 37  1  0  0  0
 34 35  4  0  0  0
 35 36  4  0  0  0
 37 38  1  0  0  0
 37 42  1  0  0  0
 38 39  1  0  0  0
 39 40  1  0  0  0
 40 41  1  0  0  0
 41 42  1  0  0  0
  4 43  1  0  0  0
  4 44  1  0  0  0
  4 45  1  0  0  0
  5 46  1  0  0  0
  5 47  1  0  0  0
  6 48  1  0  0  0
  6 49  1  0  0  0
  7 50  1  0  0  0
  7 51  1  0  0  0
  8 52  1  0  0  0
  8 53  1  0  0  0
 10 54  1  0  0  0
 10 55  1  0  0  0
 10 56  1  0  0  0
 14 57  1  0  0  0
 19 58  1  0  0  0
 19 59  1  0  0  0
 22 60  1  0  0  0
 23 61  1  0  0  0
 25 62  1  0  0  0
 28 63  1  0  0  0
 28 64  1  0  0  0
 28 65  1  0  0  0
 29 66  1  0  0  0
 30 67  1  0  0  0
 35 68  1  0  0  0
 36 69  1  0  0  0
 37 70  1  0  0  0
 38 71  1  0  0  0
 38 72  1  0  0  0
 39 73  1  0  0  0
 39 74  1  0  0  0
 40 75  1  0  0  0
 40 76  1  0  0  0
 41 77  1  0  0  0
 41 78  1  0  0  0
 42 79  1  0  0  0
 42 80  1  0  0  0
M  END
$$$$
