4ngt_ligand
  -I-interpret- 

 71 71  0  0  0  0  0  0  0  0999 V2000
  -24.7050  -13.5270  -43.7720 O   0  0  0  0  0
  -25.0480  -12.3470  -43.7320 C   0  0  0  0  0
  -25.3560  -11.6110  -44.8260 N   0  0  0  0  0
  -25.3970  -12.1270  -46.2030 C   0  0  0  0  0
  -26.7910  -12.6310  -46.6080 C   0  0  0  0  0
  -26.7290  -13.9510  -47.1690 O   0  0  0  0  0
  -27.6560  -14.9580  -46.8990 C   0  0  0  0  0
  -27.3480  -15.9730  -45.9820 C   0  0  0  0  0
  -26.1450  -15.9830  -45.3400 N   0  0  0  0  0
  -25.8520  -16.9800  -44.4880 C   0  0  0  0  0
  -26.6710  -17.8610  -44.2690 O   0  0  0  0  0
  -24.6650  -17.0060  -43.8630 N   0  0  0  0  0
  -24.3400  -18.0410  -42.8780 C   0  0  0  0  0
  -22.8490  -18.3370  -42.6970 C   0  0  0  0  0
  -22.2680  -19.3700  -43.6850 C   0  0  0  0  0
  -20.7400  -19.3820  -43.5320 C   0  0  0  0  0
  -19.9290  -20.1150  -44.6000 C   0  0  0  0  0
  -18.5180  -20.0080  -44.2380 N   0  0  0  0  0
  -17.8830  -20.7100  -43.3070 C   0  0  0  0  0
  -18.3870  -21.6090  -42.6540 O   0  0  0  0  0
  -16.6580  -20.3230  -43.0150 N   0  0  0  0  0
  -16.0330  -20.7740  -41.8030 C   0  0  0  0  0
  -17.0180  -20.5740  -40.7020 C   0  0  0  0  0
  -17.8520  -19.6640  -40.7780 O   0  0  0  0  0
  -16.9140  -21.3390  -39.6160 O   0  0  0  0  0
  -14.7420  -20.0050  -41.4450 C   0  0  0  0  0
  -14.9490  -18.5050  -41.4330 C   0  0  0  0  0
  -13.8720  -17.7220  -40.6910 C   0  0  0  0  0
  -13.0510  -18.2220  -39.9000 O   0  0  0  0  0
  -13.8250  -16.4030  -40.8840 O   0  0  0  0  0
  -20.1360  -19.4870  -45.9440 C   0  0  0  0  0
  -19.7040  -18.2530  -46.1070 O   0  0  0  0  0
  -20.6370  -20.0670  -46.8950 O   0  0  0  0  0
  -28.2770  -17.0040  -45.7310 C   0  0  0  0  0
  -29.5180  -17.0390  -46.3700 C   0  0  0  0  0
  -28.9090  -15.0030  -47.5540 C   0  0  0  0  0
  -29.8400  -16.0330  -47.2860 C   0  0  0  0  0
  -31.5350  -16.0830  -48.1460 Br  0  0  0  0  0
  -25.1740  -11.6370  -42.4090 C   0  0  0  0  0
  -25.5760  -10.6251  -44.6848 H   0  0  0  0  0
  -24.7066  -12.9681  -46.2653 H   0  0  0  0  0
  -25.1290  -11.3107  -46.8738 H   0  0  0  0  0
  -27.1985  -11.9546  -47.3594 H   0  0  0  0  0
  -27.4194  -12.6626  -45.7179 H   0  0  0  0  0
  -25.4700  -15.2365  -45.5059 H   0  0  0  0  0
  -23.9727  -16.2886  -44.0786 H   0  0  0  0  0
  -24.7975  -18.9634  -43.2358 H   0  0  0  0  0
  -24.7024  -17.6778  -41.9163 H   0  0  0  0  0
  -22.7289  -18.7540  -41.6971 H   0  0  0  0  0
  -22.3179  -17.4010  -42.8701 H   0  0  0  0  0
  -22.5382  -19.1019  -44.7064 H   0  0  0  0  0
  -22.6719  -20.3594  -43.4702 H   0  0  0  0  0
  -20.5429  -19.9112  -42.5997 H   0  0  0  0  0
  -20.4310  -18.3386  -43.5940 H   0  0  0  0  0
  -20.2473  -21.1562  -44.6529 H   0  0  0  0  0
  -17.9638  -19.3240  -44.7531 H   0  0  0  0  0
  -16.1537  -19.7035  -43.6493 H   0  0  0  0  0
  -15.7464  -21.8164  -41.9423 H   0  0  0  0  0
  -16.2152  -21.9842  -39.7462 H   0  0  0  0  0
  -13.9910  -20.2360  -42.2005 H   0  0  0  0  0
  -14.4330  -20.3111  -40.4455 H   0  0  0  0  0
  -15.8908  -18.3178  -40.9172 H   0  0  0  0  0
  -14.9263  -18.1723  -42.4707 H   0  0  0  0  0
  -14.5054  -16.1481  -41.5114 H   0  0  0  0  0
  -19.3390  -17.9310  -45.2795 H   0  0  0  0  0
  -28.0204  -17.7913  -45.0222 H   0  0  0  0  0
  -30.2262  -17.8399  -46.1576 H   0  0  0  0  0
  -29.1616  -14.2292  -48.2789 H   0  0  0  0  0
  -25.9163  -12.1460  -41.7942 H   0  0  0  0  0
  -24.2103  -11.6465  -41.8998 H   0  0  0  0  0
  -25.4862  -10.6067  -42.5793 H   0  0  0  0  0
  1  2  2  0  0  0
  2  3  1  0  0  0
  2 39  1  0  0  0
  3  4  1  0  0  0
  4  5  1  0  0  0
  5  6  1  0  0  0
  6  7  1  0  0  0
  7  8  4  0  0  0
  7 36  4  0  0  0
  8  9  1  0  0  0
  8 34  4  0  0  0
  9 10  1  0  0  0
 10 11  2  0  0  0
 10 12  1  0  0  0
 12 13  1  0  0  0
 13 14  1  0  0  0
 14 15  1  0  0  0
 15 16  1  0  0  0
 16 17  1  0  0  0
 17 18  1  0  0  0
 17 31  1  0  0  0
 18 19  1  0  0  0
 19 20  2  0  0  0
 19 21  1  0  0  0
 21 22  1  0  0  0
 22 23  1  0  0  0
 22 26  1  0  0  0
 23 24  2  0  0  0
 23 25  1  0  0  0
 26 27  1  0  0  0
 27 28  1  0  0  0
 28 29  2  0  0  0
 28 30  1  0  0  0
 31 32  1  0  0  0
 31 33  2  0  0  0
 34 35  4  0  0  0
 35 37  4  0  0  0
 36 37  4  0  0  0
 37 38  1  0  0  0
  3 40  1  0  0  0
  4 41  1  0  0  0
  4 42  1  0  0  0
  5 43  1  0  0  0
  5 44  1  0  0  0
  9 45  1  0  0  0
 12 46  1  0  0  0
 13 47  1  0  0  0
 13 48  1  0  0  0
 14 49  1  0  0  0
 14 50  1  0  0  0
 15 51  1  0  0  0
 15 52  1  0  0  0
 16 53  1  0  0  0
 16 54  1  0  0  0
 17 55  1  0  0  0
 18 56  1  0  0  0
 21 57  1  0  0  0
 22 58  1  0  0  0
 25 59  1  0  0  0
 26 60  1  0  0  0
 26 61  1  0  0  0
 27 62  1  0  0  0
 27 63  1  0  0  0
 30 64  1  0  0  0
 32 65  1  0  0  0
 34 66  1  0  0  0
 35 67  1  0  0  0
 36 68  1  0  0  0
 39 69  1  0  0  0
 39 70  1  0  0  0
 39 71  1  0  0  0
M  END
$$$$
