5fqr_ligand
  -I-interpret- 

 52 54  0  0  0  0  0  0  0  0999 V2000
   10.5930   20.6880   63.2660 C   0  0  0  0  0
   11.2440   21.9170   63.8570 C   0  0  0  0  0
   11.2870   21.7600   65.3590 C   0  0  0  0  0
   12.6370   22.0630   63.2600 C   0  0  0  0  0
   13.3150   23.2770   63.7860 N   0  3  0  0  0
   13.0260   24.4980   62.9920 C   0  0  0  0  0
   13.5340   25.6940   63.7630 C   0  0  0  0  0
   14.9990   25.5260   64.0490 C   0  0  0  0  0
   15.7690   26.6560   64.2100 C   0  0  0  0  0
   17.1090   26.5300   64.4970 C   0  0  0  0  0
   17.7050   25.2970   64.6120 C   0  0  0  0  0
   16.9300   24.1730   64.4480 C   0  0  0  0  0
   15.5790   24.2790   64.1720 C   0  0  0  0  0
   14.7760   23.0220   64.0190 C   0  0  0  0  0
   14.9360   22.1260   65.2150 C   0  0  0  0  0
   14.7190   22.6030   66.4950 C   0  0  0  0  0
   14.8620   21.7680   67.5880 C   0  0  0  0  0
   15.2250   20.4460   67.4140 C   0  0  0  0  0
   15.4370   19.9730   66.1390 C   0  0  0  0  0
   15.2940   20.8070   65.0480 C   0  0  0  0  0
   15.3870   19.5140   68.5310 C   0  0  0  0  0
   15.8440   19.9370   69.7130 C   0  0  0  0  0
   15.9490   18.8410   70.7610 C   0  0  0  0  0
   16.4510   19.2370   71.8490 O   0  0  0  0  0
   15.5290   17.6810   70.4490 O   0  0  0  0  0
   17.8660   27.6590   64.6740 O   0  0  0  0  0
   10.5240   20.7997   62.1839 H   0  0  0  0  0
   11.1935   19.8101   63.5043 H   0  0  0  0  0
    9.5936   20.5708   63.6850 H   0  0  0  0  0
   10.6801   22.8205   63.6249 H   0  0  0  0  0
   11.8627   20.8701   65.6137 H   0  0  0  0  0
   11.7579   22.6379   65.8015 H   0  0  0  0  0
   10.2714   21.6591   65.7417 H   0  0  0  0  0
   12.5467   22.1532   62.1775 H   0  0  0  0  0
   13.2274   21.1873   63.5295 H   0  0  0  0  0
   12.9128   23.4817   64.7007 H   0  0  0  0  0
   11.9531   24.5896   62.8227 H   0  0  0  0  0
   13.5202   24.4399   62.0222 H   0  0  0  0  0
   12.9891   25.7760   64.7034 H   0  0  0  0  0
   13.3823   26.5967   63.1712 H   0  0  0  0  0
   15.3200   27.6443   64.1108 H   0  0  0  0  0
   18.7698   25.2118   64.8287 H   0  0  0  0  0
   17.3859   23.1869   64.5366 H   0  0  0  0  0
   15.1720   22.5293   63.1310 H   0  0  0  0  0
   14.4333   23.6444   66.6433 H   0  0  0  0  0
   14.6875   22.1546   68.5921 H   0  0  0  0  0
   15.7202   18.9311   65.9893 H   0  0  0  0  0
   15.4662   20.4174   64.0447 H   0  0  0  0  0
   15.1319   18.4628   68.3969 H   0  0  0  0  0
   16.1168   20.9741   69.9082 H   0  0  0  0  0
   15.2022   17.6923   69.5464 H   0  0  0  0  0
   18.7725   27.4082   64.8661 H   0  0  0  0  0
  1  2  1  0  0  0
  2  3  1  0  0  0
  2  4  1  0  0  0
  4  5  1  0  0  0
  5  6  1  0  0  0
  5 14  1  0  0  0
  6  7  1  0  0  0
  7  8  1  0  0  0
  8  9  4  0  0  0
  8 13  4  0  0  0
  9 10  4  0  0  0
 10 11  4  0  0  0
 10 26  1  0  0  0
 11 12  4  0  0  0
 12 13  4  0  0  0
 13 14  1  0  0  0
 14 15  1  0  0  0
 15 16  4  0  0  0
 15 20  4  0  0  0
 16 17  4  0  0  0
 17 18  4  0  0  0
 18 19  4  0  0  0
 18 21  1  0  0  0
 19 20  4  0  0  0
 21 22  2  0  0  0
 22 23  1  0  0  0
 23 24  2  0  0  0
 23 25  1  0  0  0
  1 27  1  0  0  0
  1 28  1  0  0  0
  1 29  1  0  0  0
  2 30  1  0  0  0
  3 31  1  0  0  0
  3 32  1  0  0  0
  3 33  1  0  0  0
  4 34  1  0  0  0
  4 35  1  0  0  0
  5 36  1  0  0  0
  6 37  1  0  0  0
  6 38  1  0  0  0
  7 39  1  0  0  0
  7 40  1  0  0  0
  9 41  1  0  0  0
 11 42  1  0  0  0
 12 43  1  0  0  0
 14 44  1  0  0  0
 16 45  1  0  0  0
 17 46  1  0  0  0
 19 47  1  0  0  0
 20 48  1  0  0  0
 21 49  1  0  0  0
 22 50  1  0  0  0
 25 51  1  0  0  0
 26 52  1  0  0  0
M  END
$$$$
