2zg3_ligand
  -I-interpret- 

 39 39  0  0  0  0  0  0  0  0999 V2000
   46.9620   11.3490   49.1030 C   0  0  0  0  0
   47.5930   10.6120   50.2960 C   0  0  0  0  0
   47.3120   11.3550   51.6130 C   0  0  0  0  0
   45.8400   11.2950   52.0230 C   0  0  0  0  0
   45.2660    9.8880   51.9010 C   0  0  0  0  0
   45.5860    9.3300   50.5240 C   0  0  0  0  0
   44.9490    7.9590   50.2680 C   0  0  0  0  0
   45.3000    7.4800   48.8670 C   0  0  0  0  0
   44.5430    6.2020   48.5130 C   0  0  0  0  0
   43.2060    9.3310   53.0400 C   0  0  0  0  0
   43.4450    7.8340   53.1730 C   0  0  0  0  0
   43.8290    9.9630   52.0520 N   0  0  0  0  0
   46.5900   12.5360   49.2450 O   0  0  0  0  0
   46.8540   10.7400   48.0100 O   0  0  0  0  0
   45.7070   11.7300   53.3630 O   0  0  0  0  0
   47.0210    9.2880   50.3420 O   0  0  0  0  0
   45.3900    7.0130   51.2260 O   0  0  0  0  0
   44.9700    8.4980   47.9390 O   0  0  0  0  0
   44.9530    5.7390   47.2330 O   0  0  0  0  0
   42.4290    9.9030   53.8080 O   0  0  0  0  0
   48.6749   10.5630   50.1731 H   0  0  0  0  0
   47.5765   12.4026   51.4689 H   0  0  0  0  0
   47.8976   10.8768   52.3982 H   0  0  0  0  0
   45.2847   11.9454   51.3472 H   0  0  0  0  0
   45.6970    9.2431   52.6668 H   0  0  0  0  0
   45.1456    9.9997   49.7853 H   0  0  0  0  0
   43.8671    8.0588   50.3556 H   0  0  0  0  0
   46.3672    7.2614   48.8295 H   0  0  0  0  0
   43.4731    6.4097   48.4957 H   0  0  0  0  0
   44.7582    5.4370   49.2591 H   0  0  0  0  0
   43.8463    7.6180   54.1632 H   0  0  0  0  0
   42.5025    7.3035   53.0379 H   0  0  0  0  0
   44.1568    7.5121   52.4129 H   0  0  0  0  0
   43.2840   10.5117   51.3869 H   0  0  0  0  0
   47.1936    9.8474   48.1074 H   0  0  0  0  0
   46.0666   12.6161   53.4478 H   0  0  0  0  0
   45.1650    7.3223   52.1065 H   0  0  0  0  0
   45.1885    8.2037   47.0517 H   0  0  0  0  0
   44.4740    4.9358   47.0160 H   0  0  0  0  0
  2  1  1  0  0  0
  1 13  2  0  0  0
  1 14  1  0  0  0
  3  2  1  0  0  0
 16  2  1  0  0  0
  4  3  1  0  0  0
  5  4  1  0  0  0
  4 15  1  0  0  0
  5  6  1  0  0  0
 12  5  1  0  0  0
  6  7  1  0  0  0
  6 16  1  0  0  0
  7  8  1  0  0  0
  7 17  1  0  0  0
  8  9  1  0  0  0
  8 18  1  0  0  0
  9 19  1  0  0  0
 10 11  1  0  0  0
 10 12  1  0  0  0
 10 20  2  0  0  0
  2 21  1  0  0  0
  3 22  1  0  0  0
  3 23  1  0  0  0
  4 24  1  0  0  0
  5 25  1  0  0  0
  6 26  1  0  0  0
  7 27  1  0  0  0
  8 28  1  0  0  0
  9 29  1  0  0  0
  9 30  1  0  0  0
 11 31  1  0  0  0
 11 32  1  0  0  0
 11 33  1  0  0  0
 12 34  1  0  0  0
 14 35  1  0  0  0
 15 36  1  0  0  0
 17 37  1  0  0  0
 18 38  1  0  0  0
 19 39  1  0  0  0
M  END
$$$$
