3mp6_ligand
  -I-interpret- 

 79 78  0  0  0  0  0  0  0  0999 V2000
  -42.3320    7.5900  -27.0590 N   0  3  0  0  0
  -41.2030    8.4440  -26.5890 C   0  0  0  0  0
  -40.8360    9.4780  -27.6450 C   0  0  0  0  0
  -41.2310    9.3480  -28.8040 O   0  0  0  0  0
  -39.9980    7.5740  -26.2380 C   0  0  0  0  0
  -40.1150   10.5180  -27.2400 N   0  0  0  0  0
  -39.5390   11.4480  -28.2090 C   0  0  0  0  0
  -38.2900   10.7980  -28.7910 C   0  0  0  0  0
  -37.4950   10.2110  -28.0520 O   0  0  0  0  0
  -39.1890   12.7800  -27.5510 C   0  0  0  0  0
  -40.3730   13.5110  -26.9390 C   0  0  0  0  0
  -39.9700   14.9290  -26.5730 C   0  0  0  0  0
  -41.0900   15.6700  -26.0000 N   0  0  0  0  0
  -42.0040   16.3340  -26.7060 C   0  0  0  0  0
  -41.9490   16.3710  -28.0350 N   0  0  0  0  0
  -42.9800   16.9670  -26.0760 N   0  0  0  0  0
  -38.1220   10.8860  -30.1120 N   0  0  0  0  0
  -37.0060   10.2190  -30.8080 C   0  0  0  0  0
  -36.1080   11.1820  -31.5970 C   0  0  0  0  0
  -36.4250   12.3670  -31.7250 O   0  0  0  0  0
  -37.5210    9.1400  -31.7760 C   0  0  0  0  0
  -38.3700    9.7500  -32.7580 O   0  0  0  0  0
  -38.2840    8.0700  -31.0330 C   0  0  0  0  0
  -34.8320   10.6130  -32.0340 N   0  0  0  0  0
  -33.9210   11.4370  -32.8410 C   0  0  0  0  0
  -32.4780   11.1850  -32.3990 C   0  0  0  0  0
  -31.7460   10.2880  -33.3990 C   0  0  0  0  0
  -30.5740    9.5650  -32.7320 C   0  0  0  0  0
  -29.4110    9.3870  -33.7100 C   0  0  0  0  0
  -28.6690    8.1640  -33.3730 N   0  3  0  0  0
  -29.5740    7.0080  -33.4340 C   0  0  0  0  0
  -28.1170    8.2840  -32.0160 C   0  0  0  0  0
  -34.0740   11.0700  -34.3190 C   0  0  0  0  0
  -35.1420   10.6490  -34.7600 O   0  0  0  0  0
  -33.0907   11.2012  -35.0958 O   0  0  0  0  0
  -43.1304    8.1811  -27.2903 H   0  0  0  0  0
  -42.0414    7.0697  -27.8868 H   0  0  0  0  0
  -42.5935    6.9372  -26.3201 H   0  0  0  0  0
  -41.5176    8.9775  -25.6921 H   0  0  0  0  0
  -39.6529    7.0555  -27.1325 H   0  0  0  0  0
  -39.1975    8.2038  -25.8499 H   0  0  0  0  0
  -40.2866    6.8439  -25.4819 H   0  0  0  0  0
  -39.9620   10.6688  -26.2429 H   0  0  0  0  0
  -40.2630   11.6584  -28.9962 H   0  0  0  0  0
  -38.7846   13.4248  -28.3313 H   0  0  0  0  0
  -38.4944   12.5623  -26.7397 H   0  0  0  0  0
  -40.6956   12.9850  -26.0404 H   0  0  0  0  0
  -41.1886   13.5435  -27.6614 H   0  0  0  0  0
  -39.6434   15.4407  -27.4783 H   0  0  0  0  0
  -39.1713   14.8817  -25.8328 H   0  0  0  0  0
  -41.1792   15.6800  -24.9840 H   0  0  0  0  0
  -42.6562   16.8848  -28.5606 H   0  0  0  0  0
  -41.1996   15.8855  -28.5281 H   0  0  0  0  0
  -43.0286   16.9442  -25.0574 H   0  0  0  0  0
  -38.7876   11.4327  -30.6584 H   0  0  0  0  0
  -36.4072    9.7719  -30.0145 H   0  0  0  0  0
  -36.6668    8.6719  -32.2652 H   0  0  0  0  0
  -38.6922    9.0777  -33.3628 H   0  0  0  0  0
  -37.6279    7.6001  -30.3003 H   0  0  0  0  0
  -39.1360    8.5204  -30.5237 H   0  0  0  0  0
  -38.6370    7.3197  -31.7404 H   0  0  0  0  0
  -34.5786    9.6577  -31.7819 H   0  0  0  0  0
  -34.1647   12.4902  -32.7016 H   0  0  0  0  0
  -32.4915   10.6883  -31.4289 H   0  0  0  0  0
  -31.9581   12.1413  -32.3418 H   0  0  0  0  0
  -31.3594   10.9086  -34.2075 H   0  0  0  0  0
  -32.4459    9.5434  -33.7782 H   0  0  0  0  0
  -30.9103    8.5808  -32.4059 H   0  0  0  0  0
  -30.2313   10.1610  -31.8861 H   0  0  0  0  0
  -28.7443   10.2466  -33.6414 H   0  0  0  0  0
  -29.7995    9.3077  -34.7253 H   0  0  0  0  0
  -27.9078    8.0342  -34.0394 H   0  0  0  0  0
  -30.3877    7.1473  -32.7222 H   0  0  0  0  0
  -29.9816    6.9200  -34.4411 H   0  0  0  0  0
  -29.0217    6.1022  -33.1838 H   0  0  0  0  0
  -27.4448    9.1410  -31.9730 H   0  0  0  0  0
  -28.9313    8.4233  -31.3049 H   0  0  0  0  0
  -27.5670    7.3764  -31.7673 H   0  0  0  0  0
  -32.3381   11.5372  -34.6036 H   0  0  0  0  0
  1  2  1  0  0  0
  2  3  1  0  0  0
  2  5  1  0  0  0
  3  4  2  0  0  0
  3  6  1  0  0  0
  6  7  1  0  0  0
  7  8  1  0  0  0
  7 10  1  0  0  0
  8  9  2  0  0  0
  8 17  1  0  0  0
 10 11  1  0  0  0
 11 12  1  0  0  0
 12 13  1  0  0  0
 13 14  1  0  0  0
 14 15  1  0  0  0
 14 16  2  0  0  0
 17 18  1  0  0  0
 18 19  1  0  0  0
 18 21  1  0  0  0
 19 20  2  0  0  0
 19 24  1  0  0  0
 21 22  1  0  0  0
 21 23  1  0  0  0
 24 25  1  0  0  0
 25 26  1  0  0  0
 25 33  1  0  0  0
 26 27  1  0  0  0
 27 28  1  0  0  0
 28 29  1  0  0  0
 29 30  1  0  0  0
 30 31  1  0  0  0
 30 32  1  0  0  0
 33 34  2  0  0  0
 33 35  1  0  0  0
  1 36  1  0  0  0
  1 37  1  0  0  0
  1 38  1  0  0  0
  2 39  1  0  0  0
  5 40  1  0  0  0
  5 41  1  0  0  0
  5 42  1  0  0  0
  6 43  1  0  0  0
  7 44  1  0  0  0
 10 45  1  0  0  0
 10 46  1  0  0  0
 11 47  1  0  0  0
 11 48  1  0  0  0
 12 49  1  0  0  0
 12 50  1  0  0  0
 13 51  1  0  0  0
 15 52  1  0  0  0
 15 53  1  0  0  0
 16 54  1  0  0  0
 17 55  1  0  0  0
 18 56  1  0  0  0
 21 57  1  0  0  0
 22 58  1  0  0  0
 23 59  1  0  0  0
 23 60  1  0  0  0
 23 61  1  0  0  0
 24 62  1  0  0  0
 25 63  1  0  0  0
 26 64  1  0  0  0
 26 65  1  0  0  0
 27 66  1  0  0  0
 27 67  1  0  0  0
 28 68  1  0  0  0
 28 69  1  0  0  0
 29 70  1  0  0  0
 29 71  1  0  0  0
 30 72  1  0  0  0
 31 73  1  0  0  0
 31 74  1  0  0  0
 31 75  1  0  0  0
 32 76  1  0  0  0
 32 77  1  0  0  0
 32 78  1  0  0  0
 35 79  1  0  0  0
M  END
$$$$
