4zki_ligand
  -I-interpret- 

 42 44  0  0  0  0  0  0  0  0999 V2000
   16.8550  -16.4180   -3.8170 P   0  0  0  0  0
   17.3150  -16.7520   -5.2310 O   0  0  0  0  0
   16.5530  -14.9290   -3.8290 O   0  0  0  0  0
   15.5810  -17.1620   -3.4770 O   0  0  0  0  0
   18.7730  -16.0690   -1.6360 P   0  0  0  0  0
   20.1200  -15.7000   -2.2370 O   0  0  0  0  0
   18.0830  -14.7840   -1.2020 O   0  0  0  0  0
   17.8910  -16.9020   -2.6870 O   0  0  0  0  0
   19.0640  -16.9400   -0.3470 O   0  0  0  0  0
   19.2550  -18.3300   -0.4460 C   0  0  0  0  0
   19.0700  -18.9270    0.9800 C   0  0  0  0  0
   19.2980  -17.8510    2.0810 O   0  0  0  0  0
   17.8600  -19.2850    1.1240 C   0  0  0  0  0
   17.6920  -20.7100    0.9070 O   0  0  0  0  0
   17.4260  -18.9720    2.6900 C   0  0  0  0  0
   17.2310  -20.2230    3.4160 O   0  0  0  0  0
   18.3260  -18.2540    3.2290 C   0  0  0  0  0
   17.6830  -17.1020    3.8600 N   0  0  0  0  0
   17.7290  -15.7880    3.5480 C   0  0  0  0  0
   16.9430  -15.1230    4.4440 N   0  0  0  0  0
   16.4010  -16.0300    5.3230 C   0  0  0  0  0
   15.5380  -15.9060    6.4230 C   0  0  0  0  0
   14.8460  -14.8940    7.1270 N   0  0  0  0  0
   15.1610  -16.9850    7.1100 N   0  0  0  0  0
   15.6260  -18.2140    6.7330 C   0  0  0  0  0
   16.4720  -18.3440    5.6680 N   0  0  0  0  0
   16.8650  -17.2530    4.9520 C   0  0  0  0  0
   18.1225  -16.2707   -5.4257 H   0  0  0  0  0
   17.3527  -14.4432   -4.0435 H   0  0  0  0  0
   17.2284  -14.9947   -0.8187 H   0  0  0  0  0
   20.2514  -18.5529   -0.8276 H   0  0  0  0  0
   18.5361  -18.7664   -1.1395 H   0  0  0  0  0
   19.7811  -19.7473    1.0783 H   0  0  0  0  0
   17.2511  -18.7436    0.3999 H   0  0  0  0  0
   16.7682  -20.9436    1.0238 H   0  0  0  0  0
   16.4816  -18.4285    2.7181 H   0  0  0  0  0
   16.9798  -20.0300    4.3222 H   0  0  0  0  0
   18.8859  -18.7692    4.0095 H   0  0  0  0  0
   18.2919  -15.3402    2.7290 H   0  0  0  0  0
   14.9268  -13.9210    6.8319 H   0  0  0  0  0
   14.2659  -15.1369    7.9301 H   0  0  0  0  0
   15.3184  -19.1001    7.2882 H   0  0  0  0  0
  1  2  1  0  0  0
  1  3  1  0  0  0
  1  4  2  0  0  0
  8  1  1  0  0  0
  5  6  2  0  0  0
  5  7  1  0  0  0
  5  8  1  0  0  0
  5  9  1  0  0  0
  9 10  1  0  0  0
 10 11  1  0  0  0
 11 12  1  0  0  0
 11 13  1  0  0  0
 12 17  1  0  0  0
 13 14  1  0  0  0
 13 15  1  0  0  0
 15 16  1  0  0  0
 15 17  1  0  0  0
 17 18  1  0  0  0
 18 19  4  0  0  0
 18 27  4  0  0  0
 19 20  4  0  0  0
 20 21  4  0  0  0
 21 22  4  0  0  0
 21 27  4  0  0  0
 22 23  1  0  0  0
 22 24  4  0  0  0
 24 25  4  0  0  0
 25 26  4  0  0  0
 26 27  4  0  0  0
  2 28  1  0  0  0
  3 29  1  0  0  0
  7 30  1  0  0  0
 10 31  1  0  0  0
 10 32  1  0  0  0
 11 33  1  0  0  0
 13 34  1  0  0  0
 14 35  1  0  0  0
 15 36  1  0  0  0
 16 37  1  0  0  0
 17 38  1  0  0  0
 19 39  1  0  0  0
 23 40  1  0  0  0
 23 41  1  0  0  0
 25 42  1  0  0  0
M  END
$$$$
