### 
### Created by X-TOOL on Mon Sep 10 21:13:29 2018
### 

@<TRIPOS>MOLECULE
4zki_ligand
   39    41     1     0     0
SMALL
GAST_HUCK


@<TRIPOS>ATOM
      1 PB         16.8550  -16.4180   -3.8170 P.3       1 ADP         0.2069
      2 O1B        17.3150  -16.7520   -5.2310 O.co2     1 ADP        -0.5891
      3 O2B        16.5530  -14.9290   -3.8290 O.co2     1 ADP        -0.5891
      4 O3B        15.5810  -17.1620   -3.4770 O.co2     1 ADP        -0.5891
      5 PA         18.7730  -16.0690   -1.6360 P.3       1 ADP         0.3276
      6 O1A        20.1200  -15.7000   -2.2370 O.co2     1 ADP        -0.5556
      7 O2A        18.0830  -14.7840   -1.2020 O.co2     1 ADP        -0.5556
      8 O3A        17.8910  -16.9020   -2.6870 O.3       1 ADP        -0.1548
      9 O5'        19.0640  -16.9400   -0.3470 O.3       1 ADP        -0.2436
     10 C5'        19.2550  -18.3300   -0.4460 C.3       1 ADP         0.1132
     11 C4'        19.0700  -18.9270    0.9800 C.3       1 ADP         0.1189
     12 O4'        19.2980  -17.8510    2.0810 O.3       1 ADP        -0.3364
     13 C3'        17.8600  -19.2850    1.1240 C.3       1 ADP         0.1149
     14 O3'        17.6920  -20.7100    0.9070 O.3       1 ADP        -0.3864
     15 C2'        17.4260  -18.9720    2.6900 C.3       1 ADP         0.1385
     16 O2'        17.2310  -20.2230    3.4160 O.3       1 ADP        -0.3836
     17 C1'        18.3260  -18.2540    3.2290 C.3       1 ADP         0.2010
     18 N9         17.6830  -17.1020    3.8600 N.pl3     1 ADP        -0.1919
     19 C8         17.7290  -15.7880    3.5480 C.2       1 ADP         0.1123
     20 N7         16.9430  -15.1230    4.4440 N.2       1 ADP        -0.2958
     21 C5         16.4010  -16.0300    5.3230 C.ar      1 ADP         0.1045
     22 C6         15.5380  -15.9060    6.4230 C.ar      1 ADP         0.1298
     23 N6         14.8460  -14.8940    7.1270 N.pl3     1 ADP        -0.3152
     24 N1         15.1610  -16.9850    7.1100 N.ar      1 ADP        -0.2698
     25 C2         15.6260  -18.2140    6.7330 C.ar      1 ADP         0.0533
     26 N3         16.4720  -18.3440    5.6680 N.ar      1 ADP        -0.2714
     27 C4         16.8650  -17.2530    4.9520 C.ar      1 ADP         0.1613
     28 H1         20.2686  -18.5451   -0.8152 H         1 ADP         0.0648
     29 H2         18.5144  -18.7634   -1.1342 H         1 ADP         0.0648
     30 H3         19.7546  -19.7765    1.1202 H         1 ADP         0.0651
     31 H4         17.2215  -18.7240    0.4257 H         1 ADP         0.0648
     32 H5         18.2225  -21.1892    1.5327 H         1 ADP         0.2100
     33 H6         16.4781  -18.4139    2.6953 H         1 ADP         0.0676
     34 H7         16.9824  -20.0320    4.3128 H         1 ADP         0.2101
     35 H8         18.8721  -18.8269    3.9929 H         1 ADP         0.0996
     36 H9         18.2914  -15.3406    2.7298 H         1 ADP         0.1349
     37 H10        14.2602  -15.1392    7.9379 H         1 ADP         0.1820
     38 H11        14.9276  -13.9114    6.8290 H         1 ADP         0.1820
     39 H12        15.3201  -19.0953    7.2852 H         1 ADP         0.0996
@<TRIPOS>BOND
     1    1    2 ar 
     2    1    3 ar 
     3    1    4 ar 
     4    8    1 1  
     5    5    6 ar 
     6    5    7 ar 
     7    5    8 1  
     8    5    9 1  
     9    9   10 1  
    10   10   11 1  
    11   11   12 1  
    12   11   13 1  
    13   12   17 1  
    14   13   14 1  
    15   13   15 1  
    16   15   16 1  
    17   15   17 1  
    18   17   18 1  
    19   18   19 1  
    20   18   27 1  
    21   19   20 2  
    22   20   21 1  
    23   21   22 ar 
    24   21   27 ar 
    25   22   23 1  
    26   22   24 ar 
    27   24   25 ar 
    28   25   26 ar 
    29   26   27 ar 
    30   10   28 1  
    31   10   29 1  
    32   11   30 1  
    33   13   31 1  
    34   14   32 1  
    35   15   33 1  
    36   16   34 1  
    37   17   35 1  
    38   19   36 1  
    39   23   37 1  
    40   23   38 1  
    41   25   39 1  
@<TRIPOS>SUBSTRUCTURE
     1 ADP         1

