1nj1_ligand
  -I-interpret- 

 49 51  0  0  0  0  0  0  0  0999 V2000
  -35.9760  -79.8260  -41.0890 N   0  3  0  0  0
  -34.5200  -79.9190  -41.0260 C   0  0  0  0  0
  -33.8810  -78.5490  -40.9800 C   0  0  0  0  0
  -34.8610  -77.4050  -40.0070 S   0  0  0  0  0
  -34.1460  -80.6510  -39.7710 C   0  0  0  0  0
  -34.9160  -81.1100  -38.9640 O   0  0  0  0  0
  -32.9120  -81.2250  -39.8930 N   0  0  0  0  0
  -32.2610  -82.2960  -38.8900 S   0  0  0  0  0
  -33.1810  -83.4350  -38.7140 O   0  0  0  0  0
  -30.9160  -82.5760  -39.4920 O   0  0  0  0  0
  -32.0400  -81.5710  -37.4770 O   0  0  0  0  0
  -31.4750  -80.2500  -37.3870 C   0  0  0  0  0
  -30.3270  -80.1980  -36.4020 C   0  0  0  0  0
  -30.7980  -80.4420  -35.0510 O   0  0  0  0  0
  -29.2370  -81.2230  -36.6300 C   0  0  0  0  0
  -28.2750  -80.6930  -37.5440 O   0  0  0  0  0
  -28.6750  -81.4880  -35.2420 C   0  0  0  0  0
  -27.5650  -80.6710  -34.9240 O   0  0  0  0  0
  -29.8410  -81.1920  -34.3160 C   0  0  0  0  0
  -30.5320  -82.3740  -33.7320 N   0  0  0  0  0
  -31.1910  -83.4110  -34.3680 C   0  0  0  0  0
  -31.7090  -84.3000  -33.5380 N   0  0  0  0  0
  -31.3760  -83.8280  -32.2790 C   0  0  0  0  0
  -31.6320  -84.3100  -30.9510 C   0  0  0  0  0
  -32.3150  -85.4240  -30.6890 N   0  0  0  0  0
  -31.1510  -83.5890  -29.8880 N   0  0  0  0  0
  -30.4530  -82.4460  -30.1300 C   0  0  0  0  0
  -30.1550  -81.8980  -31.3360 N   0  0  0  0  0
  -30.6460  -82.6400  -32.3750 C   0  0  0  0  0
  -36.2474  -79.3301  -41.9380 H   0  0  0  0  0
  -36.3753  -80.7645  -41.0997 H   0  0  0  0  0
  -36.3187  -79.3187  -40.2732 H   0  0  0  0  0
  -34.1684  -80.4397  -41.9167 H   0  0  0  0  0
  -33.8090  -78.1655  -41.9977 H   0  0  0  0  0
  -32.8968  -78.6405  -40.5205 H   0  0  0  0  0
  -34.2660  -76.2156  -39.9919 H   0  0  0  0  0
  -32.3511  -80.9464  -40.6981 H   0  0  0  0  0
  -32.2522  -79.5667  -37.0449 H   0  0  0  0  0
  -31.0967  -79.9706  -38.3703 H   0  0  0  0  0
  -29.9152  -79.1995  -36.5489 H   0  0  0  0  0
  -29.5806  -82.1538  -37.0813 H   0  0  0  0  0
  -27.5826  -81.3418  -37.6900 H   0  0  0  0  0
  -28.2955  -82.5064  -35.1582 H   0  0  0  0  0
  -27.2557  -80.8831  -34.0403 H   0  0  0  0  0
  -29.4137  -80.6590  -33.4666 H   0  0  0  0  0
  -31.2752  -83.4878  -35.4520 H   0  0  0  0  0
  -32.6883  -85.9853  -31.4545 H   0  0  0  0  0
  -32.4644  -85.7153  -29.7230 H   0  0  0  0  0
  -30.0911  -81.9080  -29.2538 H   0  0  0  0  0
  1  2  1  0  0  0
  2  3  1  0  0  0
  2  5  1  0  0  0
  3  4  1  0  0  0
  5  6  2  0  0  0
  5  7  1  0  0  0
  7  8  1  0  0  0
  8  9  2  0  0  0
  8 10  2  0  0  0
  8 11  1  0  0  0
 11 12  1  0  0  0
 12 13  1  0  0  0
 13 14  1  0  0  0
 13 15  1  0  0  0
 14 19  1  0  0  0
 15 16  1  0  0  0
 15 17  1  0  0  0
 17 18  1  0  0  0
 17 19  1  0  0  0
 19 20  1  0  0  0
 20 21  4  0  0  0
 20 29  4  0  0  0
 21 22  4  0  0  0
 22 23  4  0  0  0
 23 24  4  0  0  0
 23 29  4  0  0  0
 24 25  1  0  0  0
 24 26  4  0  0  0
 26 27  4  0  0  0
 27 28  4  0  0  0
 28 29  4  0  0  0
  1 30  1  0  0  0
  1 31  1  0  0  0
  1 32  1  0  0  0
  2 33  1  0  0  0
  3 34  1  0  0  0
  3 35  1  0  0  0
  4 36  1  0  0  0
  7 37  1  0  0  0
 12 38  1  0  0  0
 12 39  1  0  0  0
 13 40  1  0  0  0
 15 41  1  0  0  0
 16 42  1  0  0  0
 17 43  1  0  0  0
 18 44  1  0  0  0
 19 45  1  0  0  0
 21 46  1  0  0  0
 25 47  1  0  0  0
 25 48  1  0  0  0
 27 49  1  0  0  0
M  END
$$$$
