1uwb_ligand
  -I-interpret- 

 42 44  0  0  0  0  0  0  0  0999 V2000
  141.4970  -25.3980   71.5960 N   0  0  0  0  0
  142.1040  -25.8440   72.8160 C   0  0  0  0  0
  142.4550  -24.5720   70.9310 C   0  0  0  0  0
  142.2550  -23.7960   69.4350 S   0  0  0  0  0
  143.6120  -24.5610   71.7120 N   0  0  0  0  0
  143.3270  -25.3030   72.8470 C   0  0  0  0  0
  144.8140  -23.9420   71.2260 C   0  0  0  0  0
  145.4980  -23.0340   72.1840 C   0  0  0  0  0
  145.4360  -23.3420   73.5970 N   0  3  0  0  0
  145.5750  -24.7420   73.8760 C   0  0  0  0  0
  144.2360  -25.4030   73.9080 C   0  0  0  0  0
  143.8450  -26.1990   75.0330 C   0  0  0  0  0
  144.8780  -26.3460   76.4260 Cl  0  0  0  0  0
  142.5870  -26.8370   75.0380 C   0  0  0  0  0
  141.7090  -26.6630   73.8970 C   0  0  0  0  0
  146.9010  -23.2960   71.8330 C   0  0  0  0  0
  145.8800  -22.3500   74.6520 C   0  0  0  0  0
  144.7590  -22.0250   75.6250 C   0  0  0  0  0
  144.7820  -21.4460   76.8150 C   0  0  0  0  0
  143.3780  -21.4150   77.2860 C   0  0  0  0  0
  146.0530  -20.9630   77.4590 C   0  0  0  0  0
  140.5595  -25.6268   71.2655 H   0  0  0  0  0
  144.5248  -23.3307   70.3711 H   0  0  0  0  0
  145.5136  -24.7494   71.0098 H   0  0  0  0  0
  145.0516  -22.0438   72.0921 H   0  0  0  0  0
  144.4641  -23.0986   73.7881 H   0  0  0  0  0
  146.0541  -24.8642   74.8474 H   0  0  0  0  0
  146.1787  -25.2014   73.0933 H   0  0  0  0  0
  142.2800  -27.4504   75.8851 H   0  0  0  0  0
  140.7420  -27.1654   73.8735 H   0  0  0  0  0
  147.5492  -22.6509   72.4262 H   0  0  0  0  0
  147.1372  -24.3398   72.0400 H   0  0  0  0  0
  147.0535  -23.0909   70.7734 H   0  0  0  0  0
  146.1793  -21.4285   74.1527 H   0  0  0  0  0
  146.7043  -22.7908   75.2126 H   0  0  0  0  0
  143.7661  -22.3190   75.2848 H   0  0  0  0  0
  142.7727  -20.8433   76.5826 H   0  0  0  0  0
  142.9957  -22.4336   77.3521 H   0  0  0  0  0
  143.3361  -20.9454   78.2688 H   0  0  0  0  0
  146.7341  -21.8037   77.5911 H   0  0  0  0  0
  146.5196  -20.2124   76.8210 H   0  0  0  0  0
  145.8229  -20.5242   78.4299 H   0  0  0  0  0
  1  2  1  0  0  0
  1  3  1  0  0  0
  2  6  4  0  0  0
  2 15  4  0  0  0
  3  4  2  0  0  0
  3  5  1  0  0  0
  5  6  1  0  0  0
  5  7  1  0  0  0
  6 11  4  0  0  0
  7  8  1  0  0  0
  8  9  1  0  0  0
  8 16  1  0  0  0
  9 10  1  0  0  0
  9 17  1  0  0  0
 10 11  1  0  0  0
 11 12  4  0  0  0
 12 13  1  0  0  0
 12 14  4  0  0  0
 14 15  4  0  0  0
 17 18  1  0  0  0
 18 19  2  0  0  0
 19 20  1  0  0  0
 19 21  1  0  0  0
  1 22  1  0  0  0
  7 23  1  0  0  0
  7 24  1  0  0  0
  8 25  1  0  0  0
  9 26  1  0  0  0
 10 27  1  0  0  0
 10 28  1  0  0  0
 14 29  1  0  0  0
 15 30  1  0  0  0
 16 31  1  0  0  0
 16 32  1  0  0  0
 16 33  1  0  0  0
 17 34  1  0  0  0
 17 35  1  0  0  0
 18 36  1  0  0  0
 20 37  1  0  0  0
 20 38  1  0  0  0
 20 39  1  0  0  0
 21 40  1  0  0  0
 21 41  1  0  0  0
 21 42  1  0  0  0
M  END
$$$$
