5g17_ligand
  -I-interpret- 

 42 42  0  0  0  0  0  0  0  0999 V2000
   11.1610   61.0630   21.5340 N   0  0  0  0  0
   13.7560   51.8020   22.7550 C   0  0  0  0  0
   12.6000   50.9960   22.8430 O   0  0  0  0  0
   13.4460   53.2480   23.1930 C   0  0  0  0  0
   14.0500   51.6680   21.3480 O   0  0  0  0  0
   12.3620   54.0180   22.4550 C   0  0  0  0  0
   12.4240   55.4570   23.0040 C   0  0  0  0  0
   11.3150   56.3640   22.5390 C   0  0  0  0  0
   11.5880   57.7560   23.1370 C   0  0  0  0  0
   10.8330   58.8050   22.3230 C   0  0  0  0  0
   11.2970   60.2280   22.5930 C   0  0  0  0  0
   11.1810   62.4430   21.5400 C   0  0  0  0  0
   10.9740   63.0770   20.2980 C   0  0  0  0  0
   10.9840   64.4690   20.1790 C   0  0  0  0  0
   11.1970   65.2540   21.3130 C   0  0  0  0  0
   11.3990   64.6460   22.5530 C   0  0  0  0  0
   11.3870   63.2530   22.6750 C   0  0  0  0  0
   15.9860   51.8700   23.4870 F   0  0  0  0  0
   14.8560   51.1970   23.6170 C   0  0  0  0  0
   14.4570   51.1730   24.8930 F   0  0  0  0  0
   15.1590   49.9540   23.2280 F   0  0  0  0  0
   11.6730   60.5280   23.7270 O   0  0  0  0  0
   11.0282   60.6191   20.6253 H   0  0  0  0  0
   11.9048   51.3752   22.3004 H   0  0  0  0  0
   14.3650   53.8037   23.0066 H   0  0  0  0  0
   13.0849   53.1623   24.2179 H   0  0  0  0  0
   13.3387   52.0585   20.8350 H   0  0  0  0  0
   11.3798   53.5736   22.6156 H   0  0  0  0  0
   12.5234   53.9968   21.3772 H   0  0  0  0  0
   13.3571   55.8910   22.6446 H   0  0  0  0  0
   12.3373   55.3842   24.0881 H   0  0  0  0  0
   10.3464   55.9872   22.8677 H   0  0  0  0  0
   11.2877   56.4115   21.4504 H   0  0  0  0  0
   12.6571   57.9661   23.1051 H   0  0  0  0  0
   11.2510   57.7830   24.1732 H   0  0  0  0  0
    9.7813   58.7437   22.6029 H   0  0  0  0  0
   11.0133   58.5951   21.2687 H   0  0  0  0  0
   10.8023   62.4676   19.4107 H   0  0  0  0  0
   10.8266   64.9383   19.2079 H   0  0  0  0  0
   11.2056   66.3408   21.2304 H   0  0  0  0  0
   11.5678   65.2633   23.4353 H   0  0  0  0  0
   11.5375   62.7920   23.6512 H   0  0  0  0  0
 11  1  1  0  0  0
  1 12  1  0  0  0
  2  3  1  0  0  0
  4  2  1  0  0  0
  2  5  1  0  0  0
  2 19  1  0  0  0
  6  4  1  0  0  0
  7  6  1  0  0  0
  8  7  1  0  0  0
  9  8  1  0  0  0
 10  9  1  0  0  0
 10 11  1  0  0  0
 11 22  2  0  0  0
 12 13  4  0  0  0
 12 17  4  0  0  0
 13 14  4  0  0  0
 14 15  4  0  0  0
 15 16  4  0  0  0
 16 17  4  0  0  0
 19 18  1  0  0  0
 19 20  1  0  0  0
 19 21  1  0  0  0
  1 23  1  0  0  0
  3 24  1  0  0  0
  4 25  1  0  0  0
  4 26  1  0  0  0
  5 27  1  0  0  0
  6 28  1  0  0  0
  6 29  1  0  0  0
  7 30  1  0  0  0
  7 31  1  0  0  0
  8 32  1  0  0  0
  8 33  1  0  0  0
  9 34  1  0  0  0
  9 35  1  0  0  0
 10 36  1  0  0  0
 10 37  1  0  0  0
 13 38  1  0  0  0
 14 39  1  0  0  0
 15 40  1  0  0  0
 16 41  1  0  0  0
 17 42  1  0  0  0
M  END
$$$$
