2d0k_ligand
  -I-interpret- 

 51 53  0  0  0  0  0  0  0  0999 V2000
   25.7130   -0.1330    4.2750 N   0  0  0  0  0
   26.2710   -0.3150    3.0890 C   0  0  0  0  0
   25.7410   -0.6880    2.0920 N   0  0  0  0  0
   27.5850   -0.0500    2.9650 N   0  0  0  0  0
   28.3040    0.3780    3.9530 C   0  0  0  0  0
   29.4380    0.5880    3.7640 O   0  0  0  0  0
   27.6520    0.5690    5.2130 C   0  0  0  0  0
   28.3700    1.0460    6.3350 N   0  0  0  0  0
   27.5940    1.1820    7.4800 C   0  0  0  0  0
   26.2380    0.8330    7.3980 C   0  0  0  0  0
   25.6260    0.4320    6.4720 N   0  0  0  0  0
   26.3710    0.2950    5.3150 C   0  0  0  0  0
   28.2430    1.6700    8.6450 C   0  0  0  0  0
   29.6990    2.1740    8.4260 N   0  0  0  0  0
   30.7510    5.7450    6.1770 C   0  0  0  0  0
   31.7260    4.8990    6.7820 C   0  0  0  0  0
   31.4170    3.6730    7.5650 C   0  0  0  0  0
   29.9990    3.3010    7.7260 C   0  0  0  0  0
   29.1170    4.0920    7.1670 C   0  0  0  0  0
   29.4850    5.3610    6.3620 C   0  0  0  0  0
   31.1030    6.9670    5.3850 C   0  0  0  0  0
   32.2050    7.7750    5.6790 O   0  0  0  0  0
   30.3340    7.2710    4.3580 N   0  0  0  0  0
   30.3960    8.4790    3.6150 C   0  0  0  0  0
   30.7060    8.1460    2.0550 C   0  0  0  0  0
   32.0230    8.5750    1.7430 C   0  0  0  0  0
   32.0030    8.7940    0.4780 C   0  0  0  0  0
   31.9240   10.2340    0.2760 O   0  0  0  0  0
   32.0540    7.7580   -0.3590 O   0  0  0  0  0
   29.0780    9.0430    3.5080 C   0  0  0  0  0
   27.9580    8.3150    3.5160 O   0  0  0  0  0
   29.1130   10.2300    3.4120 O   0  0  0  0  0
   24.7447   -0.9066    2.0951 H   0  0  0  0  0
   26.2827   -0.7894    1.2337 H   0  0  0  0  0
   28.0309   -0.1917    2.0586 H   0  0  0  0  0
   25.6687    0.9485    8.3203 H   0  0  0  0  0
   28.3010    0.8364    9.3449 H   0  0  0  0  0
   27.6634    2.5252    8.9927 H   0  0  0  0  0
   30.4653    1.6331    8.8267 H   0  0  0  0  0
   32.7748    5.1706    6.6619 H   0  0  0  0  0
   32.2114    3.0700    8.0048 H   0  0  0  0  0
   28.0617    3.8414    7.2754 H   0  0  0  0  0
   28.6841    5.9620    5.9313 H   0  0  0  0  0
   29.6376    6.5819    4.0742 H   0  0  0  0  0
   31.1336    9.1148    4.1047 H   0  0  0  0  0
   29.9898    8.6663    1.4190 H   0  0  0  0  0
   30.6190    7.0730    1.8841 H   0  0  0  0  0
   32.7692    7.8284    2.0148 H   0  0  0  0  0
   32.3049    9.4651    2.3055 H   0  0  0  0  0
   31.9052   10.6750    1.1285 H   0  0  0  0  0
   28.1824    7.3856    3.6028 H   0  0  0  0  0
  1  2  2  0  0  0
 12  1  1  0  0  0
  2  3  1  0  0  0
  4  2  1  0  0  0
  5  4  1  0  0  0
  5  6  2  0  0  0
  7  5  1  0  0  0
  8  7  4  0  0  0
  7 12  4  0  0  0
  9  8  4  0  0  0
  9 10  4  0  0  0
 13  9  1  0  0  0
 10 11  4  0  0  0
 11 12  4  0  0  0
 14 13  1  0  0  0
 18 14  1  0  0  0
 16 15  4  0  0  0
 15 20  4  0  0  0
 15 21  1  0  0  0
 17 16  4  0  0  0
 17 18  4  0  0  0
 18 19  4  0  0  0
 19 20  4  0  0  0
 21 22  2  0  0  0
 21 23  1  0  0  0
 23 24  1  0  0  0
 24 25  1  0  0  0
 24 30  1  0  0  0
 25 26  1  0  0  0
 26 27  1  0  0  0
 27 28  1  0  0  0
 27 29  2  0  0  0
 30 31  1  0  0  0
 30 32  2  0  0  0
  3 33  1  0  0  0
  3 34  1  0  0  0
  4 35  1  0  0  0
 10 36  1  0  0  0
 13 37  1  0  0  0
 13 38  1  0  0  0
 14 39  1  0  0  0
 16 40  1  0  0  0
 17 41  1  0  0  0
 19 42  1  0  0  0
 20 43  1  0  0  0
 23 44  1  0  0  0
 24 45  1  0  0  0
 25 46  1  0  0  0
 25 47  1  0  0  0
 26 48  1  0  0  0
 26 49  1  0  0  0
 28 50  1  0  0  0
 31 51  1  0  0  0
M  END
$$$$
