4tlr_ligand
  -I-interpret- 

 64 66  0  0  0  0  0  0  0  0999 V2000
    6.3900   30.1020    1.6690 C   0  0  0  0  0
    6.5360   32.4480    1.2380 C   0  0  0  0  0
    7.3870   33.7600    1.1410 C   0  0  0  0  0
    8.6730   33.6150    1.7890 O   0  0  0  0  0
    5.3110   32.4880    1.0170 O   0  0  0  0  0
    6.7070   27.9390   -1.3280 O   0  0  0  0  0
    8.3570   31.6680    4.4120 C   0  0  0  0  0
    6.6740   35.0250    1.6890 C   0  0  0  0  0
    5.5220   29.9100    2.7870 C   0  0  0  0  0
    4.8340   28.7430    2.6260 C   0  0  0  0  0
    6.2890   29.1380    0.6820 C   0  0  0  0  0
    6.9390   28.9150   -0.6220 C   0  0  0  0  0
    3.8950   28.2470    3.5350 C   0  0  0  0  0
    3.0620   27.8020    4.2880 C   0  0  0  0  0
    2.0610   27.3020    5.2370 C   0  0  0  0  0
    2.4440   25.8770    5.6960 C   0  0  0  0  0
    2.0740   28.2690    6.4320 C   0  0  0  0  0
    0.6750   27.3010    4.5640 C   0  0  0  0  0
    6.2060   34.9510    3.1420 C   0  0  0  0  0
    7.2890   35.3340    4.1650 C   0  0  0  0  0
    7.1730   31.2870    1.5770 N   0  0  0  0  0
    9.4010   32.4590    1.3720 C   0  0  0  0  0
    8.6560   31.1700    1.8270 C   0  0  0  0  0
    8.9490   30.7410    3.3030 C   0  0  0  0  0
   10.4550   30.4200    3.6040 C   0  0  0  0  0
   10.6630   29.8210    5.0230 C   0  0  0  0  0
   10.0180   30.7100    6.1270 C   0  0  0  0  0
    8.5330   31.0650    5.8270 C   0  0  0  0  0
    5.1550   27.8910    1.1630 S   0  0  0  0  0
    7.8100   29.8960   -0.9880 O   0  0  0  0  0
    5.0950   35.8080    3.2920 O   0  0  0  0  0
    7.5284   33.9119    0.0709 H   0  0  0  0  0
    7.2902   31.7874    4.2227 H   0  0  0  0  0
    8.8867   32.6200    4.3790 H   0  0  0  0  0
    5.7771   35.1580    1.0841 H   0  0  0  0  0
    7.4040   35.8331    1.6425 H   0  0  0  0  0
    5.4247   30.5884    3.6346 H   0  0  0  0  0
    2.4835   25.2161    4.8301 H   0  0  0  0  0
    3.4203   25.9027    6.1800 H   0  0  0  0  0
    1.6973   25.5106    6.4005 H   0  0  0  0  0
    3.0675   28.2773    6.8802 H   0  0  0  0  0
    1.8204   29.2720    6.0889 H   0  0  0  0  0
    1.3432   27.9409    7.1712 H   0  0  0  0  0
    0.4177   28.3167    4.2634 H   0  0  0  0  0
    0.6995   26.6560    3.6857 H   0  0  0  0  0
   -0.0693   26.9296    5.2684 H   0  0  0  0  0
    5.9499   33.9117    3.3480 H   0  0  0  0  0
    7.5987   36.3652    3.9955 H   0  0  0  0  0
    6.8860   35.2353    5.1730 H   0  0  0  0  0
    8.1470   34.6719    4.0489 H   0  0  0  0  0
   10.3936   32.4780    1.8219 H   0  0  0  0  0
    9.4855   32.4604    0.2853 H   0  0  0  0  0
    9.0595   30.3672    1.2099 H   0  0  0  0  0
    8.3934   29.8050    3.3615 H   0  0  0  0  0
   11.0159   31.3529    3.5469 H   0  0  0  0  0
   10.7945   29.6842    2.8750 H   0  0  0  0  0
   11.7342   29.7598    5.2152 H   0  0  0  0  0
   10.1891   28.8399    5.0533 H   0  0  0  0  0
   10.5804   31.6425    6.1745 H   0  0  0  0  0
   10.0444   30.1510    7.0624 H   0  0  0  0  0
    7.9449   30.1490    5.8833 H   0  0  0  0  0
    8.2048   31.8051    6.5568 H   0  0  0  0  0
    7.8464   30.5635   -0.2990 H   0  0  0  0  0
    4.7868   35.7744    4.2005 H   0  0  0  0  0
  1  9  4  0  0  0
  1 11  4  0  0  0
 21  1  1  0  0  0
  2  3  1  0  0  0
  2  5  2  0  0  0
 21  2  1  0  0  0
  4  3  1  0  0  0
  3  8  1  0  0  0
 22  4  1  0  0  0
 12  6  2  0  0  0
 24  7  1  0  0  0
  7 28  1  0  0  0
  8 19  1  0  0  0
  9 10  4  0  0  0
 10 13  1  0  0  0
 29 10  4  0  0  0
 11 12  1  0  0  0
 11 29  4  0  0  0
 12 30  1  0  0  0
 13 14  3  0  0  0
 14 15  1  0  0  0
 15 16  1  0  0  0
 15 17  1  0  0  0
 15 18  1  0  0  0
 19 20  1  0  0  0
 19 31  1  0  0  0
 23 21  1  0  0  0
 23 22  1  0  0  0
 23 24  1  0  0  0
 24 25  1  0  0  0
 25 26  1  0  0  0
 26 27  1  0  0  0
 27 28  1  0  0  0
  3 32  1  0  0  0
  7 33  1  0  0  0
  7 34  1  0  0  0
  8 35  1  0  0  0
  8 36  1  0  0  0
  9 37  1  0  0  0
 16 38  1  0  0  0
 16 39  1  0  0  0
 16 40  1  0  0  0
 17 41  1  0  0  0
 17 42  1  0  0  0
 17 43  1  0  0  0
 18 44  1  0  0  0
 18 45  1  0  0  0
 18 46  1  0  0  0
 19 47  1  0  0  0
 20 48  1  0  0  0
 20 49  1  0  0  0
 20 50  1  0  0  0
 22 51  1  0  0  0
 22 52  1  0  0  0
 23 53  1  0  0  0
 24 54  1  0  0  0
 25 55  1  0  0  0
 25 56  1  0  0  0
 26 57  1  0  0  0
 26 58  1  0  0  0
 27 59  1  0  0  0
 27 60  1  0  0  0
 28 61  1  0  0  0
 28 62  1  0  0  0
 30 63  1  0  0  0
 31 64  1  0  0  0
M  END
$$$$
