1cwc_ligand
  -I-interpret- 

199199  0  0  0  0  0  0  0  0999 V2000
    5.2670   34.7040   19.6810 N   0  0  0  0  0
    4.7230   36.1080   19.8190 C   0  0  0  0  0
    6.4960   34.5850   18.8850 C   0  0  0  0  0
    7.7150   35.3530   19.4260 C   0  0  0  0  0
    7.6270   36.1130   20.3850 O   0  0  0  0  0
    6.2860   34.9240   17.3710 C   0  0  0  0  0
    6.1070   36.3370   17.2240 O   0  0  0  0  0
    5.0930   34.1840   16.7320 C   0  0  0  0  0
    5.1900   32.6520   16.9660 C   0  0  0  0  0
    5.0360   34.5000   15.2230 C   0  0  0  0  0
    6.1820   34.0290   14.3330 C   0  0  0  0  0
    6.9280   34.8590   13.6080 C   0  0  0  0  0
    8.0280   34.3470   12.7230 C   0  0  0  0  0
    8.8720   35.1010   18.8290 N   0  0  0  0  0
   10.1120   35.7390   19.2760 C   0  0  0  0  0
   10.7430   36.5330   18.1280 C   0  0  0  0  0
   11.5070   35.9620   17.3510 O   0  0  0  0  0
   11.0980   34.6570   19.7400 C   0  0  0  0  0
   10.5180   33.6840   20.7580 C   0  0  0  0  0
   10.4750   37.8380   18.0440 N   0  0  0  0  0
   11.0400   38.6200   16.9570 C   0  0  0  0  0
    9.9790   39.4110   16.2200 C   0  0  0  0  0
   10.0760   40.6360   16.1700 O   0  0  0  0  0
    9.5030   38.6330   18.8790 C   0  0  0  0  0
    9.1540   38.7280   15.4240 N   0  0  0  0  0
    8.0780   39.4080   14.7090 C   0  0  0  0  0
    6.7320   39.0430   15.3470 C   0  0  0  0  0
    6.1760   37.9820   15.0630 O   0  0  0  0  0
    8.0820   39.0140   13.2360 C   0  0  0  0  0
    8.6160   40.0660   12.2740 C   0  0  0  0  0
    8.3600   39.5320   10.8510 C   0  0  0  0  0
    7.5670   40.4830    9.9520 C   0  0  0  0  0
    9.2680   37.2680   15.0670 C   0  0  0  0  0
    7.9110   41.4150   12.4990 C   0  0  0  0  0
    6.2950   39.8330   16.3240 N   0  0  0  0  0
    5.0280   39.5440   17.0010 C   0  0  0  0  0
    3.8670   39.7840   16.0500 C   0  0  0  0  0
    3.7990   40.8350   15.4230 O   0  0  0  0  0
    4.8450   40.4070   18.2530 C   0  0  0  0  0
    3.5120   40.0690   18.9200 C   0  0  0  0  0
    5.9830   40.1690   19.2140 C   0  0  0  0  0
    3.0020   38.7930   15.8610 N   0  0  0  0  0
    2.9030   37.4760   16.5830 C   0  0  0  0  0
    1.9050   39.0090   14.9280 C   0  0  0  0  0
    1.7640   37.8360   13.9370 C   0  0  0  0  0
    3.0140   37.3640   13.1710 C   0  0  0  0  0
    2.6680   36.1710   12.3100 C   0  0  0  0  0
    3.6330   38.4910   12.3480 C   0  0  0  0  0
    0.5730   39.2960   15.6000 C   0  0  0  0  0
    0.5210   39.6050   16.8000 O   0  0  0  0  0
   -0.3500   39.6810   14.7330 N   0  0  0  0  0
   -1.7090   39.9790   15.1420 C   0  0  0  0  0
   -2.3320   38.7380   15.7950 C   0  0  0  0  0
   -2.1020   37.6020   15.3400 O   0  0  0  0  0
   -2.5400   40.3830   13.9040 C   0  0  0  0  0
   -3.3680   38.9980   16.5870 N   0  0  0  0  0
   -4.1100   37.9380   17.2590 C   0  0  0  0  0
   -5.5750   38.3830   17.4940 C   0  0  0  0  0
   -3.4540   37.5990   18.5790 C   0  0  0  0  0
   -3.1060   38.5120   19.3410 O   0  0  0  0  0
   -3.5200   36.3190   18.9480 N   0  0  0  0  0
   -3.9270   35.1520   18.0640 C   0  0  0  0  0
   -2.9350   35.8980   20.2130 C   0  0  0  0  0
   -4.0120   35.3330   21.1320 C   0  0  0  0  0
   -5.1470   36.2680   21.5110 C   0  0  0  0  0
   -6.1850   35.4660   22.2290 C   0  0  0  0  0
   -4.6550   37.4080   22.3740 C   0  0  0  0  0
   -1.8330   34.8700   20.0100 C   0  0  0  0  0
   -2.0090   33.6890   20.3150 O   0  0  0  0  0
   -0.6840   35.3080   19.5180 N   0  0  0  0  0
   -0.3460   36.7310   19.1290 C   0  0  0  0  0
    0.3940   34.3520   19.3110 C   0  0  0  0  0
    0.8770   34.3900   17.8490 C   0  0  0  0  0
   -0.1190   34.0090   16.7350 C   0  0  0  0  0
    0.6450   34.0150   15.4160 C   0  0  0  0  0
   -0.7500   32.6390   16.9530 C   0  0  0  0  0
    1.5460   34.6210   20.2610 C   0  0  0  0  0
    1.4750   35.5710   21.0530 O   0  0  0  0  0
    2.4360   33.6370   20.4120 N   0  0  0  0  0
    2.3430   32.2430   19.8740 C   0  0  0  0  0
    3.5990   33.8610   21.2760 C   0  0  0  0  0
    3.5700   32.9480   22.5420 C   0  0  0  0  0
    4.6270   33.4130   23.5410 C   0  0  0  0  0
    2.1600   32.9990   23.2260 C   0  0  0  0  0
    4.9060   33.6980   20.4830 C   0  0  0  0  0
    5.5080   32.6180   20.4890 O   0  0  0  0  0
    3.6401   36.0904   19.6963 H   0  0  0  0  0
    4.9718   36.4973   20.8062 H   0  0  0  0  0
    5.1663   36.7449   19.0536 H   0  0  0  0  0
    6.7335   33.5257   18.9829 H   0  0  0  0  0
    7.1786   34.5847   16.8454 H   0  0  0  0  0
    6.8504   36.7957   17.6222 H   0  0  0  0  0
    4.1751   34.5310   17.2066 H   0  0  0  0  0
    4.3159   32.1639   16.5350 H   0  0  0  0  0
    6.0929   32.2695   16.4900 H   0  0  0  0  0
    5.2291   32.4510   18.0366 H   0  0  0  0  0
    5.0568   35.5880   15.1601 H   0  0  0  0  0
    4.1561   33.9718   14.8557 H   0  0  0  0  0
    6.4002   32.9620   14.2888 H   0  0  0  0  0
    6.7370   35.9310   13.6575 H   0  0  0  0  0
    8.7610   33.8136   13.3283 H   0  0  0  0  0
    7.6084   33.6705   11.9784 H   0  0  0  0  0
    8.5102   35.1865   12.2222 H   0  0  0  0  0
    8.8987   34.4506   18.0437 H   0  0  0  0  0
    9.8857   36.4183   20.0979 H   0  0  0  0  0
   11.9338   35.1662   20.2199 H   0  0  0  0  0
   11.3772   34.0762   18.8609 H   0  0  0  0  0
   10.2023   34.2334   21.6449 H   0  0  0  0  0
    9.6603   33.1721   20.3217 H   0  0  0  0  0
   11.2778   32.9526   21.0335 H   0  0  0  0  0
   11.5083   37.9349   16.2503 H   0  0  0  0  0
   11.7589   39.3224   17.3788 H   0  0  0  0  0
    8.4993   38.2278   18.7503 H   0  0  0  0  0
    9.7903   38.5688   19.9285 H   0  0  0  0  0
    9.5192   39.6750   18.5596 H   0  0  0  0  0
    8.2325   40.4849   14.7765 H   0  0  0  0  0
    7.0419   38.8417   12.9593 H   0  0  0  0  0
    8.7426   38.1514   13.1485 H   0  0  0  0  0
    9.6801   40.2415   12.4323 H   0  0  0  0  0
    7.7698   38.6212   10.9525 H   0  0  0  0  0
    9.3340   39.3877   10.3835 H   0  0  0  0  0
    6.5922   40.6761   10.3999 H   0  0  0  0  0
    8.1123   41.4209    9.8469 H   0  0  0  0  0
    7.4336   40.0270    8.9710 H   0  0  0  0  0
   10.2211   37.0904   14.5689 H   0  0  0  0  0
    9.2139   36.6679   15.9753 H   0  0  0  0  0
    8.4511   36.9936   14.3996 H   0  0  0  0  0
    6.8402   41.2960   12.3335 H   0  0  0  0  0
    8.0870   41.7494   13.5214 H   0  0  0  0  0
    8.3081   42.1519   11.8009 H   0  0  0  0  0
    6.8453   40.6450   16.6036 H   0  0  0  0  0
    5.0493   38.4985   17.3086 H   0  0  0  0  0
    4.8430   41.4589   17.9672 H   0  0  0  0  0
    2.6979   40.2655   18.2223 H   0  0  0  0  0
    3.5047   39.0160   19.2015 H   0  0  0  0  0
    3.3860   40.6853   19.8102 H   0  0  0  0  0
    6.0002   39.1177   19.5015 H   0  0  0  0  0
    6.9249   40.4306   18.7317 H   0  0  0  0  0
    5.8434   40.7873   20.1007 H   0  0  0  0  0
    3.8326   36.9217   16.4541 H   0  0  0  0  0
    2.7304   37.6568   17.6440 H   0  0  0  0  0
    2.0745   36.8991   16.1720 H   0  0  0  0  0
    2.1739   39.9102   14.3769 H   0  0  0  0  0
    1.0782   38.1937   13.1690 H   0  0  0  0  0
    1.4654   36.9832   14.5467 H   0  0  0  0  0
    3.7682   37.0607   13.8971 H   0  0  0  0  0
    2.3055   35.3608   12.9427 H   0  0  0  0  0
    1.8927   36.4517   11.5971 H   0  0  0  0  0
    3.5571   35.8431   11.7715 H   0  0  0  0  0
    2.9034   38.8534   11.6238 H   0  0  0  0  0
    3.9242   39.3057   13.0110 H   0  0  0  0  0
    4.5118   38.1158   11.8236 H   0  0  0  0  0
   -0.0981   39.7707   13.7487 H   0  0  0  0  0
   -1.7016   40.7997   15.8593 H   0  0  0  0  0
   -2.0963   41.2650   13.4422 H   0  0  0  0  0
   -2.5464   39.5609   13.1883 H   0  0  0  0  0
   -3.5616   40.6071   14.2111 H   0  0  0  0  0
   -3.6519   39.9674   16.7285 H   0  0  0  0  0
   -4.1065   37.0506   16.6261 H   0  0  0  0  0
   -5.5861   39.2785   18.1153 H   0  0  0  0  0
   -6.0461   38.5987   16.5350 H   0  0  0  0  0
   -6.1200   37.5838   17.9964 H   0  0  0  0  0
   -4.9424   35.3100   17.7006 H   0  0  0  0  0
   -3.2434   35.0832   17.2178 H   0  0  0  0  0
   -3.8861   34.2286   18.6418 H   0  0  0  0  0
   -2.4894   36.7779   20.6770 H   0  0  0  0  0
   -3.5077   35.0806   22.0648 H   0  0  0  0  0
   -4.4718   34.5103   20.5843 H   0  0  0  0  0
   -5.5718   36.7146   20.6120 H   0  0  0  0  0
   -6.5501   34.6760   21.5728 H   0  0  0  0  0
   -5.7461   35.0235   23.1232 H   0  0  0  0  0
   -7.0127   36.1161   22.5125 H   0  0  0  0  0
   -4.2155   37.0071   23.2874 H   0  0  0  0  0
   -3.9035   37.9777   21.8274 H   0  0  0  0  0
   -5.4925   38.0581   22.6271 H   0  0  0  0  0
   -1.0307   37.0657   18.3498 H   0  0  0  0  0
   -0.4424   37.3774   20.0013 H   0  0  0  0  0
    0.6777   36.7712   18.7567 H   0  0  0  0  0
    0.0080   33.3545   19.5211 H   0  0  0  0  0
    1.6689   33.6432   17.7910 H   0  0  0  0  0
    1.1310   35.4330   17.6598 H   0  0  0  0  0
   -0.9357   34.7309   16.7349 H   0  0  0  0  0
    1.0535   35.0099   15.2387 H   0  0  0  0  0
    1.4579   33.2905   15.4652 H   0  0  0  0  0
   -0.0320   33.7488   14.6042 H   0  0  0  0  0
    0.0318   31.8799   16.9765 H   0  0  0  0  0
   -1.2900   32.6356   17.8998 H   0  0  0  0  0
   -1.4416   32.4251   16.1381 H   0  0  0  0  0
    1.4529   31.7586   20.2754 H   0  0  0  0  0
    2.2799   32.2781   18.7864 H   0  0  0  0  0
    3.2288   31.6809   20.1698 H   0  0  0  0  0
    3.5524   34.8893   21.6346 H   0  0  0  0  0
    3.7792   31.9243   22.2316 H   0  0  0  0  0
    5.6123   33.3565   23.0782 H   0  0  0  0  0
    4.4203   34.4423   23.8340 H   0  0  0  0  0
    4.6004   32.7709   24.4214 H   0  0  0  0  0
    1.9388   34.0240   23.5236 H   0  0  0  0  0
    1.4034   32.6523   22.5221 H   0  0  0  0  0
    2.1611   32.3560   24.1061 H   0  0  0  0  0
  1  2  1  0  0  0
  1  3  1  0  0  0
  1 85  1  0  0  0
  3  4  1  0  0  0
  3  6  1  0  0  0
  4  5  2  0  0  0
  4 14  1  0  0  0
  6  7  1  0  0  0
  6  8  1  0  0  0
  8  9  1  0  0  0
  8 10  1  0  0  0
 10 11  1  0  0  0
 11 12  2  0  0  0
 12 13  1  0  0  0
 14 15  1  0  0  0
 15 16  1  0  0  0
 15 18  1  0  0  0
 16 17  2  0  0  0
 16 20  1  0  0  0
 18 19  1  0  0  0
 20 21  1  0  0  0
 20 24  1  0  0  0
 21 22  1  0  0  0
 22 23  2  0  0  0
 22 25  1  0  0  0
 25 26  1  0  0  0
 25 33  1  0  0  0
 26 27  1  0  0  0
 26 29  1  0  0  0
 27 28  2  0  0  0
 27 35  1  0  0  0
 29 30  1  0  0  0
 30 31  1  0  0  0
 30 34  1  0  0  0
 31 32  1  0  0  0
 35 36  1  0  0  0
 36 37  1  0  0  0
 36 39  1  0  0  0
 37 38  2  0  0  0
 37 42  1  0  0  0
 39 40  1  0  0  0
 39 41  1  0  0  0
 42 43  1  0  0  0
 42 44  1  0  0  0
 44 45  1  0  0  0
 44 49  1  0  0  0
 45 46  1  0  0  0
 46 47  1  0  0  0
 46 48  1  0  0  0
 49 50  2  0  0  0
 49 51  1  0  0  0
 51 52  1  0  0  0
 52 53  1  0  0  0
 52 55  1  0  0  0
 53 54  2  0  0  0
 53 56  1  0  0  0
 56 57  1  0  0  0
 57 58  1  0  0  0
 57 59  1  0  0  0
 59 60  2  0  0  0
 59 61  1  0  0  0
 61 62  1  0  0  0
 61 63  1  0  0  0
 63 64  1  0  0  0
 63 68  1  0  0  0
 64 65  1  0  0  0
 65 66  1  0  0  0
 65 67  1  0  0  0
 68 69  2  0  0  0
 68 70  1  0  0  0
 70 71  1  0  0  0
 70 72  1  0  0  0
 72 73  1  0  0  0
 72 77  1  0  0  0
 73 74  1  0  0  0
 74 75  1  0  0  0
 74 76  1  0  0  0
 77 78  2  0  0  0
 77 79  1  0  0  0
 79 80  1  0  0  0
 79 81  1  0  0  0
 81 82  1  0  0  0
 81 85  1  0  0  0
 82 83  1  0  0  0
 82 84  1  0  0  0
 85 86  2  0  0  0
  2 87  1  0  0  0
  2 88  1  0  0  0
  2 89  1  0  0  0
  3 90  1  0  0  0
  6 91  1  0  0  0
  7 92  1  0  0  0
  8 93  1  0  0  0
  9 94  1  0  0  0
  9 95  1  0  0  0
  9 96  1  0  0  0
 10 97  1  0  0  0
 10 98  1  0  0  0
 11 99  1  0  0  0
 12100  1  0  0  0
 13101  1  0  0  0
 13102  1  0  0  0
 13103  1  0  0  0
 14104  1  0  0  0
 15105  1  0  0  0
 18106  1  0  0  0
 18107  1  0  0  0
 19108  1  0  0  0
 19109  1  0  0  0
 19110  1  0  0  0
 21111  1  0  0  0
 21112  1  0  0  0
 24113  1  0  0  0
 24114  1  0  0  0
 24115  1  0  0  0
 26116  1  0  0  0
 29117  1  0  0  0
 29118  1  0  0  0
 30119  1  0  0  0
 31120  1  0  0  0
 31121  1  0  0  0
 32122  1  0  0  0
 32123  1  0  0  0
 32124  1  0  0  0
 33125  1  0  0  0
 33126  1  0  0  0
 33127  1  0  0  0
 34128  1  0  0  0
 34129  1  0  0  0
 34130  1  0  0  0
 35131  1  0  0  0
 36132  1  0  0  0
 39133  1  0  0  0
 40134  1  0  0  0
 40135  1  0  0  0
 40136  1  0  0  0
 41137  1  0  0  0
 41138  1  0  0  0
 41139  1  0  0  0
 43140  1  0  0  0
 43141  1  0  0  0
 43142  1  0  0  0
 44143  1  0  0  0
 45144  1  0  0  0
 45145  1  0  0  0
 46146  1  0  0  0
 47147  1  0  0  0
 47148  1  0  0  0
 47149  1  0  0  0
 48150  1  0  0  0
 48151  1  0  0  0
 48152  1  0  0  0
 51153  1  0  0  0
 52154  1  0  0  0
 55155  1  0  0  0
 55156  1  0  0  0
 55157  1  0  0  0
 56158  1  0  0  0
 57159  1  0  0  0
 58160  1  0  0  0
 58161  1  0  0  0
 58162  1  0  0  0
 62163  1  0  0  0
 62164  1  0  0  0
 62165  1  0  0  0
 63166  1  0  0  0
 64167  1  0  0  0
 64168  1  0  0  0
 65169  1  0  0  0
 66170  1  0  0  0
 66171  1  0  0  0
 66172  1  0  0  0
 67173  1  0  0  0
 67174  1  0  0  0
 67175  1  0  0  0
 71176  1  0  0  0
 71177  1  0  0  0
 71178  1  0  0  0
 72179  1  0  0  0
 73180  1  0  0  0
 73181  1  0  0  0
 74182  1  0  0  0
 75183  1  0  0  0
 75184  1  0  0  0
 75185  1  0  0  0
 76186  1  0  0  0
 76187  1  0  0  0
 76188  1  0  0  0
 80189  1  0  0  0
 80190  1  0  0  0
 80191  1  0  0  0
 81192  1  0  0  0
 82193  1  0  0  0
 83194  1  0  0  0
 83195  1  0  0  0
 83196  1  0  0  0
 84197  1  0  0  0
 84198  1  0  0  0
 84199  1  0  0  0
M  END
$$$$
