### 
### Created by X-TOOL on Mon Sep 10 21:12:45 2018
### 

@<TRIPOS>MOLECULE
1cwc_ligand
  199   199     1     0     0
SMALL
GAST_HUCK


@<TRIPOS>ATOM
      1 N           5.2670   34.7040   19.6810 N.am      1 BMT        -0.2503
      2 CN          4.7230   36.1080   19.8190 C.3       1 BMT         0.0255
      3 CA          6.4960   34.5850   18.8850 C.3       1 BMT         0.1594
      4 C           7.7150   35.3530   19.4260 C.2       1 BMT         0.2067
      5 O           7.6270   36.1130   20.3850 O.2       1 BMT        -0.3943
      6 CB          6.2860   34.9240   17.3710 C.3       1 BMT         0.0994
      7 OG1         6.1070   36.3370   17.2240 O.3       1 BMT        -0.3867
      8 CG2         5.0930   34.1840   16.7320 C.3       1 BMT        -0.0069
      9 CD1         5.1900   32.6520   16.9660 C.3       1 BMT        -0.0583
     10 CD2         5.0360   34.5000   15.2230 C.3       1 BMT        -0.0313
     11 CE          6.1820   34.0290   14.3330 C.2       1 BMT        -0.0986
     12 CZ          6.9280   34.8590   13.6080 C.2       1 BMT        -0.1017
     13 CH          8.0280   34.3470   12.7230 C.3       1 BMT        -0.0486
     14 N           8.8720   35.1010   18.8290 N.am      1 ABA        -0.2636
     15 CA         10.1120   35.7390   19.2760 C.3       1 ABA         0.1309
     16 C          10.7430   36.5330   18.1280 C.2       1 ABA         0.2059
     17 O          11.5070   35.9620   17.3510 O.2       1 ABA        -0.3942
     18 CB         11.0980   34.6570   19.7400 C.3       1 ABA        -0.0152
     19 CG         10.5180   33.6840   20.7580 C.3       1 ABA        -0.0610
     20 N          10.4750   37.8380   18.0440 N.am      1 SAR        -0.2556
     21 CA         11.0400   38.6200   16.9570 C.3       1 SAR         0.1227
     22 C           9.9790   39.4110   16.2200 C.2       1 SAR         0.2032
     23 O          10.0760   40.6360   16.1700 O.2       1 SAR        -0.3945
     24 CN          9.5030   38.6330   18.8790 C.3       1 SAR         0.0252
     25 N           9.1540   38.7280   15.4240 N.am      1 MNL        -0.2531
     26 CA          8.0780   39.4080   14.7090 C.3       1 MNL         0.1336
     27 C           6.7320   39.0430   15.3470 C.2       1 MNL         0.2041
     28 O           6.1760   37.9820   15.0630 O.2       1 MNL        -0.3944
     29 CB          8.0820   39.0140   13.2360 C.3       1 MNL        -0.0096
     30 CG          8.6160   40.0660   12.2740 C.3       1 MNL        -0.0399
     31 CD          8.3600   39.5320   10.8510 C.3       1 MNL        -0.0531
     32 CE          7.5670   40.4830    9.9520 C.3       1 MNL        -0.0650
     33 CM1         9.2680   37.2680   15.0670 C.3       1 MNL         0.0254
     34 CM4         7.9110   41.4150   12.4990 C.3       1 MNL        -0.0622
     35 N           6.2950   39.8330   16.3240 N.am      1 VAL        -0.2635
     36 CA          5.0280   39.5440   17.0010 C.3       1 VAL         0.1334
     37 C           3.8670   39.7840   16.0500 C.2       1 VAL         0.2064
     38 O           3.7990   40.8350   15.4230 O.2       1 VAL        -0.3942
     39 CB          4.8450   40.4070   18.2530 C.3       1 VAL        -0.0062
     40 CG1         3.5120   40.0690   18.9200 C.3       1 VAL        -0.0584
     41 CG2         5.9830   40.1690   19.2140 C.3       1 VAL        -0.0584
     42 N           3.0020   38.7930   15.8610 N.am      1 MLE        -0.2529
     43 CN          2.9030   37.4760   16.5830 C.3       1 MLE         0.0254
     44 CA          1.9050   39.0090   14.9280 C.3       1 MLE         0.1336
     45 CB          1.7640   37.8360   13.9370 C.3       1 MLE        -0.0099
     46 CG          3.0140   37.3640   13.1710 C.3       1 MLE        -0.0425
     47 CD1         2.6680   36.1710   12.3100 C.3       1 MLE        -0.0625
     48 CD2         3.6330   38.4910   12.3480 C.3       1 MLE        -0.0625
     49 C           0.5730   39.2960   15.6000 C.2       1 MLE         0.2041
     50 O           0.5210   39.6050   16.8000 O.2       1 MLE        -0.3944
     51 N          -0.3500   39.6810   14.7330 N.am      1 ALA        -0.2640
     52 CA         -1.7090   39.9790   15.1420 C.3       1 ALA         0.1282
     53 C          -2.3320   38.7380   15.7950 C.2       1 ALA         0.2036
     54 O          -2.1020   37.6020   15.3400 O.2       1 ALA        -0.3944
     55 CB         -2.5400   40.3830   13.9040 C.3       1 ALA        -0.0244
     56 N          -3.3680   38.9980   16.5870 N.am      1 DAL        -0.2640
     57 CA         -4.1100   37.9380   17.2590 C.3       1 DAL         0.1284
     58 CB         -5.5750   38.3830   17.4940 C.3       1 DAL        -0.0244
     59 C          -3.4540   37.5990   18.5790 C.2       1 DAL         0.2059
     60 O          -3.1060   38.5120   19.3410 O.2       1 DAL        -0.3942
     61 N          -3.5200   36.3190   18.9480 N.am      1 MLE        -0.2529
     62 CN         -3.9270   35.1520   18.0640 C.3       1 MLE         0.0254
     63 CA         -2.9350   35.8980   20.2130 C.3       1 MLE         0.1338
     64 CB         -4.0120   35.3330   21.1320 C.3       1 MLE        -0.0099
     65 CG         -5.1470   36.2680   21.5110 C.3       1 MLE        -0.0425
     66 CD1        -6.1850   35.4660   22.2290 C.3       1 MLE        -0.0625
     67 CD2        -4.6550   37.4080   22.3740 C.3       1 MLE        -0.0625
     68 C          -1.8330   34.8700   20.0100 C.2       1 MLE         0.2064
     69 O          -2.0090   33.6890   20.3150 O.2       1 MLE        -0.3942
     70 N          -0.6840   35.3080   19.5180 N.am      1 MLE        -0.2529
     71 CN         -0.3460   36.7310   19.1290 C.3       1 MLE         0.0254
     72 CA          0.3940   34.3520   19.3110 C.3       1 MLE         0.1338
     73 CB          0.8770   34.3900   17.8490 C.3       1 MLE        -0.0099
     74 CG         -0.1190   34.0090   16.7350 C.3       1 MLE        -0.0425
     75 CD1         0.6450   34.0150   15.4160 C.3       1 MLE        -0.0625
     76 CD2        -0.7500   32.6390   16.9530 C.3       1 MLE        -0.0625
     77 C           1.5460   34.6210   20.2610 C.2       1 MLE         0.2064
     78 O           1.4750   35.5710   21.0530 O.2       1 MLE        -0.3942
     79 N           2.4360   33.6370   20.4120 N.am      1 MVA        -0.2526
     80 CN          2.3430   32.2430   19.8740 C.3       1 MVA         0.0254
     81 CA          3.5990   33.8610   21.2760 C.3       1 MVA         0.1359
     82 CB          3.5700   32.9480   22.5420 C.3       1 MVA        -0.0061
     83 CG1         4.6270   33.4130   23.5410 C.3       1 MVA        -0.0584
     84 CG2         2.1600   32.9990   23.2260 C.3       1 MVA        -0.0584
     85 C           4.9060   33.6980   20.4830 C.2       1 MVA         0.2067
     86 O           5.5080   32.6180   20.4890 O.2       1 MVA        -0.3942
     87 H1          5.1697   36.7518   19.0470 H         1 BMT         0.0488
     88 H2          4.9735   36.5021   20.8150 H         1 BMT         0.0488
     89 H3          3.6301   36.0916   19.6954 H         1 BMT         0.0488
     90 H4          6.7671   33.5199   18.9293 H         1 BMT         0.0828
     91 H5          7.1958   34.6260   16.8293 H         1 BMT         0.0646
     92 H6          5.9794   36.5451   16.3059 H         1 BMT         0.2101
     93 H7          4.1665   34.5464   17.2013 H         1 BMT         0.0345
     94 H8          4.3270   32.1545   16.4994 H         1 BMT         0.0235
     95 H9          5.1922   32.4455   18.0464 H         1 BMT         0.0235
     96 H10         6.1194   32.2707   16.5179 H         1 BMT         0.0235
     97 H11         4.9768   35.5938   15.1231 H         1 BMT         0.0391
     98 H12         4.1140   34.0456   14.8314 H         1 BMT         0.0391
     99 H13         6.4000   32.9629   14.2888 H         1 BMT         0.0450
    100 H14         6.7371   35.9300   13.6574 H         1 BMT         0.0447
    101 H15         8.5154   35.1934   12.2170 H         1 BMT         0.0353
    102 H16         7.6058   33.6642   11.9710 H         1 BMT         0.0353
    103 H17         8.7685   33.8085   13.3327 H         1 BMT         0.0353
    104 H18         8.8982   34.4633   18.0591 H         1 ABA         0.1883
    105 H19         9.8911   36.4192   20.1118 H         1 ABA         0.0800
    106 H20        11.9682   35.1539   20.1937 H         1 ABA         0.0310
    107 H21        11.4214   34.0833   18.8589 H         1 ABA         0.0310
    108 H22        11.2839   32.9453   21.0368 H         1 ABA         0.0232
    109 H23         9.6523   33.1666   20.3189 H         1 ABA         0.0232
    110 H24        10.1990   34.2372   21.6536 H         1 ABA         0.0232
    111 H25        11.5328   37.9390   16.2476 H         1 SAR         0.0765
    112 H26        11.7821   39.3191   17.3700 H         1 SAR         0.0765
    113 H27         9.1061   37.9974   19.6843 H         1 SAR         0.0488
    114 H28         8.6745   38.9815   18.2449 H         1 SAR         0.0488
    115 H29        10.0194   39.4999   19.3169 H         1 SAR         0.0488
    116 H30         8.2289   40.4949   14.7861 H         1 MNL         0.0802
    117 H31         7.0466   38.7838   12.9446 H         1 MNL         0.0315
    118 H32         8.7022   38.1119   13.1289 H         1 MNL         0.0315
    119 H33         9.6966   40.1992   12.4304 H         1 MNL         0.0300
    120 H34         7.7997   38.5889   10.9330 H         1 MNL         0.0265
    121 H35         9.3331   39.3402   10.3753 H         1 MNL         0.0265
    122 H36         7.4317   40.0239    8.9616 H         1 MNL         0.0230
    123 H37         8.1163   41.4300    9.8451 H         1 MNL         0.0230
    124 H38         6.5830   40.6787   10.4029 H         1 MNL         0.0230
    125 H39        10.0929   36.8147   15.6363 H         1 MNL         0.0488
    126 H40         9.4677   37.1684   13.9899 H         1 MNL         0.0488
    127 H41         8.3267   36.7554   15.3143 H         1 MNL         0.0488
    128 H42         8.1128   41.7682   13.5210 H         1 MNL         0.0232
    129 H43         6.8268   41.2895   12.3618 H         1 MNL         0.0232
    130 H44         8.2894   42.1517   11.7751 H         1 MNL         0.0232
    131 H45         6.8345   40.6291   16.5981 H         1 VAL         0.1883
    132 H46         5.0285   38.4862   17.3027 H         1 VAL         0.0803
    133 H47         4.8406   41.4674   17.9606 H         1 VAL         0.0343
    134 H48         3.3837   40.6904   19.8186 H         1 VAL         0.0234
    135 H49         3.5034   39.0065   19.2047 H         1 VAL         0.0234
    136 H50         2.6895   40.2669   18.2169 H         1 VAL         0.0234
    137 H51         6.9356   40.4157   18.7225 H         1 VAL         0.0234
    138 H52         5.9906   39.1121   19.5188 H         1 VAL         0.0234
    139 H53         5.8527   40.8057   20.1015 H         1 VAL         0.0234
    140 H54         3.7551   37.3698   17.2705 H         1 MLE         0.0488
    141 H55         2.9177   36.6547   15.8514 H         1 MLE         0.0488
    142 H56         1.9640   37.4410   17.1548 H         1 MLE         0.0488
    143 H57         2.1639   39.9026   14.3412 H         1 MLE         0.0802
    144 H58         1.0169   38.1335   13.1865 H         1 MLE         0.0315
    145 H59         1.3880   36.9735   14.5068 H         1 MLE         0.0315
    146 H60         3.7627   37.0429   13.9101 H         1 MLE         0.0298
    147 H61         3.5646   35.8391   11.7660 H         1 MLE         0.0232
    148 H62         1.8857   36.4530   11.5900 H         1 MLE         0.0232
    149 H63         2.3020   35.3526   12.9474 H         1 MLE         0.0232
    150 H64         3.8704   39.3388   13.0074 H         1 MLE         0.0232
    151 H65         2.9199   38.8155   11.5759 H         1 MLE         0.0232
    152 H66         4.5547   38.1308   11.8678 H         1 MLE         0.0232
    153 H67        -0.1031   39.7689   13.7680 H         1 ALA         0.1883
    154 H68        -1.7010   40.8081   15.8648 H         1 ALA         0.0797
    155 H69        -3.5713   40.6094   14.2126 H         1 ALA         0.0277
    156 H70        -2.5473   39.5542   13.1809 H         1 ALA         0.0277
    157 H71        -2.0933   41.2731   13.4370 H         1 ALA         0.0277
    158 H72        -3.6463   39.9484   16.7258 H         1 DAL         0.1883
    159 H73        -4.1079   37.0424   16.6204 H         1 DAL         0.0797
    160 H74        -6.1261   37.5773   18.0010 H         1 DAL         0.0277
    161 H75        -6.0517   38.6009   16.5269 H         1 DAL         0.0277
    162 H76        -5.5876   39.2867   18.1210 H         1 DAL         0.0277
    163 H77        -4.3600   35.5346   17.1280 H         1 MLE         0.0488
    164 H78        -4.6732   34.5373   18.5887 H         1 MLE         0.0488
    165 H79        -3.0425   34.5393   17.8353 H         1 MLE         0.0488
    166 H80        -2.4939   36.7822   20.6964 H         1 MLE         0.0802
    167 H81        -3.5208   35.0115   22.0622 H         1 MLE         0.0315
    168 H82        -4.4537   34.4597   20.6298 H         1 MLE         0.0315
    169 H83        -5.5865   36.6890   20.5947 H         1 MLE         0.0298
    170 H84        -7.0209   36.1210   22.5157 H         1 MLE         0.0232
    171 H85        -5.7433   35.0188   23.1317 H         1 MLE         0.0232
    172 H86        -6.5543   34.6683   21.5678 H         1 MLE         0.0232
    173 H87        -3.8939   37.9816   21.8247 H         1 MLE         0.0232
    174 H88        -4.2144   37.0049   23.2978 H         1 MLE         0.0232
    175 H89        -5.4987   38.0668   22.6272 H         1 MLE         0.0232
    176 H90        -1.2144   37.3791   19.3187 H         1 MLE         0.0488
    177 H91        -0.0878   36.7675   18.0604 H         1 MLE         0.0488
    178 H92         0.5097   37.0807   19.7252 H         1 MLE         0.0488
    179 H93         0.0048   33.3445   19.5196 H         1 MLE         0.0802
    180 H94         1.7307   33.7007   17.7710 H         1 MLE         0.0315
    181 H95         1.2149   35.4168   17.6452 H         1 MLE         0.0315
    182 H96        -0.9206   34.7615   16.7001 H         1 MLE         0.0298
    183 H97        -0.0372   33.7465   14.5959 H         1 MLE         0.0232
    184 H98         1.4657   33.2842   15.4643 H         1 MLE         0.0232
    185 H99         1.0577   35.0186   15.2359 H         1 MLE         0.0232
    186 H100       -1.3009   32.6364   17.9051 H         1 MLE         0.0232
    187 H101        0.0386   31.8727   16.9836 H         1 MLE         0.0232
    188 H102       -1.4432   32.4191   16.1278 H         1 MLE         0.0232
    189 H103        1.4495   32.1541   19.2386 H         1 MVA         0.0488
    190 H104        2.2708   31.5315   20.7097 H         1 MVA         0.0488
    191 H105        3.2403   32.0192   19.2783 H         1 MVA         0.0488
    192 H106        3.5535   34.9030   21.6255 H         1 MVA         0.0804
    193 H107        3.7866   31.9125   22.2407 H         1 MVA         0.0343
    194 H108        4.6011   32.7658   24.4301 H         1 MVA         0.0234
    195 H109        4.4195   34.4517   23.8375 H         1 MVA         0.0234
    196 H110        5.6219   33.3564   23.0752 H         1 MVA         0.0234
    197 H111        1.3935   32.6650   22.5112 H         1 MVA         0.0234
    198 H112        1.9426   34.0301   23.5416 H         1 MVA         0.0234
    199 H113        2.1547   32.3376   24.1050 H         1 MVA         0.0234
@<TRIPOS>BOND
     1    1    2 1  
     2    1    3 1  
     3    1   85 am 
     4    3    4 1  
     5    3    6 1  
     6    4    5 2  
     7    4   14 am 
     8    6    7 1  
     9    6    8 1  
    10    8    9 1  
    11    8   10 1  
    12   10   11 1  
    13   11   12 2  
    14   12   13 1  
    15   14   15 1  
    16   15   16 1  
    17   15   18 1  
    18   16   17 2  
    19   16   20 am 
    20   18   19 1  
    21   20   21 1  
    22   20   24 1  
    23   21   22 1  
    24   22   23 2  
    25   22   25 am 
    26   25   26 1  
    27   25   33 1  
    28   26   27 1  
    29   26   29 1  
    30   27   28 2  
    31   27   35 am 
    32   29   30 1  
    33   30   31 1  
    34   30   34 1  
    35   31   32 1  
    36   35   36 1  
    37   36   37 1  
    38   36   39 1  
    39   37   38 2  
    40   37   42 am 
    41   39   40 1  
    42   39   41 1  
    43   42   43 1  
    44   42   44 1  
    45   44   45 1  
    46   44   49 1  
    47   45   46 1  
    48   46   47 1  
    49   46   48 1  
    50   49   50 2  
    51   49   51 am 
    52   51   52 1  
    53   52   53 1  
    54   52   55 1  
    55   53   54 2  
    56   53   56 am 
    57   56   57 1  
    58   57   58 1  
    59   57   59 1  
    60   59   60 2  
    61   59   61 am 
    62   61   62 1  
    63   61   63 1  
    64   63   64 1  
    65   63   68 1  
    66   64   65 1  
    67   65   66 1  
    68   65   67 1  
    69   68   69 2  
    70   68   70 am 
    71   70   71 1  
    72   70   72 1  
    73   72   73 1  
    74   72   77 1  
    75   73   74 1  
    76   74   75 1  
    77   74   76 1  
    78   77   78 2  
    79   77   79 am 
    80   79   80 1  
    81   79   81 1  
    82   81   82 1  
    83   81   85 1  
    84   82   83 1  
    85   82   84 1  
    86   85   86 2  
    87    2   87 1  
    88    2   88 1  
    89    2   89 1  
    90    3   90 1  
    91    6   91 1  
    92    7   92 1  
    93    8   93 1  
    94    9   94 1  
    95    9   95 1  
    96    9   96 1  
    97   10   97 1  
    98   10   98 1  
    99   11   99 1  
   100   12  100 1  
   101   13  101 1  
   102   13  102 1  
   103   13  103 1  
   104   14  104 1  
   105   15  105 1  
   106   18  106 1  
   107   18  107 1  
   108   19  108 1  
   109   19  109 1  
   110   19  110 1  
   111   21  111 1  
   112   21  112 1  
   113   24  113 1  
   114   24  114 1  
   115   24  115 1  
   116   26  116 1  
   117   29  117 1  
   118   29  118 1  
   119   30  119 1  
   120   31  120 1  
   121   31  121 1  
   122   32  122 1  
   123   32  123 1  
   124   32  124 1  
   125   33  125 1  
   126   33  126 1  
   127   33  127 1  
   128   34  128 1  
   129   34  129 1  
   130   34  130 1  
   131   35  131 1  
   132   36  132 1  
   133   39  133 1  
   134   40  134 1  
   135   40  135 1  
   136   40  136 1  
   137   41  137 1  
   138   41  138 1  
   139   41  139 1  
   140   43  140 1  
   141   43  141 1  
   142   43  142 1  
   143   44  143 1  
   144   45  144 1  
   145   45  145 1  
   146   46  146 1  
   147   47  147 1  
   148   47  148 1  
   149   47  149 1  
   150   48  150 1  
   151   48  151 1  
   152   48  152 1  
   153   51  153 1  
   154   52  154 1  
   155   55  155 1  
   156   55  156 1  
   157   55  157 1  
   158   56  158 1  
   159   57  159 1  
   160   58  160 1  
   161   58  161 1  
   162   58  162 1  
   163   62  163 1  
   164   62  164 1  
   165   62  165 1  
   166   63  166 1  
   167   64  167 1  
   168   64  168 1  
   169   65  169 1  
   170   66  170 1  
   171   66  171 1  
   172   66  172 1  
   173   67  173 1  
   174   67  174 1  
   175   67  175 1  
   176   71  176 1  
   177   71  177 1  
   178   71  178 1  
   179   72  179 1  
   180   73  180 1  
   181   73  181 1  
   182   74  182 1  
   183   75  183 1  
   184   75  184 1  
   185   75  185 1  
   186   76  186 1  
   187   76  187 1  
   188   76  188 1  
   189   80  189 1  
   190   80  190 1  
   191   80  191 1  
   192   81  192 1  
   193   82  193 1  
   194   83  194 1  
   195   83  195 1  
   196   83  196 1  
   197   84  197 1  
   198   84  198 1  
   199   84  199 1  
@<TRIPOS>SUBSTRUCTURE
     1 BMT         1

