6o95_ligand
  -I-interpret- 

 53 57  0  0  0  0  0  0  0  0999 V2000
    3.8180   10.2030   29.6500 C   0  0  0  0  0
    2.9150   10.1780   30.6740 C   0  0  0  0  0
    2.4390    8.9890   31.1780 C   0  0  0  0  0
    2.9330    7.8020   30.6180 C   0  0  0  0  0
    3.8340    7.8470   29.5960 C   0  0  0  0  0
    4.2820    9.0340   29.0920 C   0  0  0  0  0
    1.5850    5.8370   30.2900 C   0  0  0  0  0
    1.0790    4.6160   31.0440 C   0  0  0  0  0
    4.4710   11.3140   28.9030 C   0  0  0  0  0
    6.6570   11.0560   27.7890 C   0  0  0  0  0
    5.2110   10.6020   27.7620 C   0  0  0  0  0
    5.1230    9.2420   28.0970 O   0  0  0  0  0
    2.4850    6.5940   31.1220 N   0  0  0  0  0
    2.0930    3.8400   31.6120 O   0  0  0  0  0
    2.9220    4.5740   32.4370 C   0  0  0  0  0
    3.4960    5.7520   31.6840 C   0  0  0  0  0
    1.5450    8.8740   32.2440 N   0  0  0  0  0
    0.8670    9.8290   32.8850 C   0  0  0  0  0
    0.9680   10.9500   32.6230 O   0  0  0  0  0
    0.0720    9.4410   34.0390 C   0  0  0  0  0
   -0.3760   10.2760   35.0650 C   0  0  0  0  0
   -0.9920    9.5850   35.9230 N   0  0  0  0  0
   -0.9970    8.2880   35.5790 N   0  0  0  0  0
   -0.3300    8.1690   34.4070 C   0  0  0  0  0
   -0.1870    6.9830   33.8430 N   0  0  0  0  0
   -0.6700    5.9140   34.3830 C   0  0  0  0  0
   -1.3760    5.9920   35.5830 C   0  0  0  0  0
   -1.5250    7.1960   36.1620 C   0  0  0  0  0
    4.5820   10.8950   26.3970 C   0  0  0  0  0
    5.1010   10.1100   25.3690 O   0  0  0  0  0
    2.5644   11.1178   31.1005 H   0  0  0  0  0
    4.2051    6.9141   29.1716 H   0  0  0  0  0
    0.7374    6.4650   30.0158 H   0  0  0  0  0
    2.1141    5.5109   29.3946 H   0  0  0  0  0
    0.5533    3.9867   30.3258 H   0  0  0  0  0
    0.4513    4.9759   31.8593 H   0  0  0  0  0
    5.1421   11.8990   29.5318 H   0  0  0  0  0
    3.7523   12.0475   28.5377 H   0  0  0  0  0
    6.6999   12.1364   27.6508 H   0  0  0  0  0
    7.1011   10.7933   28.7491 H   0  0  0  0  0
    7.2061   10.5637   26.9864 H   0  0  0  0  0
    3.7378    3.9381   32.7808 H   0  0  0  0  0
    2.3467    4.9398   33.2875 H   0  0  0  0  0
    4.0754    6.3491   32.3882 H   0  0  0  0  0
    4.1008    5.3630   30.8649 H   0  0  0  0  0
    1.3872    7.9245   32.5815 H   0  0  0  0  0
   -0.2187   11.3533   35.1166 H   0  0  0  0  0
   -0.5254    4.9479   33.8994 H   0  0  0  0  0
   -1.7974    5.0972   36.0410 H   0  0  0  0  0
   -2.0717    7.2875   37.1006 H   0  0  0  0  0
    4.7935   11.9364   26.1543 H   0  0  0  0  0
    3.5168   10.6761   26.4721 H   0  0  0  0  0
    4.6688   10.3396   24.5431 H   0  0  0  0  0
  2  1  4  0  0  0
  6  1  4  0  0  0
  1  9  1  0  0  0
  3  2  4  0  0  0
  4  3  4  0  0  0
  3 17  1  0  0  0
  4  5  4  0  0  0
 13  4  1  0  0  0
  5  6  4  0  0  0
  6 12  1  0  0  0
  7  8  1  0  0  0
  7 13  1  0  0  0
  8 14  1  0  0  0
  9 11  1  0  0  0
 11 10  1  0  0  0
 11 12  1  0  0  0
 11 29  1  0  0  0
 13 16  1  0  0  0
 14 15  1  0  0  0
 15 16  1  0  0  0
 17 18  1  0  0  0
 18 19  2  0  0  0
 18 20  1  0  0  0
 20 21  4  0  0  0
 20 24  4  0  0  0
 21 22  4  0  0  0
 22 23  4  0  0  0
 23 24  4  0  0  0
 23 28  4  0  0  0
 24 25  4  0  0  0
 25 26  4  0  0  0
 26 27  4  0  0  0
 27 28  4  0  0  0
 29 30  1  0  0  0
  2 31  1  0  0  0
  5 32  1  0  0  0
  7 33  1  0  0  0
  7 34  1  0  0  0
  8 35  1  0  0  0
  8 36  1  0  0  0
  9 37  1  0  0  0
  9 38  1  0  0  0
 10 39  1  0  0  0
 10 40  1  0  0  0
 10 41  1  0  0  0
 15 42  1  0  0  0
 15 43  1  0  0  0
 16 44  1  0  0  0
 16 45  1  0  0  0
 17 46  1  0  0  0
 21 47  1  0  0  0
 26 48  1  0  0  0
 27 49  1  0  0  0
 28 50  1  0  0  0
 29 51  1  0  0  0
 29 52  1  0  0  0
 30 53  1  0  0  0
M  END
$$$$
