6fyl_ligand
  -I-interpret- 

 37 40  0  0  0  0  0  0  0  0999 V2000
   10.3970   90.5200   36.7200 C   0  0  0  0  0
    9.9510   89.3010   37.2820 C   0  0  0  0  0
    8.5910   89.2110   37.6670 C   0  0  0  0  0
    7.7140   90.2880   37.5070 C   0  0  0  0  0
    8.1750   91.4950   36.9620 C   0  0  0  0  0
    9.5190   91.6010   36.5760 C   0  0  0  0  0
   12.2230   88.4660   36.9910 C   0  0  0  0  0
   10.8850   88.2570   37.4120 C   0  0  0  0  0
   11.6920   90.7000   36.3240 N   0  0  0  0  0
   12.6140   89.7050   36.4370 C   0  0  0  0  0
   12.7580   86.1910   37.6610 C   0  0  0  0  0
   11.4750   86.0050   38.0520 N   0  0  0  0  0
   10.5540   86.9880   37.9350 C   0  0  0  0  0
   13.1530   87.4180   37.1150 C   0  0  0  0  0
   13.9060   89.9020   36.0190 N   0  0  0  0  0
   14.4750   91.0750   35.6400 C   0  0  0  0  0
   14.2010   92.2770   36.3100 C   0  0  0  0  0
   14.8040   93.4650   35.9030 C   0  0  0  0  0
   15.7060   93.4840   34.8280 C   0  0  0  0  0
   15.9920   92.2910   34.1550 C   0  0  0  0  0
   15.3820   91.0960   34.5710 C   0  0  0  0  0
   14.4220   94.9250   36.7750 Cl  0  0  0  0  0
    7.2220   92.6530   36.7720 C   0  0  0  0  0
    7.6370   93.7970   36.6690 O   0  0  0  0  0
    5.9180   92.3920   36.6800 O   0  0  0  0  0
    8.2197   88.2811   38.0977 H   0  0  0  0  0
    6.6705   90.1893   37.8063 H   0  0  0  0  0
    9.8854   92.5385   36.1578 H   0  0  0  0  0
   13.4835   85.3850   37.7714 H   0  0  0  0  0
    9.5292   86.7957   38.2527 H   0  0  0  0  0
   14.1821   87.5614   36.7857 H   0  0  0  0  0
   14.5046   89.0766   35.9898 H   0  0  0  0  0
   13.5118   92.2812   37.1545 H   0  0  0  0  0
   16.1782   94.4172   34.5209 H   0  0  0  0  0
   16.6841   92.2890   33.3129 H   0  0  0  0  0
   15.6184   90.1668   34.0526 H   0  0  0  0  0
    5.7735   91.4486   36.7838 H   0  0  0  0  0
  2  1  4  0  0  0
  1  6  4  0  0  0
  9  1  4  0  0  0
  2  3  4  0  0  0
  8  2  4  0  0  0
  3  4  4  0  0  0
  4  5  4  0  0  0
  6  5  4  0  0  0
  5 23  1  0  0  0
  7  8  4  0  0  0
  7 10  4  0  0  0
 14  7  4  0  0  0
  8 13  4  0  0  0
 10  9  4  0  0  0
 10 15  1  0  0  0
 11 12  4  0  0  0
 11 14  4  0  0  0
 12 13  4  0  0  0
 15 16  1  0  0  0
 16 17  4  0  0  0
 16 21  4  0  0  0
 17 18  4  0  0  0
 18 19  4  0  0  0
 18 22  1  0  0  0
 19 20  4  0  0  0
 20 21  4  0  0  0
 23 24  2  0  0  0
 23 25  1  0  0  0
  3 26  1  0  0  0
  4 27  1  0  0  0
  6 28  1  0  0  0
 11 29  1  0  0  0
 13 30  1  0  0  0
 14 31  1  0  0  0
 15 32  1  0  0  0
 17 33  1  0  0  0
 19 34  1  0  0  0
 20 35  1  0  0  0
 21 36  1  0  0  0
 25 37  1  0  0  0
M  END
$$$$
