1zge_ligand
  -I-interpret- 

 19 19  0  0  0  0  0  0  0  0999 V2000
   15.3140    2.7660   16.5040 S   0  0  0  0  0
   15.7860    1.5240   15.8390 N   0  0  0  0  0
   15.9150    2.8960   17.8310 O   0  0  0  0  0
   13.8620    2.8830   16.4370 O   0  0  0  0  0
   16.0230    4.1120   15.5850 C   0  0  0  0  0
   17.3890    4.2370   15.3280 C   0  0  0  0  0
   17.9040    5.3060   14.6060 C   0  0  0  0  0
   19.5980    5.5600   14.2360 Cl  0  0  0  0  0
   17.0380    6.2910   14.1190 C   0  0  0  0  0
   17.5580    7.3750   13.3800 N   0  0  0  0  0
   15.6850    6.1790   14.3630 C   0  0  0  0  0
   14.6580    7.4130   13.7360 Cl  0  0  0  0  0
   15.1550    5.1100   15.0860 C   0  0  0  0  0
   16.4403    0.9057   16.3186 H   0  0  0  0  0
   15.4557    1.2896   14.9028 H   0  0  0  0  0
   18.0708    3.4744   15.7044 H   0  0  0  0  0
   18.5606    7.4375   13.2033 H   0  0  0  0  0
   16.9312    8.0960   13.0226 H   0  0  0  0  0
   14.0817    5.0449   15.2645 H   0  0  0  0  0
  1  2  1  0  0  0
  1  3  2  0  0  0
  1  4  2  0  0  0
  1  5  1  0  0  0
  5  6  4  0  0  0
  5 13  4  0  0  0
  6  7  4  0  0  0
  7  8  1  0  0  0
  7  9  4  0  0  0
  9 10  1  0  0  0
  9 11  4  0  0  0
 11 12  1  0  0  0
 11 13  4  0  0  0
  2 14  1  0  0  0
  2 15  1  0  0  0
  6 16  1  0  0  0
 10 17  1  0  0  0
 10 18  1  0  0  0
 13 19  1  0  0  0
M  END
$$$$
