1o39_ligand
  -I-interpret- 

 40 43  0  0  0  0  0  0  0  0999 V2000
   44.2740   -3.0250   25.9010 C   0  0  0  0  0
   44.7050   -1.6710   25.9980 C   0  0  0  0  0
   44.6550   -0.9290   27.1860 C   0  0  0  0  0
   44.1650   -1.5680   28.2820 C   0  0  0  0  0
   43.7430   -2.8330   28.2540 C   0  0  0  0  0
   43.7710   -3.6160   27.0950 C   0  0  0  0  0
   44.3490   -3.7300   24.6640 C   0  0  0  0  0
   44.0340   -5.0090   24.5820 N   0  0  0  0  0
   44.7390   -3.0740   23.5990 N   0  0  0  0  0
   43.9950   -1.1360   29.4880 N   0  0  0  0  0
   43.2950   -3.2380   29.4330 N   0  0  0  0  0
   43.4870   -2.1310   30.1340 C   0  0  0  0  0
   43.2510   -2.0680   31.5330 C   0  0  0  0  0
   42.8990   -3.2180   32.2420 C   0  0  0  0  0
   42.6650   -3.1810   33.6070 C   0  0  0  0  0
   42.7710   -2.0060   34.3100 C   0  0  0  0  0
   43.1180   -0.8120   33.6870 C   0  0  0  0  0
   43.3560   -0.8540   32.2840 C   0  0  0  0  0
   43.6960    0.3170   31.6220 O   0  0  0  0  0
   43.2170    0.3590   34.4670 C   0  0  0  0  0
   44.3940    1.1260   34.5490 C   0  0  0  0  0
   44.4710    2.2860   35.3310 C   0  0  0  0  0
   43.3650    2.7090   36.0560 C   0  0  0  0  0
   42.1910    1.9690   35.9930 C   0  0  0  0  0
   42.1230    0.8190   35.2140 C   0  0  0  0  0
   45.0938   -1.1869   25.1021 H   0  0  0  0  0
   44.9915    0.1069   27.2293 H   0  0  0  0  0
   43.4184   -4.6474   27.1056 H   0  0  0  0  0
   44.0935   -5.4924   23.6858 H   0  0  0  0  0
   43.7311   -5.5140   25.4148 H   0  0  0  0  0
   44.8006   -3.5517   22.6999 H   0  0  0  0  0
   42.8063   -4.1650   31.7103 H   0  0  0  0  0
   42.3929   -4.0975   34.1305 H   0  0  0  0  0
   42.5784   -2.0093   35.3828 H   0  0  0  0  0
   43.7275    1.0414   32.2512 H   0  0  0  0  0
   45.2723    0.8080   33.9872 H   0  0  0  0  0
   45.3991    2.8563   35.3702 H   0  0  0  0  0
   43.4172    3.6103   36.6668 H   0  0  0  0  0
   41.3168    2.2921   36.5582 H   0  0  0  0  0
   41.1894    0.2572   35.1831 H   0  0  0  0  0
  1  2  4  0  0  0
  1  6  4  0  0  0
  1  7  1  0  0  0
  2  3  4  0  0  0
  3  4  4  0  0  0
  4  5  4  0  0  0
  4 10  4  0  0  0
  5  6  4  0  0  0
  5 11  4  0  0  0
  7  8  1  0  0  0
  7  9  2  0  0  0
 10 12  4  0  0  0
 11 12  4  0  0  0
 12 13  1  0  0  0
 13 14  4  0  0  0
 13 18  4  0  0  0
 14 15  4  0  0  0
 15 16  4  0  0  0
 16 17  4  0  0  0
 17 18  4  0  0  0
 17 20  1  0  0  0
 18 19  1  0  0  0
 20 21  4  0  0  0
 20 25  4  0  0  0
 21 22  4  0  0  0
 22 23  4  0  0  0
 23 24  4  0  0  0
 24 25  4  0  0  0
  2 26  1  0  0  0
  3 27  1  0  0  0
  6 28  1  0  0  0
  8 29  1  0  0  0
  8 30  1  0  0  0
  9 31  1  0  0  0
 14 32  1  0  0  0
 15 33  1  0  0  0
 16 34  1  0  0  0
 19 35  1  0  0  0
 21 36  1  0  0  0
 22 37  1  0  0  0
 23 38  1  0  0  0
 24 39  1  0  0  0
 25 40  1  0  0  0
M  END
$$$$
