1yrs_ligand
  -I-interpret- 

 37 39  0  0  0  0  0  0  0  0999 V2000
   21.5490   16.7560  105.7110 C   0  0  0  0  0
   20.4050   16.5310  106.5710 C   0  0  0  0  0
   20.4920   15.4440  107.5240 C   0  0  0  0  0
   21.6920   14.6120  107.5660 C   0  0  0  0  0
   22.8420   14.8360  106.7270 C   0  0  0  0  0
   22.7420   15.9230  105.7940 C   0  0  0  0  0
   19.3600   15.1910  108.4470 C   0  0  0  0  0
   18.3190   16.0040  108.7290 N   0  0  0  0  0
   17.5130   15.5490  109.6220 N   0  0  0  0  0
   17.9310   14.2660  110.2210 C   0  0  0  0  0
   18.9150   13.9500  109.1780 C   0  0  0  0  0
   17.9530   13.8100  111.6170 C   0  0  0  0  0
   16.3990   16.2400  109.9330 C   0  0  0  0  0
   15.1760   15.3920  110.2650 C   0  0  0  0  0
   16.3340   17.4660  109.8500 O   0  0  0  0  0
   19.0260   14.3150  112.4450 C   0  0  0  0  0
   19.1140   13.9940  113.8490 C   0  0  0  0  0
   18.0920   13.1280  114.3860 C   0  0  0  0  0
   17.0420   12.5900  113.5480 C   0  0  0  0  0
   16.9390   12.9200  112.1470 C   0  0  0  0  0
   21.6320   13.2450  108.5950 Cl  0  0  0  0  0
   16.1370   11.7210  114.1150 O   0  0  0  0  0
   21.5167   17.5678  104.9844 H   0  0  0  0  0
   19.5140   17.1552  106.5034 H   0  0  0  0  0
   23.7360   14.2162  106.7966 H   0  0  0  0  0
   23.5810   16.1307  105.1299 H   0  0  0  0  0
   17.1401   13.5905  110.5468 H   0  0  0  0  0
   19.7860   13.4956  109.6503 H   0  0  0  0  0
   18.4528   13.2725  108.4600 H   0  0  0  0  0
   14.7863   15.6847  111.2400 H   0  0  0  0  0
   14.4105   15.5473  109.5047 H   0  0  0  0  0
   15.4600   14.3399  110.2868 H   0  0  0  0  0
   19.7871   14.9540  111.9972 H   0  0  0  0  0
   19.9151   14.3873  114.4749 H   0  0  0  0  0
   18.1114   12.8737  115.4457 H   0  0  0  0  0
   16.1411   12.5212  111.5206 H   0  0  0  0  0
   15.5013   11.4445  113.4509 H   0  0  0  0  0
  1  2  4  0  0  0
  1  6  4  0  0  0
  2  3  4  0  0  0
  3  4  4  0  0  0
  3  7  1  0  0  0
  4  5  4  0  0  0
  4 21  1  0  0  0
  5  6  4  0  0  0
  7  8  2  0  0  0
  7 11  1  0  0  0
  8  9  1  0  0  0
  9 10  1  0  0  0
  9 13  1  0  0  0
 10 11  1  0  0  0
 10 12  1  0  0  0
 12 16  4  0  0  0
 12 20  4  0  0  0
 13 14  1  0  0  0
 13 15  2  0  0  0
 16 17  4  0  0  0
 17 18  4  0  0  0
 18 19  4  0  0  0
 19 20  4  0  0  0
 19 22  1  0  0  0
  1 23  1  0  0  0
  2 24  1  0  0  0
  5 25  1  0  0  0
  6 26  1  0  0  0
 10 27  1  0  0  0
 11 28  1  0  0  0
 11 29  1  0  0  0
 14 30  1  0  0  0
 14 31  1  0  0  0
 14 32  1  0  0  0
 16 33  1  0  0  0
 17 34  1  0  0  0
 18 35  1  0  0  0
 20 36  1  0  0  0
 22 37  1  0  0  0
M  END
$$$$
