3hzy_ligand
  -I-interpret- 

 63 64  0  0  0  0  0  0  0  0999 V2000
   -6.3490    7.0370    8.1520 C   0  0  0  0  0
   -5.3650    7.5870    8.6770 O   0  0  0  0  0
   -7.2590    7.6500    7.5230 O   0  0  0  0  0
   -6.4380    5.5040    8.3120 C   0  0  0  0  0
   -5.9680    4.7620    7.0260 C   0  0  0  0  0
   -5.7470    3.2510    7.2740 C   0  0  0  0  0
   -4.8800    3.0180    8.5110 C   0  0  0  0  0
   -3.5620    3.4840    8.1880 O   0  0  0  0  0
   -5.4140    3.7770    9.7400 C   0  0  0  0  0
   -5.5220    5.1850    9.3920 O   0  0  0  0  0
   -4.4980    3.5520   10.9520 C   0  0  0  0  0
   -4.1230    2.1770   11.0480 O   0  0  0  0  0
   -5.1830    3.9550   12.2700 C   0  0  0  0  0
   -5.4000    5.3770   12.3100 O   0  0  0  0  0
   -7.7300    4.9920    8.7460 O   0  0  0  0  0
   -8.8940    5.6520    9.0400 C   0  0  0  0  0
   -9.1670    6.5420   10.0840 C   0  0  0  0  0
  -10.4390    7.0930   10.1970 C   0  0  0  0  0
   -4.8320    0.6170    6.4570 C   0  0  0  0  0
   -3.6610    1.0330    6.5460 O   0  0  0  0  0
   -5.2410   -0.4840    6.9110 O   0  0  0  0  0
   -5.8690    1.4740    5.7020 C   0  0  0  0  0
   -5.8280    2.9230    5.8800 O   0  0  0  0  0
   -5.8020    1.1010    4.2000 C   0  0  0  0  0
   -7.0280    1.7010    3.5010 C   0  0  0  0  0
   -8.3490    1.2270    4.1050 C   0  0  0  0  0
   -8.4880   -0.1840    3.8990 O   0  0  0  0  0
   -8.3660    1.5640    5.6100 C   0  0  0  0  0
   -7.1550    1.0490    6.2360 O   0  0  0  0  0
   -9.6340    0.9940    6.2480 C   0  0  0  0  0
  -10.7430    1.7610    5.7950 O   0  0  0  0  0
   -9.5880    1.0670    7.7820 C   0  0  0  0  0
   -9.2120    2.3970    8.1960 O   0  0  0  0  0
   -7.9107    7.0187    7.2094 H   0  0  0  0  0
   -5.0199    5.1969    6.7098 H   0  0  0  0  0
   -6.7429    4.8723    6.2674 H   0  0  0  0  0
   -6.2672    2.4089    7.7305 H   0  0  0  0  0
   -4.8850    1.9590    8.7691 H   0  0  0  0  0
   -3.2343    3.0077    7.4216 H   0  0  0  0  0
   -6.3989    3.4044   10.0213 H   0  0  0  0  0
   -3.6185    4.1777   10.8003 H   0  0  0  0  0
   -3.5516    2.0547   11.8097 H   0  0  0  0  0
   -4.5416    3.6707   13.1042 H   0  0  0  0  0
   -6.1452    3.4476   12.3390 H   0  0  0  0  0
   -5.8273    5.6112   13.1371 H   0  0  0  0  0
   -9.7261    5.4555    8.3639 H   0  0  0  0  0
   -8.3897    6.8014   10.8027 H   0  0  0  0  0
  -10.6707    7.6573    9.2937 H   0  0  0  0  0
  -11.1695    6.2942   10.3253 H   0  0  0  0  0
  -10.4702    7.7577   11.0603 H   0  0  0  0  0
   -6.1769   -0.5799    6.7198 H   0  0  0  0  0
   -5.7976    0.0173    4.0833 H   0  0  0  0  0
   -4.8878    1.4958    3.7567 H   0  0  0  0  0
   -7.0056    1.3827    2.4587 H   0  0  0  0  0
   -6.9794    2.7839    3.6155 H   0  0  0  0  0
   -9.1858    1.7315    3.6220 H   0  0  0  0  0
   -9.3181   -0.4814    4.2786 H   0  0  0  0  0
   -8.3809    2.6439    5.7576 H   0  0  0  0  0
   -9.7206   -0.0539    5.9609 H   0  0  0  0  0
  -11.5495    1.4171    6.1859 H   0  0  0  0  0
   -8.8547    0.3521    8.1553 H   0  0  0  0  0
  -10.5727    0.8289    8.1842 H   0  0  0  0  0
   -9.1849    2.4368    9.1548 H   0  0  0  0  0
  1  2  2  0  0  0
  1  3  1  0  0  0
  4  1  1  0  0  0
  5  4  1  0  0  0
  4 10  1  0  0  0
  4 15  1  0  0  0
  6  5  1  0  0  0
  6  7  1  0  0  0
 23  6  1  0  0  0
  7  8  1  0  0  0
  7  9  1  0  0  0
  9 10  1  0  0  0
  9 11  1  0  0  0
 11 12  1  0  0  0
 11 13  1  0  0  0
 13 14  1  0  0  0
 15 16  1  0  0  0
 16 17  2  0  0  0
 17 18  1  0  0  0
 19 20  2  0  0  0
 19 21  1  0  0  0
 22 19  1  0  0  0
 22 23  1  0  0  0
 22 24  1  0  0  0
 22 29  1  0  0  0
 24 25  1  0  0  0
 25 26  1  0  0  0
 26 27  1  0  0  0
 26 28  1  0  0  0
 28 29  1  0  0  0
 28 30  1  0  0  0
 30 31  1  0  0  0
 30 32  1  0  0  0
 32 33  1  0  0  0
  3 34  1  0  0  0
  5 35  1  0  0  0
  5 36  1  0  0  0
  6 37  1  0  0  0
  7 38  1  0  0  0
  8 39  1  0  0  0
  9 40  1  0  0  0
 11 41  1  0  0  0
 12 42  1  0  0  0
 13 43  1  0  0  0
 13 44  1  0  0  0
 14 45  1  0  0  0
 16 46  1  0  0  0
 17 47  1  0  0  0
 18 48  1  0  0  0
 18 49  1  0  0  0
 18 50  1  0  0  0
 21 51  1  0  0  0
 24 52  1  0  0  0
 24 53  1  0  0  0
 25 54  1  0  0  0
 25 55  1  0  0  0
 26 56  1  0  0  0
 27 57  1  0  0  0
 28 58  1  0  0  0
 30 59  1  0  0  0
 31 60  1  0  0  0
 32 61  1  0  0  0
 32 62  1  0  0  0
 33 63  1  0  0  0
M  END
$$$$
