3ts4_ligand
  -I-interpret- 

 71 73  0  0  0  0  0  0  0  0999 V2000
   10.2960   26.6000    3.2930 O   0  0  0  0  0
    2.8430   22.5900    7.7400 S   0  0  0  0  0
    9.1700   26.7020    2.7720 C   0  0  0  0  0
    7.9050   26.4690    3.6460 C   0  0  0  0  0
    7.4490   25.0310    3.4090 C   0  0  0  0  0
    4.9870   25.1020    3.7560 C   0  0  0  0  0
    5.2110   23.4950    6.0110 C   0  0  0  0  0
    3.9630   23.9550    5.5660 C   0  0  0  0  0
    3.8360   24.7570    4.4470 C   0  0  0  0  0
    2.7260   23.5580    6.3890 C   0  0  0  0  0
    1.4020   23.9480    6.2260 C   0  0  0  0  0
    0.5550   23.3870    7.2140 C   0  0  0  0  0
   -0.9070   23.6320    7.2560 C   0  0  0  0  0
   -1.4140   24.7630    6.6430 C   0  0  0  0  0
   -2.7780   25.0010    6.6840 C   0  0  0  0  0
   -3.6090   24.1210    7.3230 C   0  0  0  0  0
   -3.0990   22.9760    7.9370 C   0  0  0  0  0
   -1.7380   22.7380    7.9000 C   0  0  0  0  0
    6.2070   24.6350    4.1910 C   0  0  0  0  0
    6.3380   23.8440    5.3340 C   0  0  0  0  0
    1.2020   22.5930    8.1570 C   0  0  0  0  0
    8.9990   26.9740    1.3920 N   0  0  0  0  0
   10.1740   27.1430    0.5750 C   0  0  0  0  0
   10.6320   28.5370    0.3510 C   0  0  0  0  0
   11.6390   28.7550   -0.3700 O   0  0  0  0  0
    9.7600   26.4780   -0.7010 C   0  0  0  0  0
    9.5700   25.0040   -0.5840 C   0  0  0  0  0
    8.0960   24.6090   -0.3200 C   0  0  0  0  0
    7.3120   25.4190   -0.7680 O   0  0  0  0  0
    7.8420   23.6230    0.2760 O   0  0  0  0  0
    9.9160   29.5950    0.9410 N   0  0  0  0  0
   10.3470   31.0270    0.7240 C   0  0  0  0  0
   10.5670   31.6680    1.9950 C   0  0  0  0  0
    9.9440   31.2660    3.0430 O   0  0  0  0  0
    9.3400   31.8540   -0.0930 C   0  0  0  0  0
    8.5150   31.1890   -0.9620 C   0  0  0  0  0
    9.0700   31.1520   -2.4250 C   0  0  0  0  0
    9.6360   30.0260   -2.8320 O   0  0  0  0  0
    9.0260   32.1650   -3.1490 O   0  0  0  0  0
   11.5260   32.8040    2.0900 N   0  0  0  0  0
    7.1166   27.1708    3.3740 H   0  0  0  0  0
    8.1322   26.6303    4.6998 H   0  0  0  0  0
    8.2579   24.3785    3.7377 H   0  0  0  0  0
    7.2051   24.9410    2.3504 H   0  0  0  0  0
    4.9267   25.7391    2.8736 H   0  0  0  0  0
    5.2775   22.8609    6.8951 H   0  0  0  0  0
    2.8582   25.1081    4.1174 H   0  0  0  0  0
    1.0555   24.6083    5.4310 H   0  0  0  0  0
   -0.7480   25.4593    6.1334 H   0  0  0  0  0
   -3.1900   25.8902    6.2068 H   0  0  0  0  0
   -4.6809   24.3165    7.3527 H   0  0  0  0  0
   -3.7669   22.2770    8.4403 H   0  0  0  0  0
   -1.3236   21.8496    8.3766 H   0  0  0  0  0
    7.3192   23.5142    5.6754 H   0  0  0  0  0
    0.7423   22.0749    8.9986 H   0  0  0  0  0
    8.0661   27.0484    0.9864 H   0  0  0  0  0
   11.0516   26.7198    1.0637 H   0  0  0  0  0
   10.5574   26.6443   -1.4253 H   0  0  0  0  0
    8.8001   26.9053   -0.9912 H   0  0  0  0  0
   10.1655   24.6563    0.2602 H   0  0  0  0  0
    9.8731   24.5520   -1.5284 H   0  0  0  0  0
    7.7961   26.1228   -1.2061 H   0  0  0  0  0
    9.1002   29.3939    1.5193 H   0  0  0  0  0
   11.2692   30.9859    0.1444 H   0  0  0  0  0
    9.9452   32.5125   -0.7160 H   0  0  0  0  0
    8.6773   32.3105    0.6422 H   0  0  0  0  0
    7.5606   31.7151   -0.9821 H   0  0  0  0  0
    8.4267   30.1598   -0.6142 H   0  0  0  0  0
    9.5695   29.3665   -2.1376 H   0  0  0  0  0
   11.6872   33.2617    2.9872 H   0  0  0  0  0
   12.0215   33.1241    1.2579 H   0  0  0  0  0
  3  1  2  0  0  0
 10  2  4  0  0  0
  2 21  4  0  0  0
  4  3  1  0  0  0
  3 22  1  0  0  0
  5  4  1  0  0  0
 19  5  1  0  0  0
  9  6  4  0  0  0
  6 19  4  0  0  0
  8  7  4  0  0  0
  7 20  4  0  0  0
  8  9  4  0  0  0
  8 10  1  0  0  0
 10 11  4  0  0  0
 11 12  4  0  0  0
 12 13  1  0  0  0
 12 21  4  0  0  0
 13 14  4  0  0  0
 13 18  4  0  0  0
 14 15  4  0  0  0
 15 16  4  0  0  0
 16 17  4  0  0  0
 17 18  4  0  0  0
 19 20  4  0  0  0
 22 23  1  0  0  0
 23 24  1  0  0  0
 23 26  1  0  0  0
 24 25  2  0  0  0
 24 31  1  0  0  0
 26 27  1  0  0  0
 27 28  1  0  0  0
 28 29  1  0  0  0
 28 30  2  0  0  0
 31 32  1  0  0  0
 32 33  1  0  0  0
 32 35  1  0  0  0
 33 34  2  0  0  0
 33 40  1  0  0  0
 35 36  1  0  0  0
 36 37  1  0  0  0
 37 38  1  0  0  0
 37 39  2  0  0  0
  4 41  1  0  0  0
  4 42  1  0  0  0
  5 43  1  0  0  0
  5 44  1  0  0  0
  6 45  1  0  0  0
  7 46  1  0  0  0
  9 47  1  0  0  0
 11 48  1  0  0  0
 14 49  1  0  0  0
 15 50  1  0  0  0
 16 51  1  0  0  0
 17 52  1  0  0  0
 18 53  1  0  0  0
 20 54  1  0  0  0
 21 55  1  0  0  0
 22 56  1  0  0  0
 23 57  1  0  0  0
 26 58  1  0  0  0
 26 59  1  0  0  0
 27 60  1  0  0  0
 27 61  1  0  0  0
 29 62  1  0  0  0
 31 63  1  0  0  0
 32 64  1  0  0  0
 35 65  1  0  0  0
 35 66  1  0  0  0
 36 67  1  0  0  0
 36 68  1  0  0  0
 38 69  1  0  0  0
 40 70  1  0  0  0
 40 71  1  0  0  0
M  END
$$$$
