6hk3_ligand
  -I-interpret- 

 61 64  0  0  0  0  0  0  0  0999 V2000
    7.0970   13.7000  -39.0520 C   0  0  0  0  0
    5.9150   14.5350  -37.0770 N   0  0  0  0  0
    8.3650   14.2300  -37.0460 C   0  0  0  0  0
    7.0950   14.2630  -36.2310 C   0  0  0  0  0
    3.9870   13.1100  -35.5450 C   0  0  0  0  0
    4.4640   12.6430  -34.3200 C   0  0  0  0  0
    3.0600   10.6990  -34.5190 C   0  0  0  0  0
    2.5950   11.2010  -35.7270 C   0  0  0  0  0
    3.0460   12.3900  -36.2510 C   0  0  0  0  0
    2.5320    9.4200  -34.0270 C   0  0  0  0  0
    2.0980    8.3570  -34.8420 C   0  0  0  0  0
    1.5430    7.0940  -32.9710 C   0  0  0  0  0
    1.9930    8.1880  -32.1640 C   0  0  0  0  0
    1.9660    8.1940  -30.6930 C   0  0  0  0  0
    2.6640    9.5710  -28.7900 C   0  0  0  0  0
    3.3750   10.7410  -28.4500 C   0  0  0  0  0
    3.4860   11.1200  -27.1240 C   0  0  0  0  0
    2.8880   10.3610  -26.1480 C   0  0  0  0  0
    9.5150   13.1630  -38.9340 C   0  0  0  0  0
    2.1910    9.2290  -26.4690 C   0  0  0  0  0
    2.0700    8.8310  -27.7800 C   0  0  0  0  0
    5.7890   13.7460  -38.3080 C   0  0  0  0  0
    4.6340   12.6150  -29.2230 C   0  0  0  0  0
    4.0040   11.4380  -33.8040 C   0  0  0  0  0
    8.2330   13.2810  -38.1820 N   0  3  0  0  0
    1.6070    7.2110  -34.3280 N   0  0  0  0  0
    2.4720    9.3140  -32.6890 N   0  0  0  0  0
    2.5660    9.2660  -30.1680 N   0  0  0  0  0
    1.0570    5.9800  -32.3980 N   0  0  0  0  0
    3.5330   15.0510  -37.1510 O   0  0  0  0  0
    4.9360   15.3960  -35.0460 O   0  0  0  0  0
    1.4380    7.2700  -30.0980 O   0  0  0  0  0
    3.9160   11.4110  -29.5030 O   0  0  0  0  0
    4.5480   14.6600  -36.2130 S   0  0  0  0  0
    7.3089   14.7029  -39.4228 H   0  0  0  0  0
    7.0016   12.9702  -39.8559 H   0  0  0  0  0
    9.1861   13.9044  -36.4074 H   0  0  0  0  0
    8.5578   15.2278  -37.4400 H   0  0  0  0  0
    6.9633   13.2900  -35.7578 H   0  0  0  0  0
    7.1802   15.0592  -35.4914 H   0  0  0  0  0
    5.2000   13.2255  -33.7659 H   0  0  0  0  0
    1.8464   10.6330  -36.2794 H   0  0  0  0  0
    2.6673   12.7560  -37.2053 H   0  0  0  0  0
    2.1610    8.4640  -35.9249 H   0  0  0  0  0
    4.0451   12.0163  -26.8553 H   0  0  0  0  0
    2.9700   10.6647  -25.1044 H   0  0  0  0  0
    9.7960   14.1404  -39.3261 H   0  0  0  0  0
   10.2953   12.8005  -38.2648 H   0  0  0  0  0
    9.3876   12.4621  -39.7590 H   0  0  0  0  0
    1.7276    8.6374  -25.6795 H   0  0  0  0  0
    1.5055    7.9314  -28.0252 H   0  0  0  0  0
    5.4993   12.7288  -38.0446 H   0  0  0  0  0
    5.0381   14.2105  -38.9471 H   0  0  0  0  0
    3.9682   13.3292  -28.7385 H   0  0  0  0  0
    5.4719   12.3916  -28.5626 H   0  0  0  0  0
    5.0074   13.0390  -30.1552 H   0  0  0  0  0
    4.3776   11.0722  -32.8476 H   0  0  0  0  0
    8.0259   12.3489  -37.8233 H   0  0  0  0  0
    2.9922    9.9245  -30.8200 H   0  0  0  0  0
    1.0067    5.9095  -31.3817 H   0  0  0  0  0
    0.7383    5.2048  -32.9794 H   0  0  0  0  0
 22  1  1  0  0  0
  1 25  1  0  0  0
  2  4  1  0  0  0
  2 22  1  0  0  0
 34  2  1  0  0  0
  4  3  1  0  0  0
  3 25  1  0  0  0
  6  5  4  0  0  0
  9  5  4  0  0  0
  5 34  1  0  0  0
 24  6  4  0  0  0
  7  8  4  0  0  0
 10  7  1  0  0  0
  7 24  4  0  0  0
  8  9  4  0  0  0
 10 11  4  0  0  0
 27 10  4  0  0  0
 26 11  4  0  0  0
 13 12  4  0  0  0
 12 26  4  0  0  0
 12 29  1  0  0  0
 14 13  1  0  0  0
 13 27  4  0  0  0
 28 14  1  0  0  0
 14 32  2  0  0  0
 15 16  4  0  0  0
 15 21  4  0  0  0
 15 28  1  0  0  0
 16 17  4  0  0  0
 16 33  1  0  0  0
 17 18  4  0  0  0
 18 20  4  0  0  0
 25 19  1  0  0  0
 20 21  4  0  0  0
 33 23  1  0  0  0
 34 30  2  0  0  0
 34 31  2  0  0  0
  1 35  1  0  0  0
  1 36  1  0  0  0
  3 37  1  0  0  0
  3 38  1  0  0  0
  4 39  1  0  0  0
  4 40  1  0  0  0
  6 41  1  0  0  0
  8 42  1  0  0  0
  9 43  1  0  0  0
 11 44  1  0  0  0
 17 45  1  0  0  0
 18 46  1  0  0  0
 19 47  1  0  0  0
 19 48  1  0  0  0
 19 49  1  0  0  0
 20 50  1  0  0  0
 21 51  1  0  0  0
 22 52  1  0  0  0
 22 53  1  0  0  0
 23 54  1  0  0  0
 23 55  1  0  0  0
 23 56  1  0  0  0
 24 57  1  0  0  0
 25 58  1  0  0  0
 28 59  1  0  0  0
 29 60  1  0  0  0
 29 61  1  0  0  0
M  END
$$$$
