2xz5_ligand
  -I-interpret- 

 26 25  0  0  0  0  0  0  0  0999 V2000
  -14.1190  -11.2150   36.2710 N   0  3  0  0  0
  -12.7310  -11.9430   35.9630 C   0  0  0  0  0
  -11.7370  -11.7130   37.1520 C   0  0  0  0  0
  -12.1060  -10.9070   38.5660 O   0  0  0  0  0
  -11.5480  -10.5960   39.8190 C   0  0  0  0  0
  -10.4250  -10.0790   39.6430 O   0  0  0  0  0
  -12.3040  -10.8380   41.1740 C   0  0  0  0  0
  -14.9400  -11.3870   37.5970 C   0  0  0  0  0
  -13.8990   -9.8940   35.9380 C   0  0  0  0  0
  -15.3520  -11.4060   35.5500 C   0  0  0  0  0
  -12.3023  -11.5308   35.0495 H   0  0  0  0  0
  -12.9040  -13.0120   35.8391 H   0  0  0  0  0
  -10.9849  -11.0637   36.7039 H   0  0  0  0  0
  -11.5565  -12.7288   37.5038 H   0  0  0  0  0
  -11.7047  -11.4875   41.8120 H   0  0  0  0  0
  -12.4649   -9.8831   41.6744 H   0  0  0  0  0
  -13.2653  -11.3107   40.9728 H   0  0  0  0  0
  -14.3976  -10.9239   38.4213 H   0  0  0  0  0
  -15.9125  -10.9076   37.4855 H   0  0  0  0  0
  -15.0782  -12.4486   37.8021 H   0  0  0  0  0
  -14.8562   -9.3906   35.8021 H   0  0  0  0  0
  -13.3413   -9.4070   36.7379 H   0  0  0  0  0
  -13.3263   -9.8446   35.0119 H   0  0  0  0  0
  -15.7649  -12.3853   35.7920 H   0  0  0  0  0
  -16.0623  -10.6301   35.8355 H   0  0  0  0  0
  -15.1581  -11.3466   34.4790 H   0  0  0  0  0
  1  2  1  0  0  0
  1  8  1  0  0  0
  1  9  1  0  0  0
  1 10  1  0  0  0
  2  3  1  0  0  0
  3  4  1  0  0  0
  4  5  1  0  0  0
  5  6  2  0  0  0
  5  7  1  0  0  0
  2 11  1  0  0  0
  2 12  1  0  0  0
  3 13  1  0  0  0
  3 14  1  0  0  0
  7 15  1  0  0  0
  7 16  1  0  0  0
  7 17  1  0  0  0
  8 18  1  0  0  0
  8 19  1  0  0  0
  8 20  1  0  0  0
  9 21  1  0  0  0
  9 22  1  0  0  0
  9 23  1  0  0  0
 10 24  1  0  0  0
 10 25  1  0  0  0
 10 26  1  0  0  0
M  END
$$$$
