4j5b_ligand
  -I-interpret- 

 54 56  0  0  0  0  0  0  0  0999 V2000
    6.4710   22.5120   12.9680 C   0  0  0  0  0
    6.8820   21.7390   14.5180 S   0  0  0  0  0
    6.5810   23.0880   15.6570 C   0  0  0  0  0
    6.2390   24.3420   15.1580 C   0  0  0  0  0
    6.0020   25.4020   16.0170 C   0  0  0  0  0
    6.1220   25.1940   17.3790 C   0  0  0  0  0
    6.4440   23.9350   17.8770 C   0  0  0  0  0
    6.7290   22.8570   17.0280 C   0  0  0  0  0
    7.0690   21.4960   17.3270 C   0  0  0  0  0
    8.5920   21.2870   17.7770 C   0  0  0  0  0
    8.6040   22.1280   18.9830 C   0  0  0  0  0
    7.5150   21.1970   19.5380 C   0  0  0  0  0
    6.4080   21.2350   18.6250 N   0  0  0  0  0
    5.1490   20.9650   18.9980 C   0  0  0  0  0
    4.8370   20.6650   20.1480 O   0  0  0  0  0
    4.1140   20.9060   17.8830 C   0  0  0  0  0
    2.9360   20.1850   18.3780 N   0  0  0  0  0
    2.7600   18.8720   18.1960 C   0  0  0  0  0
    3.5580   18.1760   17.5620 O   0  0  0  0  0
    1.6400   18.3580   18.7040 N   0  0  0  0  0
    1.2800   16.9390   18.5990 C   0  0  0  0  0
    1.0590   16.5030   19.8990 C   0  0  0  0  0
    2.0180   16.7770   20.8680 C   0  0  0  0  0
    1.8230   16.3700   22.1790 C   0  0  0  0  0
    0.6630   15.6900   22.5240 C   0  0  0  0  0
    0.4900   15.3080   23.7870 N   0  0  0  0  0
   -0.3020   15.4120   21.5560 C   0  0  0  0  0
   -0.1050   15.8230   20.2410 C   0  0  0  0  0
    5.4319   22.8404   12.9915 H   0  0  0  0  0
    7.1216   23.3719   12.8085 H   0  0  0  0  0
    6.6087   21.7954   12.1583 H   0  0  0  0  0
    6.1570   24.4908   14.0813 H   0  0  0  0  0
    5.7261   26.3818   15.6271 H   0  0  0  0  0
    5.9630   26.0233   18.0683 H   0  0  0  0  0
    6.4754   23.7833   18.9559 H   0  0  0  0  0
    6.8216   20.9014   16.4476 H   0  0  0  0  0
    9.3314   21.5595   17.0239 H   0  0  0  0  0
    8.8801   20.2489   17.9423 H   0  0  0  0  0
    8.4670   23.2082   18.9328 H   0  0  0  0  0
    9.5224   22.3317   19.5335 H   0  0  0  0  0
    7.2026   21.5246   20.5295 H   0  0  0  0  0
    7.8955   20.1800   19.6335 H   0  0  0  0  0
    4.5291   20.3900   17.0173 H   0  0  0  0  0
    3.8330   21.9154   17.5827 H   0  0  0  0  0
    2.2203   20.7079   18.8828 H   0  0  0  0  0
    0.9991   18.9840   19.1916 H   0  0  0  0  0
    2.0729   16.3650   18.1195 H   0  0  0  0  0
    0.3932   16.8014   17.9803 H   0  0  0  0  0
    2.9267   17.3139   20.5958 H   0  0  0  0  0
    2.5778   16.5832   22.9360 H   0  0  0  0  0
    1.2041   15.5158   24.4850 H   0  0  0  0  0
   -0.3567   14.8074   24.0570 H   0  0  0  0  0
   -1.2094   14.8734   21.8291 H   0  0  0  0  0
   -0.8594   15.6130   19.4828 H   0  0  0  0  0
  1  2  1  0  0  0
  2  3  1  0  0  0
  3  4  4  0  0  0
  3  8  4  0  0  0
  4  5  4  0  0  0
  5  6  4  0  0  0
  6  7  4  0  0  0
  7  8  4  0  0  0
  8  9  1  0  0  0
  9 10  1  0  0  0
  9 13  1  0  0  0
 10 11  1  0  0  0
 11 12  1  0  0  0
 12 13  1  0  0  0
 13 14  1  0  0  0
 14 15  2  0  0  0
 14 16  1  0  0  0
 16 17  1  0  0  0
 17 18  1  0  0  0
 18 19  2  0  0  0
 18 20  1  0  0  0
 20 21  1  0  0  0
 21 22  1  0  0  0
 22 23  4  0  0  0
 22 28  4  0  0  0
 23 24  4  0  0  0
 24 25  4  0  0  0
 25 26  1  0  0  0
 25 27  4  0  0  0
 27 28  4  0  0  0
  1 29  1  0  0  0
  1 30  1  0  0  0
  1 31  1  0  0  0
  4 32  1  0  0  0
  5 33  1  0  0  0
  6 34  1  0  0  0
  7 35  1  0  0  0
  9 36  1  0  0  0
 10 37  1  0  0  0
 10 38  1  0  0  0
 11 39  1  0  0  0
 11 40  1  0  0  0
 12 41  1  0  0  0
 12 42  1  0  0  0
 16 43  1  0  0  0
 16 44  1  0  0  0
 17 45  1  0  0  0
 20 46  1  0  0  0
 21 47  1  0  0  0
 21 48  1  0  0  0
 23 49  1  0  0  0
 24 50  1  0  0  0
 26 51  1  0  0  0
 26 52  1  0  0  0
 27 53  1  0  0  0
 28 54  1  0  0  0
M  END
$$$$
