3ujb_ligand
  -I-interpret- 

 47 49  0  0  0  0  0  0  0  0999 V2000
   46.9410   -0.5710   25.5050 N   0  3  0  0  0
   45.8910    0.2760   24.8850 C   0  0  0  0  0
   45.9840    1.7480   25.4270 C   0  0  0  0  0
   47.2760    2.4690   25.0280 C   0  0  0  0  0
   47.3590    4.1870   25.6240 S   0  0  0  0  0
   45.9970    0.1880   23.4160 C   0  0  0  0  0
   46.9630   -0.3650   22.9160 O   0  0  0  0  0
   45.1800    0.7440   22.7180 O   0  0  0  0  0
   47.9520    4.0870   27.3290 C   0  0  0  0  0
   47.0080    3.7660   28.3570 C   0  0  0  0  0
   47.7510    3.6010   29.5920 O   0  0  0  0  0
   46.0550    4.8880   28.5930 C   0  0  0  0  0
   44.7310    4.4570   28.3170 O   0  0  0  0  0
   46.2790    5.2780   30.0030 C   0  0  0  0  0
   45.1100    5.6900   30.6870 O   0  0  0  0  0
   46.9040    4.0570   30.5990 C   0  0  0  0  0
   47.6620    4.3040   31.8820 N   0  0  0  0  0
   48.6090    5.2230   32.1010 C   0  0  0  0  0
   49.0340    5.0920   33.3580 N   0  0  0  0  0
   48.3660    4.0780   33.9400 C   0  0  0  0  0
   48.3890    3.5160   35.2280 C   0  0  0  0  0
   49.2360    3.9930   36.1970 N   0  0  0  0  0
   47.5580    2.4930   35.4890 N   0  0  0  0  0
   46.7230    2.0170   34.5570 C   0  0  0  0  0
   46.6660    2.5410   33.3080 N   0  0  0  0  0
   47.4720    3.5700   32.9860 C   0  0  0  0  0
   46.8687   -0.5110   26.5207 H   0  0  0  0  0
   46.8130   -1.5391   25.2104 H   0  0  0  0  0
   47.8600   -0.2427   25.2083 H   0  0  0  0  0
   44.9006   -0.0863   25.1604 H   0  0  0  0  0
   45.9612    1.6972   26.5156 H   0  0  0  0  0
   45.1523    2.3070   24.9982 H   0  0  0  0  0
   47.3138    2.4969   23.9390 H   0  0  0  0  0
   48.1075    1.9252   25.4763 H   0  0  0  0  0
   47.5035   -0.7511   23.6091 H   0  0  0  0  0
   48.3077    5.0891   27.5685 H   0  0  0  0  0
   48.6723    3.2689   27.3350 H   0  0  0  0  0
   46.4582    2.8744   28.0555 H   0  0  0  0  0
   46.2093    5.7484   27.9418 H   0  0  0  0  0
   44.1211    5.1823   28.4702 H   0  0  0  0  0
   46.9076    6.1649   30.0829 H   0  0  0  0  0
   45.3352    5.9255   31.5900 H   0  0  0  0  0
   46.1415    3.3381   30.8989 H   0  0  0  0  0
   48.9708    5.9530   31.3769 H   0  0  0  0  0
   49.8640    4.7692   35.9884 H   0  0  0  0  0
   49.2374    3.5713   37.1257 H   0  0  0  0  0
   46.0690    1.1826   34.8102 H   0  0  0  0  0
  1  2  1  0  0  0
  2  3  1  0  0  0
  2  6  1  0  0  0
  3  4  1  0  0  0
  4  5  1  0  0  0
  5  9  1  0  0  0
  6  7  1  0  0  0
  6  8  2  0  0  0
  9 10  1  0  0  0
 10 11  1  0  0  0
 10 12  1  0  0  0
 11 16  1  0  0  0
 12 13  1  0  0  0
 12 14  1  0  0  0
 14 15  1  0  0  0
 14 16  1  0  0  0
 16 17  1  0  0  0
 17 18  4  0  0  0
 17 26  4  0  0  0
 18 19  4  0  0  0
 19 20  4  0  0  0
 20 21  4  0  0  0
 20 26  4  0  0  0
 21 22  1  0  0  0
 21 23  4  0  0  0
 23 24  4  0  0  0
 24 25  4  0  0  0
 25 26  4  0  0  0
  1 27  1  0  0  0
  1 28  1  0  0  0
  1 29  1  0  0  0
  2 30  1  0  0  0
  3 31  1  0  0  0
  3 32  1  0  0  0
  4 33  1  0  0  0
  4 34  1  0  0  0
  7 35  1  0  0  0
  9 36  1  0  0  0
  9 37  1  0  0  0
 10 38  1  0  0  0
 12 39  1  0  0  0
 13 40  1  0  0  0
 14 41  1  0  0  0
 15 42  1  0  0  0
 16 43  1  0  0  0
 18 44  1  0  0  0
 22 45  1  0  0  0
 22 46  1  0  0  0
 24 47  1  0  0  0
M  END
$$$$
