3p4q_ligand
  -I-interpret- 

 13 12  0  0  0  0  0  0  0  0999 V2000
   15.6760   36.8710  -13.6930 O   0  0  0  0  0
   16.9950   35.3040  -12.6510 O   0  0  0  0  0
   18.3400   36.8380  -18.0120 O   0  0  0  0  0
   17.2100   38.5390  -16.9820 O   0  0  0  0  0
   15.7400   35.7070  -16.3680 O   0  0  0  0  0
   16.7150   36.0640  -13.6820 C   0  0  0  0  0
   17.6430   35.9930  -14.8640 C   0  0  0  0  0
   16.8880   36.2850  -16.1300 C   0  0  0  0  0
   17.5130   37.2710  -17.0900 C   0  0  0  0  0
   15.6439   37.3381  -14.5311 H   0  0  0  0  0
   18.4362   35.8861  -17.9325 H   0  0  0  0  0
   18.0700   34.9920  -14.9245 H   0  0  0  0  0
   18.4360   36.7308  -14.7416 H   0  0  0  0  0
  6  1  1  0  0  0
  6  2  2  0  0  0
  9  3  1  0  0  0
  9  4  2  0  0  0
  8  5  2  0  0  0
  7  6  1  0  0  0
  8  7  1  0  0  0
  8  9  1  0  0  0
  1 10  1  0  0  0
  3 11  1  0  0  0
  7 12  1  0  0  0
  7 13  1  0  0  0
M  END
$$$$
