5dia_ligand
  -I-interpret- 

 52 56  0  0  0  0  0  0  0  0999 V2000
   21.5690  -34.2560    4.2810 C   0  0  0  0  0
   23.6920  -38.8930    1.8920 C   0  0  0  0  0
   21.1960  -34.0680    5.7290 C   0  0  0  0  0
   23.5950  -38.2780    4.1550 C   0  0  0  0  0
   23.7510  -39.2420    3.2110 C   0  0  0  0  0
   23.4510  -37.6010    1.5470 C   0  0  0  0  0
   23.3210  -36.7160    2.4820 N   0  0  0  0  0
   23.3880  -36.9910    3.7360 C   0  0  0  0  0
   23.2630  -35.9770    4.6520 N   0  0  0  0  0
   23.0270  -34.6290    4.1900 C   0  0  0  0  0
   22.0030  -32.9010    6.2520 C   0  0  0  0  0
   23.5040  -33.1650    6.2200 C   0  0  0  0  0
   23.9260  -33.5760    4.8280 C   0  0  0  0  0
   24.2630  -31.9920    6.6450 N   0  3  0  0  0
   23.3920  -37.2070    0.1250 C   0  0  0  0  0
   23.0080  -35.9120   -0.3890 C   0  0  0  0  0
   22.6050  -34.7110    0.1600 C   0  0  0  0  0
   22.3230  -33.6540   -0.6650 C   0  0  0  0  0
   22.4540  -33.7850   -1.9550 N   0  0  0  0  0
   22.8120  -34.8940   -2.4990 C   0  0  0  0  0
   23.1170  -36.0000   -1.7550 C   0  0  0  0  0
   23.5160  -37.2430   -2.0280 N   0  0  0  0  0
   23.6770  -37.9400   -0.8820 N   0  0  0  0  0
   21.8890  -32.3510   -0.1360 C   0  0  0  0  0
   22.0110  -32.0160    1.2010 C   0  0  0  0  0
   21.5900  -30.7860    1.6090 C   0  0  0  0  0
   21.0760  -29.9270    0.6810 C   0  0  0  0  0
   20.9730  -30.2680   -0.5670 N   0  0  0  0  0
   21.3590  -31.4180   -0.9970 C   0  0  0  0  0
   21.3933  -33.3295    3.7344 H   0  0  0  0  0
   20.9604  -35.0488    3.8461 H   0  0  0  0  0
   23.8376  -39.6477    1.1192 H   0  0  0  0  0
   21.4120  -34.9705    6.3009 H   0  0  0  0  0
   20.1285  -33.8708    5.8275 H   0  0  0  0  0
   23.6335  -38.5221    5.2166 H   0  0  0  0  0
   23.9207  -40.2787    3.5018 H   0  0  0  0  0
   23.3361  -36.1734    5.6502 H   0  0  0  0  0
   23.3090  -34.6354    3.1371 H   0  0  0  0  0
   21.7143  -32.7316    7.2893 H   0  0  0  0  0
   21.8001  -32.0404    5.6145 H   0  0  0  0  0
   23.7172  -33.9737    6.9190 H   0  0  0  0  0
   23.8761  -32.6864    4.2002 H   0  0  0  0  0
   24.9230  -34.0091    4.9082 H   0  0  0  0  0
   25.2603  -32.2034    6.6116 H   0  0  0  0  0
   24.0585  -31.2117    6.0207 H   0  0  0  0  0
   23.9985  -31.7445    7.5985 H   0  0  0  0  0
   22.5119  -34.6046    1.2408 H   0  0  0  0  0
   22.8742  -34.9541   -3.5856 H   0  0  0  0  0
   22.4357  -32.7225    1.9141 H   0  0  0  0  0
   21.6623  -30.4935    2.6565 H   0  0  0  0  0
   20.7460  -28.9364    0.9939 H   0  0  0  0  0
   21.2648  -31.6557   -2.0566 H   0  0  0  0  0
  1  3  1  0  0  0
 10  1  1  0  0  0
  5  2  4  0  0  0
  6  2  4  0  0  0
  3 11  1  0  0  0
  4  5  4  0  0  0
  8  4  4  0  0  0
  7  6  4  0  0  0
  6 15  1  0  0  0
  8  7  4  0  0  0
  9  8  1  0  0  0
  9 10  1  0  0  0
 10 13  1  0  0  0
 11 12  1  0  0  0
 12 13  1  0  0  0
 12 14  1  0  0  0
 15 16  4  0  0  0
 15 23  4  0  0  0
 16 17  4  0  0  0
 16 21  4  0  0  0
 17 18  4  0  0  0
 18 19  4  0  0  0
 18 24  1  0  0  0
 19 20  4  0  0  0
 20 21  4  0  0  0
 21 22  4  0  0  0
 22 23  4  0  0  0
 24 25  4  0  0  0
 24 29  4  0  0  0
 25 26  4  0  0  0
 26 27  4  0  0  0
 27 28  4  0  0  0
 28 29  4  0  0  0
  1 30  1  0  0  0
  1 31  1  0  0  0
  2 32  1  0  0  0
  3 33  1  0  0  0
  3 34  1  0  0  0
  4 35  1  0  0  0
  5 36  1  0  0  0
  9 37  1  0  0  0
 10 38  1  0  0  0
 11 39  1  0  0  0
 11 40  1  0  0  0
 12 41  1  0  0  0
 13 42  1  0  0  0
 13 43  1  0  0  0
 14 44  1  0  0  0
 14 45  1  0  0  0
 14 46  1  0  0  0
 17 47  1  0  0  0
 20 48  1  0  0  0
 25 49  1  0  0  0
 26 50  1  0  0  0
 27 51  1  0  0  0
 29 52  1  0  0  0
M  END
$$$$
