4qgd_ligand
  -I-interpret- 

 37 38  0  0  0  0  0  0  0  0999 V2000
  -21.9300    6.6380    8.1490 C   0  0  0  0  0
  -21.7210    7.7050    7.2110 C   0  0  0  0  0
  -21.7500    5.4150    7.4890 N   0  0  0  0  0
  -21.1020    7.6690    4.7110 C   0  0  0  0  0
  -20.8130    6.8040    3.6610 C   0  0  0  0  0
  -20.8440    5.4100    3.7720 C   0  0  0  0  0
  -21.1360    4.7640    4.9550 C   0  0  0  0  0
  -21.4030    7.0700    5.9250 C   0  0  0  0  0
  -21.4500    5.6110    6.1420 C   0  0  0  0  0
  -21.7790    9.2270    7.2710 C   0  0  0  0  0
  -21.4800    9.9160    8.5330 N   0  3  0  0  0
  -21.5830   11.3490    8.2010 C   0  0  0  0  0
  -22.3880    9.6390    9.6770 C   0  0  0  0  0
  -21.0930    3.2340    5.0400 C   0  0  0  0  0
  -20.9820    2.5180    3.6780 C   0  0  0  0  0
  -19.6100    1.8560    3.4440 C   0  0  0  0  0
  -19.1270    0.9240    4.4870 O   0  0  0  0  0
  -22.1865    6.7594    9.2014 H   0  0  0  0  0
  -21.0925    8.7519    4.5873 H   0  0  0  0  0
  -20.5472    7.2370    2.6967 H   0  0  0  0  0
  -20.6287    4.8100    2.8878 H   0  0  0  0  0
  -22.8209    9.4714    7.0639 H   0  0  0  0  0
  -21.0005    9.5596    6.5844 H   0  0  0  0  0
  -20.5694    9.5903    8.8573 H   0  0  0  0  0
  -20.8609   11.5929    7.4218 H   0  0  0  0  0
  -22.5902   11.5669    7.8458 H   0  0  0  0  0
  -21.3738   11.9427    9.0908 H   0  0  0  0  0
  -23.4038    9.9327    9.4124 H   0  0  0  0  0
  -22.3648    8.5740    9.9080 H   0  0  0  0  0
  -22.0588   10.2079   10.5465 H   0  0  0  0  0
  -22.0318    2.9140    5.4921 H   0  0  0  0  0
  -20.2021    2.9720    5.6107 H   0  0  0  0  0
  -21.1214    3.2686    2.9001 H   0  0  0  0  0
  -21.7345    1.7297    3.6591 H   0  0  0  0  0
  -18.8872    2.6714    3.4157 H   0  0  0  0  0
  -19.7183    1.2590    2.5385 H   0  0  0  0  0
  -18.2688    0.5773    4.2322 H   0  0  0  0  0
  2  1  4  0  0  0
  1  3  4  0  0  0
  8  2  4  0  0  0
  2 10  1  0  0  0
  3  9  4  0  0  0
  4  5  4  0  0  0
  4  8  4  0  0  0
  5  6  4  0  0  0
  6  7  4  0  0  0
  7  9  4  0  0  0
  7 14  1  0  0  0
  8  9  4  0  0  0
 10 11  1  0  0  0
 11 12  1  0  0  0
 11 13  1  0  0  0
 14 15  1  0  0  0
 15 16  1  0  0  0
 16 17  1  0  0  0
  1 18  1  0  0  0
  4 19  1  0  0  0
  5 20  1  0  0  0
  6 21  1  0  0  0
 10 22  1  0  0  0
 10 23  1  0  0  0
 11 24  1  0  0  0
 12 25  1  0  0  0
 12 26  1  0  0  0
 12 27  1  0  0  0
 13 28  1  0  0  0
 13 29  1  0  0  0
 13 30  1  0  0  0
 14 31  1  0  0  0
 14 32  1  0  0  0
 15 33  1  0  0  0
 15 34  1  0  0  0
 16 35  1  0  0  0
 16 36  1  0  0  0
 17 37  1  0  0  0
M  END
$$$$
