5mgm_ligand
  -I-interpret- 

 26 27  0  0  0  0  0  0  0  0999 V2000
 -102.3690   45.8900   29.1340 C   0  0  0  0  0
 -103.3590   45.6180   28.1650 C   0  0  0  0  0
 -103.4320   43.4120   28.9230 C   0  0  0  0  0
 -101.9440   44.8460   29.9790 C   0  0  0  0  0
 -108.5530   44.7240   29.2320 C   0  0  0  0  0
 -108.7840   43.4100   28.5130 C   0  0  0  0  0
 -109.9160   43.1020   28.1910 O   0  0  0  0  0
 -107.6220   42.4810   28.1930 C   0  0  0  0  0
 -106.3390   42.7440   28.6810 C   0  0  0  0  0
 -105.2770   41.8900   28.3730 C   0  0  0  0  0
 -105.5130   40.7620   27.5950 C   0  0  0  0  0
 -106.7880   40.4920   27.1110 C   0  0  0  0  0
 -107.8410   41.3500   27.4090 C   0  0  0  0  0
 -103.9530   42.0910   28.8430 O   0  0  0  0  0
 -103.8530   44.3670   28.0970 N   0  0  0  0  0
 -102.4950   43.6250   29.8420 N   0  0  0  0  0
 -101.9417   46.8885   29.2266 H   0  0  0  0  0
 -103.7134   46.3981   27.4912 H   0  0  0  0  0
 -101.1786   45.0244   30.7343 H   0  0  0  0  0
 -108.8903   45.5462   28.6009 H   0  0  0  0  0
 -109.1133   44.7285   30.1670 H   0  0  0  0  0
 -107.4899   44.8390   29.4434 H   0  0  0  0  0
 -106.1659   43.6204   29.3055 H   0  0  0  0  0
 -104.6918   40.0840   27.3627 H   0  0  0  0  0
 -106.9623   39.6078   26.4979 H   0  0  0  0  0
 -108.8400   41.1373   27.0284 H   0  0  0  0  0
  2  1  4  0  0  0
  4  1  4  0  0  0
 15  2  4  0  0  0
 14  3  1  0  0  0
  3 15  4  0  0  0
  3 16  4  0  0  0
 16  4  4  0  0  0
  6  5  1  0  0  0
  6  7  2  0  0  0
  8  6  1  0  0  0
  9  8  4  0  0  0
  8 13  4  0  0  0
 10  9  4  0  0  0
 10 11  4  0  0  0
 10 14  1  0  0  0
 11 12  4  0  0  0
 12 13  4  0  0  0
  1 17  1  0  0  0
  2 18  1  0  0  0
  4 19  1  0  0  0
  5 20  1  0  0  0
  5 21  1  0  0  0
  5 22  1  0  0  0
  9 23  1  0  0  0
 11 24  1  0  0  0
 12 25  1  0  0  0
 13 26  1  0  0  0
M  END
$$$$
