### 
### Created by X-TOOL on Mon Sep 10 21:13:34 2018
### 

@<TRIPOS>MOLECULE
5mgm_ligand
   26    27     1     0     0
SMALL
GAST_HUCK


@<TRIPOS>ATOM
      1 C14      -102.3690   45.8900   29.1340 C.ar      1 7MZ        -0.0198
      2 C13      -103.3590   45.6180   28.1650 C.ar      1 7MZ         0.0191
      3 C11      -103.4320   43.4120   28.9230 C.ar      1 7MZ         0.2734
      4 C15      -101.9440   44.8460   29.9790 C.ar      1 7MZ         0.0191
      5 C01      -108.5530   44.7240   29.2320 C.3       1 7MZ         0.0107
      6 C02      -108.7840   43.4100   28.5130 C.2       1 7MZ         0.1276
      7 O03      -109.9160   43.1020   28.1910 O.2       1 7MZ        -0.3787
      8 C04      -107.6220   42.4810   28.1930 C.ar      1 7MZ         0.0252
      9 C05      -106.3390   42.7440   28.6810 C.ar      1 7MZ        -0.0082
     10 C06      -105.2770   41.8900   28.3730 C.ar      1 7MZ         0.1315
     11 C07      -105.5130   40.7620   27.5950 C.ar      1 7MZ        -0.0222
     12 C08      -106.7880   40.4920   27.1110 C.ar      1 7MZ        -0.0630
     13 C09      -107.8410   41.3500   27.4090 C.ar      1 7MZ        -0.0529
     14 O10      -103.9530   42.0910   28.8430 O.3       1 7MZ        -0.2131
     15 N12      -103.8530   44.3670   28.0970 N.ar      1 7MZ        -0.2370
     16 N16      -102.4950   43.6250   29.8420 N.ar      1 7MZ        -0.2370
     17 H1       -101.9441   46.8830   29.2261 H         1 7MZ         0.0687
     18 H2       -103.7114   46.3938   27.4949 H         1 7MZ         0.0909
     19 H3       -101.1829   45.0234   30.7302 H         1 7MZ         0.0909
     20 H4       -107.4804   44.8412   29.4459 H         1 7MZ         0.0450
     21 H5       -109.1179   44.7298   30.1759 H         1 7MZ         0.0450
     22 H6       -108.8929   45.5547   28.5961 H         1 7MZ         0.0450
     23 H7       -106.1669   43.6156   29.3021 H         1 7MZ         0.0611
     24 H8       -104.6963   40.0877   27.3640 H         1 7MZ         0.0596
     25 H9       -106.9613   39.6126   26.5013 H         1 7MZ         0.0604
     26 H10      -108.8345   41.1385   27.0305 H         1 7MZ         0.0587
@<TRIPOS>BOND
     1    2    1 ar 
     2    4    1 ar 
     3   15    2 ar 
     4   14    3 1  
     5    3   15 ar 
     6    3   16 ar 
     7   16    4 ar 
     8    6    5 1  
     9    6    7 2  
    10    8    6 1  
    11    9    8 ar 
    12    8   13 ar 
    13   10    9 ar 
    14   10   11 ar 
    15   10   14 1  
    16   11   12 ar 
    17   12   13 ar 
    18    1   17 1  
    19    2   18 1  
    20    4   19 1  
    21    5   20 1  
    22    5   21 1  
    23    5   22 1  
    24    9   23 1  
    25   11   24 1  
    26   12   25 1  
    27   13   26 1  
@<TRIPOS>SUBSTRUCTURE
     1 7MZ         1

