2yol_ligand
  -I-interpret- 

 89 90  0  0  0  0  0  0  0  0999 V2000
   48.4550  -27.4740  -22.8560 C   0  0  0  0  0
   49.4530  -27.2750  -23.5530 O   0  0  0  0  0
   47.9490  -28.8910  -22.5440 C   0  0  0  0  0
   48.9590  -29.7240  -22.1240 C   0  0  0  0  0
   49.6000  -30.5250  -23.0560 C   0  0  0  0  0
   50.6110  -31.3620  -22.6450 C   0  0  0  0  0
   50.9490  -31.3800  -21.3010 C   0  0  0  0  0
   52.1810  -32.4110  -20.7790 Cl  0  0  0  0  0
   50.3020  -30.5800  -20.3640 C   0  0  0  0  0
   50.7780  -30.6360  -18.6420 Cl  0  0  0  0  0
   49.2880  -29.7410  -20.7790 C   0  0  0  0  0
   47.6890  -26.5150  -22.3170 N   0  0  0  0  0
   47.9550  -25.0900  -22.5340 C   0  0  0  0  0
   48.6700  -24.4530  -21.3020 C   0  0  0  0  0
   49.3260  -23.4070  -21.4350 O   0  0  0  0  0
   46.6440  -24.3810  -22.9750 C   0  0  0  0  0
   45.3440  -25.0310  -22.4370 C   0  0  0  0  0
   44.4680  -25.5930  -23.5870 C   0  0  0  0  0
   43.9060  -24.4880  -24.5140 C   0  0  0  0  0
   42.5750  -24.0260  -24.0850 N   0  3  0  0  0
   48.5350  -25.1480  -20.1400 N   0  0  0  0  0
   49.2050  -24.7630  -18.8790 C   0  0  0  0  0
   50.4260  -25.6920  -18.7360 C   0  0  0  0  0
   50.3080  -26.8530  -18.3420 O   0  0  0  0  0
   48.2430  -24.8060  -17.6990 C   0  0  0  0  0
   47.2490  -23.6700  -17.9330 C   0  0  0  0  0
   46.3880  -23.4620  -16.6990 C   0  0  0  0  0
   45.8020  -22.0600  -16.7310 C   0  0  0  0  0
   45.7600  -21.4860  -15.3730 N   0  3  0  0  0
   53.9240  -25.9020  -22.9520 C   0  0  0  0  0
   53.6540  -27.3640  -23.1960 C   0  0  0  0  0
   53.6510  -27.6870  -24.6470 N   0  0  0  0  0
   52.6610  -28.1490  -25.4670 C   0  0  0  0  0
   52.9600  -28.4530  -26.7390 N   0  0  0  0  0
   51.3920  -28.3180  -25.0540 N   0  0  0  0  0
   52.3910  -27.7720  -22.4550 C   0  0  0  0  0
   52.6140  -27.5530  -20.9650 C   0  0  0  0  0
   52.8480  -26.0930  -20.7450 C   0  0  0  0  0
   54.1110  -25.6920  -21.4370 C   0  0  0  0  0
   52.8760  -25.8000  -19.2640 C   0  0  0  0  0
   51.5840  -25.1280  -19.1480 N   0  0  0  0  0
   47.5244  -29.3076  -23.4574 H   0  0  0  0  0
   47.2140  -28.8191  -21.7423 H   0  0  0  0  0
   49.3056  -30.4919  -24.1050 H   0  0  0  0  0
   51.1345  -31.9967  -23.3600 H   0  0  0  0  0
   48.7595  -29.1079  -20.0663 H   0  0  0  0  0
   46.8950  -26.7858  -21.7368 H   0  0  0  0  0
   48.6634  -24.9552  -23.3514 H   0  0  0  0  0
   46.6017  -24.4399  -24.0626 H   0  0  0  0  0
   46.6812  -23.3677  -22.5751 H   0  0  0  0  0
   44.7711  -24.2689  -21.9088 H   0  0  0  0  0
   45.6182  -25.8553  -21.7787 H   0  0  0  0  0
   43.6214  -26.1114  -23.1369 H   0  0  0  0  0
   45.0947  -26.2477  -24.1926 H   0  0  0  0  0
   43.8140  -24.9020  -25.5181 H   0  0  0  0  0
   44.5873  -23.6379  -24.4801 H   0  0  0  0  0
   42.2462  -23.3011  -24.7228 H   0  0  0  0  0
   41.9240  -24.8112  -24.0961 H   0  0  0  0  0
   42.6363  -23.6469  -23.1401 H   0  0  0  0  0
   47.9411  -25.9773  -20.1386 H   0  0  0  0  0
   49.5445  -23.7274  -18.8963 H   0  0  0  0  0
   48.7698  -24.6841  -16.7525 H   0  0  0  0  0
   47.7371  -25.7693  -17.6340 H   0  0  0  0  0
   46.6074  -23.9260  -18.7761 H   0  0  0  0  0
   47.7992  -22.7526  -18.1423 H   0  0  0  0  0
   46.9964  -23.5844  -15.8029 H   0  0  0  0  0
   45.5821  -24.1958  -16.6867 H   0  0  0  0  0
   44.7872  -22.1095  -17.1259 H   0  0  0  0  0
   46.4275  -21.4293  -17.3627 H   0  0  0  0  0
   45.3645  -20.5467  -15.4143 H   0  0  0  0  0
   45.1804  -22.0742  -14.7743 H   0  0  0  0  0
   46.7062  -21.4415  -14.9946 H   0  0  0  0  0
   53.0887  -25.3018  -23.3128 H   0  0  0  0  0
   54.8224  -25.5930  -23.4864 H   0  0  0  0  0
   54.4665  -27.9665  -22.7899 H   0  0  0  0  0
   54.5462  -27.5372  -25.1125 H   0  0  0  0  0
   53.9144  -28.3379  -27.0801 H   0  0  0  0  0
   50.6871  -28.6688  -25.7024 H   0  0  0  0  0
   51.1347  -28.0953  -24.0924 H   0  0  0  0  0
   52.1687  -28.8215  -22.6479 H   0  0  0  0  0
   51.5480  -27.1719  -22.7975 H   0  0  0  0  0
   53.4742  -28.1288  -20.6235 H   0  0  0  0  0
   51.7429  -27.8850  -20.4002 H   0  0  0  0  0
   52.0366  -25.5026  -21.1706 H   0  0  0  0  0
   54.3330  -24.6450  -21.2304 H   0  0  0  0  0
   54.9422  -26.2980  -21.0765 H   0  0  0  0  0
   53.7325  -25.2182  -18.9234 H   0  0  0  0  0
   53.0036  -26.6716  -18.6221 H   0  0  0  0  0
   51.5524  -24.1405  -19.4016 H   0  0  0  0  0
  1  2  2  0  0  0
  1  3  1  0  0  0
 12  1  1  0  0  0
  3  4  1  0  0  0
  4  5  4  0  0  0
  4 11  4  0  0  0
  5  6  4  0  0  0
  6  7  4  0  0  0
  7  8  1  0  0  0
  9  7  4  0  0  0
  9 10  1  0  0  0
 11  9  4  0  0  0
 13 12  1  0  0  0
 14 13  1  0  0  0
 13 16  1  0  0  0
 14 15  2  0  0  0
 21 14  1  0  0  0
 16 17  1  0  0  0
 17 18  1  0  0  0
 18 19  1  0  0  0
 19 20  1  0  0  0
 22 21  1  0  0  0
 23 22  1  0  0  0
 22 25  1  0  0  0
 23 24  2  0  0  0
 41 23  1  0  0  0
 25 26  1  0  0  0
 26 27  1  0  0  0
 27 28  1  0  0  0
 28 29  1  0  0  0
 30 31  1  0  0  0
 39 30  1  0  0  0
 31 32  1  0  0  0
 36 31  1  0  0  0
 32 33  1  0  0  0
 33 34  2  0  0  0
 33 35  1  0  0  0
 37 36  1  0  0  0
 38 37  1  0  0  0
 38 39  1  0  0  0
 40 38  1  0  0  0
 40 41  1  0  0  0
  3 42  1  0  0  0
  3 43  1  0  0  0
  5 44  1  0  0  0
  6 45  1  0  0  0
 11 46  1  0  0  0
 12 47  1  0  0  0
 13 48  1  0  0  0
 16 49  1  0  0  0
 16 50  1  0  0  0
 17 51  1  0  0  0
 17 52  1  0  0  0
 18 53  1  0  0  0
 18 54  1  0  0  0
 19 55  1  0  0  0
 19 56  1  0  0  0
 20 57  1  0  0  0
 20 58  1  0  0  0
 20 59  1  0  0  0
 21 60  1  0  0  0
 22 61  1  0  0  0
 25 62  1  0  0  0
 25 63  1  0  0  0
 26 64  1  0  0  0
 26 65  1  0  0  0
 27 66  1  0  0  0
 27 67  1  0  0  0
 28 68  1  0  0  0
 28 69  1  0  0  0
 29 70  1  0  0  0
 29 71  1  0  0  0
 29 72  1  0  0  0
 30 73  1  0  0  0
 30 74  1  0  0  0
 31 75  1  0  0  0
 32 76  1  0  0  0
 34 77  1  0  0  0
 35 78  1  0  0  0
 35 79  1  0  0  0
 36 80  1  0  0  0
 36 81  1  0  0  0
 37 82  1  0  0  0
 37 83  1  0  0  0
 38 84  1  0  0  0
 39 85  1  0  0  0
 39 86  1  0  0  0
 40 87  1  0  0  0
 40 88  1  0  0  0
 41 89  1  0  0  0
M  END
$$$$
