2xej_ligand
  -I-interpret- 

 82 82  0  0  0  0  0  0  0  0999 V2000
   28.5360   62.2460   40.7690 C   0  0  0  0  0
   29.0310   61.8880   39.4610 O   0  0  0  0  0
   28.5600   60.5670   39.0970 C   0  0  0  0  0
   29.7120   59.7380   38.5070 C   0  0  0  0  0
   29.3250   58.3530   38.3020 O   0  0  0  0  0
   29.9960   57.4640   39.2290 C   0  0  0  0  0
   29.1110   57.0170   40.4130 C   0  0  0  0  0
   27.6640   57.0300   40.1680 O   0  0  0  0  0
   27.1750   55.6770   40.0090 C   0  0  0  0  0
   26.5950   55.0780   41.2950 C   0  0  0  0  0
   26.5170   53.6570   41.0790 O   0  0  0  0  0
   25.2770   53.2050   41.7720 C   0  0  0  0  0
   25.6130   51.7300   41.4260 C   0  0  0  0  0
   25.2830   51.2830   40.0310 O   0  0  0  0  0
   25.9460   49.9750   39.5960 C   0  0  0  0  0
   25.5110   48.6570   39.9510 C   0  0  0  0  0
   25.0760   48.3000   41.1660 C   0  0  0  0  0
   25.4630   47.5540   39.1750 N   0  0  0  0  0
   25.0300   46.6100   39.8780 N   0  0  0  0  0
   24.7780   47.0030   41.0380 N   0  0  0  0  0
   24.2730   46.1940   42.1920 C   0  0  0  0  0
   22.8500   45.7190   41.9930 C   0  0  0  0  0
   22.2330   45.2740   43.3600 C   0  0  0  0  0
   20.7290   45.6430   43.3010 C   0  0  0  0  0
   19.8660   44.9500   44.3800 C   0  0  0  0  0
   20.1240   45.6530   45.7320 C   0  0  0  0  0
   20.7800   44.9820   46.5610 O   0  0  0  0  0
   19.5350   46.7260   45.9510 O   0  0  0  0  0
   18.5110   45.2280   43.9040 N   0  0  0  0  0
   17.8820   44.4800   43.0190 C   0  0  0  0  0
   18.3540   43.4410   42.5700 O   0  0  0  0  0
   16.6270   44.8180   42.7210 N   0  0  0  0  0
   16.0080   44.2380   41.5470 C   0  0  0  0  0
   16.9940   44.4600   40.3680 C   0  0  0  0  0
   16.8500   43.6860   39.3980 O   0  0  0  0  0
   17.8880   45.3620   40.4300 O   0  0  0  0  0
   14.6910   44.9800   41.1240 C   0  0  0  0  0
   14.8820   46.5380   41.1420 C   0  0  0  0  0
   13.7560   47.3390   40.4280 C   0  0  0  0  0
   13.7050   48.5650   40.6570 O   0  0  0  0  0
   12.9430   46.7190   39.7060 O   0  0  0  0  0
   27.4461   62.2441   40.7566 H   0  0  0  0  0
   28.8935   61.5227   41.5019 H   0  0  0  0  0
   28.8960   63.2405   41.0326 H   0  0  0  0  0
   27.7702   60.6621   38.3519 H   0  0  0  0  0
   28.1785   60.0660   39.9867 H   0  0  0  0  0
   30.5469   59.7619   39.2074 H   0  0  0  0  0
   29.9845   60.1655   37.5421 H   0  0  0  0  0
   30.8451   58.0070   39.6441 H   0  0  0  0  0
   30.2763   56.5678   38.6755 H   0  0  0  0  0
   29.2934   57.7272   41.2195 H   0  0  0  0  0
   29.3786   55.9817   40.6241 H   0  0  0  0  0
   28.0210   55.0568   39.7126 H   0  0  0  0  0
   26.3733   55.7043   39.2710 H   0  0  0  0  0
   25.6124   55.4959   41.5139 H   0  0  0  0  0
   27.2242   55.3101   42.1543 H   0  0  0  0  0
   24.3121   53.6233   41.4854 H   0  0  0  0  0
   25.0992   53.4922   42.8083 H   0  0  0  0  0
   25.0078   51.1160   42.0930 H   0  0  0  0  0
   26.6938   51.6324   41.5286 H   0  0  0  0  0
   26.9140   50.0355   40.0934 H   0  0  0  0  0
   25.7814   49.9852   38.5185 H   0  0  0  0  0
   24.9856   48.9237   42.0553 H   0  0  0  0  0
   24.2939   46.8268   43.0793 H   0  0  0  0  0
   24.9094   45.3143   42.2883 H   0  0  0  0  0
   22.8493   44.8709   41.3083 H   0  0  0  0  0
   22.2556   46.5350   41.5820 H   0  0  0  0  0
   22.7263   45.7741   44.1934 H   0  0  0  0  0
   22.3676   44.2043   43.5205 H   0  0  0  0  0
   20.3549   45.3169   42.3305 H   0  0  0  0  0
   20.6538   46.7173   43.4691 H   0  0  0  0  0
   20.0614   43.8874   44.5245 H   0  0  0  0  0
   21.1299   44.1981   46.1312 H   0  0  0  0  0
   18.0267   46.0446   44.2769 H   0  0  0  0  0
   16.1122   45.4732   43.3092 H   0  0  0  0  0
   15.7790   43.1961   41.7707 H   0  0  0  0  0
   17.8094   45.8321   41.2633 H   0  0  0  0  0
   13.9037   44.7191   41.8312 H   0  0  0  0  0
   14.4311   44.6743   40.1105 H   0  0  0  0  0
   15.8090   46.7502   40.6094 H   0  0  0  0  0
   14.8767   46.8463   42.1875 H   0  0  0  0  0
   13.1843   45.7902   39.6790 H   0  0  0  0  0
  1  2  1  0  0  0
  2  3  1  0  0  0
  3  4  1  0  0  0
  4  5  1  0  0  0
  5  6  1  0  0  0
  6  7  1  0  0  0
  7  8  1  0  0  0
  8  9  1  0  0  0
  9 10  1  0  0  0
 10 11  1  0  0  0
 11 12  1  0  0  0
 12 13  1  0  0  0
 13 14  1  0  0  0
 14 15  1  0  0  0
 15 16  1  0  0  0
 16 17  4  0  0  0
 16 18  4  0  0  0
 17 20  4  0  0  0
 18 19  4  0  0  0
 19 20  4  0  0  0
 20 21  1  0  0  0
 21 22  1  0  0  0
 22 23  1  0  0  0
 23 24  1  0  0  0
 24 25  1  0  0  0
 25 26  1  0  0  0
 25 29  1  0  0  0
 26 27  1  0  0  0
 26 28  2  0  0  0
 29 30  1  0  0  0
 30 31  2  0  0  0
 30 32  1  0  0  0
 32 33  1  0  0  0
 33 34  1  0  0  0
 33 37  1  0  0  0
 34 35  2  0  0  0
 34 36  1  0  0  0
 37 38  1  0  0  0
 38 39  1  0  0  0
 39 40  2  0  0  0
 39 41  1  0  0  0
  1 42  1  0  0  0
  1 43  1  0  0  0
  1 44  1  0  0  0
  3 45  1  0  0  0
  3 46  1  0  0  0
  4 47  1  0  0  0
  4 48  1  0  0  0
  6 49  1  0  0  0
  6 50  1  0  0  0
  7 51  1  0  0  0
  7 52  1  0  0  0
  9 53  1  0  0  0
  9 54  1  0  0  0
 10 55  1  0  0  0
 10 56  1  0  0  0
 12 57  1  0  0  0
 12 58  1  0  0  0
 13 59  1  0  0  0
 13 60  1  0  0  0
 15 61  1  0  0  0
 15 62  1  0  0  0
 17 63  1  0  0  0
 21 64  1  0  0  0
 21 65  1  0  0  0
 22 66  1  0  0  0
 22 67  1  0  0  0
 23 68  1  0  0  0
 23 69  1  0  0  0
 24 70  1  0  0  0
 24 71  1  0  0  0
 25 72  1  0  0  0
 27 73  1  0  0  0
 29 74  1  0  0  0
 32 75  1  0  0  0
 33 76  1  0  0  0
 36 77  1  0  0  0
 37 78  1  0  0  0
 37 79  1  0  0  0
 38 80  1  0  0  0
 38 81  1  0  0  0
 41 82  1  0  0  0
M  END
$$$$
