### 
### Created by X-TOOL on Fri Nov 18 12:22:55 2016
### 

@<TRIPOS>MOLECULE
1d04_ligand
   52    54     1     0     0
SMALL
GAST_HUCK


@<TRIPOS>ATOM
      1 N1         14.6740   21.7790   42.4200 N.am      1 FMN        -0.1875
      2 C2         15.6310   21.7810   43.3890 C.2       1 FMN         0.3206
      3 O2         16.8250   21.9320   43.1180 O.2       1 FMN        -0.3857
      4 N3         15.2880   21.5750   44.7100 N.am      1 FMN        -0.1901
      5 C4         14.0120   21.3230   45.1340 C.2       1 FMN         0.1976
      6 O4         13.8260   21.1300   46.3110 O.2       1 FMN        -0.4219
      7 C4A        12.9370   21.3070   44.1050 C.2       1 FMN         0.1340
      8 N5         11.6560   21.1590   44.4620 N.pl3     1 FMN        -0.3171
      9 C5A        10.7070   21.3060   43.4300 C.ar      1 FMN         0.0554
     10 C6          9.2960   21.3350   43.7590 C.ar      1 FMN        -0.0584
     11 C7          8.3460   21.5380   42.7580 C.ar      1 FMN        -0.0699
     12 C7M         6.8790   21.6480   43.1230 C.3       1 FMN        -0.0427
     13 C8          8.7560   21.6410   41.3850 C.ar      1 FMN        -0.0696
     14 C8M         7.7710   21.8300   40.2600 C.3       1 FMN        -0.0433
     15 C9         10.1120   21.5770   41.0430 C.ar      1 FMN        -0.0557
     16 C9A        11.0780   21.4560   42.0480 C.ar      1 FMN         0.0731
     17 N10        12.4480   21.5720   41.7440 N.pl3     1 FMN        -0.2416
     18 C10        13.4030   21.5370   42.7430 C.2       1 FMN         0.1907
     19 C1         12.8330   21.8060   40.3510 C.3       1 FMN         0.0728
     20 C2         12.9400   20.5440   39.4910 C.3       1 FMN         0.1065
     21 O2         13.9430   19.6090   39.9100 O.3       1 FMN        -0.3868
     22 C3         13.1680   20.9270   38.0380 C.3       1 FMN         0.1114
     23 O3         11.9670   21.4910   37.4900 O.3       1 FMN        -0.3865
     24 C4         13.6730   19.7980   37.1330 C.3       1 FMN         0.1111
     25 O4         13.8540   20.2940   35.8030 O.3       1 FMN        -0.3865
     26 C5         12.6970   18.6190   37.1290 C.3       1 FMN         0.1068
     27 O5         13.2770   17.5680   36.3330 O.3       1 FMN        -0.2734
     28 P          12.4110   16.3010   35.8010 P.3       1 FMN         0.2008
     29 O1P        11.7380   16.5970   34.5480 O.co2     1 FMN        -0.5537
     30 O2P        11.7220   15.6180   36.9150 O.co2     1 FMN        -0.5537
     31 O3P        13.6180   15.4110   35.3340 O.co2     1 FMN        -0.5537
     32 H1         14.9238   21.9586   41.4685 H         1 FMN         0.2371
     33 H2         16.0140   21.6121   45.3967 H         1 FMN         0.2244
     34 H3         11.3800   20.9503   45.4321 H         1 FMN         0.1796
     35 H4          8.9778   21.1985   44.7862 H         1 FMN         0.0381
     36 H5          6.7634   21.5451   44.2121 H         1 FMN         0.0352
     37 H6          6.3146   20.8506   42.6175 H         1 FMN         0.0352
     38 H7          6.4944   22.6281   42.8045 H         1 FMN         0.0352
     39 H8          8.3121   21.8815   39.3037 H         1 FMN         0.0348
     40 H9          7.2116   22.7643   40.4155 H         1 FMN         0.0348
     41 H10         7.0705   20.9822   40.2397 H         1 FMN         0.0348
     42 H11        10.4128   21.6211   40.0025 H         1 FMN         0.0398
     43 H12        13.8126   22.3064   40.3467 H         1 FMN         0.0584
     44 H13        12.0814   22.4673   39.8952 H         1 FMN         0.0584
     45 H14        11.9713   20.0271   39.5580 H         1 FMN         0.0643
     46 H15        13.7554   19.3207   40.7955 H         1 FMN         0.2100
     47 H16        13.9418   21.7087   38.0327 H         1 FMN         0.0647
     48 H17        12.1155   21.7283   36.5822 H         1 FMN         0.2100
     49 H18        14.6428   19.4475   37.5159 H         1 FMN         0.0646
     50 H19        13.0249   20.6182   35.4716 H         1 FMN         0.2100
     51 H20        11.7360   18.9306   36.6939 H         1 FMN         0.0639
     52 H21        12.5358   18.2635   38.1574 H         1 FMN         0.0639
@<TRIPOS>BOND
     1    1    2 am 
     2    1   18 am 
     3    2    3 2  
     4    2    4 am 
     5    4    5 am 
     6    5    6 2  
     7    5    7 1  
     8    7    8 1  
     9    7   18 2  
    10    8    9 1  
    11    9   10 ar 
    12    9   16 ar 
    13   10   11 ar 
    14   11   12 1  
    15   11   13 ar 
    16   13   14 1  
    17   13   15 ar 
    18   15   16 ar 
    19   16   17 1  
    20   17   18 1  
    21   17   19 1  
    22   19   20 1  
    23   20   21 1  
    24   20   22 1  
    25   22   23 1  
    26   22   24 1  
    27   24   25 1  
    28   24   26 1  
    29   26   27 1  
    30   27   28 1  
    31   28   29 ar 
    32   28   30 ar 
    33   28   31 ar 
    34    1   32 1  
    35    4   33 1  
    36    8   34 1  
    37   10   35 1  
    38   12   36 1  
    39   12   37 1  
    40   12   38 1  
    41   14   39 1  
    42   14   40 1  
    43   14   41 1  
    44   15   42 1  
    45   19   43 1  
    46   19   44 1  
    47   20   45 1  
    48   21   46 1  
    49   22   47 1  
    50   23   48 1  
    51   24   49 1  
    52   25   50 1  
    53   26   51 1  
    54   26   52 1  
@<TRIPOS>SUBSTRUCTURE
     1 FMN         1

