1d04_ligand
  -I-interpret- 

 54 56  0  0  0  0  0  0  0  0999 V2000
   14.6740   21.7790   42.4200 N   0  0  0  0  0
   15.6310   21.7810   43.3890 C   0  0  0  0  0
   16.8250   21.9320   43.1180 O   0  0  0  0  0
   15.2880   21.5750   44.7100 N   0  0  0  0  0
   14.0120   21.3230   45.1340 C   0  0  0  0  0
   13.8260   21.1300   46.3110 O   0  0  0  0  0
   12.9370   21.3070   44.1050 C   0  0  0  0  0
   11.6560   21.1590   44.4620 N   0  0  0  0  0
   10.7070   21.3060   43.4300 C   0  0  0  0  0
    9.2960   21.3350   43.7590 C   0  0  0  0  0
    8.3460   21.5380   42.7580 C   0  0  0  0  0
    6.8790   21.6480   43.1230 C   0  0  0  0  0
    8.7560   21.6410   41.3850 C   0  0  0  0  0
    7.7710   21.8300   40.2600 C   0  0  0  0  0
   10.1120   21.5770   41.0430 C   0  0  0  0  0
   11.0780   21.4560   42.0480 C   0  0  0  0  0
   12.4480   21.5720   41.7440 N   0  0  0  0  0
   13.4030   21.5370   42.7430 C   0  0  0  0  0
   12.8330   21.8060   40.3510 C   0  0  0  0  0
   12.9400   20.5440   39.4910 C   0  0  0  0  0
   13.9430   19.6090   39.9100 O   0  0  0  0  0
   13.1680   20.9270   38.0380 C   0  0  0  0  0
   11.9670   21.4910   37.4900 O   0  0  0  0  0
   13.6730   19.7980   37.1330 C   0  0  0  0  0
   13.8540   20.2940   35.8030 O   0  0  0  0  0
   12.6970   18.6190   37.1290 C   0  0  0  0  0
   13.2770   17.5680   36.3330 O   0  0  0  0  0
   12.4110   16.3010   35.8010 P   0  0  0  0  0
   11.7380   16.5970   34.5480 O   0  0  0  0  0
   11.7220   15.6180   36.9150 O   0  0  0  0  0
   13.6180   15.4110   35.3340 O   0  0  0  0  0
   14.9288   21.9622   41.4495 H   0  0  0  0  0
   16.0286   21.6128   45.4104 H   0  0  0  0  0
   11.3827   20.9523   45.4227 H   0  0  0  0  0
    8.9760   21.1978   44.7919 H   0  0  0  0  0
    6.5577   20.7285   43.6124 H   0  0  0  0  0
    6.7365   22.4903   43.8000 H   0  0  0  0  0
    6.2915   21.8040   42.2182 H   0  0  0  0  0
    7.0774   20.9893   40.2410 H   0  0  0  0  0
    7.2173   22.7560   40.4153 H   0  0  0  0  0
    8.3083   21.8809   39.3130 H   0  0  0  0  0
   10.4144   21.6213   39.9967 H   0  0  0  0  0
   13.8237   22.2601   40.3695 H   0  0  0  0  0
   12.0527   22.4247   39.9077 H   0  0  0  0  0
   11.9888   20.0264   39.6155 H   0  0  0  0  0
   13.9408   18.8527   39.3187 H   0  0  0  0  0
   13.9754   21.6590   38.0579 H   0  0  0  0  0
   12.1171   21.7308   36.5726 H   0  0  0  0  0
   14.6277   19.4426   37.5208 H   0  0  0  0  0
   14.1703   19.5848   35.2385 H   0  0  0  0  0
   11.7377   18.9241   36.7109 H   0  0  0  0  0
   12.5223   18.2697   38.1466 H   0  0  0  0  0
   12.3304   15.5139   37.6503 H   0  0  0  0  0
   14.1394   15.1544   36.0981 H   0  0  0  0  0
  1  2  1  0  0  0
  1 18  1  0  0  0
  2  3  2  0  0  0
  2  4  1  0  0  0
  4  5  1  0  0  0
  5  6  2  0  0  0
  5  7  1  0  0  0
  7  8  1  0  0  0
  7 18  2  0  0  0
  8  9  1  0  0  0
  9 10  4  0  0  0
  9 16  4  0  0  0
 10 11  4  0  0  0
 11 12  1  0  0  0
 11 13  4  0  0  0
 13 14  1  0  0  0
 13 15  4  0  0  0
 15 16  4  0  0  0
 16 17  1  0  0  0
 17 18  1  0  0  0
 17 19  1  0  0  0
 19 20  1  0  0  0
 20 21  1  0  0  0
 20 22  1  0  0  0
 22 23  1  0  0  0
 22 24  1  0  0  0
 24 25  1  0  0  0
 24 26  1  0  0  0
 26 27  1  0  0  0
 27 28  1  0  0  0
 28 29  2  0  0  0
 28 30  1  0  0  0
 28 31  1  0  0  0
  1 32  1  0  0  0
  4 33  1  0  0  0
  8 34  1  0  0  0
 10 35  1  0  0  0
 12 36  1  0  0  0
 12 37  1  0  0  0
 12 38  1  0  0  0
 14 39  1  0  0  0
 14 40  1  0  0  0
 14 41  1  0  0  0
 15 42  1  0  0  0
 19 43  1  0  0  0
 19 44  1  0  0  0
 20 45  1  0  0  0
 21 46  1  0  0  0
 22 47  1  0  0  0
 23 48  1  0  0  0
 24 49  1  0  0  0
 25 50  1  0  0  0
 26 51  1  0  0  0
 26 52  1  0  0  0
 30 53  1  0  0  0
 31 54  1  0  0  0
M  END
$$$$
