5j18_ligand
  -I-interpret- 

 58 59  0  0  0  0  0  0  0  0999 V2000
    3.3440   -7.7850    7.1550 C   0  0  0  0  0
    4.7230   -7.5930    7.3020 C   0  0  0  0  0
    5.6080   -7.9730    6.2890 C   0  0  0  0  0
    3.7220   -8.7140    4.9610 C   0  0  0  0  0
    2.8440   -8.3530    5.9760 C   0  0  0  0  0
    0.7280   -8.1600    6.9290 C   0  0  0  0  0
    5.3710   -9.3800    2.9750 C   0  0  0  0  0
    4.2740   -6.6170    9.3630 C   0  0  0  0  0
    7.7220   -7.4440    7.7150 C   0  0  0  0  0
    9.6380   -5.5710    6.6280 C   0  0  0  0  0
   11.6910   -5.4480    5.3870 C   0  0  0  0  0
   12.9900   -4.9640    5.2520 C   0  0  0  0  0
   13.5700   -4.2490    6.3030 C   0  0  0  0  0
   12.8630   -4.0340    7.4730 C   0  0  0  0  0
   15.4430   -3.9870    4.9840 C   0  0  0  0  0
   12.6640   -4.3510   10.4940 C   0  0  0  0  0
   13.4930   -5.2620   10.2740 O   0  0  0  0  0
    9.4330   -7.0850    7.6310 S   0  0  0  0  0
   10.9780   -5.2140    6.5600 C   0  0  0  0  0
   11.7010   -4.4150   11.2860 O   0  0  0  0  0
   10.0040   -6.8730    9.0440 O   0  0  0  0  0
    5.2710   -6.9800    8.3970 O   0  0  0  0  0
   14.8250   -3.7050    6.2440 O   0  0  0  0  0
   11.5650   -4.5140    7.6120 C   0  0  0  0  0
    6.9900   -7.7850    6.4100 C   0  0  0  0  0
    1.5010   -8.5740    5.7930 O   0  0  0  0  0
    5.0940   -8.5210    5.1180 C   0  0  0  0  0
   12.8480   -3.0400    9.7220 C   0  0  0  0  0
   10.1710   -8.2540    6.9560 O   0  0  0  0  0
   13.4800   -3.3400    8.4300 N   0  0  0  0  0
    6.0070   -8.8230    4.1390 O   0  0  0  0  0
    2.6625   -7.4939    7.9543 H   0  0  0  0  0
    3.3368   -9.1495    4.0390 H   0  0  0  0  0
    1.0487   -8.7188    7.8082 H   0  0  0  0  0
    0.8778   -7.0939    7.0998 H   0  0  0  0  0
   -0.3276   -8.3539    6.7388 H   0  0  0  0  0
    4.8470  -10.2949    3.2516 H   0  0  0  0  0
    4.6591   -8.6598    2.5719 H   0  0  0  0  0
    6.1267   -9.6059    2.2227 H   0  0  0  0  0
    3.5617   -5.9292    8.9072 H   0  0  0  0  0
    3.7519   -7.5130    9.6987 H   0  0  0  0  0
    4.7536   -6.1340   10.2143 H   0  0  0  0  0
    7.2530   -6.5295    8.0781 H   0  0  0  0  0
    7.6453   -8.3399    8.3311 H   0  0  0  0  0
    9.0772   -4.7593    7.0913 H   0  0  0  0  0
    9.2691   -5.7600    5.6199 H   0  0  0  0  0
   11.2321   -6.0104    4.5738 H   0  0  0  0  0
   13.5497   -5.1416    4.3337 H   0  0  0  0  0
   15.5208   -5.0662    4.8524 H   0  0  0  0  0
   14.8383   -3.5645    4.1815 H   0  0  0  0  0
   16.4388   -3.5443    4.9620 H   0  0  0  0  0
   14.1326   -4.9611    9.6244 H   0  0  0  0  0
   11.0119   -4.3441    8.5357 H   0  0  0  0  0
    7.1559   -6.8901    5.8102 H   0  0  0  0  0
    7.3802   -8.7757    6.1771 H   0  0  0  0  0
   13.4782   -2.3586   10.2935 H   0  0  0  0  0
   11.8798   -2.5663    9.5599 H   0  0  0  0  0
   14.4278   -3.0043    8.2584 H   0  0  0  0  0
  2  1  4  0  0  0
  1  5  4  0  0  0
  3  2  4  0  0  0
  2 22  1  0  0  0
 25  3  1  0  0  0
  3 27  4  0  0  0
  4  5  4  0  0  0
 27  4  4  0  0  0
  5 26  1  0  0  0
 26  6  1  0  0  0
 31  7  1  0  0  0
 22  8  1  0  0  0
 18  9  1  0  0  0
  9 25  1  0  0  0
 10 18  1  0  0  0
 19 10  1  0  0  0
 12 11  4  0  0  0
 19 11  4  0  0  0
 13 12  4  0  0  0
 14 13  4  0  0  0
 13 23  1  0  0  0
 14 24  4  0  0  0
 30 14  1  0  0  0
 23 15  1  0  0  0
 16 17  1  0  0  0
 16 20  2  0  0  0
 28 16  1  0  0  0
 18 21  2  0  0  0
 18 29  2  0  0  0
 24 19  4  0  0  0
 27 31  1  0  0  0
 28 30  1  0  0  0
  1 32  1  0  0  0
  4 33  1  0  0  0
  6 34  1  0  0  0
  6 35  1  0  0  0
  6 36  1  0  0  0
  7 37  1  0  0  0
  7 38  1  0  0  0
  7 39  1  0  0  0
  8 40  1  0  0  0
  8 41  1  0  0  0
  8 42  1  0  0  0
  9 43  1  0  0  0
  9 44  1  0  0  0
 10 45  1  0  0  0
 10 46  1  0  0  0
 11 47  1  0  0  0
 12 48  1  0  0  0
 15 49  1  0  0  0
 15 50  1  0  0  0
 15 51  1  0  0  0
 17 52  1  0  0  0
 24 53  1  0  0  0
 25 54  1  0  0  0
 25 55  1  0  0  0
 28 56  1  0  0  0
 28 57  1  0  0  0
 30 58  1  0  0  0
M  END
$$$$
