5jg1_ligand
  -I-interpret- 

 94 99  0  0  0  0  0  0  0  0999 V2000
   19.0540   22.8960   15.9010 O   0  0  0  0  0
   18.5000   24.6020   18.3620 C   0  0  0  0  0
   18.1710   23.9750   19.7340 C   0  0  0  0  0
   18.2160   22.4470   19.6470 C   0  0  0  0  0
   19.1660   24.4170   20.7990 C   0  0  0  0  0
   16.2560   24.8370   17.4660 C   0  0  0  0  0
   15.1360   23.8870   17.9580 C   0  0  0  0  0
   14.7430   22.7970   16.9640 C   0  0  0  0  0
   14.2260   20.6450   18.1180 C   0  0  0  0  0
   13.4780   18.7430   19.4000 C   0  0  0  0  0
   12.8780   18.7650   20.8040 C   0  0  0  0  0
   10.4640   18.7230   18.7100 O   0  0  0  0  0
   20.6900   27.6880   14.8260 C   0  0  0  0  0
   19.3680   27.6460   14.4240 C   0  0  0  0  0
   18.5850   26.5130   14.6490 C   0  0  0  0  0
   19.1380   25.4020   15.2770 C   0  0  0  0  0
   20.4570   25.4400   15.6310 C   0  0  0  0  0
   21.2900   26.5450   15.3470 C   0  0  0  0  0
   18.1650   24.0130   15.7790 S   0  0  0  0  0
   17.1050   23.9650   14.7720 O   0  0  0  0  0
   17.5160   24.1550   17.3220 N   0  0  0  0  0
   14.0090   24.7390   18.2360 O   0  0  0  0  0
   13.8300   21.8180   17.6230 N   0  0  0  0  0
   15.3650   20.1930   18.0280 O   0  0  0  0  0
   13.1980   19.9970   18.7780 O   0  0  0  0  0
   11.5080   18.4000   20.6830 O   0  0  0  0  0
   11.2670   17.7790   19.4410 C   0  0  0  0  0
   10.2080   18.2120   17.3650 C   0  0  0  0  0
   11.5430   18.3120   16.6730 C   0  0  0  0  0
   12.6340   17.5510   17.3410 C   0  0  0  0  0
   12.6450   17.6410   18.8100 C   0  0  0  0  0
   14.0190   23.2760   15.7180 C   0  0  0  0  0
   13.7360   22.2860   14.5840 C   0  0  0  0  0
   12.4310   21.5260   14.7900 C   0  0  0  0  0
   12.1730   20.6380   13.5740 C   0  0  0  0  0
   13.2640   19.5860   13.4280 C   0  0  0  0  0
   14.5730   20.3360   13.1970 C   0  0  0  0  0
   14.4560   21.1850   11.9280 C   0  0  0  0  0
   13.3280   22.2290   12.0750 C   0  0  0  0  0
   13.6240   23.1190   13.3120 C   0  0  0  0  0
   14.8570   21.2900   14.3510 C   0  0  0  0  0
   12.0140   21.4950   12.3250 C   0  0  0  0  0
   21.3170   28.8870   14.6580 O   0  0  0  0  0
   22.7210   28.8880   15.0220 C   0  0  0  0  0
   19.4982   24.2843   18.0608 H   0  0  0  0  0
   18.4491   25.6872   18.4504 H   0  0  0  0  0
   17.1713   24.3116   20.0087 H   0  0  0  0  0
   19.2229   22.1293   19.3764 H   0  0  0  0  0
   17.9467   22.0212   20.6136 H   0  0  0  0  0
   17.5103   22.1066   18.8893 H   0  0  0  0  0
   18.8899   23.9771   21.7573 H   0  0  0  0  0
   20.1661   24.0851   20.5201 H   0  0  0  0  0
   19.1516   25.5040   20.8791 H   0  0  0  0  0
   16.3795   25.6297   18.2038 H   0  0  0  0  0
   15.9669   25.2291   16.4909 H   0  0  0  0  0
   15.4918   23.3359   18.8285 H   0  0  0  0  0
   15.6957   22.3692   16.6519 H   0  0  0  0  0
   14.5543   18.5931   19.3144 H   0  0  0  0  0
   12.9730   19.7568   21.2461 H   0  0  0  0  0
   13.4042   18.0685   21.4568 H   0  0  0  0  0
   18.9309   28.5104   13.9241 H   0  0  0  0  0
   17.5419   26.4987   14.3331 H   0  0  0  0  0
   20.8835   24.5837   16.1533 H   0  0  0  0  0
   22.3639   26.5041   15.5292 H   0  0  0  0  0
   14.2699   25.4189   18.8615 H   0  0  0  0  0
   12.8423   22.0610   17.6995 H   0  0  0  0  0
   10.7681   16.8107   19.4809 H   0  0  0  0  0
    9.4332   18.7794   16.8493 H   0  0  0  0  0
    9.8262   17.1911   17.3780 H   0  0  0  0  0
   11.8319   19.3630   16.6811 H   0  0  0  0  0
   11.4208   17.8906   15.6752 H   0  0  0  0  0
   13.5746   17.9774   16.9923 H   0  0  0  0  0
   12.4842   16.5007   17.0909 H   0  0  0  0  0
   13.0969   16.6787   19.0505 H   0  0  0  0  0
   14.6856   24.0178   15.2782 H   0  0  0  0  0
   13.0341   23.5825   16.0704 H   0  0  0  0  0
   11.6097   22.2327   14.9090 H   0  0  0  0  0
   12.5031   20.9094   15.6859 H   0  0  0  0  0
   11.2383   20.0959   13.7176 H   0  0  0  0  0
   13.0484   18.9177   12.5944 H   0  0  0  0  0
   13.3258   18.9656   14.3221 H   0  0  0  0  0
   15.3721   19.5996   13.1116 H   0  0  0  0  0
   14.2255   20.5321   11.0862 H   0  0  0  0  0
   15.3995   21.7052   11.7628 H   0  0  0  0  0
   13.2654   22.8376   11.1729 H   0  0  0  0  0
   14.5720   23.6319   13.1500 H   0  0  0  0  0
   12.8037   23.8265   13.4331 H   0  0  0  0  0
   14.9657   20.6935   15.2568 H   0  0  0  0  0
   15.7566   21.8535   14.1032 H   0  0  0  0  0
   11.2062   22.2132   12.4655 H   0  0  0  0  0
   11.7693   20.8658   11.4693 H   0  0  0  0  0
   22.8225   28.6212   16.0740 H   0  0  0  0  0
   23.2546   28.1619   14.4086 H   0  0  0  0  0
   23.1374   29.8816   14.8560 H   0  0  0  0  0
 19  1  2  0  0  0
  2  3  1  0  0  0
 21  2  1  0  0  0
  3  4  1  0  0  0
  3  5  1  0  0  0
  7  6  1  0  0  0
  6 21  1  0  0  0
  8  7  1  0  0  0
  7 22  1  0  0  0
 23  8  1  0  0  0
  8 32  1  0  0  0
  9 23  1  0  0  0
  9 24  2  0  0  0
 25  9  1  0  0  0
 11 10  1  0  0  0
 10 25  1  0  0  0
 10 31  1  0  0  0
 26 11  1  0  0  0
 27 12  1  0  0  0
 12 28  1  0  0  0
 14 13  4  0  0  0
 18 13  4  0  0  0
 13 43  1  0  0  0
 15 14  4  0  0  0
 16 15  4  0  0  0
 16 17  4  0  0  0
 19 16  1  0  0  0
 17 18  4  0  0  0
 19 20  2  0  0  0
 21 19  1  0  0  0
 26 27  1  0  0  0
 27 31  1  0  0  0
 28 29  1  0  0  0
 29 30  1  0  0  0
 30 31  1  0  0  0
 32 33  1  0  0  0
 33 34  1  0  0  0
 33 40  1  0  0  0
 33 41  1  0  0  0
 34 35  1  0  0  0
 35 36  1  0  0  0
 35 42  1  0  0  0
 36 37  1  0  0  0
 37 38  1  0  0  0
 37 41  1  0  0  0
 38 39  1  0  0  0
 39 40  1  0  0  0
 39 42  1  0  0  0
 43 44  1  0  0  0
  2 45  1  0  0  0
  2 46  1  0  0  0
  3 47  1  0  0  0
  4 48  1  0  0  0
  4 49  1  0  0  0
  4 50  1  0  0  0
  5 51  1  0  0  0
  5 52  1  0  0  0
  5 53  1  0  0  0
  6 54  1  0  0  0
  6 55  1  0  0  0
  7 56  1  0  0  0
  8 57  1  0  0  0
 10 58  1  0  0  0
 11 59  1  0  0  0
 11 60  1  0  0  0
 14 61  1  0  0  0
 15 62  1  0  0  0
 17 63  1  0  0  0
 18 64  1  0  0  0
 22 65  1  0  0  0
 23 66  1  0  0  0
 27 67  1  0  0  0
 28 68  1  0  0  0
 28 69  1  0  0  0
 29 70  1  0  0  0
 29 71  1  0  0  0
 30 72  1  0  0  0
 30 73  1  0  0  0
 31 74  1  0  0  0
 32 75  1  0  0  0
 32 76  1  0  0  0
 34 77  1  0  0  0
 34 78  1  0  0  0
 35 79  1  0  0  0
 36 80  1  0  0  0
 36 81  1  0  0  0
 37 82  1  0  0  0
 38 83  1  0  0  0
 38 84  1  0  0  0
 39 85  1  0  0  0
 40 86  1  0  0  0
 40 87  1  0  0  0
 41 88  1  0  0  0
 41 89  1  0  0  0
 42 90  1  0  0  0
 42 91  1  0  0  0
 44 92  1  0  0  0
 44 93  1  0  0  0
 44 94  1  0  0  0
M  END
$$$$
