### 
### Created by X-TOOL on Mon Sep 10 21:12:53 2018
### 

@<TRIPOS>MOLECULE
1y3a_ligand
  208   211     1     0     0
SMALL
GAST_HUCK


@<TRIPOS>ATOM
      1 N          36.3940  -14.5560   -2.2170 N.4       1 SER         0.2396
      2 CA         36.0000  -15.5870   -1.2150 C.3       1 SER         0.0885
      3 C          34.7340  -15.1690   -0.4700 C.2       1 SER         0.2290
      4 O          34.1920  -15.9440    0.3210 O.2       1 SER        -0.3906
      5 CB         37.1360  -15.8200   -0.2150 C.3       1 SER         0.1041
      6 OG         36.8250  -16.8760    0.6820 O.3       1 SER        -0.3870
      7 N          34.2810  -13.9400   -0.7110 N.am      1 ARG        -0.2609
      8 CA         33.0600  -13.4310   -0.0880 C.3       1 ARG         0.1312
      9 C          31.9970  -13.2340   -1.1640 C.2       1 ARG         0.2039
     10 O          32.3110  -12.8580   -2.2940 O.2       1 ARG        -0.3944
     11 CB         33.3080  -12.1030    0.6240 C.3       1 ARG        -0.0092
     12 CG         34.1630  -12.1950    1.8740 C.3       1 ARG        -0.0156
     13 CD         33.9420  -10.9740    2.7530 C.3       1 ARG         0.0627
     14 NE         33.7920   -9.7630    1.9490 N.pl3     1 ARG        -0.2723
     15 CZ         33.3870   -8.5860    2.4220 C.cat     1 ARG         0.2882
     16 NH1        33.0870   -8.4480    3.7100 N.pl3     1 ARG        -0.2849
     17 NH2        33.2680   -7.5470    1.6010 N.pl3     1 ARG        -0.2849
     18 N          30.7390  -13.4860   -0.8140 N.am      1 VAL        -0.2635
     19 CA         29.6540  -13.3480   -1.7800 C.3       1 VAL         0.1333
     20 C          28.3220  -12.9430   -1.1370 C.2       1 VAL         0.2042
     21 O          28.1510  -13.0440    0.0760 O.2       1 VAL        -0.3944
     22 CB         29.4330  -14.6790   -2.5460 C.3       1 VAL        -0.0063
     23 CG1        28.5580  -14.4350   -3.7510 C.3       1 VAL        -0.0584
     24 CG2        30.7620  -15.2760   -2.9770 C.3       1 VAL        -0.0584
     25 N          27.3860  -12.4790   -1.9630 N.am      1 THR        -0.2613
     26 CA         26.0590  -12.0910   -1.4890 C.3       1 THR         0.1565
     27 C          25.3300  -13.3750   -1.1330 C.2       1 THR         0.2066
     28 O          25.8520  -14.4620   -1.3770 O.2       1 THR        -0.3943
     29 CB         25.2440  -11.3760   -2.5820 C.3       1 THR         0.0924
     30 OG1        25.1960  -12.1940   -3.7580 O.3       1 THR        -0.3874
     31 CG2        25.8610  -10.0390   -2.9190 C.3       1 THR        -0.0346
     32 N          24.1340  -13.2660   -0.5600 N.am      1 TRP        -0.2626
     33 CA         23.3930  -14.4730   -0.2210 C.3       1 TRP         0.1352
     34 C          22.7240  -15.0430   -1.4610 C.2       1 TRP         0.2053
     35 O          22.4350  -16.2320   -1.5210 O.2       1 TRP        -0.3942
     36 CB         22.3520  -14.2170    0.8850 C.3       1 TRP         0.0042
     37 CG         21.2460  -13.2390    0.5740 C.2       1 TRP        -0.0418
     38 CD1        21.0690  -12.0030    1.1270 C.2       1 TRP         0.0167
     39 CD2        20.1370  -13.4430   -0.3070 C.ar      1 TRP        -0.0214
     40 NE1        19.9200  -11.4280    0.6510 N.pl3     1 TRP        -0.2890
     41 CE2        19.3270  -12.2900   -0.2320 C.ar      1 TRP         0.0603
     42 CE3        19.7480  -14.4880   -1.1540 C.ar      1 TRP        -0.0747
     43 CZ2        18.1510  -12.1530   -0.9720 C.ar      1 TRP        -0.0443
     44 CZ3        18.5830  -14.3520   -1.8900 C.ar      1 TRP        -0.0792
     45 CH2        17.7980  -13.1920   -1.7950 C.ar      1 TRP        -0.0768
     46 N          22.4870  -14.1910   -2.4540 N.am      1 TYR        -0.2620
     47 CA         21.8640  -14.6320   -3.6890 C.3       1 TYR         0.1390
     48 C          22.7920  -15.5500   -4.4610 C.2       1 TYR         0.2058
     49 O          22.3820  -16.6250   -4.8790 O.2       1 TYR        -0.3942
     50 CB         21.5000  -13.4510   -4.5830 C.3       1 TYR         0.0163
     51 CG         20.9440  -13.8830   -5.9280 C.ar      1 TYR        -0.0493
     52 CD1        19.6300  -14.3330   -6.0480 C.ar      1 TYR        -0.0685
     53 CD2        21.7480  -13.8890   -7.0700 C.ar      1 TYR        -0.0685
     54 CE1        19.1290  -14.7800   -7.2670 C.ar      1 TYR        -0.0398
     55 CE2        21.2580  -14.3340   -8.2940 C.ar      1 TYR        -0.0398
     56 CZ         19.9460  -14.7800   -8.3870 C.ar      1 TYR         0.0805
     57 OH         19.4520  -15.2410   -9.5920 O.3       1 TYR        -0.3376
     58 N          24.0380  -15.1280   -4.6650 N.am      1 ASP        -0.2620
     59 CA         24.9910  -15.9550   -5.4050 C.3       1 ASP         0.1423
     60 C          25.3120  -17.2270   -4.6290 C.2       1 ASP         0.2057
     61 O          25.6350  -18.2540   -5.2140 O.2       1 ASP        -0.3943
     62 CB         26.2820  -15.1830   -5.6970 C.3       1 ASP         0.0406
     63 CG         26.0690  -14.0070   -6.6370 C.2       1 ASP         0.0393
     64 OD1        25.4710  -14.2000   -7.7230 O.co2     1 ASP        -0.5688
     65 OD2        26.5130  -12.8900   -6.2890 O.co2     1 ASP        -0.5688
     66 N          25.2140  -17.1450   -3.3070 N.am      1 PHE        -0.2618
     67 CA         25.4630  -18.2820   -2.4290 C.3       1 PHE         0.1404
     68 C          24.4440  -19.3970   -2.6620 C.2       1 PHE         0.2060
     69 O          24.7930  -20.5750   -2.6470 O.2       1 PHE        -0.3942
     70 CB         25.3970  -17.8270   -0.9730 C.3       1 PHE         0.0214
     71 CG         25.2870  -18.9480    0.0100 C.ar      1 PHE        -0.0386
     72 CD1        26.3170  -19.8680    0.1560 C.ar      1 PHE        -0.0601
     73 CD2        24.1540  -19.0800    0.7970 C.ar      1 PHE        -0.0601
     74 CE1        26.2190  -20.9040    1.0770 C.ar      1 PHE        -0.0686
     75 CE2        24.0450  -20.1070    1.7160 C.ar      1 PHE        -0.0686
     76 CZ         25.0780  -21.0220    1.8590 C.ar      1 PHE        -0.0687
     77 N          23.1850  -19.0180   -2.8670 N.am      1 LEU        -0.2636
     78 CA         22.1140  -19.9830   -3.1080 C.3       1 LEU         0.1312
     79 C          22.1100  -20.4330   -4.5720 C.2       1 LEU         0.2039
     80 O          21.7820  -21.5760   -4.8820 O.2       1 LEU        -0.3944
     81 CB         20.7500  -19.3660   -2.7730 C.3       1 LEU        -0.0101
     82 CG         20.4930  -18.7390   -1.3980 C.3       1 LEU        -0.0425
     83 CD1        19.1010  -18.1320   -1.3900 C.3       1 LEU        -0.0625
     84 CD2        20.6190  -19.7730   -0.2960 C.3       1 LEU        -0.0625
     85 N          22.4770  -19.5210   -5.4650 N.am      1 MET        -0.2637
     86 CA         22.5140  -19.7940   -6.8970 C.3       1 MET         0.1317
     87 C          23.6650  -20.7220   -7.2790 C.2       1 MET         0.2039
     88 O          23.8590  -21.0300   -8.4550 O.2       1 MET        -0.3944
     89 CB         22.6450  -18.4760   -7.6670 C.3       1 MET        -0.0034
     90 CG         21.5540  -18.2400   -8.6910 C.3       1 MET        -0.0024
     91 SD         19.9040  -18.4140   -7.9850 S.3       1 MET        -0.1639
     92 CE         19.3310  -19.8880   -8.8180 C.3       1 MET        -0.0181
     93 N          24.4270  -21.1630   -6.2830 N.am      1 GLU        -0.2636
     94 CA         25.5590  -22.0530   -6.5190 C.3       1 GLU         0.1324
     95 C          25.1470  -23.4840   -6.8350 C.2       1 GLU         0.2035
     96 O          24.2730  -24.0610   -6.1790 O.2       1 GLU        -0.3944
     97 CB         26.4930  -22.0560   -5.3140 C.3       1 GLU        -0.0008
     98 CG         27.1710  -20.7330   -5.0790 C.3       1 GLU         0.0044
     99 CD         28.2810  -20.8360   -4.0680 C.2       1 GLU         0.0350
    100 OE1        28.0070  -21.2660   -2.9250 O.co2     1 GLU        -0.5690
    101 OE2        29.4270  -20.4890   -4.4240 O.co2     1 GLU        -0.5690
    102 N          25.8020  -24.0580   -7.8380 N.am      1 ASP        -0.2679
    103 CA         25.5130  -25.4180   -8.2620 C.3       1 ASP         0.1057
    104 C          26.6320  -26.3600   -7.8200 C.2       1 ASP         0.0618
    105 O          26.4810  -27.1130   -6.8550 O.co2     1 ASP        -0.5665
    106 CB         25.3560  -25.4540   -9.7850 C.3       1 ASP         0.0351
    107 CG         24.7890  -26.7670  -10.2830 C.2       1 ASP         0.0387
    108 OD1        25.4050  -27.8230  -10.0180 O.co2     1 ASP        -0.5688
    109 OD2        23.7270  -26.7410  -10.9430 O.co2     1 ASP        -0.5688
    110 OXT        27.7100  -26.3870   -8.4190 O.co2     1 ASP        -0.5665
    111 H1         37.2302  -14.8539   -2.6946 H         1 SER         0.2016
    112 H2         36.5686  -13.6810   -1.7480 H         1 SER         0.2016
    113 H3         35.6497  -14.4359   -2.8860 H         1 SER         0.2016
    114 H4         35.7991  -16.5293   -1.7458 H         1 SER         0.1122
    115 H5         37.3012  -14.8976    0.3610 H         1 SER         0.0640
    116 H6         38.0522  -16.0768   -0.7669 H         1 SER         0.0640
    117 H7         36.0364  -16.6579    1.1649 H         1 SER         0.2099
    118 H8         34.7905  -13.3484   -1.3359 H         1 ARG         0.1884
    119 H9         32.7019  -14.1668    0.6471 H         1 ARG         0.0800
    120 H10        32.3328  -11.6809    0.9081 H         1 ARG         0.0313
    121 H11        33.8090  -11.4253   -0.0828 H         1 ARG         0.0313
    122 H12        35.2233  -12.2480    1.5858 H         1 ARG         0.0301
    123 H13        33.8898  -13.1008    2.4352 H         1 ARG         0.0301
    124 H14        34.8053  -10.8542    3.4241 H         1 ARG         0.0689
    125 H15        33.0307  -11.1227    3.3508 H         1 ARG         0.0689
    126 H16        34.0154   -9.8242    0.9454 H         1 ARG         0.2642
    127 H17        32.7742   -7.5355    4.0710 H         1 ARG         0.2615
    128 H18        33.1674   -9.2536    4.3467 H         1 ARG         0.2615
    129 H19        33.4995   -7.6503    0.6027 H         1 ARG         0.2615
    130 H20        32.9443   -6.6388    1.9633 H         1 ARG         0.2615
    131 H21        30.5343  -13.7733    0.1217 H         1 VAL         0.1883
    132 H22        29.9416  -12.5677   -2.5000 H         1 VAL         0.0802
    133 H23        28.9271  -15.3915   -1.8779 H         1 VAL         0.0343
    134 H24        28.4045  -15.3814   -4.2903 H         1 VAL         0.0234
    135 H25        29.0458  -13.7083   -4.4173 H         1 VAL         0.0234
    136 H26        27.5859  -14.0376   -3.4239 H         1 VAL         0.0234
    137 H27        31.3906  -15.4493   -2.0911 H         1 VAL         0.0234
    138 H28        31.2728  -14.5800   -3.6586 H         1 VAL         0.0234
    139 H29        30.5848  -16.2310   -3.4933 H         1 VAL         0.0234
    140 H30        27.5974  -12.3935   -2.9366 H         1 THR         0.1884
    141 H31        26.1517  -11.4381   -0.6086 H         1 THR         0.0826
    142 H32        24.2202  -11.2133   -2.2142 H         1 THR         0.0639
    143 H33        26.0794  -12.3477   -4.0717 H         1 THR         0.2101
    144 H34        25.2640   -9.5462   -3.7005 H         1 THR         0.0257
    145 H35        26.8879  -10.1903   -3.2830 H         1 THR         0.0257
    146 H36        25.8803   -9.4068   -2.0191 H         1 THR         0.0257
    147 H37        23.7480  -12.3645   -0.3642 H         1 TRP         0.1884
    148 H38        24.1104  -15.2169    0.1559 H         1 TRP         0.0815
    149 H39        22.8908  -13.8388    1.7663 H         1 TRP         0.0397
    150 H40        21.8827  -15.1817    1.1282 H         1 TRP         0.0397
    151 H41        21.7450  -11.5401    1.8444 H         1 TRP         0.0795
    152 H42        19.5611  -10.4992    0.9144 H         1 TRP         0.2216
    153 H43        20.3481  -15.3873   -1.2321 H         1 TRP         0.0540
    154 H44        17.5406  -11.2602   -0.8990 H         1 TRP         0.0541
    155 H45        18.2722  -15.1539   -2.5499 H         1 TRP         0.0510
    156 H46        16.8922  -13.1157   -2.3855 H         1 TRP         0.0530
    157 H47        22.7423  -13.2299   -2.3483 H         1 TYR         0.1885
    158 H48        20.9456  -15.1822   -3.4366 H         1 TYR         0.0821
    159 H49        22.4035  -12.8472   -4.7534 H         1 TYR         0.0453
    160 H50        20.7427  -12.8409   -4.0689 H         1 TYR         0.0453
    161 H51        18.9866  -14.3348   -5.1756 H         1 TYR         0.0530
    162 H52        22.7722  -13.5407   -7.0016 H         1 TYR         0.0530
    163 H53        18.1045  -15.1266   -7.3404 H         1 TYR         0.0525
    164 H54        21.8966  -14.3326   -9.1699 H         1 TYR         0.0525
    165 H55        18.5462  -15.5051   -9.4814 H         1 TYR         0.2458
    166 H56        24.3248  -14.2384   -4.3095 H         1 ASP         0.1884
    167 H57        24.5310  -16.2373   -6.3635 H         1 ASP         0.0819
    168 H58        27.0067  -15.8719   -6.1555 H         1 ASP         0.0478
    169 H59        26.6867  -14.8040   -4.7470 H         1 ASP         0.0478
    170 H60        24.9594  -16.2688   -2.8977 H         1 PHE         0.1885
    171 H61        26.4692  -18.6746   -2.6372 H         1 PHE         0.0823
    172 H62        24.5191  -17.1751   -0.8538 H         1 PHE         0.0474
    173 H63        26.3103  -17.2572   -0.7469 H         1 PHE         0.0474
    174 H64        27.2075  -19.7770   -0.4554 H         1 PHE         0.0557
    175 H65        23.3428  -18.3688    0.6906 H         1 PHE         0.0557
    176 H66        27.0291  -21.6162    1.1843 H         1 PHE         0.0599
    177 H67        23.1526  -20.1973    2.3247 H         1 PHE         0.0599
    178 H68        24.9944  -21.8273    2.5798 H         1 PHE         0.0559
    179 H69        22.9648  -18.0426   -2.8558 H         1 LEU         0.1883
    180 H70        22.2786  -20.8599   -2.4646 H         1 LEU         0.0800
    181 H71        20.0041  -20.1646   -2.8989 H         1 LEU         0.0315
    182 H72        20.5707  -18.5761   -3.5173 H         1 LEU         0.0315
    183 H73        21.2339  -17.9450   -1.2228 H         1 LEU         0.0298
    184 H74        18.9045  -17.6783   -0.4074 H         1 LEU         0.0232
    185 H75        18.3570  -18.9181   -1.5863 H         1 LEU         0.0232
    186 H76        19.0332  -17.3598   -2.1705 H         1 LEU         0.0232
    187 H77        21.6306  -20.2048   -0.3123 H         1 LEU         0.0232
    188 H78        19.8776  -20.5700   -0.4544 H         1 LEU         0.0232
    189 H79        20.4404  -19.2943    0.6781 H         1 LEU         0.0232
    190 H80        22.7383  -18.6111   -5.1427 H         1 MET         0.1883
    191 H81        21.5688  -20.2797   -7.1810 H         1 MET         0.0800
    192 H82        23.6130  -18.4772   -8.1894 H         1 MET         0.0320
    193 H83        22.6208  -17.6495   -6.9415 H         1 MET         0.0320
    194 H84        21.6691  -18.9704   -9.5054 H         1 MET         0.0378
    195 H85        21.6609  -17.2220   -9.0937 H         1 MET         0.0378
    196 H86        18.3112  -20.1264   -8.4815 H         1 MET         0.0340
    197 H87        20.0011  -20.7274   -8.5805 H         1 MET         0.0340
    198 H88        19.3280  -19.7174   -9.9047 H         1 MET         0.0340
    199 H89        24.2190  -20.8773   -5.3475 H         1 GLU         0.1883
    200 H90        26.1124  -21.6632   -7.3861 H         1 GLU         0.0801
    201 H91        27.2672  -22.8206   -5.4750 H         1 GLU         0.0330
    202 H92        25.9065  -22.3108   -4.4190 H         1 GLU         0.0330
    203 H93        26.4247  -20.0122   -4.7137 H         1 GLU         0.0433
    204 H94        27.5907  -20.3757   -6.0309 H         1 GLU         0.0433
    205 H95        26.5130  -23.5406   -8.3142 H         1 ASP         0.1876
    206 H96        24.5708  -25.7448   -7.7978 H         1 ASP         0.0745
    207 H97        26.3436  -25.3004  -10.2444 H         1 ASP         0.0471
    208 H98        24.6799  -24.6411  -10.0885 H         1 ASP         0.0471
@<TRIPOS>BOND
     1    1    2 1  
     2    2    3 1  
     3    2    5 1  
     4    3    4 2  
     5    3    7 am 
     6    5    6 1  
     7    7    8 1  
     8    8    9 1  
     9    8   11 1  
    10    9   10 2  
    11    9   18 am 
    12   11   12 1  
    13   12   13 1  
    14   13   14 1  
    15   14   15 ar 
    16   15   16 ar 
    17   15   17 ar 
    18   18   19 1  
    19   19   20 1  
    20   19   22 1  
    21   20   21 2  
    22   20   25 am 
    23   22   23 1  
    24   22   24 1  
    25   25   26 1  
    26   26   27 1  
    27   26   29 1  
    28   27   28 2  
    29   27   32 am 
    30   29   30 1  
    31   29   31 1  
    32   32   33 1  
    33   33   34 1  
    34   33   36 1  
    35   34   35 2  
    36   34   46 am 
    37   36   37 1  
    38   37   38 2  
    39   37   39 1  
    40   38   40 1  
    41   39   41 ar 
    42   39   42 ar 
    43   40   41 1  
    44   41   43 ar 
    45   42   44 ar 
    46   43   45 ar 
    47   44   45 ar 
    48   46   47 1  
    49   47   48 1  
    50   47   50 1  
    51   48   49 2  
    52   48   58 am 
    53   50   51 1  
    54   51   52 ar 
    55   51   53 ar 
    56   52   54 ar 
    57   53   55 ar 
    58   54   56 ar 
    59   55   56 ar 
    60   56   57 1  
    61   58   59 1  
    62   59   60 1  
    63   59   62 1  
    64   60   61 2  
    65   60   66 am 
    66   62   63 1  
    67   63   64 ar 
    68   63   65 ar 
    69   66   67 1  
    70   67   68 1  
    71   67   70 1  
    72   68   69 2  
    73   68   77 am 
    74   70   71 1  
    75   71   72 ar 
    76   71   73 ar 
    77   72   74 ar 
    78   73   75 ar 
    79   74   76 ar 
    80   75   76 ar 
    81   77   78 1  
    82   78   79 1  
    83   78   81 1  
    84   79   80 2  
    85   79   85 am 
    86   81   82 1  
    87   82   83 1  
    88   82   84 1  
    89   85   86 1  
    90   86   87 1  
    91   86   89 1  
    92   87   88 2  
    93   87   93 am 
    94   89   90 1  
    95   90   91 1  
    96   91   92 1  
    97   93   94 1  
    98   94   95 1  
    99   94   97 1  
   100   95   96 2  
   101   95  102 am 
   102   97   98 1  
   103   98   99 1  
   104   99  100 ar 
   105   99  101 ar 
   106  102  103 1  
   107  103  104 1  
   108  103  106 1  
   109  104  105 ar 
   110  104  110 ar 
   111  106  107 1  
   112  107  108 ar 
   113  107  109 ar 
   114    1  111 1  
   115    1  112 1  
   116    1  113 1  
   117    2  114 1  
   118    5  115 1  
   119    5  116 1  
   120    6  117 1  
   121    7  118 1  
   122    8  119 1  
   123   11  120 1  
   124   11  121 1  
   125   12  122 1  
   126   12  123 1  
   127   13  124 1  
   128   13  125 1  
   129   14  126 1  
   130   16  127 1  
   131   16  128 1  
   132   17  129 1  
   133   17  130 1  
   134   18  131 1  
   135   19  132 1  
   136   22  133 1  
   137   23  134 1  
   138   23  135 1  
   139   23  136 1  
   140   24  137 1  
   141   24  138 1  
   142   24  139 1  
   143   25  140 1  
   144   26  141 1  
   145   29  142 1  
   146   30  143 1  
   147   31  144 1  
   148   31  145 1  
   149   31  146 1  
   150   32  147 1  
   151   33  148 1  
   152   36  149 1  
   153   36  150 1  
   154   38  151 1  
   155   40  152 1  
   156   42  153 1  
   157   43  154 1  
   158   44  155 1  
   159   45  156 1  
   160   46  157 1  
   161   47  158 1  
   162   50  159 1  
   163   50  160 1  
   164   52  161 1  
   165   53  162 1  
   166   54  163 1  
   167   55  164 1  
   168   57  165 1  
   169   58  166 1  
   170   59  167 1  
   171   62  168 1  
   172   62  169 1  
   173   66  170 1  
   174   67  171 1  
   175   70  172 1  
   176   70  173 1  
   177   72  174 1  
   178   73  175 1  
   179   74  176 1  
   180   75  177 1  
   181   76  178 1  
   182   77  179 1  
   183   78  180 1  
   184   81  181 1  
   185   81  182 1  
   186   82  183 1  
   187   83  184 1  
   188   83  185 1  
   189   83  186 1  
   190   84  187 1  
   191   84  188 1  
   192   84  189 1  
   193   85  190 1  
   194   86  191 1  
   195   89  192 1  
   196   89  193 1  
   197   90  194 1  
   198   90  195 1  
   199   92  196 1  
   200   92  197 1  
   201   92  198 1  
   202   93  199 1  
   203   94  200 1  
   204   97  201 1  
   205   97  202 1  
   206   98  203 1  
   207   98  204 1  
   208  102  205 1  
   209  103  206 1  
   210  106  207 1  
   211  106  208 1  
@<TRIPOS>SUBSTRUCTURE
     1 SER         1

