1y3a_ligand
  -I-interpret- 

210213  0  0  0  0  0  0  0  0999 V2000
   36.3940  -14.5560   -2.2170 N   0  3  0  0  0
   36.0000  -15.5870   -1.2150 C   0  0  0  0  0
   34.7340  -15.1690   -0.4700 C   0  0  0  0  0
   34.1920  -15.9440    0.3210 O   0  0  0  0  0
   37.1360  -15.8200   -0.2150 C   0  0  0  0  0
   36.8250  -16.8760    0.6820 O   0  0  0  0  0
   34.2810  -13.9400   -0.7110 N   0  0  0  0  0
   33.0600  -13.4310   -0.0880 C   0  0  0  0  0
   31.9970  -13.2340   -1.1640 C   0  0  0  0  0
   32.3110  -12.8580   -2.2940 O   0  0  0  0  0
   33.3080  -12.1030    0.6240 C   0  0  0  0  0
   34.1630  -12.1950    1.8740 C   0  0  0  0  0
   33.9420  -10.9740    2.7530 C   0  0  0  0  0
   33.7920   -9.7630    1.9490 N   0  0  0  0  0
   33.3870   -8.5860    2.4220 C   0  0  0  0  0
   33.0870   -8.4480    3.7100 N   0  0  0  0  0
   33.2680   -7.5470    1.6010 N   0  0  0  0  0
   30.7390  -13.4860   -0.8140 N   0  0  0  0  0
   29.6540  -13.3480   -1.7800 C   0  0  0  0  0
   28.3220  -12.9430   -1.1370 C   0  0  0  0  0
   28.1510  -13.0440    0.0760 O   0  0  0  0  0
   29.4330  -14.6790   -2.5460 C   0  0  0  0  0
   28.5580  -14.4350   -3.7510 C   0  0  0  0  0
   30.7620  -15.2760   -2.9770 C   0  0  0  0  0
   27.3860  -12.4790   -1.9630 N   0  0  0  0  0
   26.0590  -12.0910   -1.4890 C   0  0  0  0  0
   25.3300  -13.3750   -1.1330 C   0  0  0  0  0
   25.8520  -14.4620   -1.3770 O   0  0  0  0  0
   25.2440  -11.3760   -2.5820 C   0  0  0  0  0
   25.1960  -12.1940   -3.7580 O   0  0  0  0  0
   25.8610  -10.0390   -2.9190 C   0  0  0  0  0
   24.1340  -13.2660   -0.5600 N   0  0  0  0  0
   23.3930  -14.4730   -0.2210 C   0  0  0  0  0
   22.7240  -15.0430   -1.4610 C   0  0  0  0  0
   22.4350  -16.2320   -1.5210 O   0  0  0  0  0
   22.3520  -14.2170    0.8850 C   0  0  0  0  0
   21.2460  -13.2390    0.5740 C   0  0  0  0  0
   21.0690  -12.0030    1.1270 C   0  0  0  0  0
   20.1370  -13.4430   -0.3070 C   0  0  0  0  0
   19.9200  -11.4280    0.6510 N   0  0  0  0  0
   19.3270  -12.2900   -0.2320 C   0  0  0  0  0
   19.7480  -14.4880   -1.1540 C   0  0  0  0  0
   18.1510  -12.1530   -0.9720 C   0  0  0  0  0
   18.5830  -14.3520   -1.8900 C   0  0  0  0  0
   17.7980  -13.1920   -1.7950 C   0  0  0  0  0
   22.4870  -14.1910   -2.4540 N   0  0  0  0  0
   21.8640  -14.6320   -3.6890 C   0  0  0  0  0
   22.7920  -15.5500   -4.4610 C   0  0  0  0  0
   22.3820  -16.6250   -4.8790 O   0  0  0  0  0
   21.5000  -13.4510   -4.5830 C   0  0  0  0  0
   20.9440  -13.8830   -5.9280 C   0  0  0  0  0
   19.6300  -14.3330   -6.0480 C   0  0  0  0  0
   21.7480  -13.8890   -7.0700 C   0  0  0  0  0
   19.1290  -14.7800   -7.2670 C   0  0  0  0  0
   21.2580  -14.3340   -8.2940 C   0  0  0  0  0
   19.9460  -14.7800   -8.3870 C   0  0  0  0  0
   19.4520  -15.2410   -9.5920 O   0  0  0  0  0
   24.0380  -15.1280   -4.6650 N   0  0  0  0  0
   24.9910  -15.9550   -5.4050 C   0  0  0  0  0
   25.3120  -17.2270   -4.6290 C   0  0  0  0  0
   25.6350  -18.2540   -5.2140 O   0  0  0  0  0
   26.2820  -15.1830   -5.6970 C   0  0  0  0  0
   26.0690  -14.0070   -6.6370 C   0  0  0  0  0
   25.4710  -14.2000   -7.7230 O   0  0  0  0  0
   26.5130  -12.8900   -6.2890 O   0  0  0  0  0
   25.2140  -17.1450   -3.3070 N   0  0  0  0  0
   25.4630  -18.2820   -2.4290 C   0  0  0  0  0
   24.4440  -19.3970   -2.6620 C   0  0  0  0  0
   24.7930  -20.5750   -2.6470 O   0  0  0  0  0
   25.3970  -17.8270   -0.9730 C   0  0  0  0  0
   25.2870  -18.9480    0.0100 C   0  0  0  0  0
   26.3170  -19.8680    0.1560 C   0  0  0  0  0
   24.1540  -19.0800    0.7970 C   0  0  0  0  0
   26.2190  -20.9040    1.0770 C   0  0  0  0  0
   24.0450  -20.1070    1.7160 C   0  0  0  0  0
   25.0780  -21.0220    1.8590 C   0  0  0  0  0
   23.1850  -19.0180   -2.8670 N   0  0  0  0  0
   22.1140  -19.9830   -3.1080 C   0  0  0  0  0
   22.1100  -20.4330   -4.5720 C   0  0  0  0  0
   21.7820  -21.5760   -4.8820 O   0  0  0  0  0
   20.7500  -19.3660   -2.7730 C   0  0  0  0  0
   20.4930  -18.7390   -1.3980 C   0  0  0  0  0
   19.1010  -18.1320   -1.3900 C   0  0  0  0  0
   20.6190  -19.7730   -0.2960 C   0  0  0  0  0
   22.4770  -19.5210   -5.4650 N   0  0  0  0  0
   22.5140  -19.7940   -6.8970 C   0  0  0  0  0
   23.6650  -20.7220   -7.2790 C   0  0  0  0  0
   23.8590  -21.0300   -8.4550 O   0  0  0  0  0
   22.6450  -18.4760   -7.6670 C   0  0  0  0  0
   21.5540  -18.2400   -8.6910 C   0  0  0  0  0
   19.9040  -18.4140   -7.9850 S   0  0  0  0  0
   19.3310  -19.8880   -8.8180 C   0  0  0  0  0
   24.4270  -21.1630   -6.2830 N   0  0  0  0  0
   25.5590  -22.0530   -6.5190 C   0  0  0  0  0
   25.1470  -23.4840   -6.8350 C   0  0  0  0  0
   24.2730  -24.0610   -6.1790 O   0  0  0  0  0
   26.4930  -22.0560   -5.3140 C   0  0  0  0  0
   27.1710  -20.7330   -5.0790 C   0  0  0  0  0
   28.2810  -20.8360   -4.0680 C   0  0  0  0  0
   28.0070  -21.2660   -2.9250 O   0  0  0  0  0
   29.4270  -20.4890   -4.4240 O   0  0  0  0  0
   25.8020  -24.0580   -7.8380 N   0  0  0  0  0
   25.5130  -25.4180   -8.2620 C   0  0  0  0  0
   26.6320  -26.3600   -7.8200 C   0  0  0  0  0
   26.4810  -27.1130   -6.8550 O   0  0  0  0  0
   25.3560  -25.4540   -9.7850 C   0  0  0  0  0
   24.7890  -26.7670  -10.2830 C   0  0  0  0  0
   25.4050  -27.8230  -10.0180 O   0  0  0  0  0
   23.7270  -26.7410  -10.9430 O   0  0  0  0  0
   27.7100  -26.3870   -8.4190 O   0  0  0  0  0
   35.6278  -14.4126   -2.8748 H   0  0  0  0  0
   36.6009  -13.6796   -1.7379 H   0  0  0  0  0
   37.2220  -14.8728   -2.7215 H   0  0  0  0  0
   35.7977  -16.5150   -1.7499 H   0  0  0  0  0
   37.2835  -14.9069    0.3617 H   0  0  0  0  0
   38.0359  -16.0884   -0.7684 H   0  0  0  0  0
   37.5535  -16.9985    1.2951 H   0  0  0  0  0
   34.8006  -13.3366   -1.3484 H   0  0  0  0  0
   32.7250  -14.1563    0.6535 H   0  0  0  0  0
   32.3338  -11.7268    0.9363 H   0  0  0  0  0
   33.8450  -11.4652   -0.0781 H   0  0  0  0  0
   35.2130  -12.2412    1.5852 H   0  0  0  0  0
   33.8856  -13.0901    2.4307 H   0  0  0  0  0
   34.8075  -10.8536    3.4046 H   0  0  0  0  0
   33.0300  -11.1225    3.3312 H   0  0  0  0  0
   34.0132   -9.8236    0.9551 H   0  0  0  0  0
   32.7667   -7.5471    4.0654 H   0  0  0  0  0
   33.1771   -9.2430    4.3427 H   0  0  0  0  0
   33.4868   -7.6521    0.6103 H   0  0  0  0  0
   30.5302  -13.7790    0.1404 H   0  0  0  0  0
   29.9630  -12.5530   -2.4586 H   0  0  0  0  0
   28.9388  -15.3872   -1.8809 H   0  0  0  0  0
   27.5951  -14.0412   -3.4255 H   0  0  0  0  0
   29.0424  -13.7148   -4.4103 H   0  0  0  0  0
   28.4066  -15.3734   -4.2845 H   0  0  0  0  0
   31.2794  -14.5738   -3.6307 H   0  0  0  0  0
   31.3733  -15.4725   -2.0962 H   0  0  0  0  0
   30.5834  -16.2086   -3.5123 H   0  0  0  0  0
   27.6017  -12.3918   -2.9561 H   0  0  0  0  0
   26.1660  -11.4092   -0.6453 H   0  0  0  0  0
   24.2335  -11.2084   -2.2093 H   0  0  0  0  0
   24.6873  -11.7458   -4.4377 H   0  0  0  0  0
   25.8796   -9.4136   -2.0265 H   0  0  0  0  0
   26.8785  -10.1903   -3.2794 H   0  0  0  0  0
   25.2686   -9.5517   -3.6934 H   0  0  0  0  0
   23.7403  -12.3465   -0.3603 H   0  0  0  0  0
   24.1057  -15.2007    0.1670 H   0  0  0  0  0
   22.9049  -13.7846    1.7189 H   0  0  0  0  0
   21.8614  -15.1748    1.0585 H   0  0  0  0  0
   21.7456  -11.5397    1.8451 H   0  0  0  0  0
   20.3514  -15.3923   -1.2326 H   0  0  0  0  0
   17.5372  -11.2552   -0.8986 H   0  0  0  0  0
   18.2705  -15.1583   -2.5536 H   0  0  0  0  0
   16.8872  -13.1152   -2.3888 H   0  0  0  0  0
   22.7474  -13.2107   -2.3462 H   0  0  0  0  0
   20.9556  -15.1671   -3.4122 H   0  0  0  0  0
   22.4086  -12.8771   -4.7654 H   0  0  0  0  0
   20.7305  -12.8708   -4.0738 H   0  0  0  0  0
   18.9830  -14.3348   -5.1708 H   0  0  0  0  0
   22.7779  -13.5388   -7.0012 H   0  0  0  0  0
   18.0989  -15.1285   -7.3408 H   0  0  0  0  0
   21.9002  -14.3326   -9.1747 H   0  0  0  0  0
   20.1356  -15.1758  -10.2628 H   0  0  0  0  0
   24.3305  -14.2206   -4.3024 H   0  0  0  0  0
   24.5285  -16.2252   -6.3543 H   0  0  0  0  0
   26.9794  -15.8700   -6.1763 H   0  0  0  0  0
   26.6557  -14.7898   -4.7515 H   0  0  0  0  0
   25.2173  -15.1236   -7.7876 H   0  0  0  0  0
   24.9543  -16.2513   -2.8895 H   0  0  0  0  0
   26.4550  -18.6743   -2.6530 H   0  0  0  0  0
   24.5020  -17.2142   -0.8660 H   0  0  0  0  0
   26.3251  -17.2977   -0.7573 H   0  0  0  0  0
   27.2124  -19.7765   -0.4588 H   0  0  0  0  0
   23.3383  -18.3649    0.6900 H   0  0  0  0  0
   27.0336  -21.6201    1.1848 H   0  0  0  0  0
   23.1477  -20.1978    2.3281 H   0  0  0  0  0
   24.9939  -21.8318    2.5838 H   0  0  0  0  0
   22.9604  -18.0231   -2.8556 H   0  0  0  0  0
   22.2924  -20.8453   -2.4656 H   0  0  0  0  0
   20.0581  -20.2071   -2.8168 H   0  0  0  0  0
   20.6555  -18.5324   -3.4689 H   0  0  0  0  0
   21.2383  -17.9654   -1.2133 H   0  0  0  0  0
   19.0351  -17.3671   -2.1638 H   0  0  0  0  0
   18.3648  -18.9119   -1.5846 H   0  0  0  0  0
   18.9075  -17.6828   -0.4159 H   0  0  0  0  0
   19.8908  -20.5673   -0.4599 H   0  0  0  0  0
   21.6249  -20.1927   -0.3066 H   0  0  0  0  0
   20.4315  -19.2996    0.6678 H   0  0  0  0  0
   22.7435  -18.5930   -5.1362 H   0  0  0  0  0
   21.5832  -20.2970   -7.1592 H   0  0  0  0  0
   23.5901  -18.5141   -8.2088 H   0  0  0  0  0
   22.5782  -17.6700   -6.9362 H   0  0  0  0  0
   21.6643  -18.9836   -9.4803 H   0  0  0  0  0
   21.6561  -17.2214   -9.0653 H   0  0  0  0  0
   19.3285  -19.7177   -9.8946 H   0  0  0  0  0
   19.9958  -20.7189   -8.5819 H   0  0  0  0  0
   18.3205  -20.1231   -8.4837 H   0  0  0  0  0
   24.2148  -20.8716   -5.3288 H   0  0  0  0  0
   26.0710  -21.6610   -7.3978 H   0  0  0  0  0
   27.2716  -22.7947   -5.5040 H   0  0  0  0  0
   25.8911  -22.2776   -4.4327 H   0  0  0  0  0
   26.4275  -20.0336   -4.6968 H   0  0  0  0  0
   27.6016  -20.3997   -6.0232 H   0  0  0  0  0
   27.0701  -21.4699   -2.8771 H   0  0  0  0  0
   26.5272  -23.5302   -8.3237 H   0  0  0  0  0
   24.5839  -25.7495   -7.7984 H   0  0  0  0  0
   26.3445  -25.3273  -10.2265 H   0  0  0  0  0
   24.6639  -24.6613  -10.0690 H   0  0  0  0  0
   26.1891  -27.6146   -9.5049 H   0  0  0  0  0
   27.6890  -25.7556   -9.1418 H   0  0  0  0  0
  1  2  1  0  0  0
  2  3  1  0  0  0
  2  5  1  0  0  0
  3  4  2  0  0  0
  3  7  1  0  0  0
  5  6  1  0  0  0
  7  8  1  0  0  0
  8  9  1  0  0  0
  8 11  1  0  0  0
  9 10  2  0  0  0
  9 18  1  0  0  0
 11 12  1  0  0  0
 12 13  1  0  0  0
 13 14  1  0  0  0
 14 15  1  0  0  0
 15 16  1  0  0  0
 15 17  2  0  0  0
 18 19  1  0  0  0
 19 20  1  0  0  0
 19 22  1  0  0  0
 20 21  2  0  0  0
 20 25  1  0  0  0
 22 23  1  0  0  0
 22 24  1  0  0  0
 25 26  1  0  0  0
 26 27  1  0  0  0
 26 29  1  0  0  0
 27 28  2  0  0  0
 27 32  1  0  0  0
 29 30  1  0  0  0
 29 31  1  0  0  0
 32 33  1  0  0  0
 33 34  1  0  0  0
 33 36  1  0  0  0
 34 35  2  0  0  0
 34 46  1  0  0  0
 36 37  1  0  0  0
 37 38  4  0  0  0
 37 39  4  0  0  0
 38 40  4  0  0  0
 39 41  4  0  0  0
 39 42  4  0  0  0
 40 41  4  0  0  0
 41 43  4  0  0  0
 42 44  4  0  0  0
 43 45  4  0  0  0
 44 45  4  0  0  0
 46 47  1  0  0  0
 47 48  1  0  0  0
 47 50  1  0  0  0
 48 49  2  0  0  0
 48 58  1  0  0  0
 50 51  1  0  0  0
 51 52  4  0  0  0
 51 53  4  0  0  0
 52 54  4  0  0  0
 53 55  4  0  0  0
 54 56  4  0  0  0
 55 56  4  0  0  0
 56 57  1  0  0  0
 58 59  1  0  0  0
 59 60  1  0  0  0
 59 62  1  0  0  0
 60 61  2  0  0  0
 60 66  1  0  0  0
 62 63  1  0  0  0
 63 64  1  0  0  0
 63 65  2  0  0  0
 66 67  1  0  0  0
 67 68  1  0  0  0
 67 70  1  0  0  0
 68 69  2  0  0  0
 68 77  1  0  0  0
 70 71  1  0  0  0
 71 72  4  0  0  0
 71 73  4  0  0  0
 72 74  4  0  0  0
 73 75  4  0  0  0
 74 76  4  0  0  0
 75 76  4  0  0  0
 77 78  1  0  0  0
 78 79  1  0  0  0
 78 81  1  0  0  0
 79 80  2  0  0  0
 79 85  1  0  0  0
 81 82  1  0  0  0
 82 83  1  0  0  0
 82 84  1  0  0  0
 85 86  1  0  0  0
 86 87  1  0  0  0
 86 89  1  0  0  0
 87 88  2  0  0  0
 87 93  1  0  0  0
 89 90  1  0  0  0
 90 91  1  0  0  0
 91 92  1  0  0  0
 93 94  1  0  0  0
 94 95  1  0  0  0
 94 97  1  0  0  0
 95 96  2  0  0  0
 95102  1  0  0  0
 97 98  1  0  0  0
 98 99  1  0  0  0
 99100  1  0  0  0
 99101  2  0  0  0
102103  1  0  0  0
103104  1  0  0  0
103106  1  0  0  0
104105  2  0  0  0
104110  1  0  0  0
106107  1  0  0  0
107108  1  0  0  0
107109  2  0  0  0
  1111  1  0  0  0
  1112  1  0  0  0
  1113  1  0  0  0
  2114  1  0  0  0
  5115  1  0  0  0
  5116  1  0  0  0
  6117  1  0  0  0
  7118  1  0  0  0
  8119  1  0  0  0
 11120  1  0  0  0
 11121  1  0  0  0
 12122  1  0  0  0
 12123  1  0  0  0
 13124  1  0  0  0
 13125  1  0  0  0
 14126  1  0  0  0
 16127  1  0  0  0
 16128  1  0  0  0
 17129  1  0  0  0
 18130  1  0  0  0
 19131  1  0  0  0
 22132  1  0  0  0
 23133  1  0  0  0
 23134  1  0  0  0
 23135  1  0  0  0
 24136  1  0  0  0
 24137  1  0  0  0
 24138  1  0  0  0
 25139  1  0  0  0
 26140  1  0  0  0
 29141  1  0  0  0
 30142  1  0  0  0
 31143  1  0  0  0
 31144  1  0  0  0
 31145  1  0  0  0
 32146  1  0  0  0
 33147  1  0  0  0
 36148  1  0  0  0
 36149  1  0  0  0
 38150  1  0  0  0
 42151  1  0  0  0
 43152  1  0  0  0
 44153  1  0  0  0
 45154  1  0  0  0
 46155  1  0  0  0
 47156  1  0  0  0
 50157  1  0  0  0
 50158  1  0  0  0
 52159  1  0  0  0
 53160  1  0  0  0
 54161  1  0  0  0
 55162  1  0  0  0
 57163  1  0  0  0
 58164  1  0  0  0
 59165  1  0  0  0
 62166  1  0  0  0
 62167  1  0  0  0
 64168  1  0  0  0
 66169  1  0  0  0
 67170  1  0  0  0
 70171  1  0  0  0
 70172  1  0  0  0
 72173  1  0  0  0
 73174  1  0  0  0
 74175  1  0  0  0
 75176  1  0  0  0
 76177  1  0  0  0
 77178  1  0  0  0
 78179  1  0  0  0
 81180  1  0  0  0
 81181  1  0  0  0
 82182  1  0  0  0
 83183  1  0  0  0
 83184  1  0  0  0
 83185  1  0  0  0
 84186  1  0  0  0
 84187  1  0  0  0
 84188  1  0  0  0
 85189  1  0  0  0
 86190  1  0  0  0
 89191  1  0  0  0
 89192  1  0  0  0
 90193  1  0  0  0
 90194  1  0  0  0
 92195  1  0  0  0
 92196  1  0  0  0
 92197  1  0  0  0
 93198  1  0  0  0
 94199  1  0  0  0
 97200  1  0  0  0
 97201  1  0  0  0
 98202  1  0  0  0
 98203  1  0  0  0
100204  1  0  0  0
102205  1  0  0  0
103206  1  0  0  0
106207  1  0  0  0
106208  1  0  0  0
108209  1  0  0  0
110210  1  0  0  0
M  END
$$$$
