4nmp_ligand
  -I-interpret- 

116118  0  0  0  0  0  0  0  0999 V2000
   19.8690   26.8110   15.4170 N   0  3  0  0  0
   18.4410   26.9400   15.6810 C   0  0  0  0  0
   18.0430   26.2510   16.9780 C   0  0  0  0  0
   18.7070   25.3130   17.4210 O   0  0  0  0  0
   17.6230   26.3360   14.5440 C   0  0  0  0  0
   17.8580   26.9620   13.2160 C   0  0  0  0  0
   18.3410   28.2150   12.9660 C   0  0  0  0  0
   17.6260   26.3570   11.9410 C   0  0  0  0  0
   18.4220   28.4260   11.6090 N   0  0  0  0  0
   17.9890   27.3000   10.9580 C   0  0  0  0  0
   17.1460   25.1070   11.5340 C   0  0  0  0  0
   17.8850   27.0330    9.5940 C   0  0  0  0  0
   17.0440   24.8420   10.1810 C   0  0  0  0  0
   17.4120   25.8010    9.2260 C   0  0  0  0  0
   16.9460   26.7160   17.5860 N   0  0  0  0  0
   16.3910   26.0940   18.7870 C   0  0  0  0  0
   15.6980   24.7780   18.4480 C   0  0  0  0  0
   15.1780   24.6160   17.3450 O   0  0  0  0  0
   15.3710   27.1250   19.2710 C   0  0  0  0  0
   14.9510   27.8370   18.0410 C   0  0  0  0  0
   16.1820   27.9090   17.1800 C   0  0  0  0  0
   18.1580   16.6620   16.1190 O   0  0  0  0  0
   17.4910   17.4000   16.8440 C   0  0  0  0  0
   17.0670   18.7830   16.3240 C   0  0  0  0  0
   17.3520   17.0730   18.2630 N   0  0  0  0  0
   16.2450   17.6750   19.0590 C   0  0  0  0  0
   16.6110   19.0570   19.5630 C   0  0  0  0  0
   15.4960   20.0570   19.2930 C   0  0  0  0  0
   16.0630   21.4590   19.2360 C   0  0  0  0  0
   15.0300   22.5810   19.2620 C   0  0  0  0  0
   15.7120   23.8540   19.3970 N   0  0  0  0  0
   14.1370   22.4440   20.4780 C   0  0  0  0  0
   14.5800   22.6940   21.6000 O   0  0  0  0  0
   12.8760   22.0740   20.2660 N   0  0  0  0  0
   11.9710   21.8100   21.3730 C   0  0  0  0  0
   11.3600   20.4260   21.2050 C   0  0  0  0  0
   10.9070   20.0660   20.1140 O   0  0  0  0  0
   10.8550   22.8540   21.4470 C   0  0  0  0  0
   11.3510   24.1440   21.7680 O   0  0  0  0  0
   11.3510   19.6650   22.2980 N   0  0  0  0  0
   10.7170   18.3610   22.3480 C   0  0  0  0  0
    9.2900   18.5830   22.8130 C   0  0  0  0  0
    9.0630   19.1750   23.8770 O   0  0  0  0  0
   11.4360   17.4690   23.3720 C   0  0  0  0  0
   12.9210   17.3200   23.0200 C   0  0  0  0  0
   10.7520   16.1200   23.4620 C   0  0  0  0  0
   13.7680   16.7800   24.1730 C   0  0  0  0  0
    8.3250   18.1150   22.0210 N   0  0  0  0  0
    6.9140   18.4020   22.2800 C   0  0  0  0  0
    6.0030   17.2070   22.0280 C   0  0  0  0  0
    6.4410   16.1640   21.5060 O   0  0  0  0  0
    6.3950   19.6040   21.4410 C   0  0  0  0  0
    6.4390   19.2840   19.9450 C   0  0  0  0  0
    7.1810   20.8800   21.7520 C   0  0  0  0  0
    5.8320   20.3840   19.0650 C   0  0  0  0  0
    4.8170   17.2990   22.3510 O   0  0  0  0  0
   20.3947   27.2209   16.1890 H   0  0  0  0  0
   20.1091   25.8238   15.3269 H   0  0  0  0  0
   20.0988   27.2984   14.5510 H   0  0  0  0  0
   18.2342   28.0069   15.7653 H   0  0  0  0  0
   16.5724   26.4918   14.7889 H   0  0  0  0  0
   17.9168   25.2897   14.4602 H   0  0  0  0  0
   18.6210   28.9409   13.7294 H   0  0  0  0  0
   16.8580   24.3564   12.2700 H   0  0  0  0  0
   18.1691   27.7759    8.8487 H   0  0  0  0  0
   16.6716   23.8722    9.8511 H   0  0  0  0  0
   17.3196   25.5606    8.1669 H   0  0  0  0  0
   17.1499   25.8514   19.5309 H   0  0  0  0  0
   15.7955   27.8034   20.0111 H   0  0  0  0  0
   14.5283   26.6579   19.7807 H   0  0  0  0  0
   14.5622   28.8300   18.2667 H   0  0  0  0  0
   14.1387   27.3155   17.5346 H   0  0  0  0  0
   15.9506   27.9182   16.1149 H   0  0  0  0  0
   16.7405   28.8344   17.3208 H   0  0  0  0  0
   17.9552   19.3681   16.0856 H   0  0  0  0  0
   16.4587   18.6619   15.4276 H   0  0  0  0  0
   16.4874   19.2962   17.0913 H   0  0  0  0  0
   18.0116   16.4341   18.7070 H   0  0  0  0  0
   16.0501   17.0343   19.9190 H   0  0  0  0  0
   15.3672   17.7622   18.4187 H   0  0  0  0  0
   17.5091   19.3897   19.0426 H   0  0  0  0  0
   16.7747   19.0019   20.6392 H   0  0  0  0  0
   14.7600   19.9995   20.0949 H   0  0  0  0  0
   15.0251   19.8209   18.3388 H   0  0  0  0  0
   16.5920   21.5435   18.2867 H   0  0  0  0  0
   16.6806   21.5825   20.1256 H   0  0  0  0  0
   14.4465   22.5270   18.3429 H   0  0  0  0  0
   16.2236   24.0456   20.2584 H   0  0  0  0  0
   12.5382   21.9738   19.3088 H   0  0  0  0  0
   12.5431   21.8610   22.2994 H   0  0  0  0  0
   10.1592   22.5528   22.2301 H   0  0  0  0  0
   10.3747   22.9079   20.4700 H   0  0  0  0  0
   10.6210   24.7664   21.8042 H   0  0  0  0  0
   11.8109   20.0150   23.1384 H   0  0  0  0  0
   10.7541   17.8776   21.3717 H   0  0  0  0  0
   11.3786   17.9452   24.3508 H   0  0  0  0  0
   13.3002   18.3109   22.7701 H   0  0  0  0  0
   12.9937   16.6081   22.1978 H   0  0  0  0  0
    9.7168   16.2590   23.7736 H   0  0  0  0  0
   10.7771   15.6355   22.4859 H   0  0  0  0  0
   11.2718   15.4984   24.1910 H   0  0  0  0  0
   13.6991   17.4599   25.0222 H   0  0  0  0  0
   13.3996   15.7960   24.4629 H   0  0  0  0  0
   14.8069   16.7006   23.8528 H   0  0  0  0  0
    8.5766   17.5429   21.2149 H   0  0  0  0  0
    6.8746   18.6515   23.3403 H   0  0  0  0  0
    7.3773   16.2685   21.3217 H   0  0  0  0  0
    5.3560   19.7800   21.7194 H   0  0  0  0  0
    5.8539   18.3781   19.7867 H   0  0  0  0  0
    7.4868   19.1803   19.6632 H   0  0  0  0  0
    7.0741   21.1225   22.8093 H   0  0  0  0  0
    8.2340   20.7225   21.5187 H   0  0  0  0  0
    6.7927   21.7005   21.1487 H   0  0  0  0  0
    4.7867   20.5298   19.3372 H   0  0  0  0  0
    6.3813   21.3132   19.2166 H   0  0  0  0  0
    5.8982   20.0879   18.0181 H   0  0  0  0  0
  2  1  1  0  0  0
  3  2  1  0  0  0
  2  5  1  0  0  0
  3  4  2  0  0  0
 15  3  1  0  0  0
  5  6  1  0  0  0
  6  7  4  0  0  0
  6  8  4  0  0  0
  7  9  4  0  0  0
  8 10  4  0  0  0
  8 11  4  0  0  0
 10  9  4  0  0  0
 10 12  4  0  0  0
 11 13  4  0  0  0
 12 14  4  0  0  0
 13 14  4  0  0  0
 16 15  1  0  0  0
 15 21  1  0  0  0
 17 16  1  0  0  0
 16 19  1  0  0  0
 17 18  2  0  0  0
 31 17  1  0  0  0
 19 20  1  0  0  0
 20 21  1  0  0  0
 23 22  2  0  0  0
 23 24  1  0  0  0
 25 23  1  0  0  0
 26 25  1  0  0  0
 27 26  1  0  0  0
 28 27  1  0  0  0
 29 28  1  0  0  0
 30 29  1  0  0  0
 30 31  1  0  0  0
 30 32  1  0  0  0
 32 33  2  0  0  0
 32 34  1  0  0  0
 34 35  1  0  0  0
 35 36  1  0  0  0
 35 38  1  0  0  0
 36 37  2  0  0  0
 36 40  1  0  0  0
 38 39  1  0  0  0
 40 41  1  0  0  0
 41 42  1  0  0  0
 41 44  1  0  0  0
 42 43  2  0  0  0
 42 48  1  0  0  0
 44 45  1  0  0  0
 44 46  1  0  0  0
 45 47  1  0  0  0
 48 49  1  0  0  0
 49 50  1  0  0  0
 49 52  1  0  0  0
 50 51  1  0  0  0
 50 56  2  0  0  0
 52 53  1  0  0  0
 52 54  1  0  0  0
 53 55  1  0  0  0
  1 57  1  0  0  0
  1 58  1  0  0  0
  1 59  1  0  0  0
  2 60  1  0  0  0
  5 61  1  0  0  0
  5 62  1  0  0  0
  7 63  1  0  0  0
 11 64  1  0  0  0
 12 65  1  0  0  0
 13 66  1  0  0  0
 14 67  1  0  0  0
 16 68  1  0  0  0
 19 69  1  0  0  0
 19 70  1  0  0  0
 20 71  1  0  0  0
 20 72  1  0  0  0
 21 73  1  0  0  0
 21 74  1  0  0  0
 24 75  1  0  0  0
 24 76  1  0  0  0
 24 77  1  0  0  0
 25 78  1  0  0  0
 26 79  1  0  0  0
 26 80  1  0  0  0
 27 81  1  0  0  0
 27 82  1  0  0  0
 28 83  1  0  0  0
 28 84  1  0  0  0
 29 85  1  0  0  0
 29 86  1  0  0  0
 30 87  1  0  0  0
 31 88  1  0  0  0
 34 89  1  0  0  0
 35 90  1  0  0  0
 38 91  1  0  0  0
 38 92  1  0  0  0
 39 93  1  0  0  0
 40 94  1  0  0  0
 41 95  1  0  0  0
 44 96  1  0  0  0
 45 97  1  0  0  0
 45 98  1  0  0  0
 46 99  1  0  0  0
 46100  1  0  0  0
 46101  1  0  0  0
 47102  1  0  0  0
 47103  1  0  0  0
 47104  1  0  0  0
 48105  1  0  0  0
 49106  1  0  0  0
 51107  1  0  0  0
 52108  1  0  0  0
 53109  1  0  0  0
 53110  1  0  0  0
 54111  1  0  0  0
 54112  1  0  0  0
 54113  1  0  0  0
 55114  1  0  0  0
 55115  1  0  0  0
 55116  1  0  0  0
M  END
$$$$
