### 
### Created by X-TOOL on Mon Sep 10 21:13:17 2018
### 

@<TRIPOS>MOLECULE
4nmp_ligand
  116   118     1     0     0
SMALL
GAST_HUCK


@<TRIPOS>ATOM
      1 N          19.8690   26.8110   15.4170 N.4       1 TRP         0.2388
      2 CA         18.4410   26.9400   15.6810 C.3       1 TRP         0.0693
      3 C          18.0430   26.2510   16.9780 C.2       1 TRP         0.2305
      4 O          18.7070   25.3130   17.4210 O.2       1 TRP        -0.3904
      5 CB         17.6230   26.3360   14.5440 C.3       1 TRP         0.0245
      6 CG         17.8580   26.9620   13.2160 C.2       1 TRP        -0.0386
      7 CD1        18.3410   28.2150   12.9660 C.2       1 TRP         0.0168
      8 CD2        17.6260   26.3570   11.9410 C.ar      1 TRP        -0.0213
      9 NE1        18.4220   28.4260   11.6090 N.pl3     1 TRP        -0.2890
     10 CE2        17.9890   27.3000   10.9580 C.ar      1 TRP         0.0603
     11 CE3        17.1460   25.1070   11.5340 C.ar      1 TRP        -0.0747
     12 CZ2        17.8850   27.0330    9.5940 C.ar      1 TRP        -0.0443
     13 CZ3        17.0440   24.8420   10.1810 C.ar      1 TRP        -0.0792
     14 CH2        17.4120   25.8010    9.2260 C.ar      1 TRP        -0.0768
     15 N          16.9460   26.7160   17.5860 N.am      1 PRO        -0.2470
     16 CA         16.3910   26.0940   18.7870 C.3       1 PRO         0.1339
     17 C          15.6980   24.7780   18.4480 C.2       1 PRO         0.2041
     18 O          15.1780   24.6160   17.3450 O.2       1 PRO        -0.3944
     19 CB         15.3710   27.1250   19.2710 C.3       1 PRO        -0.0104
     20 CG         14.9510   27.8370   18.0410 C.3       1 PRO        -0.0281
     21 CD         16.1820   27.9090   17.1800 C.3       1 PRO         0.0371
     22 OH         18.1580   16.6620   16.1190 O.2       1 ALY        -0.3974
     23 CH         17.4910   17.4000   16.8440 C.2       1 ALY         0.1729
     24 CH3        17.0670   18.7830   16.3240 C.3       1 ALY         0.0256
     25 NZ         17.3520   17.0730   18.2630 N.am      1 ALY        -0.2872
     26 CE         16.2450   17.6750   19.0590 C.3       1 ALY         0.0309
     27 CD         16.6110   19.0570   19.5630 C.3       1 ALY        -0.0325
     28 CG         15.4960   20.0570   19.2930 C.3       1 ALY        -0.0470
     29 CB         16.0630   21.4590   19.2360 C.3       1 ALY        -0.0123
     30 CA         15.0300   22.5810   19.2620 C.3       1 ALY         0.1310
     31 N          15.7120   23.8540   19.3970 N.am      1 ALY        -0.2637
     32 C          14.1370   22.4440   20.4780 C.2       1 ALY         0.2040
     33 O          14.5800   22.6940   21.6000 O.2       1 ALY        -0.3944
     34 N          12.8760   22.0740   20.2660 N.am      1 SER        -0.2616
     35 CA         11.9710   21.8100   21.3730 C.3       1 SER         0.1539
     36 C          11.3600   20.4260   21.2050 C.2       1 SER         0.2062
     37 O          10.9070   20.0660   20.1140 O.2       1 SER        -0.3943
     38 CB         10.8550   22.8540   21.4470 C.3       1 SER         0.0843
     39 OG         11.3510   24.1440   21.7680 O.3       1 SER        -0.3903
     40 N          11.3510   19.6650   22.2980 N.am      1 ILE        -0.2634
     41 CA         10.7170   18.3610   22.3480 C.3       1 ILE         0.1335
     42 C           9.2900   18.5830   22.8130 C.2       1 ILE         0.2036
     43 O           9.0630   19.1750   23.8770 O.2       1 ILE        -0.3944
     44 CB         11.4360   17.4690   23.3720 C.3       1 ILE        -0.0037
     45 CG1        12.9210   17.3200   23.0200 C.3       1 ILE        -0.0491
     46 CG2        10.7520   16.1200   23.4620 C.3       1 ILE        -0.0582
     47 CD1        13.7680   16.7800   24.1730 C.3       1 ILE        -0.0648
     48 N           8.3250   18.1150   22.0210 N.am      1 ILE        -0.2692
     49 CA          6.9140   18.4020   22.2800 C.3       1 ILE         0.0969
     50 C           6.0030   17.2070   22.0280 C.2       1 ILE         0.0604
     51 O           6.4410   16.1640   21.5060 O.co2     1 ILE        -0.5666
     52 CB          6.3950   19.6040   21.4410 C.3       1 ILE        -0.0092
     53 CG1         6.4390   19.2840   19.9450 C.3       1 ILE        -0.0497
     54 CG2         7.1810   20.8800   21.7520 C.3       1 ILE        -0.0588
     55 CD1         5.8320   20.3840   19.0650 C.3       1 ILE        -0.0649
     56 OXT         4.8170   17.2990   22.3510 O.co2     1 ILE        -0.5666
     57 H          20.0944   27.2781   14.5527 H         1 TRP         0.2016
     58 H          20.1105   25.8351   15.3444 H         1 TRP         0.2016
     59 H          20.3894   27.2307   16.1714 H         1 TRP         0.2016
     60 H          18.2014   28.0105   15.7624 H         1 TRP         0.1114
     61 H          16.5569   26.4455   14.7917 H         1 TRP         0.0430
     62 H          17.8743   25.2677   14.4696 H         1 TRP         0.0430
     63 H          18.6208   28.9402   13.7287 H         1 TRP         0.0795
     64 H          18.7539   29.2894   11.1559 H         1 TRP         0.2216
     65 H          16.8595   24.3605   12.2660 H         1 TRP         0.0540
     66 H          18.1675   27.7718    8.8528 H         1 TRP         0.0541
     67 H          16.6736   23.8775    9.8529 H         1 TRP         0.0510
     68 H          17.3201   25.5619    8.1727 H         1 TRP         0.0530
     69 H          17.1718   25.9194   19.5418 H         1 PRO         0.0802
     70 H          15.8323   27.8225   19.9857 H         1 PRO         0.0313
     71 H          14.5117   26.6287   19.7456 H         1 PRO         0.0313
     72 H          14.5926   28.8479   18.2850 H         1 PRO         0.0287
     73 H          14.1541   27.2796   17.5269 H         1 PRO         0.0287
     74 H          15.9200   27.8654   16.1126 H         1 PRO         0.0524
     75 H          16.7506   28.8290   17.3807 H         1 PRO         0.0524
     76 H          16.4820   19.3020   17.0976 H         1 ALY         0.0467
     77 H          16.4530   18.6622   15.4194 H         1 ALY         0.0467
     78 H          17.9625   19.3745   16.0830 H         1 ALY         0.0467
     79 H          17.9986   16.4466   18.6983 H         1 ALY         0.1850
     80 H          16.0301   17.0257   19.9205 H         1 ALY         0.0520
     81 H          15.3494   17.7514   18.4250 H         1 ALY         0.0520
     82 H          17.5256   19.3938   19.0531 H         1 ALY         0.0285
     83 H          16.7926   19.0068   20.6467 H         1 ALY         0.0285
     84 H          14.7501   19.9979   20.0993 H         1 ALY         0.0268
     85 H          15.0169   19.8182   18.3321 H         1 ALY         0.0268
     86 H          16.6438   21.5533   18.3066 H         1 ALY         0.0312
     87 H          16.7302   21.5912   20.1005 H         1 ALY         0.0312
     88 H          14.4299   22.5582   18.3404 H         1 ALY         0.0800
     89 H          16.2135   24.0419   20.2415 H         1 ALY         0.1883
     90 H          12.5448   21.9757   19.3276 H         1 SER         0.1884
     91 H          12.5438   21.8395   22.3116 H         1 SER         0.0823
     92 H          10.1344   22.5487   22.2200 H         1 SER         0.0606
     93 H          10.3485   22.9014   20.4717 H         1 SER         0.0606
     94 H          11.9702   24.4188   21.1019 H         1 SER         0.2097
     95 H          11.8019   20.0082   23.1220 H         1 ILE         0.1883
     96 H          10.7336   17.8867   21.3557 H         1 ILE         0.0803
     97 H          11.3677   17.9532   24.3573 H         1 ILE         0.0345
     98 H          13.3120   18.3073   22.7330 H         1 ILE         0.0267
     99 H          13.0098   16.6289   22.1689 H         1 ILE         0.0267
    100 H           9.6912   16.2630   23.7153 H         1 ILE         0.0235
    101 H          11.2367   15.5144   24.2419 H         1 ILE         0.0235
    102 H          10.8314   15.6033   22.4942 H         1 ILE         0.0235
    103 H          14.8168   16.6994   23.8511 H         1 ILE         0.0230
    104 H          13.3973   15.7869   24.4666 H         1 ILE         0.0230
    105 H          13.6994   17.4653   25.0307 H         1 ILE         0.0230
    106 H           8.5717   17.5541   21.2307 H         1 ILE         0.1875
    107 H           6.8296   18.6696   23.3436 H         1 ILE         0.0729
    108 H           5.3451   19.7798   21.7182 H         1 ILE         0.0338
    109 H           5.8807   18.3522   19.7718 H         1 ILE         0.0267
    110 H           7.4892   19.1424   19.6501 H         1 ILE         0.0267
    111 H           7.1330   21.0862   22.8314 H         1 ILE         0.0234
    112 H           6.7444   21.7239   21.1978 H         1 ILE         0.0234
    113 H           8.2304   20.7469   21.4504 H         1 ILE         0.0234
    114 H           5.8983   20.0863   18.0081 H         1 ILE         0.0230
    115 H           6.3855   21.3224   19.2170 H         1 ILE         0.0230
    116 H           4.7770   20.5321   19.3387 H         1 ILE         0.0230
@<TRIPOS>BOND
     1    2    1 1  
     2    3    2 1  
     3    2    5 1  
     4    3    4 2  
     5   15    3 am 
     6    5    6 1  
     7    6    7 2  
     8    6    8 1  
     9    7    9 1  
    10    8   10 ar 
    11    8   11 ar 
    12   10    9 1  
    13   10   12 ar 
    14   11   13 ar 
    15   12   14 ar 
    16   13   14 ar 
    17   16   15 1  
    18   15   21 1  
    19   17   16 1  
    20   16   19 1  
    21   17   18 2  
    22   31   17 am 
    23   19   20 1  
    24   20   21 1  
    25   23   22 2  
    26   23   24 1  
    27   25   23 am 
    28   26   25 1  
    29   27   26 1  
    30   28   27 1  
    31   29   28 1  
    32   30   29 1  
    33   30   31 1  
    34   30   32 1  
    35   32   33 2  
    36   32   34 am 
    37   34   35 1  
    38   35   36 1  
    39   35   38 1  
    40   36   37 2  
    41   36   40 am 
    42   38   39 1  
    43   40   41 1  
    44   41   42 1  
    45   41   44 1  
    46   42   43 2  
    47   42   48 am 
    48   44   45 1  
    49   44   46 1  
    50   45   47 1  
    51   48   49 1  
    52   49   50 1  
    53   49   52 1  
    54   50   51 ar 
    55   50   56 ar 
    56   52   53 1  
    57   52   54 1  
    58   53   55 1  
    59    1   57 1  
    60    1   58 1  
    61    1   59 1  
    62    2   60 1  
    63    5   61 1  
    64    5   62 1  
    65    7   63 1  
    66    9   64 1  
    67   11   65 1  
    68   12   66 1  
    69   13   67 1  
    70   14   68 1  
    71   16   69 1  
    72   19   70 1  
    73   19   71 1  
    74   20   72 1  
    75   20   73 1  
    76   21   74 1  
    77   21   75 1  
    78   24   76 1  
    79   24   77 1  
    80   24   78 1  
    81   25   79 1  
    82   26   80 1  
    83   26   81 1  
    84   27   82 1  
    85   27   83 1  
    86   28   84 1  
    87   28   85 1  
    88   29   86 1  
    89   29   87 1  
    90   30   88 1  
    91   31   89 1  
    92   34   90 1  
    93   35   91 1  
    94   38   92 1  
    95   38   93 1  
    96   39   94 1  
    97   40   95 1  
    98   41   96 1  
    99   44   97 1  
   100   45   98 1  
   101   45   99 1  
   102   46  100 1  
   103   46  101 1  
   104   46  102 1  
   105   47  103 1  
   106   47  104 1  
   107   47  105 1  
   108   48  106 1  
   109   49  107 1  
   110   52  108 1  
   111   53  109 1  
   112   53  110 1  
   113   54  111 1  
   114   54  112 1  
   115   54  113 1  
   116   55  114 1  
   117   55  115 1  
   118   55  116 1  
@<TRIPOS>SUBSTRUCTURE
     1 TRP         1

