5a2j_ligand
  -I-interpret- 

 92 93  0  0  0  0  0  0  0  0999 V2000
   -8.3390    0.5270    8.6260 N   0  3  0  0  0
   -6.9890    1.0820    8.6030 C   0  0  0  0  0
   -6.5140    1.3920   10.0090 C   0  0  0  0  0
   -7.3110    1.4920   10.8850 O   0  0  0  0  0
   -6.9990    2.3690    7.7980 C   0  0  0  0  0
   -5.2110    1.5160   10.1590 N   0  0  0  0  0
   -4.6360    1.9680   11.4190 C   0  0  0  0  0
   -4.7050    3.4960   11.5030 C   0  0  0  0  0
   -5.5730    4.0840   10.8390 O   0  0  0  0  0
   -3.2140    1.4410   11.3440 C   0  0  0  0  0
   -2.8830    1.5420    9.8910 C   0  0  0  0  0
   -4.1610    1.2500    9.1550 C   0  0  0  0  0
   -3.8650    4.1390   12.3120 N   0  0  0  0  0
   -3.9210    5.5860   12.4630 C   0  0  0  0  0
   -3.2980    6.2490   11.2310 C   0  0  0  0  0
   -2.0770    6.3180   11.1110 O   0  0  0  0  0
   -3.1870    6.0560   13.7090 C   0  0  0  0  0
   -3.4460    7.5000   14.0400 C   0  0  0  0  0
   -4.2030    8.1940   13.3060 O   0  0  0  0  0
   -2.8770    7.9640   15.0490 O   0  0  0  0  0
   -4.1530    6.7540   10.3400 N   0  0  0  0  0
   -3.6910    7.3950    9.1090 C   0  0  0  0  0
   -3.5700    8.9140    9.2380 C   0  0  0  0  0
   -3.3110    9.6190    8.2390 O   0  0  0  0  0
   -4.6450    7.0490    7.9330 C   0  0  0  0  0
   -5.9600    7.4970    8.2670 O   0  0  0  0  0
   -4.6680    5.5540    7.6930 C   0  0  0  0  0
   -3.7090    9.4570   10.4400 N   0  0  0  0  0
   -3.5730   10.9070   10.5720 C   0  0  0  0  0
   -2.1310   11.3020   10.2380 C   0  0  0  0  0
   -1.1870   10.7160   10.7670 O   0  0  0  0  0
   -3.9160   11.3670   11.9700 C   0  0  0  0  0
   -3.6890   12.8680   12.1320 C   0  0  0  0  0
   -3.9140   13.2930   13.5520 C   0  0  0  0  0
   -5.3280   13.4370   13.7560 N   0  0  0  0  0
   -6.0310   14.5410   13.4870 C   0  0  0  0  0
   -5.4470   15.6330   12.9920 N   0  0  0  0  0
   -7.3380   14.5450   13.7150 N   0  0  0  0  0
   -1.9510   12.2900    9.3370 N   0  0  0  0  0
   -0.5880   12.6770    8.9960 C   0  0  0  0  0
    0.2330   13.0600   10.2450 C   0  0  0  0  0
   -0.2850   13.7810   11.0860 O   0  0  0  0  0
   -0.7910   13.8940    8.0880 C   0  0  0  0  0
   -2.1360   13.6860    7.4620 C   0  0  0  0  0
   -2.9650   12.9800    8.5130 C   0  0  0  0  0
    1.3730   12.6290   10.3500 O   0  0  0  0  0
   -8.3403   -0.3386    9.1655 H   0  0  0  0  0
   -8.9742    1.1987    9.0571 H   0  0  0  0  0
   -8.6425    0.3345    7.6714 H   0  0  0  0  0
   -6.3167    0.3509    8.1539 H   0  0  0  0  0
   -7.6734    3.0848    8.2680 H   0  0  0  0  0
   -5.9916    2.7839    7.7661 H   0  0  0  0  0
   -7.3391    2.1591    6.7839 H   0  0  0  0  0
   -5.1521    1.6147   12.3117 H   0  0  0  0  0
   -3.1243    0.4233   11.7239 H   0  0  0  0  0
   -2.5245    2.0067   11.9706 H   0  0  0  0  0
   -2.0980    0.8381    9.6146 H   0  0  0  0  0
   -2.4999    2.5313    9.6407 H   0  0  0  0  0
   -4.2755    1.8628    8.2608 H   0  0  0  0  0
   -4.1981    0.2292    8.7746 H   0  0  0  0  0
   -3.1693    3.6078   12.8357 H   0  0  0  0  0
   -4.9685    5.8703   12.5632 H   0  0  0  0  0
   -2.1184    5.9461   13.5241 H   0  0  0  0  0
   -3.5417    5.4563   14.5472 H   0  0  0  0  0
   -4.5368    7.6508   12.5883 H   0  0  0  0  0
   -5.1547    6.6915   10.5219 H   0  0  0  0  0
   -2.6926    7.0051    8.9109 H   0  0  0  0  0
   -4.2946    7.5407    7.0255 H   0  0  0  0  0
   -6.5602    7.2888    7.5473 H   0  0  0  0  0
   -3.6628    5.2112    7.4477 H   0  0  0  0  0
   -5.0161    5.0481    8.5935 H   0  0  0  0  0
   -5.3415    5.3304    6.8657 H   0  0  0  0  0
   -3.9065    8.8758   11.2547 H   0  0  0  0  0
   -4.2675   11.3869    9.8825 H   0  0  0  0  0
   -3.2731   10.8409   12.6757 H   0  0  0  0  0
   -4.9683   11.1532   12.1570 H   0  0  0  0  0
   -4.3923   13.4000   11.4913 H   0  0  0  0  0
   -2.6601   13.0987   11.8560 H   0  0  0  0  0
   -3.4083   14.2390   13.7456 H   0  0  0  0  0
   -3.5099   12.5467   14.2360 H   0  0  0  0  0
   -5.8338   12.6363   14.1347 H   0  0  0  0  0
   -6.0047   16.4632   12.7915 H   0  0  0  0  0
   -4.4427   15.6380   12.8139 H   0  0  0  0  0
   -7.7927   13.7128   14.0906 H   0  0  0  0  0
   -0.0298   11.8672    8.5263 H   0  0  0  0  0
   -0.0036   13.9765    7.3388 H   0  0  0  0  0
   -0.7442   14.8288    8.6467 H   0  0  0  0  0
   -2.0646   13.0975    6.5473 H   0  0  0  0  0
   -2.5890   14.6316    7.1642 H   0  0  0  0  0
   -3.5812   13.6668    9.0932 H   0  0  0  0  0
   -3.6939   12.2937    8.0819 H   0  0  0  0  0
    1.5808   12.0872    9.5852 H   0  0  0  0  0
  1  2  1  0  0  0
  2  3  1  0  0  0
  2  5  1  0  0  0
  3  4  2  0  0  0
  3  6  1  0  0  0
  6  7  1  0  0  0
  6 12  1  0  0  0
  7  8  1  0  0  0
  7 10  1  0  0  0
  8  9  2  0  0  0
  8 13  1  0  0  0
 10 11  1  0  0  0
 11 12  1  0  0  0
 13 14  1  0  0  0
 14 15  1  0  0  0
 14 17  1  0  0  0
 15 16  2  0  0  0
 15 21  1  0  0  0
 17 18  1  0  0  0
 18 19  1  0  0  0
 18 20  2  0  0  0
 21 22  1  0  0  0
 22 23  1  0  0  0
 22 25  1  0  0  0
 23 24  2  0  0  0
 23 28  1  0  0  0
 25 26  1  0  0  0
 25 27  1  0  0  0
 28 29  1  0  0  0
 29 30  1  0  0  0
 29 32  1  0  0  0
 30 31  2  0  0  0
 30 39  1  0  0  0
 32 33  1  0  0  0
 33 34  1  0  0  0
 34 35  1  0  0  0
 35 36  1  0  0  0
 36 37  1  0  0  0
 36 38  2  0  0  0
 39 40  1  0  0  0
 39 45  1  0  0  0
 40 41  1  0  0  0
 40 43  1  0  0  0
 41 42  2  0  0  0
 41 46  1  0  0  0
 43 44  1  0  0  0
 44 45  1  0  0  0
  1 47  1  0  0  0
  1 48  1  0  0  0
  1 49  1  0  0  0
  2 50  1  0  0  0
  5 51  1  0  0  0
  5 52  1  0  0  0
  5 53  1  0  0  0
  7 54  1  0  0  0
 10 55  1  0  0  0
 10 56  1  0  0  0
 11 57  1  0  0  0
 11 58  1  0  0  0
 12 59  1  0  0  0
 12 60  1  0  0  0
 13 61  1  0  0  0
 14 62  1  0  0  0
 17 63  1  0  0  0
 17 64  1  0  0  0
 19 65  1  0  0  0
 21 66  1  0  0  0
 22 67  1  0  0  0
 25 68  1  0  0  0
 26 69  1  0  0  0
 27 70  1  0  0  0
 27 71  1  0  0  0
 27 72  1  0  0  0
 28 73  1  0  0  0
 29 74  1  0  0  0
 32 75  1  0  0  0
 32 76  1  0  0  0
 33 77  1  0  0  0
 33 78  1  0  0  0
 34 79  1  0  0  0
 34 80  1  0  0  0
 35 81  1  0  0  0
 37 82  1  0  0  0
 37 83  1  0  0  0
 38 84  1  0  0  0
 40 85  1  0  0  0
 43 86  1  0  0  0
 43 87  1  0  0  0
 44 88  1  0  0  0
 44 89  1  0  0  0
 45 90  1  0  0  0
 45 91  1  0  0  0
 46 92  1  0  0  0
M  END
$$$$
