2hy0_ligand
  -I-interpret- 

 56 61  0  0  0  0  0  0  0  0999 V2000
   12.4160   -4.4350   13.4230 C   0  0  0  0  0
   12.0700   -3.2150   12.7910 C   0  0  0  0  0
   10.6990   -3.0860   13.1050 C   0  0  0  0  0
   10.3040   -4.1050   13.9200 N   0  0  0  0  0
   11.3240   -5.0030   13.9820 N   0  0  0  0  0
   18.5660   -1.4240    9.2760 C   0  0  0  0  0
   19.3980   -2.4860    9.7310 C   0  0  0  0  0
   19.3170   -0.5600    8.5620 N   0  0  0  0  0
   20.6630   -2.2750    9.2000 C   0  0  0  0  0
   20.6140   -1.0180    8.4180 C   0  0  0  0  0
   21.7690   -0.5100    7.6920 C   0  0  0  0  0
   23.0170   -1.2700    7.7270 C   0  0  0  0  0
   23.0580   -2.5230    8.4970 C   0  0  0  0  0
   21.9020   -3.0180    9.2440 C   0  0  0  0  0
   24.3030   -3.3970    8.4600 C   0  0  0  0  0
   12.9270   -2.3540   11.8920 C   0  0  0  0  0
   12.3460   -1.1410   11.3200 C   0  0  0  0  0
   13.0440   -0.3150   10.3990 C   0  0  0  0  0
   14.2980   -2.7250   11.5700 C   0  0  0  0  0
   15.0320   -1.8760   10.6760 C   0  0  0  0  0
   14.3780   -0.7090   10.1090 C   0  0  0  0  0
   15.0920    0.1310    9.2870 N   0  0  0  0  0
   16.4000   -0.1010    8.9610 C   0  0  0  0  0
   17.1210   -1.2750    9.5780 C   0  0  0  0  0
   16.3780   -2.1410   10.4370 C   0  0  0  0  0
   16.9310    0.6710    8.1690 O   0  0  0  0  0
   24.4930   -4.1030    7.1640 N   0  3  0  0  0
   25.4530   -5.2230    7.2650 C   0  0  0  0  0
   25.6250   -5.9000    5.8940 C   0  0  0  0  0
   24.2870   -6.4300    5.3790 C   0  0  0  0  0
   23.3440   -5.2420    5.2690 C   0  0  0  0  0
   23.2000   -4.5960    6.6450 C   0  0  0  0  0
   13.4209   -4.8562   13.4541 H   0  0  0  0  0
   10.0501   -2.2867   12.7472 H   0  0  0  0  0
   19.0974   -3.3114   10.3764 H   0  0  0  0  0
   21.7042    0.4224    7.1312 H   0  0  0  0  0
   23.8991   -0.9158    7.1936 H   0  0  0  0  0
   21.9740   -3.9362    9.8269 H   0  0  0  0  0
   24.1938   -4.1564    9.2343 H   0  0  0  0  0
   25.1649   -2.7465    8.6086 H   0  0  0  0  0
   11.3347   -0.8584   11.6124 H   0  0  0  0  0
   12.5862    0.5636    9.9445 H   0  0  0  0  0
   14.7525   -3.6199   11.9950 H   0  0  0  0  0
   14.6296    0.9568    8.9067 H   0  0  0  0  0
   16.8601   -3.0014   10.9012 H   0  0  0  0  0
   24.8837   -3.4212    6.5137 H   0  0  0  0  0
   25.0745   -5.9542    7.9792 H   0  0  0  0  0
   26.4173   -4.8378    7.5964 H   0  0  0  0  0
   26.3172   -6.7354    5.9988 H   0  0  0  0  0
   26.0088   -5.1662    5.1852 H   0  0  0  0  0
   23.8830   -7.1785    6.0606 H   0  0  0  0  0
   24.4128   -6.9109    4.4090 H   0  0  0  0  0
   22.3689   -5.5770    4.9153 H   0  0  0  0  0
   23.7460   -4.5167    4.5616 H   0  0  0  0  0
   22.5236   -3.7462    6.5532 H   0  0  0  0  0
   22.8200   -5.3482    7.3363 H   0  0  0  0  0
  2  1  4  0  0  0
  1  5  4  0  0  0
  2  3  4  0  0  0
 16  2  1  0  0  0
  3  4  4  0  0  0
  4  5  4  0  0  0
  6  7  4  0  0  0
  6  8  4  0  0  0
 24  6  1  0  0  0
  7  9  4  0  0  0
  8 10  4  0  0  0
 10  9  4  0  0  0
  9 14  4  0  0  0
 10 11  4  0  0  0
 11 12  4  0  0  0
 12 13  4  0  0  0
 14 13  4  0  0  0
 13 15  1  0  0  0
 15 27  1  0  0  0
 17 16  4  0  0  0
 19 16  4  0  0  0
 18 17  4  0  0  0
 21 18  4  0  0  0
 20 19  4  0  0  0
 21 20  4  0  0  0
 20 25  1  0  0  0
 22 21  1  0  0  0
 23 22  1  0  0  0
 23 24  1  0  0  0
 23 26  2  0  0  0
 24 25  2  0  0  0
 27 28  1  0  0  0
 27 32  1  0  0  0
 28 29  1  0  0  0
 29 30  1  0  0  0
 30 31  1  0  0  0
 31 32  1  0  0  0
  1 33  1  0  0  0
  3 34  1  0  0  0
  7 35  1  0  0  0
 11 36  1  0  0  0
 12 37  1  0  0  0
 14 38  1  0  0  0
 15 39  1  0  0  0
 15 40  1  0  0  0
 17 41  1  0  0  0
 18 42  1  0  0  0
 19 43  1  0  0  0
 22 44  1  0  0  0
 25 45  1  0  0  0
 27 46  1  0  0  0
 28 47  1  0  0  0
 28 48  1  0  0  0
 29 49  1  0  0  0
 29 50  1  0  0  0
 30 51  1  0  0  0
 30 52  1  0  0  0
 31 53  1  0  0  0
 31 54  1  0  0  0
 32 55  1  0  0  0
 32 56  1  0  0  0
M  END
$$$$
