1ett_ligand
  -I-interpret- 

 58 60  0  0  0  0  0  0  0  0999 V2000
  -36.7260  -31.8490   45.4930 S   0  0  0  0  0
  -35.2930  -32.2310   45.6030 O   0  0  0  0  0
  -37.5670  -33.0380   45.9630 O   0  0  0  0  0
  -37.0370  -30.4170   46.6250 C   0  0  0  0  0
  -36.0410  -29.5090   46.9620 C   0  0  0  0  0
  -36.3700  -28.3550   47.7050 C   0  0  0  0  0
  -37.6490  -28.1800   48.1990 C   0  0  0  0  0
  -38.6240  -29.1290   47.9200 C   0  0  0  0  0
  -38.3210  -30.2260   47.1230 C   0  0  0  0  0
  -37.9910  -27.0020   49.1120 C   0  0  0  0  0
  -36.7880  -30.6760   43.0800 C   0  0  0  0  0
  -37.1850  -29.2170   43.3640 C   0  0  0  0  0
  -38.3260  -28.8700   43.7610 O   0  0  0  0  0
  -37.3900  -31.6250   43.9840 N   0  0  0  0  0
  -37.0310  -31.0440   41.6140 C   0  0  0  0  0
  -38.4570  -30.8170   41.1570 C   0  0  0  0  0
  -38.8130  -29.6390   40.5400 C   0  0  0  0  0
  -39.4130  -31.7560   41.4420 C   0  0  0  0  0
  -40.1270  -29.4150   40.1870 C   0  0  0  0  0
  -40.7170  -31.5230   41.0790 C   0  0  0  0  0
  -41.1020  -30.3450   40.4600 C   0  0  0  0  0
  -42.4470  -30.1280   40.1580 C   0  0  0  0  0
  -43.2710  -31.1830   40.0910 N   0  0  0  0  0
  -42.9010  -28.8790   39.9540 N   0  0  0  0  0
  -36.1900  -28.3530   43.2180 N   0  0  0  0  0
  -34.8190  -28.7220   42.9610 C   0  0  0  0  0
  -34.0980  -28.0400   44.0820 C   0  0  0  0  0
  -34.1730  -26.5800   43.8280 C   0  0  0  0  0
  -35.6080  -26.2610   44.0440 C   0  0  0  0  0
  -36.4020  -26.9490   42.9930 C   0  0  0  0  0
  -35.0106  -29.6869   46.6541 H   0  0  0  0  0
  -35.6099  -27.5962   47.8906 H   0  0  0  0  0
  -39.6285  -29.0130   48.3270 H   0  0  0  0  0
  -39.1020  -30.9480   46.8845 H   0  0  0  0  0
  -37.3776  -27.0513   50.0117 H   0  0  0  0  0
  -37.7934  -26.0676   48.5867 H   0  0  0  0  0
  -39.0449  -27.0504   49.3861 H   0  0  0  0  0
  -35.7162  -30.7402   43.2679 H   0  0  0  0  0
  -38.2150  -32.1538   43.7009 H   0  0  0  0  0
  -36.8198  -32.1079   41.5059 H   0  0  0  0  0
  -36.3890  -30.4055   41.0072 H   0  0  0  0  0
  -38.0560  -28.8832   40.3305 H   0  0  0  0  0
  -39.1411  -32.6800   41.9524 H   0  0  0  0  0
  -40.3968  -28.4865   39.6839 H   0  0  0  0  0
  -41.4689  -32.2852   41.2834 H   0  0  0  0  0
  -42.9113  -32.1225   40.2593 H   0  0  0  0  0
  -43.8869  -28.7226   39.7443 H   0  0  0  0  0
  -42.2595  -28.0879   40.0089 H   0  0  0  0  0
  -34.4680  -28.4193   41.9744 H   0  0  0  0  0
  -34.6591  -29.8000   42.9373 H   0  0  0  0  0
  -33.0598  -28.3689   44.1270 H   0  0  0  0  0
  -34.5562  -28.2870   45.0397 H   0  0  0  0  0
  -33.8326  -26.3129   42.8275 H   0  0  0  0  0
  -33.5157  -26.0086   44.4834 H   0  0  0  0  0
  -35.7645  -25.1839   43.9859 H   0  0  0  0  0
  -35.9218  -26.5995   45.0314 H   0  0  0  0  0
  -37.4586  -26.6876   43.0519 H   0  0  0  0  0
  -36.0886  -26.6505   41.9926 H   0  0  0  0  0
  1  2  2  0  0  0
  1  3  2  0  0  0
  1  4  1  0  0  0
  4  5  4  0  0  0
  4  9  4  0  0  0
  5  6  4  0  0  0
  6  7  4  0  0  0
  8  7  4  0  0  0
  7 10  1  0  0  0
  9  8  4  0  0  0
 11 12  1  0  0  0
 14 11  1  0  0  0
 11 15  1  0  0  0
 12 13  2  0  0  0
 12 25  1  0  0  0
 14  1  1  0  0  0
 15 16  1  0  0  0
 16 17  4  0  0  0
 16 18  4  0  0  0
 17 19  4  0  0  0
 18 20  4  0  0  0
 19 21  4  0  0  0
 20 21  4  0  0  0
 21 22  1  0  0  0
 22 23  2  0  0  0
 22 24  1  0  0  0
 25 26  1  0  0  0
 25 30  1  0  0  0
 26 27  1  0  0  0
 27 28  1  0  0  0
 28 29  1  0  0  0
 29 30  1  0  0  0
  5 31  1  0  0  0
  6 32  1  0  0  0
  8 33  1  0  0  0
  9 34  1  0  0  0
 10 35  1  0  0  0
 10 36  1  0  0  0
 10 37  1  0  0  0
 11 38  1  0  0  0
 14 39  1  0  0  0
 15 40  1  0  0  0
 15 41  1  0  0  0
 17 42  1  0  0  0
 18 43  1  0  0  0
 19 44  1  0  0  0
 20 45  1  0  0  0
 23 46  1  0  0  0
 24 47  1  0  0  0
 24 48  1  0  0  0
 26 49  1  0  0  0
 26 50  1  0  0  0
 27 51  1  0  0  0
 27 52  1  0  0  0
 28 53  1  0  0  0
 28 54  1  0  0  0
 29 55  1  0  0  0
 29 56  1  0  0  0
 30 57  1  0  0  0
 30 58  1  0  0  0
M  END
$$$$
