1wdq_ligand
  -I-interpret- 

 43 44  0  0  0  0  0  0  0  0999 V2000
    0.9230   28.6920   21.9830 C   0  0  0  0  0
    1.7170   27.4070   21.6590 C   0  0  0  0  0
    3.1030   27.8610   21.1930 C   0  0  0  0  0
    2.9420   28.6640   19.9090 C   0  0  0  0  0
    2.0870   29.9040   20.1930 C   0  0  0  0  0
    1.7200   30.7580   18.9850 C   0  0  0  0  0
    1.5100   29.4120   23.0670 O   0  0  0  0  0
    1.8620   26.6610   22.8710 O   0  0  0  0  0
    3.8820   26.6820   20.9530 O   0  0  0  0  0
    4.2560   29.1080   19.5140 O   0  0  0  0  0
    0.8360   29.4530   20.7540 O   0  0  0  0  0
    0.9830   30.0210   17.9800 O   0  0  0  0  0
   -0.2160   32.8410   24.5710 C   0  0  0  0  0
   -0.6380   31.5880   25.1980 C   0  0  0  0  0
    0.0570   30.3000   24.8200 C   0  0  0  0  0
    0.8690   30.5740   23.5570 C   0  0  0  0  0
    1.8850   31.6670   23.9480 C   0  0  0  0  0
    2.8230   32.2800   22.9300 C   0  0  0  0  0
   -0.8270   34.1190   24.3720 O   0  0  0  0  0
   -1.0670   31.4000   26.5250 O   0  0  0  0  0
   -0.8750   29.2780   24.5270 O   0  0  0  0  0
    1.1980   32.8420   24.4530 O   0  0  0  0  0
    2.0480   32.8510   21.7950 O   0  0  0  0  0
   -0.0839   28.4615   22.3311 H   0  0  0  0  0
    1.2221   26.7974   20.9030 H   0  0  0  0  0
    3.5962   28.4854   21.9380 H   0  0  0  0  0
    2.4708   28.0588   19.1345 H   0  0  0  0  0
    2.6972   30.5270   20.8470 H   0  0  0  0  0
    2.6465   31.1081   18.5298 H   0  0  0  0  0
    1.0859   31.5735   19.3329 H   0  0  0  0  0
    0.9978   26.3711   23.1723 H   0  0  0  0  0
    3.9736   26.1883   21.7712 H   0  0  0  0  0
    4.8089   28.3448   19.3310 H   0  0  0  0  0
    0.7779   30.6027   17.2444 H   0  0  0  0  0
   -1.5460   31.8530   24.6564 H   0  0  0  0  0
    0.6797   29.9724   25.6525 H   0  0  0  0  0
    0.2245   30.8991   22.7403 H   0  0  0  0  0
    2.4898   31.0699   24.6305 H   0  0  0  0  0
    3.4929   31.5078   22.5518 H   0  0  0  0  0
    3.3961   33.0754   23.4065 H   0  0  0  0  0
   -1.2821   30.4746   26.6625 H   0  0  0  0  0
   -0.4043   28.4752   24.2912 H   0  0  0  0  0
    2.6534   33.2361   21.1572 H   0  0  0  0  0
  1  2  1  0  0  0
  7  1  1  0  0  0
  1 11  1  0  0  0
  2  3  1  0  0  0
  2  8  1  0  0  0
  3  4  1  0  0  0
  3  9  1  0  0  0
  5  4  1  0  0  0
  4 10  1  0  0  0
  5  6  1  0  0  0
 11  5  1  0  0  0
  6 12  1  0  0  0
 16  7  1  0  0  0
 14 13  1  0  0  0
 13 19  2  0  0  0
 13 22  1  0  0  0
 15 14  1  0  0  0
 14 20  1  0  0  0
 15 16  1  0  0  0
 15 21  1  0  0  0
 16 17  1  0  0  0
 17 18  1  0  0  0
 17 22  1  0  0  0
 18 23  1  0  0  0
  1 24  1  0  0  0
  2 25  1  0  0  0
  3 26  1  0  0  0
  4 27  1  0  0  0
  5 28  1  0  0  0
  6 29  1  0  0  0
  6 30  1  0  0  0
  8 31  1  0  0  0
  9 32  1  0  0  0
 10 33  1  0  0  0
 12 34  1  0  0  0
 14 35  1  0  0  0
 15 36  1  0  0  0
 16 37  1  0  0  0
 17 38  1  0  0  0
 18 39  1  0  0  0
 18 40  1  0  0  0
 20 41  1  0  0  0
 21 42  1  0  0  0
 23 43  1  0  0  0
M  END
$$$$
