4y38_ligand
  -I-interpret- 

 27 27  0  0  0  0  0  0  0  0999 V2000
    2.1700    4.8060    9.0620 N   0  3  0  0  0
    0.7500    4.3720    9.0230 C   0  0  0  0  0
   -0.2500    5.5090    8.8730 C   0  0  0  0  0
    0.3690    3.6680   10.3470 C   0  0  0  0  0
   -0.9480    2.9320   10.3640 C   0  0  0  0  0
   -1.0330    1.6160    9.9360 C   0  0  0  0  0
   -2.0880    3.5240   10.8910 C   0  0  0  0  0
   -2.2150    0.9060   10.0460 C   0  0  0  0  0
   -3.2700    2.8130   11.0060 C   0  0  0  0  0
   -3.3340    1.5020   10.5870 C   0  0  0  0  0
   -0.1370    6.5840    9.3930 O   0  0  0  0  0
   -2.1940    6.2260    7.7560 C   0  0  0  0  0
   -1.2540    5.1730    8.0710 O   0  0  0  0  0
    2.4073    5.2679    8.1841 H   0  0  0  0  0
    2.3045    5.4557    9.8367 H   0  0  0  0  0
    2.7698    3.9913    9.1919 H   0  0  0  0  0
    0.6915    3.7212    8.1506 H   0  0  0  0  0
    0.2833    4.4569   11.0943 H   0  0  0  0  0
    1.1377    2.9149   10.5202 H   0  0  0  0  0
   -0.1551    1.1336    9.5063 H   0  0  0  0  0
   -2.0516    4.5629   11.2187 H   0  0  0  0  0
   -2.2617   -0.1279    9.7039 H   0  0  0  0  0
   -4.1530    3.2918   11.4294 H   0  0  0  0  0
   -4.2631    0.9400   10.6827 H   0  0  0  0  0
   -2.6502    6.5913    8.6761 H   0  0  0  0  0
   -1.6698    7.0427    7.2597 H   0  0  0  0  0
   -2.9680    5.8348    7.0956 H   0  0  0  0  0
  1  2  1  0  0  0
  2  3  1  0  0  0
  2  4  1  0  0  0
  3 11  2  0  0  0
  3 13  1  0  0  0
  4  5  1  0  0  0
  5  6  4  0  0  0
  5  7  4  0  0  0
  6  8  4  0  0  0
  7  9  4  0  0  0
  8 10  4  0  0  0
  9 10  4  0  0  0
 13 12  1  0  0  0
  1 14  1  0  0  0
  1 15  1  0  0  0
  1 16  1  0  0  0
  2 17  1  0  0  0
  4 18  1  0  0  0
  4 19  1  0  0  0
  6 20  1  0  0  0
  7 21  1  0  0  0
  8 22  1  0  0  0
  9 23  1  0  0  0
 10 24  1  0  0  0
 12 25  1  0  0  0
 12 26  1  0  0  0
 12 27  1  0  0  0
M  END
$$$$
