1gj7_ligand
  -I-interpret- 

 41 44  0  0  0  0  0  0  0  0999 V2000
    8.5780    0.4240   24.9970 C   0  0  0  0  0
    8.7520    0.4970   23.5850 C   0  0  0  0  0
    9.1610    1.6830   22.9660 C   0  0  0  0  0
    9.3540    2.8100   23.7440 C   0  0  0  0  0
    9.2490    2.7450   25.0950 C   0  0  0  0  0
    8.8640    1.5830   25.7580 C   0  0  0  0  0
    8.2280   -0.7940   25.6410 C   0  0  0  0  0
    7.5210   -0.7780   26.7490 N   0  0  0  0  0
    8.6130   -1.9210   25.1090 N   0  0  0  0  0
    9.7930    4.0110   23.4250 N   0  0  0  0  0
    9.5550    3.9940   25.5940 C   0  0  0  0  0
    9.8640    4.7960   24.4820 C   0  0  0  0  0
   10.2150    6.1850   24.4680 C   0  0  0  0  0
   10.0220    6.9650   25.6260 C   0  0  0  0  0
   10.3310    8.3320   25.6420 C   0  0  0  0  0
   10.8230    8.9520   24.5110 C   0  0  0  0  0
   11.0270    8.2220   23.3300 C   0  0  0  0  0
   10.7080    6.8370   23.3020 C   0  0  0  0  0
   10.8780    6.1340   22.1250 O   0  0  0  0  0
   11.6130    8.9280   22.2610 C   0  0  0  0  0
   12.7720    8.4350   21.6570 C   0  0  0  0  0
   13.4070    9.1420   20.6540 C   0  0  0  0  0
   12.8960   10.3610   20.2340 C   0  0  0  0  0
   11.7400   10.8600   20.8060 C   0  0  0  0  0
   11.0980   10.1470   21.8220 C   0  0  0  0  0
    8.3610   -0.8350   22.4740 Cl  0  0  0  0  0
    9.3248    1.7182   21.8889 H   0  0  0  0  0
    8.7841    1.5658   26.8449 H   0  0  0  0  0
    7.2664   -1.6546   27.2043 H   0  0  0  0  0
    7.2269    0.1110   27.1535 H   0  0  0  0  0
    8.3658   -2.8053   25.5531 H   0  0  0  0  0
    9.5568    4.2980   26.6407 H   0  0  0  0  0
    9.6248    6.4961   26.5263 H   0  0  0  0  0
   10.1817    8.9098   26.5541 H   0  0  0  0  0
   11.0548   10.0168   24.5355 H   0  0  0  0  0
   11.2154    6.7240   21.4471 H   0  0  0  0  0
   13.1815    7.4785   21.9817 H   0  0  0  0  0
   14.3098    8.7416   20.1927 H   0  0  0  0  0
   13.4055   10.9257   19.4532 H   0  0  0  0  0
   11.3294   11.8101   20.4641 H   0  0  0  0  0
   10.1898   10.5460   22.2737 H   0  0  0  0  0
  7  1  1  0  0  0
  1  6  4  0  0  0
  1  2  4  0  0  0
  2  3  4  0  0  0
  2 26  1  0  0  0
  3  4  4  0  0  0
  4 10  4  0  0  0
  4  5  4  0  0  0
  5 11  4  0  0  0
  6  5  4  0  0  0
 11 12  4  0  0  0
 12 13  1  0  0  0
 10 12  4  0  0  0
 13 18  4  0  0  0
 13 14  4  0  0  0
 18 19  1  0  0  0
 18 17  4  0  0  0
 17 20  1  0  0  0
 17 16  4  0  0  0
 16 15  4  0  0  0
 20 25  4  0  0  0
 20 21  4  0  0  0
 21 22  4  0  0  0
 22 23  4  0  0  0
 23 24  4  0  0  0
 25 24  4  0  0  0
  7  9  2  0  0  0
  7  8  1  0  0  0
 14 15  4  0  0  0
  3 27  1  0  0  0
  6 28  1  0  0  0
  8 29  1  0  0  0
  8 30  1  0  0  0
  9 31  1  0  0  0
 11 32  1  0  0  0
 14 33  1  0  0  0
 15 34  1  0  0  0
 16 35  1  0  0  0
 19 36  1  0  0  0
 21 37  1  0  0  0
 22 38  1  0  0  0
 23 39  1  0  0  0
 24 40  1  0  0  0
 25 41  1  0  0  0
M  END
$$$$
