2qzk_ligand
  -I-interpret- 

 72 76  0  0  0  0  0  0  0  0999 V2000
   29.7510   43.6850    1.1870 C   0  0  0  0  0
   28.6960   44.3120    0.4230 C   0  0  0  0  0
   27.6180   43.5380   -0.1530 C   0  0  0  0  0
   27.5920   42.1210    0.0890 C   0  0  0  0  0
   28.6420   41.4800    0.7960 C   0  0  0  0  0
   29.7440   42.2170    1.3610 C   0  0  0  0  0
   30.7850   44.5390    1.8170 C   0  0  0  0  0
   28.5480   39.9780    0.7490 C   0  0  0  0  0
   29.4990   39.4930    1.6940 O   0  0  0  0  0
   31.3190   43.9990    2.9150 N   0  0  0  0  0
   32.4190   44.4290    3.7820 C   0  0  0  0  0
   31.0700   37.8910    2.3880 C   0  0  0  0  0
   33.6930   43.5710    3.9130 C   0  0  0  0  0
   34.2870   43.0310    2.6050 C   0  0  0  0  0
   30.7960   38.5670    3.6660 N   0  3  0  0  0
   32.4800   38.2090    1.7940 C   0  0  0  0  0
   33.5770   41.9500    1.7850 C   0  0  0  0  0
   33.2870   40.6310    2.3110 C   0  0  0  0  0
   32.7580   39.6520    1.3830 C   0  0  0  0  0
   32.5000   39.9970    0.0010 C   0  0  0  0  0
   32.7800   41.3210   -0.5040 C   0  0  0  0  0
   33.3190   42.2850    0.4120 C   0  0  0  0  0
   31.1600   45.1120    7.3020 C   0  0  0  0  0
   31.5550   44.4190    6.0880 C   0  0  0  0  0
   32.0270   45.2040    4.9390 C   0  0  0  0  0
   32.1190   46.6580    4.9330 C   0  0  0  0  0
   31.7040   47.3340    6.1460 C   0  0  0  0  0
   31.2420   46.5710    7.3050 C   0  0  0  0  0
   30.0570   38.3200    1.3860 C   0  0  0  0  0
   30.7650   36.3610    2.6280 C   0  0  0  0  0
   31.1820   45.6460    1.4290 O   0  0  0  0  0
   29.7410   37.6690    0.4250 O   0  0  0  0  0
   26.3140   43.8980   -2.3270 C   0  0  0  0  0
   25.1280   44.4080   -3.0450 C   0  0  0  0  0
   24.0730   45.1720   -2.3810 C   0  0  0  0  0
   24.2170   45.4240   -0.9540 C   0  0  0  0  0
   25.3760   44.9090   -0.2230 C   0  0  0  0  0
   26.4420   44.1440   -0.8750 C   0  0  0  0  0
   25.3100   45.0920    1.1960 C   0  0  0  0  0
   25.3610   44.9890    2.3500 N   0  0  0  0  0
   28.7131   45.3921    0.2777 H   0  0  0  0  0
   26.7524   41.5298   -0.2765 H   0  0  0  0  0
   30.5450   41.7093    1.8983 H   0  0  0  0  0
   28.7594   39.6011   -0.2517 H   0  0  0  0  0
   27.5415   39.6384    0.9932 H   0  0  0  0  0
   30.8797   43.1250    3.2039 H   0  0  0  0  0
   32.8700   45.1549    3.1055 H   0  0  0  0  0
   33.4116   42.6979    4.5017 H   0  0  0  0  0
   34.4534   44.2210    4.3460 H   0  0  0  0  0
   35.2129   42.5501    2.9205 H   0  0  0  0  0
   34.2884   43.8979    1.9442 H   0  0  0  0  0
   29.8629   38.3130    3.9904 H   0  0  0  0  0
   31.4880   38.2780    4.3573 H   0  0  0  0  0
   30.8478   39.5770    3.5330 H   0  0  0  0  0
   32.5532   37.6224    0.8782 H   0  0  0  0  0
   33.1917   37.9866    2.5890 H   0  0  0  0  0
   33.4593   40.3861    3.3591 H   0  0  0  0  0
   32.0871   39.2442   -0.6705 H   0  0  0  0  0
   32.5884   41.5790   -1.5455 H   0  0  0  0  0
   33.5373   43.2928    0.0587 H   0  0  0  0  0
   30.8150   44.5638    8.1787 H   0  0  0  0  0
   31.5020   43.3318    6.0302 H   0  0  0  0  0
   32.4802   47.2074    4.0637 H   0  0  0  0  0
   31.7366   48.4224    6.1950 H   0  0  0  0  0
   30.9477   47.1110    8.2050 H   0  0  0  0  0
   31.4116   35.9828    3.4198 H   0  0  0  0  0
   29.7219   36.2413    2.9208 H   0  0  0  0  0
   30.9516   35.8061    1.7086 H   0  0  0  0  0
   27.0866   43.3461   -2.8623 H   0  0  0  0  0
   25.0357   44.2067   -4.1123 H   0  0  0  0  0
   23.2091   45.5400   -2.9346 H   0  0  0  0  0
   23.4566   46.0000   -0.4266 H   0  0  0  0  0
  2  1  4  0  0  0
  1  6  4  0  0  0
  1  7  1  0  0  0
  3  2  4  0  0  0
  3  4  4  0  0  0
 38  3  1  0  0  0
  4  5  4  0  0  0
  5  6  4  0  0  0
  5  8  1  0  0  0
  7 10  1  0  0  0
  7 31  2  0  0  0
  8  9  1  0  0  0
  9 29  1  0  0  0
 10 11  1  0  0  0
 11 13  1  0  0  0
 11 25  1  0  0  0
 12 15  1  0  0  0
 12 16  1  0  0  0
 29 12  1  0  0  0
 12 30  1  0  0  0
 13 14  1  0  0  0
 14 17  1  0  0  0
 16 19  1  0  0  0
 17 18  4  0  0  0
 17 22  4  0  0  0
 19 18  4  0  0  0
 19 20  4  0  0  0
 20 21  4  0  0  0
 22 21  4  0  0  0
 24 23  4  0  0  0
 23 28  4  0  0  0
 25 24  4  0  0  0
 25 26  4  0  0  0
 26 27  4  0  0  0
 27 28  4  0  0  0
 29 32  2  0  0  0
 33 34  4  0  0  0
 33 38  4  0  0  0
 34 35  4  0  0  0
 35 36  4  0  0  0
 36 37  4  0  0  0
 37 38  4  0  0  0
 37 39  1  0  0  0
 39 40  3  0  0  0
  2 41  1  0  0  0
  4 42  1  0  0  0
  6 43  1  0  0  0
  8 44  1  0  0  0
  8 45  1  0  0  0
 10 46  1  0  0  0
 11 47  1  0  0  0
 13 48  1  0  0  0
 13 49  1  0  0  0
 14 50  1  0  0  0
 14 51  1  0  0  0
 15 52  1  0  0  0
 15 53  1  0  0  0
 15 54  1  0  0  0
 16 55  1  0  0  0
 16 56  1  0  0  0
 18 57  1  0  0  0
 20 58  1  0  0  0
 21 59  1  0  0  0
 22 60  1  0  0  0
 23 61  1  0  0  0
 24 62  1  0  0  0
 26 63  1  0  0  0
 27 64  1  0  0  0
 28 65  1  0  0  0
 30 66  1  0  0  0
 30 67  1  0  0  0
 30 68  1  0  0  0
 33 69  1  0  0  0
 34 70  1  0  0  0
 35 71  1  0  0  0
 36 72  1  0  0  0
M  END
$$$$
