1s5z_ligand
  -I-interpret- 

 42 44  0  0  0  0  0  0  0  0999 V2000
    3.7600  -20.3990    4.8340 P   0  0  0  0  0
    4.9760  -21.2280    5.0220 O   0  0  0  0  0
    3.1160  -20.1060    6.1380 O   0  0  0  0  0
    4.2670  -18.9960    4.2730 O   0  0  0  0  0
    2.6530  -21.1830    3.7600 C   0  0  0  0  0
    1.5280  -22.0620    4.2610 C   0  0  0  0  0
    1.6760  -23.2840    4.2640 O   0  0  0  0  0
    0.5790  -21.3950    5.1000 O   0  0  0  0  0
    0.0090  -20.2850    4.4040 C   0  0  0  0  0
   -0.5100  -19.2630    5.3890 C   0  0  0  0  0
   -1.6570  -19.7930    6.1020 O   0  0  0  0  0
   -1.6940  -19.2550    7.4150 C   0  0  0  0  0
   -1.7240  -20.3640    8.3690 N   0  0  0  0  0
   -2.5590  -20.4800    9.4530 C   0  0  0  0  0
   -3.5100  -19.6160    9.8450 N   0  0  0  0  0
   -4.1230  -20.0620   10.9420 C   0  0  0  0  0
   -3.9070  -21.1900   11.6370 N   0  0  0  0  0
   -2.9420  -22.0350   11.2120 C   0  0  0  0  0
   -2.7230  -23.1570   11.9020 N   0  0  0  0  0
   -2.2210  -21.6770   10.0620 C   0  0  0  0  0
   -1.1930  -22.3040    9.3740 N   0  0  0  0  0
   -0.9360  -21.4880    8.3810 C   0  0  0  0  0
   -0.4660  -18.3560    7.5820 C   0  0  0  0  0
   -0.8360  -17.0050    7.3980 O   0  0  0  0  0
    0.4630  -18.8960    6.4970 C   0  0  0  0  0
    1.4010  -17.9240    6.0450 O   0  0  0  0  0
    5.3762  -21.4055    4.1676 H   0  0  0  0  0
    4.6952  -19.1280    3.4240 H   0  0  0  0  0
    3.2857  -21.8732    3.2020 H   0  0  0  0  0
    2.1333  -20.3535    3.2805 H   0  0  0  0  0
   -0.8171  -20.6370    3.7862 H   0  0  0  0  0
    0.7746  -19.8233    3.7805 H   0  0  0  0  0
   -0.7204  -18.3914    4.7692 H   0  0  0  0  0
   -2.5826  -18.6501    7.5954 H   0  0  0  0  0
   -4.9126  -19.4185   11.3300 H   0  0  0  0  0
   -3.2792  -23.3620   12.7321 H   0  0  0  0  0
   -1.9995  -23.8090   11.5990 H   0  0  0  0  0
   -0.1673  -21.6839    7.6335 H   0  0  0  0  0
    0.0054  -18.3720    8.5647 H   0  0  0  0  0
   -0.0631  -16.4455    7.5036 H   0  0  0  0  0
    1.0785  -19.7246    6.8474 H   0  0  0  0  0
    2.0047  -17.7072    6.7592 H   0  0  0  0  0
  1  2  1  0  0  0
  1  3  2  0  0  0
  1  4  1  0  0  0
  1  5  1  0  0  0
  5  6  1  0  0  0
  6  7  2  0  0  0
  6  8  1  0  0  0
  8  9  1  0  0  0
  9 10  1  0  0  0
 10 11  1  0  0  0
 10 25  1  0  0  0
 11 12  1  0  0  0
 12 13  1  0  0  0
 12 23  1  0  0  0
 13 14  4  0  0  0
 13 22  4  0  0  0
 14 15  4  0  0  0
 14 20  4  0  0  0
 15 16  4  0  0  0
 16 17  4  0  0  0
 17 18  4  0  0  0
 18 19  1  0  0  0
 18 20  4  0  0  0
 20 21  4  0  0  0
 21 22  4  0  0  0
 23 24  1  0  0  0
 23 25  1  0  0  0
 25 26  1  0  0  0
  2 27  1  0  0  0
  4 28  1  0  0  0
  5 29  1  0  0  0
  5 30  1  0  0  0
  9 31  1  0  0  0
  9 32  1  0  0  0
 10 33  1  0  0  0
 12 34  1  0  0  0
 16 35  1  0  0  0
 19 36  1  0  0  0
 19 37  1  0  0  0
 22 38  1  0  0  0
 23 39  1  0  0  0
 24 40  1  0  0  0
 25 41  1  0  0  0
 26 42  1  0  0  0
M  END
$$$$
