5thi_ligand
  -I-interpret- 

 15 15  0  0  0  0  0  0  0  0999 V2000
   -6.4460    1.1980   16.5900 C   0  0  0  0  0
   -7.3570    0.3280   16.5990 O   0  0  0  0  0
   -5.2070    0.7210   16.1060 C   0  0  0  0  0
   -5.2410   -0.5600   15.7510 O   0  0  0  0  0
   -4.0550    1.4800   15.9980 C   0  0  0  0  0
   -3.8390    2.8180   16.3170 C   0  0  0  0  0
   -6.0050    3.6380   17.1600 C   0  0  0  0  0
   -6.7560    2.4740   17.0400 C   0  0  0  0  0
   -4.6900    3.7970   16.8350 C   0  0  0  0  0
   -6.1229   -0.9088   15.8998 H   0  0  0  0  0
   -3.1869    0.9514   15.6043 H   0  0  0  0  0
   -2.8226    3.1638   16.1285 H   0  0  0  0  0
   -6.5204    4.5137   17.5545 H   0  0  0  0  0
   -7.7912    2.5853   17.3626 H   0  0  0  0  0
   -4.2606    4.7860   16.9954 H   0  0  0  0  0
  1  2  2  0  0  0
  1  3  1  0  0  0
  1  8  1  0  0  0
  3  4  1  0  0  0
  3  5  2  0  0  0
  5  6  1  0  0  0
  6  9  2  0  0  0
  8  7  2  0  0  0
  7  9  1  0  0  0
  4 10  1  0  0  0
  5 11  1  0  0  0
  6 12  1  0  0  0
  7 13  1  0  0  0
  8 14  1  0  0  0
  9 15  1  0  0  0
M  END
$$$$
