4q1c_ligand
  -I-interpret- 

 59 61  0  0  0  0  0  0  0  0999 V2000
  -35.1420    6.9480   -0.3300 O   0  0  0  0  0
  -36.0670    7.6760   -1.1700 C   0  0  0  0  0
  -35.3310    8.8470   -1.8170 C   0  0  0  0  0
  -36.2750    9.9110   -2.0350 O   0  0  0  0  0
  -35.8510   10.8870   -2.9070 C   0  0  0  0  0
  -34.5110   11.2370   -3.0660 C   0  0  0  0  0
  -36.8360   11.5670   -3.6070 C   0  0  0  0  0
  -38.1180   11.1570   -3.3750 O   0  0  0  0  0
  -39.1690   11.9960   -3.7940 C   0  0  0  0  0
  -39.9930   11.0420   -4.6540 C   0  0  0  0  0
  -40.5260    9.9900   -3.8330 O   0  0  0  0  0
  -36.4910   12.5840   -4.4820 C   0  0  0  0  0
  -35.1460   12.9050   -4.6320 C   0  0  0  0  0
  -34.1480   12.2350   -3.9440 C   0  0  0  0  0
  -32.8530   12.5860   -4.0910 C   0  0  0  0  0
  -31.9130   12.1880   -3.2640 N   0  0  0  0  0
  -32.1930   13.5460   -5.2210 S   0  0  0  0  0
  -30.7050   13.4600   -4.6340 C   0  0  0  0  0
  -29.5500   14.1970   -5.2350 C   0  0  0  0  0
  -29.4630   15.3620   -4.2640 C   0  0  0  0  0
  -28.6160   16.4850   -4.8410 C   0  0  0  0  0
  -30.7000   12.6560   -3.5600 C   0  0  0  0  0
  -29.5100   12.2890   -2.7060 C   0  0  0  0  0
  -28.6580   10.7410   -3.2760 S   0  0  0  0  0
  -27.0050   11.1520   -3.6360 C   0  0  0  0  0
  -26.1360   10.1690   -3.9360 N   0  0  0  0  0
  -26.6260   12.4190   -3.6480 N   0  0  0  0  0
  -25.3450   12.7410   -3.9460 C   0  0  0  0  0
  -24.9830   14.0150   -3.9660 N   0  0  0  0  0
  -24.4210   11.7510   -4.2280 C   0  0  0  0  0
  -24.8580   10.4350   -4.2080 C   0  0  0  0  0
  -24.0220    9.4230   -4.4470 N   0  0  0  0  0
  -35.5976    6.2095    0.0807 H   0  0  0  0  0
  -36.8959    8.0489   -0.5684 H   0  0  0  0  0
  -36.4607    7.0159   -1.9429 H   0  0  0  0  0
  -34.8944    8.5351   -2.7658 H   0  0  0  0  0
  -34.5272    9.1888   -1.1650 H   0  0  0  0  0
  -33.7445   10.7172   -2.4913 H   0  0  0  0  0
  -38.8324   12.8850   -4.3273 H   0  0  0  0  0
  -39.7304   12.4377   -2.9706 H   0  0  0  0  0
  -39.3570   10.6108   -5.4271 H   0  0  0  0  0
  -40.8132   11.5898   -5.1179 H   0  0  0  0  0
  -41.0436    9.3920   -4.3772 H   0  0  0  0  0
  -37.2572   13.1212   -5.0410 H   0  0  0  0  0
  -34.8685   13.7097   -5.3129 H   0  0  0  0  0
  -29.6860   14.4832   -6.2779 H   0  0  0  0  0
  -28.6350   13.6118   -5.3267 H   0  0  0  0  0
  -29.0025   15.0146   -3.3391 H   0  0  0  0  0
  -30.4683   15.7402   -4.0785 H   0  0  0  0  0
  -27.6097   16.1152   -5.0375 H   0  0  0  0  0
  -29.0639   16.8351   -5.7710 H   0  0  0  0  0
  -28.5693   17.3070   -4.1267 H   0  0  0  0  0
  -29.8699   12.1158   -1.6918 H   0  0  0  0  0
  -28.7913   13.1061   -2.7691 H   0  0  0  0  0
  -25.6667   14.7428   -3.7581 H   0  0  0  0  0
  -24.0205   14.2683   -4.1893 H   0  0  0  0  0
  -23.3844   11.9969   -4.4582 H   0  0  0  0  0
  -24.3634    8.4622   -4.4201 H   0  0  0  0  0
  -23.0415    9.6101   -4.6566 H   0  0  0  0  0
  1  2  1  0  0  0
  2  3  1  0  0  0
  3  4  1  0  0  0
  4  5  1  0  0  0
  5  6  4  0  0  0
  5  7  4  0  0  0
  6 14  4  0  0  0
  7  8  1  0  0  0
  7 12  4  0  0  0
  8  9  1  0  0  0
  9 10  1  0  0  0
 10 11  1  0  0  0
 12 13  4  0  0  0
 13 14  4  0  0  0
 14 15  1  0  0  0
 15 16  4  0  0  0
 15 17  4  0  0  0
 16 22  4  0  0  0
 17 18  4  0  0  0
 18 19  1  0  0  0
 18 22  4  0  0  0
 19 20  1  0  0  0
 20 21  1  0  0  0
 22 23  1  0  0  0
 23 24  1  0  0  0
 24 25  1  0  0  0
 25 26  4  0  0  0
 25 27  4  0  0  0
 26 31  4  0  0  0
 27 28  4  0  0  0
 28 29  1  0  0  0
 28 30  4  0  0  0
 30 31  4  0  0  0
 31 32  1  0  0  0
  1 33  1  0  0  0
  2 34  1  0  0  0
  2 35  1  0  0  0
  3 36  1  0  0  0
  3 37  1  0  0  0
  6 38  1  0  0  0
  9 39  1  0  0  0
  9 40  1  0  0  0
 10 41  1  0  0  0
 10 42  1  0  0  0
 11 43  1  0  0  0
 12 44  1  0  0  0
 13 45  1  0  0  0
 19 46  1  0  0  0
 19 47  1  0  0  0
 20 48  1  0  0  0
 20 49  1  0  0  0
 21 50  1  0  0  0
 21 51  1  0  0  0
 21 52  1  0  0  0
 23 53  1  0  0  0
 23 54  1  0  0  0
 29 55  1  0  0  0
 29 56  1  0  0  0
 30 57  1  0  0  0
 32 58  1  0  0  0
 32 59  1  0  0  0
M  END
$$$$
