5q0f_ligand
  -I-interpret- 

 70 74  0  0  0  0  0  0  0  0999 V2000
   37.7560  -16.9930   28.0380 C   0  0  0  0  0
   41.1880  -20.7750   28.6380 C   0  0  0  0  0
   39.6910  -20.8870   28.5600 C   0  0  0  0  0
   39.0370  -18.6870   29.4250 C   0  0  0  0  0
   39.2830  -21.9100   27.4870 C   0  0  0  0  0
   44.2990  -21.2340   30.2640 C   0  0  0  0  0
   45.4110  -20.3910   30.3710 C   0  0  0  0  0
   46.4360  -20.6730   31.2580 C   0  0  0  0  0
   46.3530  -21.7850   32.0960 C   0  0  0  0  0
   45.2590  -22.6420   31.9890 C   0  0  0  0  0
   41.9820  -25.1810   29.9670 C   0  0  0  0  0
   43.2660  -20.5190   28.0020 C   0  0  0  0  0
   41.0300  -25.2180   28.7540 C   0  0  0  0  0
   33.8070  -14.0650   29.6160 Cl  0  0  0  0  0
   36.7460  -13.4950   26.9670 C   0  0  0  0  0
   35.6290  -13.2990   27.7680 C   0  0  0  0  0
   35.2200  -14.3080   28.6180 C   0  0  0  0  0
   35.8930  -15.5130   28.6840 C   0  0  0  0  0
   37.0180  -15.7290   27.8690 C   0  0  0  0  0
   37.4330  -14.7060   26.9970 C   0  0  0  0  0
   38.5230  -14.9030   26.0940 N   0  0  0  0  0
   38.5900  -14.9040   24.7580 C   0  0  0  0  0
   39.7910  -15.2420   24.3770 N   0  0  0  0  0
   40.4940  -15.4350   25.5200 N   0  0  0  0  0
   39.7470  -15.2410   26.5630 N   0  0  0  0  0
   38.2980  -17.4260   29.1820 C   0  0  0  0  0
   39.6560  -18.8900   30.4770 O   0  0  0  0  0
   44.2420  -22.3890   31.0760 C   0  0  0  0  0
   41.9710  -20.4520   27.5860 N   0  0  0  0  0
   43.2290  -20.8890   29.3150 C   0  0  0  0  0
   41.9040  -21.0380   29.7110 N   0  0  0  0  0
   43.1770  -23.3120   30.9270 N   0  0  0  0  0
   40.0590  -23.2120   27.5730 C   0  0  0  0  0
   40.2070  -23.9600   28.6590 C   0  0  0  0  0
   43.0370  -24.1000   29.8430 C   0  0  0  0  0
   47.3570  -22.1820   33.0190 N   0  0  0  0  0
   48.6390  -21.7280   33.0980 C   0  0  0  0  0
   49.2240  -22.2140   34.2140 O   0  0  0  0  0
   49.1980  -21.0190   32.2870 O   0  0  0  0  0
   50.6670  -22.0470   34.3160 C   0  0  0  0  0
   43.7070  -23.9650   28.8190 O   0  0  0  0  0
   40.1850  -26.4930   28.7870 C   0  0  0  0  0
   39.0360  -19.5820   28.4130 N   0  0  0  0  0
   37.8697  -17.6273   27.1589 H   0  0  0  0  0
   39.3276  -21.2687   29.5141 H   0  0  0  0  0
   39.4904  -21.4665   26.5131 H   0  0  0  0  0
   38.2292  -22.1439   27.6385 H   0  0  0  0  0
   45.4710  -19.4994   29.7469 H   0  0  0  0  0
   47.3106  -20.0240   31.3016 H   0  0  0  0  0
   45.2003  -23.5219   32.6296 H   0  0  0  0  0
   42.4911  -26.1431   30.0248 H   0  0  0  0  0
   41.3869  -24.9702   30.8556 H   0  0  0  0  0
   44.1553  -20.3172   27.4049 H   0  0  0  0  0
   41.6214  -25.2497   27.8389 H   0  0  0  0  0
   37.0877  -12.6952   26.3099 H   0  0  0  0  0
   35.0802  -12.3581   27.7265 H   0  0  0  0  0
   35.5530  -16.2930   29.3653 H   0  0  0  0  0
   37.7653  -14.6593   24.0886 H   0  0  0  0  0
   38.1812  -16.7685   30.0435 H   0  0  0  0  0
   42.4857  -23.3830   31.6736 H   0  0  0  0  0
   40.5382  -23.5644   26.6596 H   0  0  0  0  0
   39.6878  -23.6359   29.5609 H   0  0  0  0  0
   47.0866  -22.8894   33.7023 H   0  0  0  0  0
   51.1501  -22.5538   33.4806 H   0  0  0  0  0
   50.9114  -20.9851   34.2889 H   0  0  0  0  0
   51.0158  -22.4775   35.2546 H   0  0  0  0  0
   40.8409  -27.3630   28.7542 H   0  0  0  0  0
   39.5970  -26.5140   29.7046 H   0  0  0  0  0
   39.5172  -26.5072   27.9256 H   0  0  0  0  0
   38.5736  -19.3475   27.5346 H   0  0  0  0  0
  1 19  1  0  0  0
 26  1  2  0  0  0
  2  3  1  0  0  0
  2 29  4  0  0  0
 31  2  4  0  0  0
  3  5  1  0  0  0
  3 43  1  0  0  0
  4 26  1  0  0  0
  4 27  2  0  0  0
 43  4  1  0  0  0
  5 33  1  0  0  0
  6  7  4  0  0  0
 28  6  4  0  0  0
  6 30  1  0  0  0
  7  8  4  0  0  0
  9  8  4  0  0  0
 10  9  4  0  0  0
  9 36  1  0  0  0
 28 10  4  0  0  0
 11 13  1  0  0  0
 35 11  1  0  0  0
 12 29  4  0  0  0
 30 12  4  0  0  0
 13 34  1  0  0  0
 13 42  1  0  0  0
 17 14  1  0  0  0
 15 16  4  0  0  0
 20 15  4  0  0  0
 17 16  4  0  0  0
 18 17  4  0  0  0
 19 18  4  0  0  0
 19 20  4  0  0  0
 20 21  1  0  0  0
 21 22  4  0  0  0
 21 25  4  0  0  0
 22 23  4  0  0  0
 24 23  4  0  0  0
 25 24  4  0  0  0
 32 28  1  0  0  0
 30 31  4  0  0  0
 32 35  1  0  0  0
 33 34  2  0  0  0
 35 41  2  0  0  0
 36 37  1  0  0  0
 37 38  1  0  0  0
 37 39  2  0  0  0
 38 40  1  0  0  0
  1 44  1  0  0  0
  3 45  1  0  0  0
  5 46  1  0  0  0
  5 47  1  0  0  0
  7 48  1  0  0  0
  8 49  1  0  0  0
 10 50  1  0  0  0
 11 51  1  0  0  0
 11 52  1  0  0  0
 12 53  1  0  0  0
 13 54  1  0  0  0
 15 55  1  0  0  0
 16 56  1  0  0  0
 18 57  1  0  0  0
 22 58  1  0  0  0
 26 59  1  0  0  0
 32 60  1  0  0  0
 33 61  1  0  0  0
 34 62  1  0  0  0
 36 63  1  0  0  0
 40 64  1  0  0  0
 40 65  1  0  0  0
 40 66  1  0  0  0
 42 67  1  0  0  0
 42 68  1  0  0  0
 42 69  1  0  0  0
 43 70  1  0  0  0
M  END
$$$$
