6os5_ligand
  -I-interpret- 

 27 28  0  0  0  0  0  0  0  0999 V2000
   -0.8320   32.0430   21.8230 N   0  3  0  0  0
   -0.3850   30.7120   21.3840 C   0  0  0  0  0
   -1.5990   29.7870   21.4360 C   0  0  0  0  0
   -1.5430   28.6370   20.9800 O   0  0  0  0  0
    0.7750   30.1780   22.2460 C   0  0  0  0  0
    0.5280   30.3010   23.7110 C   0  0  0  0  0
    0.8800   31.3480   24.5170 C   0  0  0  0  0
   -0.1470   29.3590   24.5510 C   0  0  0  0  0
    0.4470   31.1230   25.8000 N   0  0  0  0  0
   -0.1730   29.9030   25.8510 C   0  0  0  0  0
   -0.7230   28.1100   24.3310 C   0  0  0  0  0
   -0.7580   29.2470   26.9200 C   0  0  0  0  0
   -1.3090   27.4560   25.3990 C   0  0  0  0  0
   -1.3180   28.0270   26.6790 C   0  0  0  0  0
   -2.6740   30.1930   21.9190 O   0  0  0  0  0
   -1.5981   32.3567   21.2271 H   0  0  0  0  0
   -1.1514   31.9911   22.7903 H   0  0  0  0  0
   -0.0554   32.7007   21.7549 H   0  0  0  0  0
    0.0086   30.7661   20.3690 H   0  0  0  0  0
    1.6593   30.7702   22.0107 H   0  0  0  0  0
    0.8919   29.1181   22.0200 H   0  0  0  0  0
    1.4252   32.2328   24.1884 H   0  0  0  0  0
   -0.7120   27.6583   23.3391 H   0  0  0  0  0
   -0.7707   29.6885   27.9165 H   0  0  0  0  0
   -1.7712   26.4812   25.2431 H   0  0  0  0  0
   -1.7835   27.4833   27.5011 H   0  0  0  0  0
   -2.5637   31.0947   22.2295 H   0  0  0  0  0
  1  2  1  0  0  0
  2  3  1  0  0  0
  2  5  1  0  0  0
  3  4  2  0  0  0
  3 15  1  0  0  0
  5  6  1  0  0  0
  6  7  4  0  0  0
  6  8  4  0  0  0
  7  9  4  0  0  0
  8 10  4  0  0  0
  8 11  4  0  0  0
  9 10  4  0  0  0
 10 12  4  0  0  0
 11 13  4  0  0  0
 12 14  4  0  0  0
 13 14  4  0  0  0
  1 16  1  0  0  0
  1 17  1  0  0  0
  1 18  1  0  0  0
  2 19  1  0  0  0
  5 20  1  0  0  0
  5 21  1  0  0  0
  7 22  1  0  0  0
 11 23  1  0  0  0
 12 24  1  0  0  0
 13 25  1  0  0  0
 14 26  1  0  0  0
 15 27  1  0  0  0
M  END
$$$$
