1it6_ligand
  -I-interpret- 

121123  0  0  0  0  0  0  0  0999 V2000
   39.0560   17.5650   32.5680 P   0  0  0  0  0
   34.7820   19.3850   38.1770 O   0  0  0  0  0
   35.9330   17.3000   34.8050 O   0  0  0  0  0
   38.1100   17.1590   37.8450 O   0  0  0  0  0
   39.6490   17.1660   33.9930 O   0  0  0  0  0
   40.0400   18.4670   31.9320 O   0  0  0  0  0
   38.9570   16.2290   31.8070 O   0  0  0  0  0
   37.7070   18.1570   32.7540 O   0  0  0  0  0
   40.6920   17.0150   37.0450 O   0  0  0  0  0
   42.0240   15.2000   38.9970 O   0  0  0  0  0
   41.2790   15.2900   35.5200 O   0  0  0  0  0
   37.0120    9.4410   38.9900 O   0  0  0  0  0
   24.9810   22.2900   31.9600 N   0  0  0  0  0
   39.0220    9.9580   38.2900 N   0  0  0  0  0
   24.8370   21.1980   32.4250 C   0  0  0  0  0
   24.9830   20.0130   33.1290 C   0  0  0  0  0
   26.0830   19.6560   34.0190 C   0  0  0  0  0
   27.2910   20.7370   34.1890 C   0  0  0  0  0
   28.1990   20.0180   35.1340 C   0  0  0  0  0
   29.4610   21.0030   35.2930 C   0  0  0  0  0
   30.5140   20.4710   36.1620 C   0  0  0  0  0
   31.6680   21.4180   36.2080 C   0  0  0  0  0
   32.5600   20.8900   37.0480 C   0  0  0  0  0
   34.0090   21.5760   37.0010 C   0  0  0  0  0
   35.0630   20.2540   37.0260 C   0  0  0  0  0
   34.9220   19.3740   35.6960 C   0  0  0  0  0
   35.9840   18.1080   35.9550 C   0  0  0  0  0
   37.4540   18.6670   36.1390 C   0  0  0  0  0
   38.3480   17.4320   36.4150 C   0  0  0  0  0
   39.8060   17.8950   36.2830 C   0  0  0  0  0
   40.4020   18.0350   34.8600 C   0  0  0  0  0
   41.8900   17.6000   35.0570 C   0  0  0  0  0
   41.7290   16.5670   36.2340 C   0  0  0  0  0
   43.0610   16.2430   37.0250 C   0  0  0  0  0
   42.8750   14.9810   37.9810 C   0  0  0  0  0
   42.4200   13.7370   37.0060 C   0  0  0  0  0
   41.0730   14.1990   36.4870 C   0  0  0  0  0
   40.5620   13.0580   35.5080 C   0  0  0  0  0
   39.8920   11.8740   36.2900 C   0  0  0  0  0
   38.6160   11.7590   36.5270 C   0  0  0  0  0
   38.1750   10.8170   37.5090 C   0  0  0  0  0
   38.3920    9.1620   39.1480 C   0  0  0  0  0
   36.9250   10.4230   38.0180 C   0  0  0  0  0
   38.4860    7.9090   39.7710 C   0  0  0  0  0
   39.4770    8.1320   41.0360 C   0  0  0  0  0
   38.7170    9.2290   41.9830 C   0  0  0  0  0
   39.0190    6.8980   38.7480 C   0  0  0  0  0
   43.4860   13.3530   36.0170 C   0  0  0  0  0
   42.6890   18.7860   35.6040 C   0  0  0  0  0
   42.4800   17.0870   33.6730 C   0  0  0  0  0
   37.9920   15.6970   38.0960 C   0  0  0  0  0
   35.4500   20.2120   34.4360 C   0  0  0  0  0
   34.2860   22.3080   38.3430 C   0  0  0  0  0
   31.8580   22.7040   35.4310 C   0  0  0  0  0
   30.2220   19.1930   37.0280 C   0  0  0  0  0
   26.0130   18.1570   34.3250 C   0  0  0  0  0
   34.8611   19.8936   38.9874 H   0  0  0  0  0
   35.0420   16.9608   34.6929 H   0  0  0  0  0
   38.3132   15.6629   32.2390 H   0  0  0  0  0
   37.1304   17.5121   33.1703 H   0  0  0  0  0
   41.9560   14.4063   39.5327 H   0  0  0  0  0
   24.1944   19.2708   33.0050 H   0  0  0  0  0
   27.4060   21.7212   33.7349 H   0  0  0  0  0
   28.0420   19.0486   35.6069 H   0  0  0  0  0
   29.5265   21.9735   34.8012 H   0  0  0  0  0
   32.3231   20.0593   37.7127 H   0  0  0  0  0
   34.1035   22.2611   36.1585 H   0  0  0  0  0
   36.0737   20.6563   37.0956 H   0  0  0  0  0
   33.8947   19.0659   35.5014 H   0  0  0  0  0
   35.7150   17.5480   36.8506 H   0  0  0  0  0
   37.7863   19.2048   35.2510 H   0  0  0  0  0
   37.5047   19.3828   36.9594 H   0  0  0  0  0
   38.1518   16.5833   35.7598 H   0  0  0  0  0
   39.7549   18.9116   36.6729 H   0  0  0  0  0
   40.3566   19.0262   34.4087 H   0  0  0  0  0
   43.3196   17.1069   37.6373 H   0  0  0  0  0
   43.8469   16.0189   36.3037 H   0  0  0  0  0
   43.8081   14.7478   38.4939 H   0  0  0  0  0
   42.3039   12.7697   37.4948 H   0  0  0  0  0
   40.4323   14.4550   37.3308 H   0  0  0  0  0
   41.4203   12.6655   34.9626 H   0  0  0  0  0
   39.8184   13.4897   34.8381 H   0  0  0  0  0
   40.5454   11.0859   36.6643 H   0  0  0  0  0
   37.8953   12.3714   35.9851 H   0  0  0  0  0
   35.9801   10.8489   37.6804 H   0  0  0  0  0
   37.5345    7.5121   40.1248 H   0  0  0  0  0
   40.4600    8.4826   40.7216 H   0  0  0  0  0
   39.6660    7.2005   41.5696 H   0  0  0  0  0
   38.5681   10.1510   41.4210 H   0  0  0  0  0
   37.7509    8.8314   42.2939 H   0  0  0  0  0
   39.3276    9.4327   42.8627 H   0  0  0  0  0
   38.3340    6.8438   37.9018 H   0  0  0  0  0
   40.0019    7.2174   38.4016 H   0  0  0  0  0
   39.0985    5.9169   39.2162 H   0  0  0  0  0
   43.7156   14.2085   35.3817 H   0  0  0  0  0
   44.3838   13.0458   36.5534 H   0  0  0  0  0
   43.1285   12.5274   35.4016 H   0  0  0  0  0
   42.6384   19.6137   34.8966 H   0  0  0  0  0
   42.2671   19.0968   36.5598 H   0  0  0  0  0
   43.7284   18.4888   35.7437 H   0  0  0  0  0
   41.8954   16.2361   33.3233 H   0  0  0  0  0
   42.4300   17.8904   32.9381 H   0  0  0  0  0
   43.5178   16.7840   33.8119 H   0  0  0  0  0
   37.1580   15.2968   37.5194 H   0  0  0  0  0
   38.9150   15.2021   37.7938 H   0  0  0  0  0
   37.8169   15.5249   39.1580 H   0  0  0  0  0
   36.4484   20.5944   34.6482 H   0  0  0  0  0
   35.4861   19.5645   33.5599 H   0  0  0  0  0
   34.7733   21.0451   34.2460 H   0  0  0  0  0
   34.0776   21.6332   39.1732 H   0  0  0  0  0
   35.3306   22.6172   38.3779 H   0  0  0  0  0
   33.6434   23.1854   38.4162 H   0  0  0  0  0
   32.0080   23.5290   36.1274 H   0  0  0  0  0
   32.7298   22.6103   34.7835 H   0  0  0  0  0
   30.9724   22.8950   34.8248 H   0  0  0  0  0
   29.3897   19.3949   37.7022 H   0  0  0  0  0
   29.9659   18.3615   36.3714 H   0  0  0  0  0
   31.1086   18.9390   37.6090 H   0  0  0  0  0
   25.0620   17.9298   34.8067 H   0  0  0  0  0
   26.0946   17.5935   33.3955 H   0  0  0  0  0
   26.8327   17.8845   34.9898 H   0  0  0  0  0
  1  8  1  0  0  0
  1  7  1  0  0  0
  1  6  2  0  0  0
  1  5  1  0  0  0
  5 31  1  0  0  0
 31 32  1  0  0  0
 31 30  1  0  0  0
 30 29  1  0  0  0
 30  9  1  0  0  0
  9 33  1  0  0  0
 33 11  1  0  0  0
 33 34  1  0  0  0
 33 32  1  0  0  0
 32 50  1  0  0  0
 32 49  1  0  0  0
 34 35  1  0  0  0
 35 10  1  0  0  0
 35 36  1  0  0  0
 36 48  1  0  0  0
 36 37  1  0  0  0
 37 11  1  0  0  0
 37 38  1  0  0  0
 38 39  1  0  0  0
 39 40  2  0  0  0
 40 41  1  0  0  0
 41 14  4  0  0  0
 41 43  4  0  0  0
 43 12  4  0  0  0
 12 42  4  0  0  0
 42 14  4  0  0  0
 42 44  1  0  0  0
 44 47  1  0  0  0
 44 45  1  0  0  0
 45 46  1  0  0  0
 29  4  1  0  0  0
 29 28  1  0  0  0
 28 27  1  0  0  0
 27  3  1  0  0  0
 27 26  1  0  0  0
 26 52  1  0  0  0
 26 25  1  0  0  0
 25  2  1  0  0  0
 25 24  1  0  0  0
 24 53  1  0  0  0
 24 23  1  0  0  0
 23 22  2  0  0  0
 22 54  1  0  0  0
 22 21  1  0  0  0
 21 55  1  0  0  0
 21 20  2  0  0  0
 20 19  1  0  0  0
 19 18  2  0  0  0
 18 17  1  0  0  0
 17 56  1  0  0  0
 17 16  2  0  0  0
 16 15  1  0  0  0
 15 13  3  0  0  0
  4 51  1  0  0  0
  2 57  1  0  0  0
  3 58  1  0  0  0
  7 59  1  0  0  0
  8 60  1  0  0  0
 10 61  1  0  0  0
 16 62  1  0  0  0
 18 63  1  0  0  0
 19 64  1  0  0  0
 20 65  1  0  0  0
 23 66  1  0  0  0
 24 67  1  0  0  0
 25 68  1  0  0  0
 26 69  1  0  0  0
 27 70  1  0  0  0
 28 71  1  0  0  0
 28 72  1  0  0  0
 29 73  1  0  0  0
 30 74  1  0  0  0
 31 75  1  0  0  0
 34 76  1  0  0  0
 34 77  1  0  0  0
 35 78  1  0  0  0
 36 79  1  0  0  0
 37 80  1  0  0  0
 38 81  1  0  0  0
 38 82  1  0  0  0
 39 83  1  0  0  0
 40 84  1  0  0  0
 43 85  1  0  0  0
 44 86  1  0  0  0
 45 87  1  0  0  0
 45 88  1  0  0  0
 46 89  1  0  0  0
 46 90  1  0  0  0
 46 91  1  0  0  0
 47 92  1  0  0  0
 47 93  1  0  0  0
 47 94  1  0  0  0
 48 95  1  0  0  0
 48 96  1  0  0  0
 48 97  1  0  0  0
 49 98  1  0  0  0
 49 99  1  0  0  0
 49100  1  0  0  0
 50101  1  0  0  0
 50102  1  0  0  0
 50103  1  0  0  0
 51104  1  0  0  0
 51105  1  0  0  0
 51106  1  0  0  0
 52107  1  0  0  0
 52108  1  0  0  0
 52109  1  0  0  0
 53110  1  0  0  0
 53111  1  0  0  0
 53112  1  0  0  0
 54113  1  0  0  0
 54114  1  0  0  0
 54115  1  0  0  0
 55116  1  0  0  0
 55117  1  0  0  0
 55118  1  0  0  0
 56119  1  0  0  0
 56120  1  0  0  0
 56121  1  0  0  0
M  END
$$$$
