### 
### Created by X-TOOL on Mon Sep 10 21:12:49 2018
### 

@<TRIPOS>MOLECULE
1it6_ligand
  119   121     1     0     0
SMALL
GAST_HUCK


@<TRIPOS>ATOM
      1 H1         33.9002   19.0393   38.1036 H         1 CYU         0.2101
      2 H2         36.1742   17.8168   34.0453 H         1 CYU         0.2098
      3 H3         41.1684   15.4231   38.6495 H         1 CYU         0.2098
      4 H4         24.1951   19.2715   33.0051 H         1 CYU         0.0420
      5 P1         39.0560   17.5650   32.5680 P.3       1 CYU         0.2012
      6 O1         34.7820   19.3850   38.1770 O.3       1 CYU        -0.3881
      7 O2         35.9330   17.3000   34.8050 O.3       1 CYU        -0.3913
      8 O3         38.1100   17.1590   37.8450 O.3       1 CYU        -0.3770
      9 O4         39.6490   17.1660   33.9930 O.3       1 CYU        -0.2695
     10 O5         40.0400   18.4670   31.9320 O.co2     1 CYU        -0.5537
     11 O6         38.9570   16.2290   31.8070 O.co2     1 CYU        -0.5537
     12 O7         37.7070   18.1570   32.7540 O.co2     1 CYU        -0.5537
     13 O8         40.6920   17.0150   37.0450 O.3       1 CYU        -0.3392
     14 O9         42.0240   15.2000   38.9970 O.3       1 CYU        -0.3912
     15 O10        41.2790   15.2900   35.5200 O.3       1 CYU        -0.3420
     16 O11        37.0120    9.4410   38.9900 O.3       1 CYU        -0.2327
     17 N1         24.9810   22.2900   31.9600 N.1       1 CYU        -0.4000
     18 N2         39.0220    9.9580   38.2900 N.2       1 CYU        -0.3154
     19 C1         24.8370   21.1980   32.4250 C.1       1 CYU         0.0147
     20 C2         24.9830   20.0130   33.1290 C.2       1 CYU         0.0152
     21 C3         26.0830   19.6560   34.0190 C.2       1 CYU        -0.0393
     22 C4         27.2910   20.7370   34.1890 C.2       1 CYU        -0.0569
     23 C5         28.1990   20.0180   35.1340 C.2       1 CYU        -0.0667
     24 C6         29.4610   21.0030   35.2930 C.2       1 CYU        -0.0534
     25 C7         30.5140   20.4710   36.1620 C.2       1 CYU        -0.0289
     26 C8         31.6680   21.4180   36.2080 C.2       1 CYU        -0.0232
     27 C9         32.5600   20.8900   37.0480 C.2       1 CYU        -0.0482
     28 C10        34.0090   21.5760   37.0010 C.3       1 CYU         0.0205
     29 C11        35.0630   20.2540   37.0260 C.3       1 CYU         0.0756
     30 C12        34.9220   19.3740   35.6960 C.3       1 CYU         0.0113
     31 C13        35.9840   18.1080   35.9550 C.3       1 CYU         0.0628
     32 C14        37.4540   18.6670   36.1390 C.3       1 CYU         0.0024
     33 C15        38.3480   17.4320   36.4150 C.3       1 CYU         0.0896
     34 C16        39.8060   17.8950   36.2830 C.3       1 CYU         0.1191
     35 C17        40.4020   18.0350   34.8600 C.3       1 CYU         0.1277
     36 C18        41.8900   17.6000   35.0570 C.3       1 CYU         0.0522
     37 C19        41.7290   16.5670   36.2340 C.3       1 CYU         0.1813
     38 C20        43.0610   16.2430   37.0250 C.3       1 CYU         0.0284
     39 C21        42.8750   14.9810   37.9810 C.3       1 CYU         0.0652
     40 C22        42.4200   13.7370   37.0060 C.3       1 CYU         0.0108
     41 C23        41.0730   14.1990   36.4870 C.3       1 CYU         0.0759
     42 C24        40.5620   13.0580   35.5080 C.3       1 CYU        -0.0016
     43 C25        39.8920   11.8740   36.2900 C.2       1 CYU        -0.0857
     44 C26        38.6160   11.7590   36.5270 C.2       1 CYU        -0.0792
     45 C27        38.1750   10.8170   37.5090 C.2       1 CYU         0.0069
     46 C29        38.3920    9.1620   39.1480 C.2       1 CYU         0.1802
     47 C28        36.9250   10.4230   38.0180 C.2       1 CYU         0.0968
     48 C30        38.4860    7.9090   39.7710 C.3       1 CYU         0.0451
     49 C31        39.4770    8.1320   41.0360 C.3       1 CYU        -0.0358
     50 C32        38.7170    9.2290   41.9830 C.3       1 CYU        -0.0626
     51 C41        39.0190    6.8980   38.7480 C.3       1 CYU        -0.0448
     52 C42        43.4860   13.3530   36.0170 C.3       1 CYU        -0.0575
     53 C43        42.6890   18.7860   35.6040 C.3       1 CYU        -0.0521
     54 C44        42.4800   17.0870   33.6730 C.3       1 CYU        -0.0521
     55 C45        37.9920   15.6970   38.0960 C.3       1 CYU         0.0369
     56 C46        35.4500   20.2120   34.4360 C.3       1 CYU        -0.0575
     57 C47        34.2860   22.3080   38.3430 C.3       1 CYU        -0.0465
     58 C48        31.8580   22.7040   35.4310 C.3       1 CYU        -0.0335
     59 C49        30.2220   19.1930   37.0280 C.3       1 CYU        -0.0206
     60 C50        26.0130   18.1570   34.3250 C.3       1 CYU        -0.0239
     61 H5         27.4059   21.7203   33.7353 H         1 CYU         0.0448
     62 H6         28.0422   19.0495   35.6065 H         1 CYU         0.0736
     63 H7         29.5264   21.9727   34.8016 H         1 CYU         0.0456
     64 H8         32.3233   20.0600   37.7121 H         1 CYU         0.0819
     65 H9         34.1395   22.2328   36.1283 H         1 CYU         0.0551
     66 H10        36.0939   20.6303   37.1006 H         1 CYU         0.0633
     67 H11        33.8897   19.0288   35.5376 H         1 CYU         0.0351
     68 H12        35.6876   17.5332   36.8448 H         1 CYU         0.0598
     69 H13        37.7845   19.1817   35.2248 H         1 CYU         0.0316
     70 H14        37.4940   19.3654   36.9879 H         1 CYU         0.0316
     71 H15        38.1182   16.5751   35.7648 H         1 CYU         0.0623
     72 H16        39.8468   18.8957   36.7379 H         1 CYU         0.0653
     73 H17        40.3467   19.0694   34.4899 H         1 CYU         0.0683
     74 H18        43.3373   17.1162   37.6342 H         1 CYU         0.0342
     75 H19        43.8635   16.0305   36.3034 H         1 CYU         0.0342
     76 H20        43.8505   14.7354   38.4261 H         1 CYU         0.0598
     77 H21        42.2503   12.8431   37.6241 H         1 CYU         0.0350
     78 H22        40.3725   14.4504   37.2970 H         1 CYU         0.0626
     79 H23        41.4183   12.6684   34.9380 H         1 CYU         0.0457
     80 H24        39.8249   13.4883   34.8141 H         1 CYU         0.0457
     81 H25        40.5448   11.0866   36.6640 H         1 CYU         0.0594
     82 H26        37.8960   12.3709   35.9856 H         1 CYU         0.0397
     83 H27        35.9810   10.8485   37.6808 H         1 CYU         0.0934
     84 H28        37.4999    7.5756   40.1267 H         1 CYU         0.0556
     85 H29        40.4504    8.5195   40.7007 H         1 CYU         0.0294
     86 H30        39.6260    7.1883   41.5812 H         1 CYU         0.0294
     87 H31        39.3323    9.4354   42.8712 H         1 CYU         0.0232
     88 H32        37.7418    8.8289   42.2975 H         1 CYU         0.0232
     89 H33        38.5661   10.1601   41.4170 H         1 CYU         0.0232
     90 H34        38.2992    6.7978   37.9223 H         1 CYU         0.0262
     91 H35        39.1565    5.9213   39.2350 H         1 CYU         0.0262
     92 H36        39.9835    7.2498   38.3530 H         1 CYU         0.0262
     93 H37        44.3932   13.0443   36.5571 H         1 CYU         0.0234
     94 H38        43.7175   14.2151   35.3742 H         1 CYU         0.0234
     95 H39        43.1271   12.5187   35.3964 H         1 CYU         0.0234
     96 H40        42.8245   19.5345   34.8094 H         1 CYU         0.0238
     97 H41        43.6729   18.4368   35.9504 H         1 CYU         0.0238
     98 H42        42.1436   19.2389   36.4451 H         1 CYU         0.0238
     99 H43        41.8821   16.2371   33.3121 H         1 CYU         0.0238
    100 H44        43.5230   16.7676   33.8149 H         1 CYU         0.0238
    101 H45        42.4431   17.9012   32.9343 H         1 CYU         0.0238
    102 H46        37.8153   15.5221   39.1675 H         1 CYU         0.0524
    103 H47        38.9229   15.1963   37.7914 H         1 CYU         0.0524
    104 H48        37.1506   15.2919   37.5147 H         1 CYU         0.0524
    105 H49        35.3516   19.6044   33.5243 H         1 CYU         0.0234
    106 H50        36.5069   20.4762   34.5882 H         1 CYU         0.0234
    107 H51        34.8539   21.1304   34.3306 H         1 CYU         0.0234
    108 H52        33.6381   23.1938   38.4180 H         1 CYU         0.0265
    109 H53        35.3400   22.6206   38.3794 H         1 CYU         0.0265
    110 H54        34.0760   21.6280   39.1817 H         1 CYU         0.0265
    111 H55        32.8222   23.1580   35.7036 H         1 CYU         0.0351
    112 H56        31.0428   23.4020   35.6723 H         1 CYU         0.0351
    113 H57        31.8471   22.4860   34.3529 H         1 CYU         0.0351
    114 H58        31.1161   18.9357   37.6149 H         1 CYU         0.0455
    115 H59        29.9634   18.3530   36.3665 H         1 CYU         0.0455
    116 H60        29.3822   19.3955   37.7090 H         1 CYU         0.0455
    117 H61        26.8398   17.8807   34.9959 H         1 CYU         0.0447
    118 H62        26.0953   17.5872   33.3877 H         1 CYU         0.0447
    119 H63        25.0537   17.9264   34.8113 H         1 CYU         0.0447
@<TRIPOS>BOND
     1    5   12 ar 
     2    5   11 ar 
     3    5   10 ar 
     4    5    9 1  
     5    9   35 1  
     6   35   36 1  
     7   35   34 1  
     8   34   33 1  
     9   34   13 1  
    10   13   37 1  
    11   37   15 1  
    12   37   38 1  
    13   37   36 1  
    14   36   54 1  
    15   36   53 1  
    16   38   39 1  
    17   39   14 1  
    18   39   40 1  
    19   40   52 1  
    20   40   41 1  
    21   41   15 1  
    22   41   42 1  
    23   42   43 1  
    24   43   44 2  
    25   44   45 1  
    26   45   18 1  
    27   45   47 2  
    28   47   16 1  
    29   16   46 1  
    30   46   18 2  
    31   46   48 1  
    32   48   51 1  
    33   48   49 1  
    34   49   50 1  
    35   33    8 1  
    36   33   32 1  
    37   32   31 1  
    38   31    7 1  
    39   31   30 1  
    40   30   56 1  
    41   30   29 1  
    42   29    6 1  
    43   29   28 1  
    44   28   57 1  
    45   28   27 1  
    46   27   26 2  
    47   26   58 1  
    48   26   25 1  
    49   25   59 1  
    50   25   24 2  
    51   24   23 1  
    52   23   22 2  
    53   22   21 1  
    54   21   60 1  
    55   21   20 2  
    56   20   19 1  
    57   19   17 3  
    58    8   55 1  
    59    6    1 1  
    60    7    2 1  
    61   14    3 1  
    62   20    4 1  
    63   22   61 1  
    64   23   62 1  
    65   24   63 1  
    66   27   64 1  
    67   28   65 1  
    68   29   66 1  
    69   30   67 1  
    70   31   68 1  
    71   32   69 1  
    72   32   70 1  
    73   33   71 1  
    74   34   72 1  
    75   35   73 1  
    76   38   74 1  
    77   38   75 1  
    78   39   76 1  
    79   40   77 1  
    80   41   78 1  
    81   42   79 1  
    82   42   80 1  
    83   43   81 1  
    84   44   82 1  
    85   47   83 1  
    86   48   84 1  
    87   49   85 1  
    88   49   86 1  
    89   50   87 1  
    90   50   88 1  
    91   50   89 1  
    92   51   90 1  
    93   51   91 1  
    94   51   92 1  
    95   52   93 1  
    96   52   94 1  
    97   52   95 1  
    98   53   96 1  
    99   53   97 1  
   100   53   98 1  
   101   54   99 1  
   102   54  100 1  
   103   54  101 1  
   104   55  102 1  
   105   55  103 1  
   106   55  104 1  
   107   56  105 1  
   108   56  106 1  
   109   56  107 1  
   110   57  108 1  
   111   57  109 1  
   112   57  110 1  
   113   58  111 1  
   114   58  112 1  
   115   58  113 1  
   116   59  114 1  
   117   59  115 1  
   118   59  116 1  
   119   60  117 1  
   120   60  118 1  
   121   60  119 1  
@<TRIPOS>SUBSTRUCTURE
     1 CYU         1

