4a7c_ligand
  -I-interpret- 

 48 51  0  0  0  0  0  0  0  0999 V2000
  -45.7690   -2.1330    2.1850 F   0  0  0  0  0
  -45.9770   -1.3950    1.1070 C   0  0  0  0  0
  -46.6310   -0.3020    1.4530 F   0  0  0  0  0
  -46.6500   -2.0170    0.1560 F   0  0  0  0  0
  -44.6990   -1.0480    0.6290 O   0  0  0  0  0
  -44.1440   -1.5640   -0.5060 C   0  0  0  0  0
  -42.8300   -1.9780   -0.4390 C   0  0  0  0  0
  -44.8400   -1.6370   -1.6970 C   0  0  0  0  0
  -44.1850   -2.1480   -2.8040 C   0  0  0  0  0
  -42.8610   -2.5620   -2.7090 C   0  0  0  0  0
  -42.1400   -2.4950   -1.5210 C   0  0  0  0  0
  -40.8720   -2.8880   -1.4370 N   0  0  0  0  0
  -40.2180   -3.4010   -2.5500 N   0  0  0  0  0
  -38.9420   -3.6920   -2.0310 N   0  0  0  0  0
  -38.9100   -3.3660   -0.7150 C   0  0  0  0  0
  -37.8960   -3.4630    0.2130 C   0  0  0  0  0
  -38.1230   -3.0500    1.5120 C   0  0  0  0  0
  -40.1400   -2.8490   -0.3240 C   0  0  0  0  0
  -40.3490   -2.4470    0.9570 N   0  0  0  0  0
  -39.3540   -2.5400    1.8830 C   0  0  0  0  0
  -39.4880   -2.1430    3.1760 N   0  0  0  0  0
  -40.7280   -1.6640    3.7530 C   0  0  0  0  0
  -41.6080   -2.8530    4.1150 C   0  0  0  0  0
  -42.5280   -2.4540    5.2740 C   0  0  0  0  0
  -40.7370   -4.0560    4.4920 C   0  0  0  0  0
  -41.5990   -5.2410    4.9270 C   0  0  0  0  0
  -42.9960   -4.8470    4.9880 N   0  3  0  0  0
  -43.3730   -3.6440    5.7230 C   0  0  0  0  0
  -42.3089   -1.8936    0.5146 H   0  0  0  0  0
  -45.8751   -1.3019   -1.7631 H   0  0  0  0  0
  -44.7102   -2.2264   -3.7559 H   0  0  0  0  0
  -42.3692   -2.9540   -3.5993 H   0  0  0  0  0
  -36.9234   -3.8620   -0.0750 H   0  0  0  0  0
  -37.3251   -3.1268    2.2506 H   0  0  0  0  0
  -38.6651   -2.1848    3.7772 H   0  0  0  0  0
  -41.2464   -1.0332    3.0309 H   0  0  0  0  0
  -40.5124   -1.0835    4.6500 H   0  0  0  0  0
  -42.2192   -3.1396    3.2592 H   0  0  0  0  0
  -43.1910   -1.6558    4.9402 H   0  0  0  0  0
  -41.9162   -2.1190    6.1116 H   0  0  0  0  0
  -40.0884   -3.7723    5.3208 H   0  0  0  0  0
  -40.1513   -4.3505    3.6212 H   0  0  0  0  0
  -41.2778   -5.5734    5.9141 H   0  0  0  0  0
  -41.4867   -6.0492    4.2043 H   0  0  0  0  0
  -43.4580   -5.6088    5.4846 H   0  0  0  0  0
  -43.2513   -4.6494    4.0204 H   0  0  0  0  0
  -44.4230   -3.4254    5.5285 H   0  0  0  0  0
  -43.2078   -3.8135    6.7870 H   0  0  0  0  0
  1  2  1  0  0  0
  2  3  1  0  0  0
  2  4  1  0  0  0
  2  5  1  0  0  0
  5  6  1  0  0  0
  6  7  4  0  0  0
  6  8  4  0  0  0
  7 11  4  0  0  0
  8  9  4  0  0  0
  9 10  4  0  0  0
 10 11  4  0  0  0
 11 12  1  0  0  0
 12 13  4  0  0  0
 12 18  4  0  0  0
 13 14  4  0  0  0
 14 15  4  0  0  0
 15 16  4  0  0  0
 15 18  4  0  0  0
 16 17  4  0  0  0
 17 20  4  0  0  0
 18 19  4  0  0  0
 19 20  4  0  0  0
 20 21  1  0  0  0
 21 22  1  0  0  0
 22 23  1  0  0  0
 23 24  1  0  0  0
 23 25  1  0  0  0
 24 28  1  0  0  0
 25 26  1  0  0  0
 26 27  1  0  0  0
 27 28  1  0  0  0
  7 29  1  0  0  0
  8 30  1  0  0  0
  9 31  1  0  0  0
 10 32  1  0  0  0
 16 33  1  0  0  0
 17 34  1  0  0  0
 21 35  1  0  0  0
 22 36  1  0  0  0
 22 37  1  0  0  0
 23 38  1  0  0  0
 24 39  1  0  0  0
 24 40  1  0  0  0
 25 41  1  0  0  0
 25 42  1  0  0  0
 26 43  1  0  0  0
 26 44  1  0  0  0
 27 45  1  0  0  0
 27 46  1  0  0  0
 28 47  1  0  0  0
 28 48  1  0  0  0
M  END
$$$$
