4y79_ligand
  -I-interpret- 

 53 55  0  0  0  0  0  0  0  0999 V2000
    7.1880    1.8650   20.6840 C   0  0  0  0  0
    7.4240    3.2770   20.1650 C   0  0  0  0  0
    7.2110    3.3550   18.6480 C   0  0  0  0  0
    6.1250    3.6700   18.2000 O   0  0  0  0  0
    8.2430    3.0380   17.8390 N   0  0  0  0  0
    9.5880    2.6810   18.3190 C   0  0  0  0  0
   10.0940    1.4630   17.5940 C   0  0  0  0  0
   10.0810    1.6560   16.1880 O   0  0  0  0  0
    8.7410    1.8690   15.7470 C   0  0  0  0  0
    8.1360    3.1020   16.3700 C   0  0  0  0  0
    6.5770    4.2720   20.8450 N   0  0  0  0  0
    5.1780    4.0240   21.2520 C   0  0  0  0  0
    4.6330    5.4240   21.4850 C   0  0  0  0  0
    5.8760    6.1600   21.9990 C   0  0  0  0  0
    5.8420    7.6130   21.8200 N   0  0  0  0  0
    6.0930    8.5920   23.0920 S   0  0  0  0  0
    5.3830    8.0120   24.1960 O   0  0  0  0  0
    5.7630    9.9170   22.6470 O   0  0  0  0  0
    7.8140    8.5540   23.4710 C   0  0  0  0  0
    8.2310    8.2980   24.7070 C   0  0  0  0  0
    9.6160    8.0500   25.1360 C   0  0  0  0  0
    9.8550    7.4520   26.3760 C   0  0  0  0  0
   11.1440    7.2110   26.8270 C   0  0  0  0  0
   12.2120    7.5570   26.0270 C   0  0  0  0  0
   13.8380    7.2520   26.5900 Cl  0  0  0  0  0
   12.0220    8.1440   24.7910 C   0  0  0  0  0
   10.7280    8.3910   24.3530 C   0  0  0  0  0
    7.0220    5.4820   21.2530 C   0  0  0  0  0
    8.1400    5.9280   21.0700 O   0  0  0  0  0
    7.4132    1.8287   21.7499 H   0  0  0  0  0
    6.1460    1.5891   20.5219 H   0  0  0  0  0
    7.8364    1.1700   20.1504 H   0  0  0  0  0
    8.4635    3.5174   20.3882 H   0  0  0  0  0
    9.5398    2.4658   19.3864 H   0  0  0  0  0
   10.2657    3.5140   18.1320 H   0  0  0  0  0
    9.4440    0.6217   17.8344 H   0  0  0  0  0
   11.1204    1.2740   17.9084 H   0  0  0  0  0
    8.1422    1.0072   16.0415 H   0  0  0  0  0
    8.7533    2.0024   14.6653 H   0  0  0  0  0
    8.6719    3.9811   16.0121 H   0  0  0  0  0
    7.0837    3.1614   16.0921 H   0  0  0  0  0
    5.1023    3.3900   22.1354 H   0  0  0  0  0
    4.6126    3.4713   20.5017 H   0  0  0  0  0
    3.7928    5.4533   22.1788 H   0  0  0  0  0
    4.1988    5.8753   20.5929 H   0  0  0  0  0
    5.9711    6.0822   23.0821 H   0  0  0  0  0
    5.6610    8.0099   20.8980 H   0  0  0  0  0
    8.5439    8.7424   22.6837 H   0  0  0  0  0
    7.4668    8.2688   25.4837 H   0  0  0  0  0
    9.0094    7.1686   27.0028 H   0  0  0  0  0
   11.3107    6.7535   27.8022 H   0  0  0  0  0
   12.8763    8.4096   24.1683 H   0  0  0  0  0
   10.5734    8.8594   23.3810 H   0  0  0  0  0
  1  2  1  0  0  0
  2  3  1  0  0  0
  2 11  1  0  0  0
  3  4  2  0  0  0
  3  5  1  0  0  0
  5  6  1  0  0  0
  5 10  1  0  0  0
  6  7  1  0  0  0
  7  8  1  0  0  0
  8  9  1  0  0  0
  9 10  1  0  0  0
 11 12  1  0  0  0
 11 28  1  0  0  0
 12 13  1  0  0  0
 13 14  1  0  0  0
 14 15  1  0  0  0
 14 28  1  0  0  0
 15 16  1  0  0  0
 16 17  2  0  0  0
 16 18  2  0  0  0
 16 19  1  0  0  0
 19 20  2  0  0  0
 20 21  1  0  0  0
 21 22  4  0  0  0
 21 27  4  0  0  0
 22 23  4  0  0  0
 23 24  4  0  0  0
 24 25  1  0  0  0
 24 26  4  0  0  0
 26 27  4  0  0  0
 28 29  2  0  0  0
  1 30  1  0  0  0
  1 31  1  0  0  0
  1 32  1  0  0  0
  2 33  1  0  0  0
  6 34  1  0  0  0
  6 35  1  0  0  0
  7 36  1  0  0  0
  7 37  1  0  0  0
  9 38  1  0  0  0
  9 39  1  0  0  0
 10 40  1  0  0  0
 10 41  1  0  0  0
 12 42  1  0  0  0
 12 43  1  0  0  0
 13 44  1  0  0  0
 13 45  1  0  0  0
 14 46  1  0  0  0
 15 47  1  0  0  0
 19 48  1  0  0  0
 20 49  1  0  0  0
 22 50  1  0  0  0
 23 51  1  0  0  0
 26 52  1  0  0  0
 27 53  1  0  0  0
M  END
$$$$
