### 
### Created by X-TOOL on Mon Sep 10 21:12:53 2018
### 

@<TRIPOS>MOLECULE
1y3g_ligand
   69    69     1     0     0
SMALL
GAST_HUCK


@<TRIPOS>ATOM
      1 C          33.5740   38.3390   -7.3140 C.2       1 3PL         0.1780
      2 O          34.2780   37.9180   -8.2260 O.2       1 3PL        -0.3969
      3 CA         32.3320   37.5790   -6.8510 C.3       1 3PL         0.0468
      4 CB         31.7670   36.6130   -7.9030 C.3       1 3PL        -0.0022
      5 CG         31.2790   37.2990   -9.1630 C.ar      1 3PL        -0.0408
      6 CD1        29.9780   37.7270   -9.2740 C.ar      1 3PL        -0.0602
      7 CE1        29.5400   38.3580  -10.4500 C.ar      1 3PL        -0.0686
      8 CZ         30.3940   38.5660  -11.4810 C.ar      1 3PL        -0.0687
      9 CE2        31.6770   38.1400  -11.3870 C.ar      1 3PL        -0.0686
     10 CD2        32.1330   37.5030  -10.2230 C.ar      1 3PL        -0.0602
     11 N          33.8310   39.4760   -6.6770 N.am      1 AMM        -0.2849
     12 CA         34.9690   40.3030   -7.0270 C.3       1 AMM         0.0510
     13 SI         35.1320   41.8370   -6.0210 Si        1 AMM         0.0000
     14 O1         36.5590   42.5110   -6.4570 O.3       1 AMM        -0.2528
     15 O2         33.9020   42.8650   -6.3510 O.3       1 AMM        -0.2528
     16 CH2        35.1470   41.5070   -4.1980 C.3       1 AMM        -0.0309
     17 CE         36.4240   41.9170   -3.4250 C.3       1 AMM         0.0491
     18 C          37.7300   41.1950   -3.7450 C.2       1 AMM         0.1808
     19 O          38.8140   41.7940   -3.7770 O.2       1 AMM        -0.3967
     20 CB         36.1680   41.9430   -1.9260 C.3       1 AMM        -0.0309
     21 CG         37.3450   42.5010   -1.1340 C.3       1 AMM        -0.0444
     22 CD1        37.4160   44.0230   -1.2980 C.3       1 AMM        -0.0625
     23 CD2        37.1760   42.1430    0.3350 C.3       1 AMM        -0.0625
     24 N          37.6190   39.8890   -3.9520 N.am      1 LEU        -0.2711
     25 CA         38.7760   39.0650   -4.2550 C.3       1 LEU         0.0945
     26 C          38.4390   37.9670   -5.2420 C.2       1 LEU         0.0601
     27 O          37.2240   37.7700   -5.5120 O.co2     1 LEU        -0.5666
     28 CB         39.4430   38.4920   -2.9850 C.3       1 LEU        -0.0156
     29 CG         38.5760   37.4890   -2.2380 C.3       1 LEU        -0.0431
     30 CD1        37.5350   38.2240   -1.4170 C.3       1 LEU        -0.0625
     31 CD2        39.4430   36.6570   -1.3110 C.3       1 LEU        -0.0625
     32 OXT        39.3950   37.3570   -5.7700 O.co2     1 LEU        -0.5666
     33 H1         31.5513   38.3117   -6.5986 H         1 3PL         0.0525
     34 H2         32.5948   36.9993   -5.9538 H         1 3PL         0.0525
     35 H3         30.9228   36.0680   -7.4556 H         1 3PL         0.0451
     36 H4         32.5579   35.9005   -8.1801 H         1 3PL         0.0451
     37 H5         29.2877   37.5773   -8.4517 H         1 3PL         0.0557
     38 H6         28.5088   38.6816  -10.5335 H         1 3PL         0.0599
     39 H7         30.0524   39.0710  -12.3773 H         1 3PL         0.0559
     40 H8         32.3564   38.2926  -12.2178 H         1 3PL         0.0599
     41 H9         33.1626   37.1700  -10.1582 H         1 3PL         0.0557
     42 H10        33.2245   39.7687   -5.9378 H         1 3PL         0.1851
     43 H11        34.8716   40.5932   -8.0836 H         1 3PL         0.0540
     44 H12        35.8828   39.7053   -6.8936 H         1 3PL         0.0540
     45 H13        35.0038   40.4259   -4.0543 H         1 3PL         0.0294
     46 H14        34.3003   42.0513   -3.7543 H         1 3PL         0.0294
     47 H15        36.6045   42.9609   -3.7212 H         1 3PL         0.0538
     48 H16        35.9710   40.9158   -1.5855 H         1 3PL         0.0295
     49 H17        35.2851   42.5695   -1.7313 H         1 3PL         0.0295
     50 H18        38.2778   42.0555   -1.5101 H         1 3PL         0.0297
     51 H19        38.2681   44.4144   -0.7229 H         1 3PL         0.0232
     52 H20        36.4845   44.4756   -0.9272 H         1 3PL         0.0232
     53 H21        37.5465   44.2715   -2.3616 H         1 3PL         0.0232
     54 H22        37.1261   41.0494    0.4425 H         1 3PL         0.0232
     55 H23        36.2473   42.5917    0.7173 H         1 3PL         0.0232
     56 H24        38.0324   42.5289    0.9074 H         1 3PL         0.0232
     57 H25        36.7165   39.4616   -3.8980 H         1 3PL         0.1875
     58 H26        39.5162   39.7193   -4.7388 H         1 3PL         0.0726
     59 H27        39.6717   39.3267   -2.3061 H         1 3PL         0.0308
     60 H28        40.3776   37.9919   -3.2791 H         1 3PL         0.0308
     61 H29        38.0742   36.8298   -2.9616 H         1 3PL         0.0297
     62 H30        36.9109   37.4953   -0.8790 H         1 3PL         0.0232
     63 H31        36.9016   38.8278   -2.0835 H         1 3PL         0.0232
     64 H32        38.0370   38.8822   -0.6926 H         1 3PL         0.0232
     65 H33        40.2009   36.1208   -1.9009 H         1 3PL         0.0232
     66 H34        38.8146   35.9308   -0.7747 H         1 3PL         0.0232
     67 H35        39.9420   37.3163   -0.5856 H         1 3PL         0.0232
     68 H36        37.2659   41.9072   -6.2617 H         1 3PL         0.2528
     69 H37        34.0273   43.6727   -5.8668 H         1 3PL         0.2528
@<TRIPOS>BOND
     1    1    2 2  
     2    1    3 1  
     3    1   11 am 
     4    3    4 1  
     5    4    5 1  
     6    5    6 ar 
     7    5   10 ar 
     8    6    7 ar 
     9    7    8 ar 
    10    8    9 ar 
    11    9   10 ar 
    12   11   12 1  
    13   12   13 1  
    14   13   14 1  
    15   13   15 1  
    16   13   16 1  
    17   16   17 1  
    18   17   18 1  
    19   17   20 1  
    20   18   19 2  
    21   18   24 am 
    22   20   21 1  
    23   21   22 1  
    24   21   23 1  
    25   24   25 1  
    26   25   26 1  
    27   25   28 1  
    28   26   27 ar 
    29   26   32 ar 
    30   28   29 1  
    31   29   30 1  
    32   29   31 1  
    33    3   33 1  
    34    3   34 1  
    35    4   35 1  
    36    4   36 1  
    37    6   37 1  
    38    7   38 1  
    39    8   39 1  
    40    9   40 1  
    41   10   41 1  
    42   11   42 1  
    43   12   43 1  
    44   12   44 1  
    45   16   45 1  
    46   16   46 1  
    47   17   47 1  
    48   20   48 1  
    49   20   49 1  
    50   21   50 1  
    51   22   51 1  
    52   22   52 1  
    53   22   53 1  
    54   23   54 1  
    55   23   55 1  
    56   23   56 1  
    57   24   57 1  
    58   25   58 1  
    59   28   59 1  
    60   28   60 1  
    61   29   61 1  
    62   30   62 1  
    63   30   63 1  
    64   30   64 1  
    65   31   65 1  
    66   31   66 1  
    67   31   67 1  
    68   14   68 1  
    69   15   69 1  
@<TRIPOS>SUBSTRUCTURE
     1 3PL         1

