1zz3_ligand
  -I-interpret- 

 24 24  0  0  0  0  0  0  0  0999 V2000
   -5.5340  -11.8380   38.6520 C   0  0  0  0  0
   -5.5130  -10.4750   37.9630 C   0  0  0  0  0
   -4.0780  -10.0430   38.2760 C   0  0  0  0  0
   -3.9620  -10.3360   39.7800 C   0  0  0  0  0
   -4.8550  -11.5670   40.0210 C   0  0  0  0  0
   -3.9390  -12.7120   40.4860 C   0  0  0  0  0
   -4.5620  -14.0770   40.7180 C   0  0  0  0  0
   -4.0290  -14.5440   42.0260 C   0  0  0  0  0
   -2.8600  -14.8200   42.2380 O   0  0  0  0  0
   -4.7300  -14.3480   42.9020 N   0  0  0  0  0
   -4.4070  -14.6120   44.1530 O   0  0  0  0  0
   -5.0163  -12.6042   38.0749 H   0  0  0  0  0
   -6.5435  -12.2348   38.7593 H   0  0  0  0  0
   -6.2788   -9.7818   38.3111 H   0  0  0  0  0
   -5.7539  -10.5031   36.9003 H   0  0  0  0  0
   -3.8828   -8.9996   38.0282 H   0  0  0  0  0
   -3.3338  -10.5710   37.6798 H   0  0  0  0  0
   -4.2800   -9.4844   40.3815 H   0  0  0  0  0
   -2.9296  -10.5240   40.0748 H   0  0  0  0  0
   -5.6216  -11.4429   40.7859 H   0  0  0  0  0
   -3.5583  -12.3998   41.4585 H   0  0  0  0  0
   -3.2234  -12.8556   39.6765 H   0  0  0  0  0
   -4.3113  -14.7706   39.9154 H   0  0  0  0  0
   -5.6505  -14.0212   40.7287 H   0  0  0  0  0
  1  2  1  0  0  0
  1  5  1  0  0  0
  2  3  1  0  0  0
  3  4  1  0  0  0
  4  5  1  0  0  0
  5  6  1  0  0  0
  6  7  1  0  0  0
  7  8  1  0  0  0
  8  9  2  0  0  0
  8 10  1  0  0  0
 10 11  2  0  0  0
  1 12  1  0  0  0
  1 13  1  0  0  0
  2 14  1  0  0  0
  2 15  1  0  0  0
  3 16  1  0  0  0
  3 17  1  0  0  0
  4 18  1  0  0  0
  4 19  1  0  0  0
  5 20  1  0  0  0
  6 21  1  0  0  0
  6 22  1  0  0  0
  7 23  1  0  0  0
  7 24  1  0  0  0
M  END
$$$$
