#	Name:			6q39_ligand
#	Creating user name:	wangrx
#	Creation time:		Thu Aug  5 18:04:53 2021

#	Modifying user name:	wangrx
#	Modification time:	Thu Aug  5 18:05:12 2021

@<TRIPOS>MOLECULE
6q39_ligand
   57    58     1     0     0
SMALL
GAST_HUCK


@<TRIPOS>ATOM
      1 C11        35.4050   85.5560   71.1500 C.3       1 HDQ        -0.0235 
      2 C13        34.0680   88.7530   71.6300 C.2       1 HDQ         0.1018 
      3 B6         37.7150   86.8000   66.3080 B         1 HDQ         4.0000 
      4 C1         33.6900   87.2980   71.4110 C.3       1 HDQ         0.0803 
      5 C16        34.7970   84.1670   72.9770 C.3       1 HDQ         0.0122 
      6 C17        33.8440   83.8940   74.1300 C.3       1 HDQ         0.0183 
      7 C19        31.6270   82.7730   74.5630 C.3       1 HDQ        -0.0332 
      8 C2         34.5770   86.5890   70.3900 C.3       1 HDQ         0.0526 
      9 C20        32.1840   82.6300   75.9750 C.3       1 HDQ        -0.0124 
     10 C21        33.6020   82.0770   75.9290 C.3       1 HDQ        -0.0430 
     11 C22        34.5470   82.9730   75.1270 C.3       1 HDQ        -0.0046 
     12 C3         35.5380   87.4400   69.5760 C.3       1 HDQ        -0.0674 
     13 C4         36.2360   86.6150   68.4770 C.3       1 HDQ        -0.1821 
     14 C5         37.0130   87.5490   67.5300 C.3       1 HDQ        -0.3457 
     15 C9         33.8130   86.4750   72.7080 C.3       1 HDQ         0.0212 
     16 N10        34.9770   85.5750   72.5590 N.4       1 HDQ         0.2433 
     17 N12        32.2940   87.2380   70.9430 N.4       1 HDQ         0.2271 
     18 N18        32.6240   83.2760   73.6290 N.4       1 HDQ         0.2329 
     19 O14        35.1660   89.0480   72.1840 O.co2     1 HDQ        -0.5420 
     20 O15        33.2430   89.6340   71.2490 O.co2     1 HDQ        -0.5420 
     21 O23        38.1590   87.6340   65.1290 O.3       1 HDQ        -0.4105 
     22 O7         36.5630   86.0700   65.5620 O.3       1 HDQ        -0.4105 
     23 O8         38.6280   85.6700   66.7110 O.3       1 HDQ        -0.4105 
     24 H1         36.4730   85.8101   71.0811 H         1 HDQ         0.0818 
     25 H2         35.2376   84.5563   70.7228 H         1 HDQ         0.0818 
     26 H3         34.4270   83.6089   72.1043 H         1 HDQ         0.0871 
     27 H4         35.7851   83.7806   73.2675 H         1 HDQ         0.0871 
     28 H5         33.5880   84.8413   74.6271 H         1 HDQ         0.0904 
     29 H6         30.7779   83.4720   74.5858 H         1 HDQ         0.0814 
     30 H7         31.2817   81.7878   74.2165 H         1 HDQ         0.0814 
     31 H8         33.9133   86.0747   69.6794 H         1 HDQ         0.0405 
     32 H9         31.5450   81.9433   76.5496 H         1 HDQ         0.0317 
     33 H10        32.1945   83.6159   76.4628 H         1 HDQ         0.0317 
     34 H11        33.5786   81.0807   75.4633 H         1 HDQ         0.0269 
     35 H12        33.9825   81.9922   76.9576 H         1 HDQ         0.0269 
     36 H13        35.1124   83.5978   75.8340 H         1 HDQ         0.0322 
     37 H14        35.2427   82.3286   74.5696 H         1 HDQ         0.0322 
     38 H15        36.3020   87.8576   70.2482 H         1 HDQ         0.0246 
     39 H16        34.9768   88.2601   69.1043 H         1 HDQ         0.0246 
     40 H17        35.4797   86.0606   67.9020 H         1 HDQ        -0.0084 
     41 H18        36.9353   85.9053   68.9431 H         1 HDQ        -0.0084 
     42 H20        37.2102   88.5046   68.0379 H         1 HDQ        -0.2101 
     43 H21        36.4163   87.7315   66.6241 H         1 HDQ        -0.2101 
     44 H22        32.8991   85.8831   72.8645 H         1 HDQ         0.0866 
     45 H23        33.9660   87.1470   73.5653 H         1 HDQ         0.0866 
     46 H24        35.7196   85.9620   73.1201 H         1 HDQ         0.2037 
     47 H25        32.2010   87.7734   70.0940 H         1 HDQ         0.2001 
     48 H26        31.6859   87.6207   71.6499 H         1 HDQ         0.2001 
     49 H27        32.0402   86.2789   70.7648 H         1 HDQ         0.2001 
     50 H28        32.9066   82.4958   73.0568 H         1 HDQ         0.2018 
     51 H29        32.1635   83.9645   73.0546 H         1 HDQ         0.2018 
     52 H30        38.2411   87.0786   64.3626 H         1 HDQ         0.2052 
     53 H31        38.2411   87.0786   64.3627 H         1 HDQ         0.2052 
     54 H32        35.9348   86.7099   65.2484 H         1 HDQ         0.2052 
     55 H33        35.9348   86.7099   65.2484 H         1 HDQ         0.2052 
     56 H34        38.7218   85.0656   65.9841 H         1 HDQ         0.2052 
     57 H35        38.7218   85.0656   65.9841 H         1 HDQ         0.2052 
@<TRIPOS>BOND
     1    8    1 1    
     2    1   16 1    
     3    4    2 1    
     4    2   19 ar   
     5    2   20 ar   
     6   14    3 1    
     7    3   21 1    
     8    3   23 1    
     9    8    4 1    
    10    4   15 1    
    11    4   17 1    
    12    5    6 1    
    13   16    5 1    
    14    6   11 1    
    15    6   18 1    
    16    7    9 1    
    17   18    7 1    
    18   12    8 1    
    19   10    9 1    
    20   11   10 1    
    21   13   12 1    
    22   13   14 1    
    23   15   16 1    
    24    3   22 1    
    25    1   24 1    
    26    1   25 1    
    27    5   26 1    
    28    5   27 1    
    29    6   28 1    
    30    7   29 1    
    31    7   30 1    
    32    8   31 1    
    33    9   32 1    
    34    9   33 1    
    35   10   34 1    
    36   10   35 1    
    37   11   36 1    
    38   11   37 1    
    39   12   38 1    
    40   12   39 1    
    41   13   40 1    
    42   13   41 1    
    43   14   42 1    
    44   14   43 1    
    45   15   44 1    
    46   15   45 1    
    47   16   46 1    
    48   17   47 1    
    49   17   48 1    
    50   17   49 1    
    51   18   50 1    
    52   18   51 1    
    53   21   52 1    
    54   21   53 1    
    55   22   54 1    
    56   22   55 1    
    57   23   56 1    
    58   23   57 1    
@<TRIPOS>SUBSTRUCTURE
     1 HDQ         1 PERM              0 ****  ****    0 ROOT 
