6q39_ligand

Created by X-TOOL on Mon Aug  2 16:11:27 2021
 58 59  0  0  0  0  0  0  0  0999 V2000
   35.4050   85.5560   71.1500  C 0  0  0  3  0  4
   34.0680   88.7530   71.6300  C 0  5  0  1  0  3
   37.7150   86.8000   66.3080  B 0  0  0  1  0  4
   33.6900   87.2980   71.4110  C 0  0  0  1  0  4
   34.7970   84.1670   72.9770  C 0  0  0  3  0  4
   33.8440   83.8940   74.1300  C 0  0  0  2  0  4
   31.6270   82.7730   74.5630  C 0  0  0  3  0  4
   34.5770   86.5890   70.3900  C 0  0  0  2  0  4
   32.1840   82.6300   75.9750  C 0  0  0  3  0  4
   33.6020   82.0770   75.9290  C 0  0  0  3  0  4
   34.5470   82.9730   75.1270  C 0  0  0  3  0  4
   35.5380   87.4400   69.5760  C 0  0  0  3  0  4
   36.2360   86.6150   68.4770  C 0  0  0  3  0  4
   37.0130   87.5490   67.5300  C 0  0  0  4  0  5
   33.8130   86.4750   72.7080  C 0  0  0  3  0  4
   34.9770   85.5750   72.5590  N 0  3  0  2  0  4
   32.2940   87.2380   70.9430  N 0  3  0  4  0  4
   32.6240   83.2760   73.6290  N 0  3  0  3  0  4
   35.1660   89.0480   72.1840  O 0  0  0  1  0  1
   33.2430   89.6340   71.2490  O 0  0  0  1  0  1
   38.1590   87.6340   65.1290  O 0  0  0  3  0  3
   36.5630   86.0700   65.5620  O 0  0  0  3  0  3
   38.6280   85.6700   66.7110  O 0  0  0  3  0  3
   36.4730   85.8101   71.0811  H 0  0  0  1  0  1
   35.2376   84.5563   70.7228  H 0  0  0  1  0  1
   34.4270   83.6089   72.1043  H 0  0  0  1  0  1
   35.7851   83.7806   73.2675  H 0  0  0  1  0  1
   33.5880   84.8413   74.6271  H 0  0  0  1  0  1
   30.7779   83.4720   74.5858  H 0  0  0  1  0  1
   31.2817   81.7878   74.2165  H 0  0  0  1  0  1
   33.9133   86.0747   69.6794  H 0  0  0  1  0  1
   31.5450   81.9433   76.5496  H 0  0  0  1  0  1
   32.1945   83.6159   76.4628  H 0  0  0  1  0  1
   33.5786   81.0807   75.4633  H 0  0  0  1  0  1
   33.9825   81.9922   76.9576  H 0  0  0  1  0  1
   35.1124   83.5978   75.8340  H 0  0  0  1  0  1
   35.2427   82.3286   74.5696  H 0  0  0  1  0  1
   36.3020   87.8576   70.2482  H 0  0  0  1  0  1
   34.9768   88.2601   69.1043  H 0  0  0  1  0  1
   35.4797   86.0606   67.9020  H 0  0  0  1  0  1
   36.9353   85.9053   68.9431  H 0  0  0  1  0  1
   37.9672   87.0778   67.2518  H 0  0  0  1  0  1
   37.2102   88.5046   68.0379  H 0  0  0  1  0  1
   36.4163   87.7315   66.6241  H 0  0  0  1  0  1
   32.8991   85.8831   72.8645  H 0  0  0  1  0  1
   33.9660   87.1470   73.5653  H 0  0  0  1  0  1
   35.7196   85.9620   73.1201  H 0  0  0  1  0  1
   32.2010   87.7734   70.0940  H 0  0  0  1  0  1
   31.6859   87.6207   71.6499  H 0  0  0  1  0  1
   32.0402   86.2789   70.7648  H 0  0  0  1  0  1
   32.9066   82.4958   73.0568  H 0  0  0  1  0  1
   32.1635   83.9645   73.0546  H 0  0  0  1  0  1
   38.2411   87.0786   64.3626  H 0  0  0  1  0  1
   38.2411   87.0786   64.3627  H 0  0  0  1  0  1
   35.9348   86.7099   65.2484  H 0  0  0  1  0  1
   35.9348   86.7099   65.2484  H 0  0  0  1  0  1
   38.7218   85.0656   65.9841  H 0  0  0  1  0  1
   38.7218   85.0656   65.9841  H 0  0  0  1  0  1
  8  1  1  0  0  1
  1 16  1  0  0  1
  4  2  1  0  0  2
  2 19  2  0  0  2
  2 20  2  0  0  2
 14  3  1  0  0  2
  3 21  1  0  0  2
  3 23  1  0  0  2
  8  4  1  0  0  1
  4 15  1  0  0  1
  4 17  1  0  0  2
  5  6  1  0  0  2
 16  5  1  0  0  2
  6 11  1  0  0  1
  6 18  1  0  0  1
  7  9  1  0  0  1
 18  7  1  0  0  1
 12  8  1  0  0  2
 10  9  1  0  0  1
 11 10  1  0  0  1
 13 12  1  0  0  2
 13 14  1  0  0  2
 15 16  1  0  0  1
  3 22  1  0  0  2
  1 24  1  0  0  2
  1 25  1  0  0  2
  5 26  1  0  0  2
  5 27  1  0  0  2
  6 28  1  0  0  2
  7 29  1  0  0  2
  7 30  1  0  0  2
  8 31  1  0  0  2
  9 32  1  0  0  2
  9 33  1  0  0  2
 10 34  1  0  0  2
 10 35  1  0  0  2
 11 36  1  0  0  2
 11 37  1  0  0  2
 12 38  1  0  0  2
 12 39  1  0  0  2
 13 40  1  0  0  2
 13 41  1  0  0  2
 14 42  1  0  0  2
 14 43  1  0  0  2
 14 44  1  0  0  2
 15 45  1  0  0  2
 15 46  1  0  0  2
 16 47  1  0  0  2
 17 48  1  0  0  2
 17 49  1  0  0  2
 17 50  1  0  0  2
 18 51  1  0  0  2
 18 52  1  0  0  2
 21 53  1  0  0  2
 21 54  1  0  0  2
 22 55  1  0  0  2
 22 56  1  0  0  2
 23 57  1  0  0  2
 23 58  1  0  0  2
M  END
> <MOLECULAR_FORMULA>
C14H35N3O5B

> <MOLECULAR_WEIGHT>
336.0

> <NUM_HB_ATOMS>
8  

> <NUM_ROTOR>
6  

> <XLOGP2>
-3.79

$$$$
