1rjk_ligand
  -I-interpret- 

 74 76  0  0  0  0  0  0  0  0999 V2000
   60.7500    4.4650    2.3210 O   0  0  0  0  0
   60.3420    5.6240    1.5500 C   0  0  0  0  0
   60.7740    6.9480    2.0310 C   0  0  0  0  0
   61.4370    7.0540    3.1640 C   0  0  0  0  0
   60.5680    8.2070    1.2310 C   0  0  0  0  0
   59.0680    8.2300    1.2610 O   0  0  0  0  0
   60.9350    8.1270   -0.2230 C   0  0  0  0  0
   60.9120    5.5430    0.1050 C   0  0  0  0  0
   60.7380    6.7730   -0.8220 C   0  0  0  0  0
   60.3730    6.8190   -2.1860 C   0  0  0  0  0
   60.0870    5.5890   -2.9850 C   0  0  0  0  0
   60.4170    5.4320   -4.2500 C   0  0  0  0  0
   61.2090    6.4650   -5.0040 C   0  0  0  0  0
   62.5240    5.7880   -5.4630 C   0  0  0  0  0
   60.0790    4.1080   -4.9030 C   0  0  0  0  0
   61.4720    3.4610   -5.3350 C   0  0  0  0  0
   62.3850    4.4010   -6.1410 C   0  0  0  0  0
   62.2880    3.1140   -3.9840 C   0  0  0  0  0
   59.1980    3.0270   -4.3210 C   0  0  0  0  0
   59.6510    1.7530   -5.1050 C   0  0  0  0  0
   60.9460    2.1400   -5.9090 C   0  0  0  0  0
   61.8400    0.9140   -6.0080 C   0  0  0  0  0
   61.0040   -0.1080   -6.8150 C   0  0  0  0  0
   63.2710    1.1470   -6.5570 C   0  0  0  0  0
   64.0700   -0.1510   -6.5920 C   0  0  0  0  0
   65.5740    0.0140   -6.8040 C   0  0  0  0  0
   66.3780   -1.3180   -6.6720 C   0  0  0  0  0
   67.6920   -1.0490   -7.3470 C   0  0  0  0  0
   66.5370   -1.8900   -5.2340 C   0  0  0  0  0
   65.7230   -2.3130   -7.4020 O   0  0  0  0  0
   60.3907    4.5301    3.2089 H   0  0  0  0  0
   59.2565    5.5692    1.6319 H   0  0  0  0  0
   61.8113    8.0252    3.4876 H   0  0  0  0  0
   61.6114    6.1705    3.7781 H   0  0  0  0  0
   61.1547    9.0361    1.6265 H   0  0  0  0  0
   58.7680    8.2811    2.1715 H   0  0  0  0  0
   61.9953    8.3666   -0.3039 H   0  0  0  0  0
   60.2849    8.8174   -0.7604 H   0  0  0  0  0
   60.3570    4.7387   -0.3779 H   0  0  0  0  0
   61.9887    5.4256    0.2272 H   0  0  0  0  0
   60.2970    7.7902   -2.6750 H   0  0  0  0  0
   59.5711    4.7675   -2.4878 H   0  0  0  0  0
   61.4213    7.3250   -4.3689 H   0  0  0  0  0
   60.6451    6.8300   -5.8624 H   0  0  0  0  0
   63.1122    5.6258   -4.5598 H   0  0  0  0  0
   62.9591    6.4490   -6.2125 H   0  0  0  0  0
   59.3696    4.4489   -5.6571 H   0  0  0  0  0
   63.3747    3.9485   -6.2022 H   0  0  0  0  0
   61.9444    4.5442   -7.1276 H   0  0  0  0  0
   62.4531    4.0293   -3.4155 H   0  0  0  0  0
   61.7113    2.4107   -3.3833 H   0  0  0  0  0
   63.2481    2.6688   -4.2451 H   0  0  0  0  0
   58.1348    3.2392   -4.4337 H   0  0  0  0  0
   59.3098    2.9235   -3.2417 H   0  0  0  0  0
   58.8645    1.4177   -5.7811 H   0  0  0  0  0
   59.8558    0.9316   -4.4184 H   0  0  0  0  0
   60.8080    2.3850   -6.9621 H   0  0  0  0  0
   62.0921    0.5501   -5.0120 H   0  0  0  0  0
   60.0780   -0.3206   -6.2807 H   0  0  0  0  0
   60.7720    0.3078   -7.7955 H   0  0  0  0  0
   61.5752   -1.0285   -6.9352 H   0  0  0  0  0
   63.7831    1.8518   -5.9019 H   0  0  0  0  0
   63.1938    1.5340   -7.5730 H   0  0  0  0  0
   63.6963   -0.7249   -7.4400 H   0  0  0  0  0
   63.9419   -0.6228   -5.6178 H   0  0  0  0  0
   65.9389    0.6921   -6.0325 H   0  0  0  0  0
   65.7209    0.3835   -7.8189 H   0  0  0  0  0
   67.5161   -0.7869   -8.3903 H   0  0  0  0  0
   68.1954   -0.2236   -6.8436 H   0  0  0  0  0
   68.3150   -1.9419   -7.2954 H   0  0  0  0  0
   67.0574   -1.1629   -4.6106 H   0  0  0  0  0
   65.5518   -2.0918   -4.8136 H   0  0  0  0  0
   67.1128   -2.8146   -5.2738 H   0  0  0  0  0
   66.2103   -3.1367   -7.3269 H   0  0  0  0  0
  1  2  1  0  0  0
  2  3  1  0  0  0
  2  8  1  0  0  0
  3  4  2  0  0  0
  3  5  1  0  0  0
  5  6  1  0  0  0
  5  7  1  0  0  0
  7  9  1  0  0  0
  8  9  1  0  0  0
  9 10  2  0  0  0
 10 11  1  0  0  0
 11 12  2  0  0  0
 12 13  1  0  0  0
 12 15  1  0  0  0
 13 14  1  0  0  0
 14 17  1  0  0  0
 15 16  1  0  0  0
 15 19  1  0  0  0
 16 17  1  0  0  0
 16 18  1  0  0  0
 16 21  1  0  0  0
 19 20  1  0  0  0
 20 21  1  0  0  0
 21 22  1  0  0  0
 22 23  1  0  0  0
 22 24  1  0  0  0
 24 25  1  0  0  0
 25 26  1  0  0  0
 26 27  1  0  0  0
 27 28  1  0  0  0
 27 29  1  0  0  0
 27 30  1  0  0  0
  1 31  1  0  0  0
  2 32  1  0  0  0
  4 33  1  0  0  0
  4 34  1  0  0  0
  5 35  1  0  0  0
  6 36  1  0  0  0
  7 37  1  0  0  0
  7 38  1  0  0  0
  8 39  1  0  0  0
  8 40  1  0  0  0
 10 41  1  0  0  0
 11 42  1  0  0  0
 13 43  1  0  0  0
 13 44  1  0  0  0
 14 45  1  0  0  0
 14 46  1  0  0  0
 15 47  1  0  0  0
 17 48  1  0  0  0
 17 49  1  0  0  0
 18 50  1  0  0  0
 18 51  1  0  0  0
 18 52  1  0  0  0
 19 53  1  0  0  0
 19 54  1  0  0  0
 20 55  1  0  0  0
 20 56  1  0  0  0
 21 57  1  0  0  0
 22 58  1  0  0  0
 23 59  1  0  0  0
 23 60  1  0  0  0
 23 61  1  0  0  0
 24 62  1  0  0  0
 24 63  1  0  0  0
 25 64  1  0  0  0
 25 65  1  0  0  0
 26 66  1  0  0  0
 26 67  1  0  0  0
 28 68  1  0  0  0
 28 69  1  0  0  0
 28 70  1  0  0  0
 29 71  1  0  0  0
 29 72  1  0  0  0
 29 73  1  0  0  0
 30 74  1  0  0  0
M  END
$$$$
