6ceh_ligand
  -I-interpret- 

 25 25  0  0  0  0  0  0  0  0999 V2000
   -3.0580    4.5610   85.6670 C   0  0  0  0  0
   -0.9070    3.5050   85.6440 C   0  0  0  0  0
   -2.6000    5.5720   84.8880 C   0  0  0  0  0
   -0.4620    4.5340   84.8380 C   0  0  0  0  0
   -2.2370    3.4920   86.0370 C   0  0  0  0  0
   -1.3070    5.5600   84.4450 C   0  0  0  0  0
    1.7350    9.6070   84.8640 C   0  0  0  0  0
    0.9700    8.5180   85.0410 C   0  0  0  0  0
    1.0050    7.3490   84.0610 C   0  0  0  0  0
   -2.3230    0.8100   86.3890 N   0  0  0  0  0
   -2.2650    2.3890   88.3610 O   0  0  0  0  0
   -4.3050    2.3180   86.9600 O   0  0  0  0  0
   -2.8600    2.1850   87.0720 S   0  0  0  0  0
   -0.7300    6.9660   83.2700 Se  0  0  0  0  0
   -4.0914    4.5825   86.0130 H   0  0  0  0  0
   -0.2255    2.7174   85.9655 H   0  0  0  0  0
   -3.2624    6.3936   84.6153 H   0  0  0  0  0
    0.5755    4.5396   84.5038 H   0  0  0  0  0
    2.4016    9.6708   84.0040 H   0  0  0  0  0
    1.6895   10.4273   85.5803 H   0  0  0  0  0
    0.3080    8.4677   85.9055 H   0  0  0  0  0
    1.3208    6.4634   84.6124 H   0  0  0  0  0
    1.6866    7.6142   83.2528 H   0  0  0  0  0
   -1.6490    0.2248   86.8826 H   0  0  0  0  0
   -2.6603    0.5329   85.4671 H   0  0  0  0  0
  3  1  4  0  0  0
  1  5  4  0  0  0
  4  2  4  0  0  0
  2  5  4  0  0  0
  6  3  4  0  0  0
  6  4  4  0  0  0
  5 13  1  0  0  0
 14  6  1  0  0  0
  8  7  2  0  0  0
  9  8  1  0  0  0
  9 14  1  0  0  0
 13 10  1  0  0  0
 13 11  2  0  0  0
 13 12  2  0  0  0
  1 15  1  0  0  0
  2 16  1  0  0  0
  3 17  1  0  0  0
  4 18  1  0  0  0
  7 19  1  0  0  0
  7 20  1  0  0  0
  8 21  1  0  0  0
  9 22  1  0  0  0
  9 23  1  0  0  0
 10 24  1  0  0  0
 10 25  1  0  0  0
M  END
$$$$
