### 
### Created by X-TOOL on Wed Jan  1 15:39:35 2020
### 

@<TRIPOS>MOLECULE
6ceh_ligand
   25    25     1     0     0
SMALL
GAST_HUCK


@<TRIPOS>ATOM
      1 C7         -3.0580    4.5610   85.6670 C.ar      1 EZ1        -0.0345
      2 C13        -0.9070    3.5050   85.6440 C.ar      1 EZ1        -0.0345
      3 C6         -2.6000    5.5720   84.8880 C.ar      1 EZ1        -0.0522
      4 C14        -0.4620    4.5340   84.8380 C.ar      1 EZ1        -0.0522
      5 C8         -2.2370    3.4920   86.0370 C.ar      1 EZ1         0.1079
      6 C5         -1.3070    5.5600   84.4450 C.ar      1 EZ1        -0.0178
      7 C1          1.7350    9.6070   84.8640 C.2       1 EZ1        -0.1173
      8 C2          0.9700    8.5180   85.0410 C.2       1 EZ1        -0.0870
      9 C3          1.0050    7.3490   84.0610 C.3       1 EZ1        -0.0146
     10 N11        -2.3230    0.8100   86.3890 N.am      1 EZ1        -0.2609
     11 O10        -2.2650    2.3890   88.3610 O.2       1 EZ1        -0.1505
     12 O12        -4.3050    2.3180   86.9600 O.2       1 EZ1        -0.1505
     13 S9         -2.8600    2.1850   87.0720 S.o2      1 EZ1         0.0659
     14 SE4        -0.7300    6.9660   83.2700 Se        1 EZ1        -4.0000
     15 H1         -4.0857    4.5824   86.0111 H         1 EZ1         0.0637
     16 H2         -0.2293    2.7217   85.9637 H         1 EZ1         0.0637
     17 H3         -3.2588    6.3890   84.6168 H         1 EZ1         0.0624
     18 H4          0.5698    4.5395   84.5056 H         1 EZ1         0.0624
     19 H5          1.6895   10.4266   85.5797 H         1 EZ1         0.0290
     20 H6          2.4010    9.6708   84.0048 H         1 EZ1         0.0290
     21 H7          0.3086    8.4678   85.9047 H         1 EZ1         0.0674
     22 H8          1.3511    6.4529   84.5969 H         1 EZ1         0.0468
     23 H9          1.7125    7.5896   83.2538 H         1 EZ1         0.0468
     24 H10        -2.5493   -0.0735   86.7991 H         1 EZ1         0.1635
     25 H11        -1.7666    0.8482   85.5590 H         1 EZ1         0.1635
@<TRIPOS>BOND
     1    3    1 ar 
     2    1    5 ar 
     3    4    2 ar 
     4    2    5 ar 
     5    6    3 ar 
     6    6    4 ar 
     7    5   13 1  
     8   14    6 1  
     9    8    7 2  
    10    9    8 1  
    11    9   14 1  
    12   13   10 am 
    13   13   11 2  
    14   13   12 2  
    15    1   15 1  
    16    2   16 1  
    17    3   17 1  
    18    4   18 1  
    19    7   19 1  
    20    7   20 1  
    21    8   21 1  
    22    9   22 1  
    23    9   23 1  
    24   10   24 1  
    25   10   25 1  
@<TRIPOS>SUBSTRUCTURE
     1 EZ1         1

