4q4e_ligand
  -I-interpret- 

 62 62  0  0  0  0  0  0  0  0999 V2000
   42.7600  -38.3760  -35.3410 C   0  0  0  0  0
   43.8580  -39.3820  -35.5320 C   0  0  0  0  0
   43.6130  -40.4710  -36.0210 O   0  0  0  0  0
   45.0820  -39.1990  -35.0660 N   0  0  0  0  0
   45.9540  -40.2620  -35.2240 O   0  0  0  0  0
   41.7020  -38.8560  -34.3230 C   0  0  0  0  0
   40.5100  -37.9050  -34.3370 C   0  0  0  0  0
   40.6570  -36.6880  -34.2680 O   0  0  0  0  0
   42.3030  -38.8360  -32.9310 C   0  0  0  0  0
   41.4520  -39.0890  -31.6590 C   0  0  0  0  0
   40.7540  -40.3820  -31.8500 C   0  0  0  0  0
   41.6390  -41.5830  -31.5830 C   0  0  0  0  0
   41.3560  -42.1620  -30.2230 C   0  0  0  0  0
   39.3160  -38.4720  -34.4900 N   0  0  0  0  0
   38.0850  -37.6650  -34.6150 C   0  0  0  0  0
   36.9780  -38.5780  -35.0960 C   0  0  0  0  0
   35.6670  -37.8100  -35.2190 C   0  0  0  0  0
   37.3960  -39.2270  -36.4320 C   0  0  0  0  0
   37.7990  -37.0130  -33.2910 C   0  0  0  0  0
   37.9340  -37.7570  -32.2880 O   0  0  0  0  0
   37.6570  -35.6840  -33.1650 N   0  0  0  0  0
   37.7040  -35.0440  -31.8210 C   0  0  0  0  0
   37.6150  -34.6880  -34.2180 C   0  0  0  0  0
   37.3760  -33.3750  -33.4930 C   0  0  0  0  0
   37.8810  -33.5520  -32.0880 C   0  0  0  0  0
   36.3990  -35.2710  -31.0350 C   0  0  0  0  0
   35.3160  -35.0730  -31.9220 O   0  0  0  0  0
   42.2651  -38.2269  -36.3006 H   0  0  0  0  0
   43.2043  -37.4561  -34.9610 H   0  0  0  0  0
   45.3659  -38.3279  -34.6177 H   0  0  0  0  0
   46.8096  -40.0301  -34.8555 H   0  0  0  0  0
   41.3833  -39.8639  -34.5887 H   0  0  0  0  0
   42.6369  -37.8052  -32.8128 H   0  0  0  0  0
   42.9991  -39.6747  -32.9424 H   0  0  0  0  0
   40.7336  -38.2828  -31.5108 H   0  0  0  0  0
   42.0859  -39.1218  -30.7729 H   0  0  0  0  0
   40.4323  -40.4333  -32.8902 H   0  0  0  0  0
   39.9257  -40.4181  -31.1424 H   0  0  0  0  0
   42.6816  -41.2673  -31.6211 H   0  0  0  0  0
   41.4379  -42.3431  -32.3379 H   0  0  0  0  0
   41.5476  -41.4066  -29.4609 H   0  0  0  0  0
   40.3130  -42.4746  -30.1725 H   0  0  0  0  0
   42.0032  -43.0227  -30.0541 H   0  0  0  0  0
   39.2490  -39.4893  -34.5218 H   0  0  0  0  0
   38.1844  -36.8600  -35.3432 H   0  0  0  0  0
   36.8132  -39.3726  -34.3683 H   0  0  0  0  0
   35.3930  -37.4032  -34.2456 H   0  0  0  0  0
   35.7901  -36.9956  -35.9330 H   0  0  0  0  0
   34.8838  -38.4839  -35.5661 H   0  0  0  0  0
   37.5746  -38.4477  -37.1728 H   0  0  0  0  0
   38.3080  -39.8052  -36.2839 H   0  0  0  0  0
   36.5996  -39.8849  -36.7797 H   0  0  0  0  0
   38.5101  -35.4673  -31.2218 H   0  0  0  0  0
   36.8335  -34.8989  -34.9479 H   0  0  0  0  0
   38.5365  -34.6707  -34.7999 H   0  0  0  0  0
   36.3160  -33.1212  -33.4932 H   0  0  0  0  0
   37.8984  -32.5582  -33.9911 H   0  0  0  0  0
   38.9167  -33.2311  -31.9764 H   0  0  0  0  0
   37.3379  -32.9355  -31.3717 H   0  0  0  0  0
   36.3353  -34.5728  -30.2004 H   0  0  0  0  0
   36.3742  -36.2825  -30.6295 H   0  0  0  0  0
   34.4900  -35.2097  -31.4523 H   0  0  0  0  0
  1  2  1  0  0  0
  1  6  1  0  0  0
  2  3  2  0  0  0
  2  4  1  0  0  0
  4  5  1  0  0  0
  6  7  1  0  0  0
  6  9  1  0  0  0
  7  8  2  0  0  0
  7 14  1  0  0  0
  9 10  1  0  0  0
 10 11  1  0  0  0
 11 12  1  0  0  0
 12 13  1  0  0  0
 14 15  1  0  0  0
 15 16  1  0  0  0
 15 19  1  0  0  0
 16 17  1  0  0  0
 16 18  1  0  0  0
 19 20  2  0  0  0
 19 21  1  0  0  0
 21 22  1  0  0  0
 21 23  1  0  0  0
 22 25  1  0  0  0
 22 26  1  0  0  0
 23 24  1  0  0  0
 24 25  1  0  0  0
 26 27  1  0  0  0
  1 28  1  0  0  0
  1 29  1  0  0  0
  4 30  1  0  0  0
  5 31  1  0  0  0
  6 32  1  0  0  0
  9 33  1  0  0  0
  9 34  1  0  0  0
 10 35  1  0  0  0
 10 36  1  0  0  0
 11 37  1  0  0  0
 11 38  1  0  0  0
 12 39  1  0  0  0
 12 40  1  0  0  0
 13 41  1  0  0  0
 13 42  1  0  0  0
 13 43  1  0  0  0
 14 44  1  0  0  0
 15 45  1  0  0  0
 16 46  1  0  0  0
 17 47  1  0  0  0
 17 48  1  0  0  0
 17 49  1  0  0  0
 18 50  1  0  0  0
 18 51  1  0  0  0
 18 52  1  0  0  0
 22 53  1  0  0  0
 23 54  1  0  0  0
 23 55  1  0  0  0
 24 56  1  0  0  0
 24 57  1  0  0  0
 25 58  1  0  0  0
 25 59  1  0  0  0
 26 60  1  0  0  0
 26 61  1  0  0  0
 27 62  1  0  0  0
M  END
$$$$
