3s9e_ligand
  -I-interpret- 

 20 19  0  0  0  0  0  0  0  0999 V2000
    3.9400  -30.6510  -13.6450 N   0  3  0  0  0
    2.6280  -30.0360  -13.8630 C   0  0  0  0  0
    1.4910  -31.0510  -13.6840 C   0  0  0  0  0
    0.4080  -30.6790  -13.9560 O   0  0  0  0  0
    2.5640  -29.3970  -15.2520 C   0  0  0  0  0
    3.3010  -28.0850  -15.3550 C   0  0  0  0  0
    2.5560  -26.9120  -14.7310 C   0  0  0  0  0
    1.4270  -27.0550  -14.4350 O   0  0  0  0  0
    3.2040  -25.9190  -14.5450 O   0  0  0  0  0
    1.7420  -32.1450  -13.2210 O   0  0  0  0  0
    3.9668  -31.0719  -12.7163 H   0  0  0  0  0
    4.0983  -31.3705  -14.3504 H   0  0  0  0  0
    4.6650  -29.9371  -13.7171 H   0  0  0  0  0
    2.4960  -29.2586  -13.1105 H   0  0  0  0  0
    1.5147  -29.1976  -15.4693 H   0  0  0  0  0
    3.0352  -30.0894  -15.9496 H   0  0  0  0  0
    3.4260  -27.8643  -16.4151 H   0  0  0  0  0
    4.2417  -28.1970  -14.8159 H   0  0  0  0  0
    4.0953  -26.0534  -14.8753 H   0  0  0  0  0
    2.6886  -32.2227  -13.0815 H   0  0  0  0  0
  1  2  1  0  0  0
  2  3  1  0  0  0
  2  5  1  0  0  0
  3  4  2  0  0  0
  3 10  1  0  0  0
  5  6  1  0  0  0
  6  7  1  0  0  0
  7  8  2  0  0  0
  7  9  1  0  0  0
  1 11  1  0  0  0
  1 12  1  0  0  0
  1 13  1  0  0  0
  2 14  1  0  0  0
  5 15  1  0  0  0
  5 16  1  0  0  0
  6 17  1  0  0  0
  6 18  1  0  0  0
  9 19  1  0  0  0
 10 20  1  0  0  0
M  END
$$$$
