3svv_ligand
  -I-interpret- 

 48 50  0  0  0  0  0  0  0  0999 V2000
  -12.0730   10.2680    5.8780 C   0  0  0  0  0
   -9.4150   12.0090    8.1380 C   0  0  0  0  0
   -9.1730   15.5000    9.5380 C   0  0  0  0  0
   -9.7240   11.4470   10.4880 C   0  0  0  0  0
  -10.7960   10.6110   10.1410 C   0  0  0  0  0
   -6.5120   15.0970    9.5460 O   0  0  0  0  0
  -13.5840   12.6370    7.3760 N   0  0  0  0  0
  -10.8200   11.0610    6.3360 C   0  0  0  0  0
  -14.2340   11.5900    6.6850 C   0  0  0  0  0
  -10.4800   11.1650    7.8080 C   0  0  0  0  0
  -13.4990   10.5940    6.0480 C   0  0  0  0  0
  -11.1780   10.4540    8.8070 C   0  0  0  0  0
  -15.5780    9.5390    5.3510 N   0  0  0  0  0
  -14.2140    9.5410    5.3680 C   0  0  0  0  0
   -9.0400   12.1460    9.4900 C   0  0  0  0  0
  -13.2770    8.7200    4.8450 N   0  0  0  0  0
   -7.9410   13.0110    9.8440 N   0  0  0  0  0
  -16.2660   10.5070    5.9720 C   0  0  0  0  0
  -15.5950   11.5310    6.6170 N   0  0  0  0  0
  -13.5640    7.5240    4.0640 C   0  0  0  0  0
   -7.7580   14.4940    9.1370 S   0  0  0  0  0
  -12.6880    6.3690    4.5320 C   0  0  0  0  0
  -13.2660    7.8250    2.6140 C   0  0  0  0  0
   -9.2540   15.8240   11.0140 C   0  0  0  0  0
  -12.0380    9.1430    5.1500 N   0  0  0  0  0
   -7.5600   14.4380    7.7010 O   0  0  0  0  0
   -8.8814   12.5542    7.3595 H   0  0  0  0  0
  -10.0696   14.9429    9.2662 H   0  0  0  0  0
   -9.0836   16.4391    8.9919 H   0  0  0  0  0
   -9.4261   11.5507   11.5314 H   0  0  0  0  0
  -11.3373   10.0775   10.9223 H   0  0  0  0  0
  -12.5651   12.6689    7.4121 H   0  0  0  0  0
  -14.1336   13.3610    7.8388 H   0  0  0  0  0
  -11.0233   12.0878    6.0319 H   0  0  0  0  0
   -9.9814   10.5163    5.9023 H   0  0  0  0  0
  -12.0026    9.7924    8.5416 H   0  0  0  0  0
   -7.2651   12.7021   10.5427 H   0  0  0  0  0
  -17.3558   10.4877    5.9690 H   0  0  0  0  0
  -14.6092    7.2416    4.1897 H   0  0  0  0  0
  -11.6388    6.6359    4.4053 H   0  0  0  0  0
  -12.8881    6.1660    5.5841 H   0  0  0  0  0
  -12.9124    5.4815    3.9403 H   0  0  0  0  0
  -13.8932    8.6513    2.2794 H   0  0  0  0  0
  -12.2161    8.0987    2.5094 H   0  0  0  0  0
  -13.4744    6.9415    2.0106 H   0  0  0  0  0
   -9.3272   14.8981   11.5844 H   0  0  0  0  0
   -8.3586   16.3679   11.3150 H   0  0  0  0  0
  -10.1343   16.4386   11.2020 H   0  0  0  0  0
  8  1  1  0  0  0
  1 11  4  0  0  0
  1 25  4  0  0  0
  2 10  4  0  0  0
 15  2  4  0  0  0
 21  3  1  0  0  0
  3 24  1  0  0  0
  4  5  4  0  0  0
 15  4  4  0  0  0
  5 12  4  0  0  0
 21  6  2  0  0  0
  9  7  1  0  0  0
 10  8  1  0  0  0
 11  9  4  0  0  0
  9 19  4  0  0  0
 10 12  4  0  0  0
 11 14  4  0  0  0
 14 13  4  0  0  0
 13 18  4  0  0  0
 16 14  4  0  0  0
 17 15  1  0  0  0
 16 20  1  0  0  0
 25 16  4  0  0  0
 17 21  1  0  0  0
 18 19  4  0  0  0
 20 22  1  0  0  0
 20 23  1  0  0  0
 21 26  2  0  0  0
  2 27  1  0  0  0
  3 28  1  0  0  0
  3 29  1  0  0  0
  4 30  1  0  0  0
  5 31  1  0  0  0
  7 32  1  0  0  0
  7 33  1  0  0  0
  8 34  1  0  0  0
  8 35  1  0  0  0
 12 36  1  0  0  0
 17 37  1  0  0  0
 18 38  1  0  0  0
 20 39  1  0  0  0
 22 40  1  0  0  0
 22 41  1  0  0  0
 22 42  1  0  0  0
 23 43  1  0  0  0
 23 44  1  0  0  0
 23 45  1  0  0  0
 24 46  1  0  0  0
 24 47  1  0  0  0
 24 48  1  0  0  0
M  END
$$$$
