2x4r_ligand
  -I-interpret- 

140140  0  0  0  0  0  0  0  0999 V2000
   22.0490   35.3720   43.8010 N   0  3  0  0  0
   23.4520   35.3200   44.2050 C   0  0  0  0  0
   24.3820   35.4850   43.0080 C   0  0  0  0  0
   24.4680   34.5980   42.1620 O   0  0  0  0  0
   23.7500   34.0060   44.9300 C   0  0  0  0  0
   25.0270   34.0670   45.7740 C   0  0  0  0  0
   25.0360   33.6510   46.9310 O   0  0  0  0  0
   26.1060   34.5650   45.1920 N   0  0  0  0  0
   25.0730   36.6270   42.9620 N   0  0  0  0  0
   25.9790   36.9940   41.8740 C   0  0  0  0  0
   27.2800   36.2080   41.8810 C   0  0  0  0  0
   27.6990   35.7120   42.9260 O   0  0  0  0  0
   26.3570   38.4630   41.9980 C   0  0  0  0  0
   25.2680   39.5060   41.8010 C   0  0  0  0  0
   25.7220   40.7840   42.4750 C   0  0  0  0  0
   25.0080   39.7230   40.3200 C   0  0  0  0  0
   27.9290   36.1190   40.7190 N   0  0  0  0  0
   29.2800   35.5760   40.6380 C   0  0  0  0  0
   30.2360   36.4330   41.5040 C   0  0  0  0  0
   30.2050   37.6750   41.4450 O   0  0  0  0  0
   29.7600   35.4860   39.1770 C   0  0  0  0  0
   30.1150   36.8710   38.6300 C   0  0  0  0  0
   30.9450   34.5170   39.0560 C   0  0  0  0  0
   31.0710   35.7690   42.3310 N   0  0  0  0  0
   31.9310   36.4630   43.3050 C   0  0  0  0  0
   33.0810   37.2690   42.7000 C   0  0  0  0  0
   33.5040   38.2550   43.2960 O   0  0  0  0  0
   32.4870   35.3230   44.1620 C   0  0  0  0  0
   31.6570   34.1120   43.8400 C   0  0  0  0  0
   31.1790   34.3030   42.4440 C   0  0  0  0  0
   33.5700   36.8530   41.5390 N   0  0  0  0  0
   34.6770   37.5360   40.8860 C   0  0  0  0  0
   34.3600   37.7900   39.4240 C   0  0  0  0  0
   33.8710   36.9040   38.7380 O   0  0  0  0  0
   35.9630   36.7090   40.9930 C   0  0  0  0  0
   36.9880   36.9330   39.8540 C   0  0  0  0  0
   37.9280   38.4660   39.9490 S   0  0  0  0  0
   38.0640   38.7170   41.7000 C   0  0  0  0  0
   34.6570   38.9980   38.9520 N   0  0  0  0  0
   34.3890   39.3950   37.5730 C   0  0  0  0  0
   35.6570   39.9090   36.8990 C   0  0  0  0  0
   36.0690   41.0430   37.1220 O   0  0  0  0  0
   33.2860   40.4730   37.5160 C   0  0  0  0  0
   33.1950   41.0810   36.1290 C   0  0  0  0  0
   31.9540   39.8750   37.9140 C   0  0  0  0  0
   36.2780   39.0660   36.0810 N   0  0  0  0  0
   37.5200   39.4400   35.4150 C   0  0  0  0  0
   37.2810   40.4200   34.2740 C   0  0  0  0  0
   36.2200   40.4150   33.6440 O   0  0  0  0  0
   38.2640   38.2120   34.9180 C   0  0  0  0  0
   38.2940   41.2490   34.0230 N   0  0  0  0  0
   38.2600   42.3140   33.0200 C   0  0  0  0  0
   38.6080   41.7900   31.6190 C   0  0  0  0  0
   39.3520   40.8080   31.4790 O   0  0  0  0  0
   39.2200   43.4740   33.4400 C   0  0  0  0  0
   38.4820   44.6870   33.6720 O   0  0  0  0  0
   40.2640   43.7170   32.3800 C   0  0  0  0  0
   38.0490   42.4270   30.5890 N   0  0  0  0  0
   38.2740   41.9950   29.2090 C   0  0  0  0  0
   39.6280   42.4460   28.6910 C   0  0  0  0  0
   40.3360   43.2020   29.3480 O   0  0  0  0  0
   37.1810   42.5110   28.2350 C   0  0  0  0  0
   35.7980   42.0850   28.7070 C   0  0  0  0  0
   37.2740   44.0200   28.0890 C   0  0  0  0  0
   40.0350   42.0630   27.6010 O   0  0  0  0  0
   21.8674   36.2529   43.3199 H   0  0  0  0  0
   21.8479   34.5930   43.1740 H   0  0  0  0  0
   21.4556   35.3063   44.6280 H   0  0  0  0  0
   23.6328   36.1504   44.8876 H   0  0  0  0  0
   23.8871   33.2325   44.1743 H   0  0  0  0  0
   22.9166   33.8000   45.6016 H   0  0  0  0  0
   26.9859   34.6138   45.7056 H   0  0  0  0  0
   26.0578   34.9001   44.2298 H   0  0  0  0  0
   24.9620   37.2844   43.7340 H   0  0  0  0  0
   25.4404   36.7749   40.9520 H   0  0  0  0  0
   27.0748   38.6431   41.1978 H   0  0  0  0  0
   26.6904   38.5875   43.0283 H   0  0  0  0  0
   24.3303   39.1721   42.2453 H   0  0  0  0  0
   25.8791   40.5970   43.5373 H   0  0  0  0  0
   26.6546   41.1206   42.0222 H   0  0  0  0  0
   24.9579   41.5510   42.3489 H   0  0  0  0  0
   25.9231   40.0676   39.8384 H   0  0  0  0  0
   24.6889   38.7843   39.8671 H   0  0  0  0  0
   24.2261   40.4722   40.1956 H   0  0  0  0  0
   27.4692   36.4385   39.8664 H   0  0  0  0  0
   29.2771   34.5587   41.0294 H   0  0  0  0  0
   28.9426   35.0937   38.5719 H   0  0  0  0  0
   29.2349   37.5128   38.6706 H   0  0  0  0  0
   30.9114   37.3056   39.2341 H   0  0  0  0  0
   30.4506   36.7773   37.5972 H   0  0  0  0  0
   31.7675   34.8715   39.6773 H   0  0  0  0  0
   30.6375   33.5257   39.3890 H   0  0  0  0  0
   31.2682   34.4684   38.0162 H   0  0  0  0  0
   31.3528   37.2123   43.8457 H   0  0  0  0  0
   32.4314   35.5663   45.2230 H   0  0  0  0  0
   33.5404   35.1462   43.9447 H   0  0  0  0  0
   30.8220   34.0096   44.5331 H   0  0  0  0  0
   32.2403   33.1962   43.9361 H   0  0  0  0  0
   31.8510   33.8696   41.7033 H   0  0  0  0  0
   30.2366   33.7925   42.2455 H   0  0  0  0  0
   33.1594   36.0331   41.0923 H   0  0  0  0  0
   34.8250   38.4906   41.3909 H   0  0  0  0  0
   35.6661   35.6613   40.9451 H   0  0  0  0  0
   36.4530   37.0109   41.9187 H   0  0  0  0  0
   36.4173   36.9754   38.9263 H   0  0  0  0  0
   37.7112   36.1203   39.9225 H   0  0  0  0  0
   37.0669   38.8019   42.1321 H   0  0  0  0  0
   38.5845   37.8704   42.1478 H   0  0  0  0  0
   38.6238   39.6323   41.8921 H   0  0  0  0  0
   35.0901   39.6751   39.5800 H   0  0  0  0  0
   34.0421   38.5129   37.0348 H   0  0  0  0  0
   33.5439   41.2655   38.2186 H   0  0  0  0  0
   34.1492   41.5410   35.8720 H   0  0  0  0  0
   32.9603   40.2998   35.4059 H   0  0  0  0  0
   32.4104   41.8375   36.1161 H   0  0  0  0  0
   31.7008   39.0664   37.2283 H   0  0  0  0  0
   32.0214   39.4844   38.9294 H   0  0  0  0  0
   31.1838   40.6450   37.8700 H   0  0  0  0  0
   35.8792   38.1418   35.9162 H   0  0  0  0  0
   38.1408   39.9438   36.1559 H   0  0  0  0  0
   38.5012   37.5657   35.7631 H   0  0  0  0  0
   37.6367   37.6706   34.2098 H   0  0  0  0  0
   39.1859   38.5218   34.4258 H   0  0  0  0  0
   39.1497   41.1334   34.5660 H   0  0  0  0  0
   37.2416   42.6994   32.9707 H   0  0  0  0  0
   39.7153   43.1751   34.3638 H   0  0  0  0  0
   39.0888   45.3854   33.9283 H   0  0  0  0  0
   40.8509   42.8100   32.2353 H   0  0  0  0  0
   39.7741   43.9874   31.4446 H   0  0  0  0  0
   40.9191   44.5286   32.6964 H   0  0  0  0  0
   37.4509   43.2338   30.7673 H   0  0  0  0  0
   38.2340   40.9062   29.2392 H   0  0  0  0  0
   39.8935   43.4174   30.1723 H   0  0  0  0  0
   37.3480   42.0665   27.2539 H   0  0  0  0  0
   35.7490   40.9969   28.7491 H   0  0  0  0  0
   35.6110   42.4970   29.6987 H   0  0  0  0  0
   35.0470   42.4571   28.0101 H   0  0  0  0  0
   37.1323   44.4874   29.0634 H   0  0  0  0  0
   38.2554   44.2860   27.6963 H   0  0  0  0  0
   36.5008   44.3657   27.4029 H   0  0  0  0  0
  1  2  1  0  0  0
  2  3  1  0  0  0
  2  5  1  0  0  0
  3  4  2  0  0  0
  3  9  1  0  0  0
  5  6  1  0  0  0
  6  7  2  0  0  0
  6  8  1  0  0  0
  9 10  1  0  0  0
 10 11  1  0  0  0
 10 13  1  0  0  0
 11 12  2  0  0  0
 11 17  1  0  0  0
 13 14  1  0  0  0
 14 15  1  0  0  0
 14 16  1  0  0  0
 17 18  1  0  0  0
 18 19  1  0  0  0
 18 21  1  0  0  0
 19 20  2  0  0  0
 19 24  1  0  0  0
 21 22  1  0  0  0
 21 23  1  0  0  0
 24 25  1  0  0  0
 24 30  1  0  0  0
 25 26  1  0  0  0
 25 28  1  0  0  0
 26 27  2  0  0  0
 26 31  1  0  0  0
 28 29  1  0  0  0
 29 30  1  0  0  0
 31 32  1  0  0  0
 32 33  1  0  0  0
 32 35  1  0  0  0
 33 34  2  0  0  0
 33 39  1  0  0  0
 35 36  1  0  0  0
 36 37  1  0  0  0
 37 38  1  0  0  0
 39 40  1  0  0  0
 40 41  1  0  0  0
 40 43  1  0  0  0
 41 42  2  0  0  0
 41 46  1  0  0  0
 43 44  1  0  0  0
 43 45  1  0  0  0
 46 47  1  0  0  0
 47 48  1  0  0  0
 47 50  1  0  0  0
 48 49  2  0  0  0
 48 51  1  0  0  0
 51 52  1  0  0  0
 52 53  1  0  0  0
 52 55  1  0  0  0
 53 54  2  0  0  0
 53 58  1  0  0  0
 55 56  1  0  0  0
 55 57  1  0  0  0
 58 59  1  0  0  0
 59 60  1  0  0  0
 59 62  1  0  0  0
 60 61  1  0  0  0
 60 65  2  0  0  0
 62 63  1  0  0  0
 62 64  1  0  0  0
  1 66  1  0  0  0
  1 67  1  0  0  0
  1 68  1  0  0  0
  2 69  1  0  0  0
  5 70  1  0  0  0
  5 71  1  0  0  0
  8 72  1  0  0  0
  8 73  1  0  0  0
  9 74  1  0  0  0
 10 75  1  0  0  0
 13 76  1  0  0  0
 13 77  1  0  0  0
 14 78  1  0  0  0
 15 79  1  0  0  0
 15 80  1  0  0  0
 15 81  1  0  0  0
 16 82  1  0  0  0
 16 83  1  0  0  0
 16 84  1  0  0  0
 17 85  1  0  0  0
 18 86  1  0  0  0
 21 87  1  0  0  0
 22 88  1  0  0  0
 22 89  1  0  0  0
 22 90  1  0  0  0
 23 91  1  0  0  0
 23 92  1  0  0  0
 23 93  1  0  0  0
 25 94  1  0  0  0
 28 95  1  0  0  0
 28 96  1  0  0  0
 29 97  1  0  0  0
 29 98  1  0  0  0
 30 99  1  0  0  0
 30100  1  0  0  0
 31101  1  0  0  0
 32102  1  0  0  0
 35103  1  0  0  0
 35104  1  0  0  0
 36105  1  0  0  0
 36106  1  0  0  0
 38107  1  0  0  0
 38108  1  0  0  0
 38109  1  0  0  0
 39110  1  0  0  0
 40111  1  0  0  0
 43112  1  0  0  0
 44113  1  0  0  0
 44114  1  0  0  0
 44115  1  0  0  0
 45116  1  0  0  0
 45117  1  0  0  0
 45118  1  0  0  0
 46119  1  0  0  0
 47120  1  0  0  0
 50121  1  0  0  0
 50122  1  0  0  0
 50123  1  0  0  0
 51124  1  0  0  0
 52125  1  0  0  0
 55126  1  0  0  0
 56127  1  0  0  0
 57128  1  0  0  0
 57129  1  0  0  0
 57130  1  0  0  0
 58131  1  0  0  0
 59132  1  0  0  0
 61133  1  0  0  0
 62134  1  0  0  0
 63135  1  0  0  0
 63136  1  0  0  0
 63137  1  0  0  0
 64138  1  0  0  0
 64139  1  0  0  0
 64140  1  0  0  0
M  END
$$$$
