### 
### Created by X-TOOL on Mon Sep 10 21:13:02 2018
### 

@<TRIPOS>MOLECULE
2x4r_ligand
  139   139     1     0     0
SMALL
GAST_HUCK


@<TRIPOS>ATOM
      1 N          22.0490   35.3720   43.8010 N.4       1 ASN         0.2396
      2 CA         23.4520   35.3200   44.2050 C.3       1 ASN         0.0818
      3 C          24.3820   35.4850   43.0080 C.2       1 ASN         0.2291
      4 O          24.4680   34.5980   42.1620 O.2       1 ASN        -0.3905
      5 CB         23.7500   34.0060   44.9300 C.3       1 ASN         0.0972
      6 CG         25.0270   34.0670   45.7740 C.2       1 ASN         0.1813
      7 OD1        25.0360   33.6510   46.9310 O.2       1 ASN        -0.3969
      8 ND2        26.1060   34.5650   45.1920 N.am      1 ASN        -0.3006
      9 N          25.0730   36.6270   42.9620 N.am      1 LEU        -0.2609
     10 CA         25.9790   36.9940   41.8740 C.3       1 LEU         0.1313
     11 C          27.2800   36.2080   41.8810 C.2       1 LEU         0.2039
     12 O          27.6990   35.7120   42.9260 O.2       1 LEU        -0.3944
     13 CB         26.3570   38.4630   41.9980 C.3       1 LEU        -0.0101
     14 CG         25.2680   39.5060   41.8010 C.3       1 LEU        -0.0425
     15 CD1        25.7220   40.7840   42.4750 C.3       1 LEU        -0.0625
     16 CD2        25.0080   39.7230   40.3200 C.3       1 LEU        -0.0625
     17 N          27.9290   36.1190   40.7190 N.am      1 VAL        -0.2635
     18 CA         29.2800   35.5760   40.6380 C.3       1 VAL         0.1334
     19 C          30.2360   36.4330   41.5040 C.2       1 VAL         0.2066
     20 O          30.2050   37.6750   41.4450 O.2       1 VAL        -0.3942
     21 CB         29.7600   35.4860   39.1770 C.3       1 VAL        -0.0062
     22 CG1        30.1150   36.8710   38.6300 C.3       1 VAL        -0.0584
     23 CG2        30.9450   34.5170   39.0560 C.3       1 VAL        -0.0584
     24 N          31.0710   35.7690   42.3310 N.am      1 PRO        -0.2498
     25 CA         31.9310   36.4630   43.3050 C.3       1 PRO         0.1338
     26 C          33.0810   37.2690   42.7000 C.2       1 PRO         0.2041
     27 O          33.5040   38.2550   43.2960 O.2       1 PRO        -0.3944
     28 CB         32.4870   35.3230   44.1620 C.3       1 PRO        -0.0104
     29 CG         31.6570   34.1120   43.8400 C.3       1 PRO        -0.0281
     30 CD         31.1790   34.3030   42.4440 C.3       1 PRO         0.0369
     31 N          33.5700   36.8530   41.5390 N.am      1 MET        -0.2637
     32 CA         34.6770   37.5360   40.8860 C.3       1 MET         0.1317
     33 C          34.3600   37.7900   39.4240 C.2       1 MET         0.2039
     34 O          33.8710   36.9040   38.7380 O.2       1 MET        -0.3944
     35 CB         35.9630   36.7090   40.9930 C.3       1 MET        -0.0034
     36 CG         36.9880   36.9330   39.8540 C.3       1 MET        -0.0024
     37 SD         37.9280   38.4660   39.9490 S.3       1 MET        -0.1639
     38 CE         38.0640   38.7170   41.7000 C.3       1 MET        -0.0181
     39 N          34.6570   38.9980   38.9520 N.am      1 VAL        -0.2635
     40 CA         34.3890   39.3950   37.5730 C.3       1 VAL         0.1332
     41 C          35.6570   39.9090   36.8990 C.2       1 VAL         0.2041
     42 O          36.0690   41.0430   37.1220 O.2       1 VAL        -0.3944
     43 CB         33.2860   40.4730   37.5160 C.3       1 VAL        -0.0063
     44 CG1        33.1950   41.0810   36.1290 C.3       1 VAL        -0.0584
     45 CG2        31.9540   39.8750   37.9140 C.3       1 VAL        -0.0584
     46 N          36.2780   39.0660   36.0810 N.am      1 ALA        -0.2640
     47 CA         37.5200   39.4400   35.4150 C.3       1 ALA         0.1282
     48 C          37.2810   40.4200   34.2740 C.2       1 ALA         0.2037
     49 O          36.2200   40.4150   33.6440 O.2       1 ALA        -0.3944
     50 CB         38.2640   38.2120   34.9180 C.3       1 ALA        -0.0244
     51 N          38.2940   41.2490   34.0230 N.am      1 THR        -0.2613
     52 CA         38.2600   42.3140   33.0200 C.3       1 THR         0.1564
     53 C          38.6080   41.7900   31.6190 C.2       1 THR         0.2059
     54 O          39.3520   40.8080   31.4790 O.2       1 THR        -0.3943
     55 CB         39.2200   43.4740   33.4400 C.3       1 THR         0.0924
     56 OG1        38.4820   44.6870   33.6720 O.3       1 THR        -0.3874
     57 CG2        40.2640   43.7170   32.3800 C.3       1 THR        -0.0346
     58 N          38.0490   42.4270   30.5890 N.am      1 VAL        -0.2692
     59 CA         38.2740   41.9950   29.2090 C.3       1 VAL         0.0967
     60 C          39.6280   42.4460   28.6910 C.2       1 VAL         0.0603
     61 O          40.3360   43.2020   29.3480 O.co2     1 VAL        -0.5666
     62 CB         37.1810   42.5110   28.2350 C.3       1 VAL        -0.0118
     63 CG1        35.7980   42.0850   28.7070 C.3       1 VAL        -0.0590
     64 CG2        37.2740   44.0200   28.0890 C.3       1 VAL        -0.0590
     65 OXT        40.0350   42.0630   27.6010 O.co2     1 VAL        -0.5666
     66 H1         21.4614   35.2603   44.6123 H         1 ASN         0.2017
     67 H2         21.8605   34.6303   43.1449 H         1 ASN         0.2017
     68 H3         21.8570   36.2613   43.3671 H         1 ASN         0.2017
     69 H4         23.6389   36.1504   44.9017 H         1 ASN         0.1125
     70 H5         23.8627   33.2091   44.1801 H         1 ASN         0.0585
     71 H6         22.9032   33.7701   45.5913 H         1 ASN         0.0585
     72 H7         26.9650   34.6265   45.7003 H         1 ASN         0.1814
     73 H8         26.0625   34.8798   44.2439 H         1 ASN         0.1814
     74 H9         24.9641   37.2715   43.7188 H         1 LEU         0.1885
     75 H10        25.4621   36.8223   40.9184 H         1 LEU         0.0800
     76 H11        27.1384   38.6626   41.2500 H         1 LEU         0.0315
     77 H12        26.7694   38.6093   43.0072 H         1 LEU         0.0315
     78 H13        24.3384   39.1579   42.2750 H         1 LEU         0.0298
     79 H14        24.9516   41.5589   42.3484 H         1 LEU         0.0232
     80 H15        26.6632   41.1248   42.0189 H         1 LEU         0.0232
     81 H16        25.8809   40.5966   43.5472 H         1 LEU         0.0232
     82 H17        24.6809   38.7775   39.8628 H         1 LEU         0.0232
     83 H18        25.9322   40.0658   39.8318 H         1 LEU         0.0232
     84 H19        24.2227   40.4827   40.1930 H         1 LEU         0.0232
     85 H20        27.4782   36.4322   39.8832 H         1 VAL         0.1883
     86 H21        29.2661   34.5564   41.0504 H         1 VAL         0.0803
     87 H22        28.9330   35.0864   38.5718 H         1 VAL         0.0343
     88 H23        30.4539   36.7777   37.5877 H         1 VAL         0.0234
     89 H24        30.9187   37.3108   39.2388 H         1 VAL         0.0234
     90 H25        29.2276   37.5197   38.6704 H         1 VAL         0.0234
     91 H26        30.6571   33.5339   39.4569 H         1 VAL         0.0234
     92 H27        31.7995   34.9097   39.6266 H         1 VAL         0.0234
     93 H28        31.2272   34.4131   37.9979 H         1 VAL         0.0234
     94 H29        31.3188   37.1427   43.9159 H         1 PRO         0.0802
     95 H30        32.4001   35.5716   45.2300 H         1 PRO         0.0313
     96 H31        33.5425   35.1388   43.9131 H         1 PRO         0.0313
     97 H32        30.8033   34.0391   44.5298 H         1 PRO         0.0287
     98 H33        32.2670   33.1997   43.9138 H         1 PRO         0.0287
     99 H34        31.9032   33.9024   41.7194 H         1 PRO         0.0524
    100 H35        30.2021   33.8211   42.2907 H         1 PRO         0.0524
    101 H36        33.1675   36.0491   41.1011 H         1 MET         0.1883
    102 H37        34.8355   38.5024   41.3869 H         1 MET         0.0800
    103 H38        35.6841   35.6450   40.9953 H         1 MET         0.0320
    104 H39        36.4520   36.9620   41.9453 H         1 MET         0.0320
    105 H40        36.4408   36.9294   38.8998 H         1 MET         0.0378
    106 H41        37.7017   36.0961   39.8706 H         1 MET         0.0378
    107 H42        38.6288   39.6405   41.8952 H         1 MET         0.0340
    108 H43        38.5892   37.8633   42.1531 H         1 MET         0.0340
    109 H44        37.0583   38.8029   42.1373 H         1 MET         0.0340
    110 H45        35.0816   39.6618   39.5677 H         1 VAL         0.1883
    111 H46        34.0378   38.5099   37.0224 H         1 VAL         0.0802
    112 H47        33.5402   41.2704   38.2298 H         1 VAL         0.0343
    113 H48        32.4034   41.8447   36.1147 H         1 VAL         0.0234
    114 H49        32.9581   40.2936   35.3983 H         1 VAL         0.0234
    115 H50        34.1574   41.5456   35.8684 H         1 VAL         0.0234
    116 H51        32.0342   39.4383   38.9204 H         1 VAL         0.0234
    117 H52        31.6747   39.0906   37.1952 H         1 VAL         0.0234
    118 H53        31.1849   40.6614   37.9159 H         1 VAL         0.0234
    119 H54        35.8870   38.1599   35.9194 H         1 ALA         0.1883
    120 H55        38.1571   39.9420   36.1580 H         1 ALA         0.0797
    121 H56        39.1947   38.5233   34.4211 H         1 ALA         0.0277
    122 H57        37.6320   37.6647   34.2031 H         1 ALA         0.0277
    123 H58        38.5041   37.5589   35.7700 H         1 ALA         0.0277
    124 H59        39.1329   41.1357   34.5554 H         1 THR         0.1884
    125 H60        37.2358   42.7136   32.9839 H         1 THR         0.0826
    126 H61        39.7262   43.1854   34.3730 H         1 THR         0.0639
    127 H62        38.0276   44.9371   32.8760 H         1 THR         0.2101
    128 H63        40.9259   44.5360   32.6982 H         1 THR         0.0257
    129 H64        39.7709   43.9901   31.4354 H         1 THR         0.0257
    130 H65        40.8571   42.8024   32.2330 H         1 THR         0.0257
    131 H66        37.4627   43.2180   30.7638 H         1 VAL         0.1875
    132 H67        38.2493   40.8953   29.1993 H         1 VAL         0.0729
    133 H68        37.3584   42.0601   27.2475 H         1 VAL         0.0336
    134 H69        35.0392   42.4599   28.0044 H         1 VAL         0.0234
    135 H70        35.6080   42.5002   29.7077 H         1 VAL         0.0234
    136 H71        35.7472   40.9870   28.7499 H         1 VAL         0.0234
    137 H72        38.2831   44.2938   27.7475 H         1 VAL         0.0234
    138 H73        37.0742   44.4954   29.0606 H         1 VAL         0.0234
    139 H74        36.5321   44.3636   27.3532 H         1 VAL         0.0234
@<TRIPOS>BOND
     1    1    2 1  
     2    2    3 1  
     3    2    5 1  
     4    3    4 2  
     5    3    9 am 
     6    5    6 1  
     7    6    7 2  
     8    6    8 am 
     9    9   10 1  
    10   10   11 1  
    11   10   13 1  
    12   11   12 2  
    13   11   17 am 
    14   13   14 1  
    15   14   15 1  
    16   14   16 1  
    17   17   18 1  
    18   18   19 1  
    19   18   21 1  
    20   19   20 2  
    21   19   24 am 
    22   21   22 1  
    23   21   23 1  
    24   24   25 1  
    25   24   30 1  
    26   25   26 1  
    27   25   28 1  
    28   26   27 2  
    29   26   31 am 
    30   28   29 1  
    31   29   30 1  
    32   31   32 1  
    33   32   33 1  
    34   32   35 1  
    35   33   34 2  
    36   33   39 am 
    37   35   36 1  
    38   36   37 1  
    39   37   38 1  
    40   39   40 1  
    41   40   41 1  
    42   40   43 1  
    43   41   42 2  
    44   41   46 am 
    45   43   44 1  
    46   43   45 1  
    47   46   47 1  
    48   47   48 1  
    49   47   50 1  
    50   48   49 2  
    51   48   51 am 
    52   51   52 1  
    53   52   53 1  
    54   52   55 1  
    55   53   54 2  
    56   53   58 am 
    57   55   56 1  
    58   55   57 1  
    59   58   59 1  
    60   59   60 1  
    61   59   62 1  
    62   60   61 ar 
    63   60   65 ar 
    64   62   63 1  
    65   62   64 1  
    66    1   66 1  
    67    1   67 1  
    68    1   68 1  
    69    2   69 1  
    70    5   70 1  
    71    5   71 1  
    72    8   72 1  
    73    8   73 1  
    74    9   74 1  
    75   10   75 1  
    76   13   76 1  
    77   13   77 1  
    78   14   78 1  
    79   15   79 1  
    80   15   80 1  
    81   15   81 1  
    82   16   82 1  
    83   16   83 1  
    84   16   84 1  
    85   17   85 1  
    86   18   86 1  
    87   21   87 1  
    88   22   88 1  
    89   22   89 1  
    90   22   90 1  
    91   23   91 1  
    92   23   92 1  
    93   23   93 1  
    94   25   94 1  
    95   28   95 1  
    96   28   96 1  
    97   29   97 1  
    98   29   98 1  
    99   30   99 1  
   100   30  100 1  
   101   31  101 1  
   102   32  102 1  
   103   35  103 1  
   104   35  104 1  
   105   36  105 1  
   106   36  106 1  
   107   38  107 1  
   108   38  108 1  
   109   38  109 1  
   110   39  110 1  
   111   40  111 1  
   112   43  112 1  
   113   44  113 1  
   114   44  114 1  
   115   44  115 1  
   116   45  116 1  
   117   45  117 1  
   118   45  118 1  
   119   46  119 1  
   120   47  120 1  
   121   50  121 1  
   122   50  122 1  
   123   50  123 1  
   124   51  124 1  
   125   52  125 1  
   126   55  126 1  
   127   56  127 1  
   128   57  128 1  
   129   57  129 1  
   130   57  130 1  
   131   58  131 1  
   132   59  132 1  
   133   62  133 1  
   134   63  134 1  
   135   63  135 1  
   136   63  136 1  
   137   64  137 1  
   138   64  138 1  
   139   64  139 1  
@<TRIPOS>SUBSTRUCTURE
     1 ASN         1

