### 
### Created by X-TOOL on Mon Sep 10 21:13:21 2018
### 

@<TRIPOS>MOLECULE
4rt1_ligand
   68    74     1     0     0
SMALL
GAST_HUCK


@<TRIPOS>ATOM
      1 P1         25.9110  -38.8180  147.3430 P.3       1 C2E         0.2557
      2 O2P        26.9990  -37.8340  147.5120 O.co2     1 C2E        -0.6177
      3 O1P        24.7890  -38.6190  148.3370 O.co2     1 C2E        -0.6177
      4 O5'        25.3790  -38.7170  145.8520 O.3       1 C2E        -0.2514
      5 C5'        24.3150  -39.4530  145.3800 C.3       1 C2E         0.1128
      6 C4'        24.1150  -39.3440  143.9380 C.3       1 C2E         0.1242
      7 O4'        23.8580  -38.0110  143.5890 O.3       1 C2E        -0.3359
      8 C3'        25.3740  -39.6800  143.1660 C.3       1 C2E         0.1540
      9 O3'        25.4480  -41.0940  142.9420 O.3       1 C2E        -0.2453
     10 C2'        25.2230  -38.9440  141.9800 C.3       1 C2E         0.1440
     11 O2'        24.3590  -39.5500  140.9780 O.3       1 C2E        -0.3832
     12 C1'        24.6040  -37.6950  142.4260 C.3       1 C2E         0.1996
     13 N9         25.5610  -36.6720  142.8670 N.pl3     1 C2E        -0.2101
     14 C8         25.7870  -36.2080  144.1220 C.2       1 C2E         0.0957
     15 N7         26.7510  -35.2710  144.0790 N.2       1 C2E        -0.3235
     16 C5         27.1490  -35.1230  142.7790 C.2       1 C2E         0.0926
     17 C6         28.0910  -34.3310  142.0940 C.2       1 C2E         0.2135
     18 O6         28.8830  -33.4400  142.7100 O.2       1 C2E        -0.4091
     19 N1         28.2020  -34.4490  140.7690 N.am      1 C2E        -0.1839
     20 C2         27.4360  -35.3490  140.1190 C.2       1 C2E         0.2340
     21 N2         27.6120  -35.4570  138.7100 N.pl3     1 C2E        -0.2807
     22 N3         26.5110  -36.1300  140.6980 N.2       1 C2E        -0.2765
     23 C4         26.3710  -36.0080  142.0360 C.2       1 C2E         0.1159
     24 P11        26.9040  -41.7540  142.7630 P.3       1 C2E         0.2557
     25 O21        27.7520  -40.8860  141.9010 O.co2     1 C2E        -0.6177
     26 O11        26.6260  -43.1110  142.2610 O.co2     1 C2E        -0.6177
     27 O5A        27.5260  -41.8070  144.1840 O.3       1 C2E        -0.2514
     28 C5A        26.9310  -42.4550  145.3170 C.3       1 C2E         0.1128
     29 C4A        27.5110  -42.1620  146.5980 C.3       1 C2E         0.1242
     30 O4A        28.9250  -42.6570  146.6260 O.3       1 C2E        -0.3359
     31 C3A        27.5980  -40.7070  146.9460 C.3       1 C2E         0.1540
     32 O3A        26.4020  -40.2630  147.5550 O.3       1 C2E        -0.2453
     33 C2A        28.7530  -40.6890  147.8740 C.3       1 C2E         0.1440
     34 O2A        28.3930  -41.0600  149.1730 O.3       1 C2E        -0.3832
     35 C1A        29.6720  -41.7430  147.3550 C.3       1 C2E         0.1996
     36 N91        30.7490  -41.2870  146.4080 N.pl3     1 C2E        -0.2101
     37 C81        30.6250  -41.0740  145.0950 C.2       1 C2E         0.0957
     38 N71        31.8060  -40.6600  144.6110 N.2       1 C2E        -0.3235
     39 C51        32.6900  -40.6720  145.6290 C.2       1 C2E         0.0926
     40 C61        34.0340  -40.3730  145.7910 C.2       1 C2E         0.2135
     41 O61        34.8120  -39.9690  144.6960 O.2       1 C2E        -0.4091
     42 N11        34.6170  -40.4760  146.9900 N.am      1 C2E        -0.1839
     43 C21        33.9140  -40.8400  148.0550 C.2       1 C2E         0.2340
     44 N21        34.5400  -40.9190  149.2750 N.pl3     1 C2E        -0.2807
     45 N31        32.6180  -41.1250  147.9690 N.2       1 C2E        -0.2765
     46 C41        32.0170  -41.0550  146.7670 C.2       1 C2E         0.1159
     47 H1         23.4016  -39.1041  145.8839 H         1 C2E         0.0647
     48 H2         24.4887  -40.5108  145.6267 H         1 C2E         0.0647
     49 H3         23.2860  -39.9995  143.6330 H         1 C2E         0.0655
     50 H4         26.2723  -39.3534  143.7104 H         1 C2E         0.0712
     51 H5         26.2100  -38.7589  141.5310 H         1 C2E         0.0681
     52 H6         23.4875  -39.6624  141.3391 H         1 C2E         0.2102
     53 H7         23.9625  -37.2929  141.6280 H         1 C2E         0.0998
     54 H8         25.2702  -36.5412  145.0208 H         1 C2E         0.1179
     55 H9         28.8467  -33.8758  140.2633 H         1 C2E         0.2515
     56 H10        27.0494  -36.1305  138.1708 H         1 C2E         0.1897
     57 H11        28.3019  -34.8616  138.2300 H         1 C2E         0.1897
     58 H12        27.0033  -43.5410  145.1575 H         1 C2E         0.0647
     59 H13        25.8721  -42.1594  145.3537 H         1 C2E         0.0647
     60 H14        26.9156  -42.6759  147.3670 H         1 C2E         0.0655
     61 H15        27.7993  -40.0935  146.0554 H         1 C2E         0.0712
     62 H16        29.2312  -39.6984  147.8803 H         1 C2E         0.0681
     63 H17        27.7387  -40.4559  149.5038 H         1 C2E         0.2102
     64 H18        30.1454  -42.2359  148.2169 H         1 C2E         0.0998
     65 H19        29.7151  -41.2134  144.5132 H         1 C2E         0.1179
     66 H20        35.5923  -40.2768  147.0850 H         1 C2E         0.2515
     67 H21        34.0068  -41.2002  150.1102 H         1 C2E         0.1897
     68 H22        35.5426  -40.6971  149.3547 H         1 C2E         0.1897
@<TRIPOS>BOND
     1    1    2 ar 
     2    1    3 ar 
     3    1    4 1  
     4    1   32 1  
     5    4    5 1  
     6    5    6 1  
     7    6    7 1  
     8    6    8 1  
     9    7   12 1  
    10    8    9 1  
    11    8   10 1  
    12    9   24 1  
    13   10   11 1  
    14   10   12 1  
    15   12   13 1  
    16   13   14 1  
    17   13   23 1  
    18   14   15 2  
    19   15   16 1  
    20   16   17 1  
    21   16   23 2  
    22   17   18 2  
    23   17   19 am 
    24   19   20 am 
    25   20   21 1  
    26   20   22 2  
    27   22   23 1  
    28   24   25 ar 
    29   24   26 ar 
    30   24   27 1  
    31   27   28 1  
    32   28   29 1  
    33   29   30 1  
    34   29   31 1  
    35   30   35 1  
    36   31   32 1  
    37   31   33 1  
    38   33   34 1  
    39   33   35 1  
    40   35   36 1  
    41   36   37 1  
    42   36   46 1  
    43   37   38 2  
    44   38   39 1  
    45   39   40 1  
    46   39   46 2  
    47   40   41 2  
    48   40   42 am 
    49   42   43 am 
    50   43   44 1  
    51   43   45 2  
    52   45   46 1  
    53    5   47 1  
    54    5   48 1  
    55    6   49 1  
    56    8   50 1  
    57   10   51 1  
    58   11   52 1  
    59   12   53 1  
    60   14   54 1  
    61   19   55 1  
    62   21   56 1  
    63   21   57 1  
    64   28   58 1  
    65   28   59 1  
    66   29   60 1  
    67   31   61 1  
    68   33   62 1  
    69   34   63 1  
    70   35   64 1  
    71   37   65 1  
    72   42   66 1  
    73   44   67 1  
    74   44   68 1  
@<TRIPOS>SUBSTRUCTURE
     1 C2E         1

