4rt1_ligand
  -I-interpret- 

 70 76  0  0  0  0  0  0  0  0999 V2000
   25.9110  -38.8180  147.3430 P   0  0  0  0  0
   26.9990  -37.8340  147.5120 O   0  0  0  0  0
   24.7890  -38.6190  148.3370 O   0  0  0  0  0
   25.3790  -38.7170  145.8520 O   0  0  0  0  0
   24.3150  -39.4530  145.3800 C   0  0  0  0  0
   24.1150  -39.3440  143.9380 C   0  0  0  0  0
   23.8580  -38.0110  143.5890 O   0  0  0  0  0
   25.3740  -39.6800  143.1660 C   0  0  0  0  0
   25.4480  -41.0940  142.9420 O   0  0  0  0  0
   25.2230  -38.9440  141.9800 C   0  0  0  0  0
   24.3590  -39.5500  140.9780 O   0  0  0  0  0
   24.6040  -37.6950  142.4260 C   0  0  0  0  0
   25.5610  -36.6720  142.8670 N   0  0  0  0  0
   25.7870  -36.2080  144.1220 C   0  0  0  0  0
   26.7510  -35.2710  144.0790 N   0  0  0  0  0
   27.1490  -35.1230  142.7790 C   0  0  0  0  0
   28.0910  -34.3310  142.0940 C   0  0  0  0  0
   28.8830  -33.4400  142.7100 O   0  0  0  0  0
   28.2020  -34.4490  140.7690 N   0  0  0  0  0
   27.4360  -35.3490  140.1190 C   0  0  0  0  0
   27.6120  -35.4570  138.7100 N   0  0  0  0  0
   26.5110  -36.1300  140.6980 N   0  0  0  0  0
   26.3710  -36.0080  142.0360 C   0  0  0  0  0
   26.9040  -41.7540  142.7630 P   0  0  0  0  0
   27.7520  -40.8860  141.9010 O   0  0  0  0  0
   26.6260  -43.1110  142.2610 O   0  0  0  0  0
   27.5260  -41.8070  144.1840 O   0  0  0  0  0
   26.9310  -42.4550  145.3170 C   0  0  0  0  0
   27.5110  -42.1620  146.5980 C   0  0  0  0  0
   28.9250  -42.6570  146.6260 O   0  0  0  0  0
   27.5980  -40.7070  146.9460 C   0  0  0  0  0
   26.4020  -40.2630  147.5550 O   0  0  0  0  0
   28.7530  -40.6890  147.8740 C   0  0  0  0  0
   28.3930  -41.0600  149.1730 O   0  0  0  0  0
   29.6720  -41.7430  147.3550 C   0  0  0  0  0
   30.7490  -41.2870  146.4080 N   0  0  0  0  0
   30.6250  -41.0740  145.0950 C   0  0  0  0  0
   31.8060  -40.6600  144.6110 N   0  0  0  0  0
   32.6900  -40.6720  145.6290 C   0  0  0  0  0
   34.0340  -40.3730  145.7910 C   0  0  0  0  0
   34.8120  -39.9690  144.6960 O   0  0  0  0  0
   34.6170  -40.4760  146.9900 N   0  0  0  0  0
   33.9140  -40.8400  148.0550 C   0  0  0  0  0
   34.5400  -40.9190  149.2750 N   0  0  0  0  0
   32.6180  -41.1250  147.9690 N   0  0  0  0  0
   32.0170  -41.0550  146.7670 C   0  0  0  0  0
   24.1091  -39.2800  148.1870 H   0  0  0  0  0
   23.4158  -39.0697  145.8623 H   0  0  0  0  0
   24.5214  -40.5003  145.6008 H   0  0  0  0  0
   23.2981  -40.0252  143.6996 H   0  0  0  0  0
   26.3019  -39.4287  143.6798 H   0  0  0  0  0
   26.1916  -38.8510  141.4889 H   0  0  0  0  0
   24.3160  -38.9796  140.2070 H   0  0  0  0  0
   24.0370  -37.3022  141.5820 H   0  0  0  0  0
   25.2697  -36.5415  145.0216 H   0  0  0  0  0
   28.8596  -33.8643  140.2532 H   0  0  0  0  0
   27.0439  -36.1129  138.1739 H   0  0  0  0  0
   28.3062  -34.8785  138.2369 H   0  0  0  0  0
   27.8667  -40.0316  142.3235 H   0  0  0  0  0
   27.0682  -43.5249  145.1603 H   0  0  0  0  0
   25.9015  -42.0998  145.3626 H   0  0  0  0  0
   26.8454  -42.6480  147.3114 H   0  0  0  0  0
   27.7268  -40.0405  146.0932 H   0  0  0  0  0
   29.1812  -39.6877  147.9199 H   0  0  0  0  0
   29.1685  -41.0346  149.7383 H   0  0  0  0  0
   30.1586  -42.1320  148.2495 H   0  0  0  0  0
   29.7142  -41.2136  144.5127 H   0  0  0  0  0
   35.6118  -40.2728  147.0869 H   0  0  0  0  0
   34.0112  -41.1939  150.1027 H   0  0  0  0  0
   35.5337  -40.7027  149.3533 H   0  0  0  0  0
  1  2  2  0  0  0
  1  3  1  0  0  0
  1  4  1  0  0  0
  1 32  1  0  0  0
  4  5  1  0  0  0
  5  6  1  0  0  0
  6  7  1  0  0  0
  6  8  1  0  0  0
  7 12  1  0  0  0
  8  9  1  0  0  0
  8 10  1  0  0  0
  9 24  1  0  0  0
 10 11  1  0  0  0
 10 12  1  0  0  0
 12 13  1  0  0  0
 13 14  4  0  0  0
 13 23  4  0  0  0
 14 15  4  0  0  0
 15 16  4  0  0  0
 16 17  1  0  0  0
 16 23  4  0  0  0
 17 18  2  0  0  0
 17 19  1  0  0  0
 19 20  1  0  0  0
 20 21  1  0  0  0
 20 22  2  0  0  0
 22 23  1  0  0  0
 24 25  1  0  0  0
 24 26  2  0  0  0
 24 27  1  0  0  0
 27 28  1  0  0  0
 28 29  1  0  0  0
 29 30  1  0  0  0
 29 31  1  0  0  0
 30 35  1  0  0  0
 31 32  1  0  0  0
 31 33  1  0  0  0
 33 34  1  0  0  0
 33 35  1  0  0  0
 35 36  1  0  0  0
 36 37  4  0  0  0
 36 46  4  0  0  0
 37 38  4  0  0  0
 38 39  4  0  0  0
 39 40  1  0  0  0
 39 46  4  0  0  0
 40 41  2  0  0  0
 40 42  1  0  0  0
 42 43  1  0  0  0
 43 44  1  0  0  0
 43 45  2  0  0  0
 45 46  1  0  0  0
  3 47  1  0  0  0
  5 48  1  0  0  0
  5 49  1  0  0  0
  6 50  1  0  0  0
  8 51  1  0  0  0
 10 52  1  0  0  0
 11 53  1  0  0  0
 12 54  1  0  0  0
 14 55  1  0  0  0
 19 56  1  0  0  0
 21 57  1  0  0  0
 21 58  1  0  0  0
 25 59  1  0  0  0
 28 60  1  0  0  0
 28 61  1  0  0  0
 29 62  1  0  0  0
 31 63  1  0  0  0
 33 64  1  0  0  0
 34 65  1  0  0  0
 35 66  1  0  0  0
 37 67  1  0  0  0
 42 68  1  0  0  0
 44 69  1  0  0  0
 44 70  1  0  0  0
M  END
$$$$
