### 
### Created by X-TOOL on Mon Sep 10 21:13:03 2018
### 

@<TRIPOS>MOLECULE
3nba_ligand
   45    47     1     0     0
SMALL
GAST_HUCK


@<TRIPOS>ATOM
      1 PG         45.7530  -32.9600   -2.2630 P.3       1 APC         0.2050
      2 O1G        46.3160  -34.3680   -2.1490 O.co2     1 APC        -0.5889
      3 O2G        46.7880  -31.9650   -2.7510 O.co2     1 APC        -0.5889
      4 O3G        44.9450  -32.4860   -1.0660 O.co2     1 APC        -0.5889
      5 PB         43.3500  -33.9390   -3.6140 P.3       1 APC         0.2111
      6 O1B        42.1700  -33.0200   -3.8430 O.co2     1 APC        -0.5572
      7 O2B        43.7330  -34.9060   -4.7030 O.co2     1 APC        -0.5572
      8 O3B        44.6750  -33.0040   -3.4870 O.3       1 APC        -0.1814
      9 PA         42.4360  -36.5620   -2.2650 P.3       1 APC         0.1405
     10 O1A        41.3150  -36.7100   -1.2800 O.co2     1 APC        -0.6193
     11 O2A        43.6350  -37.4740   -2.0980 O.co2     1 APC        -0.6193
     12 C3A        43.0210  -34.8510   -2.0770 C.3       1 APC         0.1358
     13 O5'        41.8040  -36.8140   -3.7370 O.3       1 APC        -0.2758
     14 C5'        41.5190  -38.1040   -4.2900 C.3       1 APC         0.1108
     15 C4'        42.0740  -38.2620   -5.7210 C.3       1 APC         0.1190
     16 O4'        41.1650  -37.7430   -6.7000 O.3       1 APC        -0.3364
     17 C3'        43.4230  -37.5740   -5.9920 C.3       1 APC         0.1150
     18 O3'        44.5520  -38.4420   -5.8040 O.3       1 APC        -0.3864
     19 C2'        43.3740  -37.2110   -7.4440 C.3       1 APC         0.1385
     20 O2'        43.8670  -38.3510   -8.1590 O.3       1 APC        -0.3836
     21 C1'        41.8900  -37.0380   -7.7170 C.3       1 APC         0.2010
     22 N9         41.5940  -35.5660   -7.7720 N.pl3     1 APC        -0.1919
     23 C8         41.6890  -34.6700   -6.7710 C.2       1 APC         0.1123
     24 N7         41.3540  -33.4340   -7.1990 N.2       1 APC        -0.2958
     25 C5         41.0350  -33.5570   -8.4840 C.ar      1 APC         0.1045
     26 C6         40.6320  -32.6390   -9.4340 C.ar      1 APC         0.1298
     27 N6         40.5040  -31.3460   -9.0770 N.pl3     1 APC        -0.3152
     28 N1         40.3900  -33.0580  -10.7090 N.ar      1 APC        -0.2698
     29 C2         40.5370  -34.3590  -11.0550 C.ar      1 APC         0.0533
     30 N3         40.9330  -35.2760  -10.1420 N.ar      1 APC        -0.2714
     31 C4         41.1960  -34.8920   -8.8550 C.ar      1 APC         0.1613
     32 H          42.2220  -34.3112   -1.5689 H         1 APC         0.0719
     33 H          43.9735  -34.9120   -1.5505 H         1 APC         0.0719
     34 H          40.4363  -38.2228   -4.3317 H         1 APC         0.0650
     35 H          41.9927  -38.8554   -3.6582 H         1 APC         0.0650
     36 H          42.2124  -39.3402   -5.8016 H         1 APC         0.0651
     37 H          43.5510  -36.7365   -5.3062 H         1 APC         0.0648
     38 H          44.5646  -38.7569   -4.8972 H         1 APC         0.2100
     39 H          43.9482  -36.3273   -7.7223 H         1 APC         0.0676
     40 H          43.8551  -38.1662   -9.1010 H         1 APC         0.2101
     41 H          41.5816  -37.4584   -8.6742 H         1 APC         0.0996
     42 H          41.9950  -34.9102   -5.7528 H         1 APC         0.1349
     43 H          40.7036  -31.0593   -8.1187 H         1 APC         0.1820
     44 H          40.2075  -30.6539   -9.7651 H         1 APC         0.1820
     45 H          40.3342  -34.6708  -12.0796 H         1 APC         0.0996
@<TRIPOS>BOND
     1    1    2 ar 
     2    1    3 ar 
     3    1    4 ar 
     4    8    1 1  
     5    5    6 ar 
     6    5    7 ar 
     7    5    8 1  
     8   12    5 1  
     9    9   10 ar 
    10    9   11 ar 
    11    9   12 1  
    12    9   13 1  
    13   13   14 1  
    14   14   15 1  
    15   15   16 1  
    16   15   17 1  
    17   16   21 1  
    18   17   18 1  
    19   17   19 1  
    20   19   20 1  
    21   19   21 1  
    22   21   22 1  
    23   22   23 1  
    24   22   31 1  
    25   23   24 2  
    26   24   25 1  
    27   25   26 ar 
    28   25   31 ar 
    29   26   27 1  
    30   26   28 ar 
    31   28   29 ar 
    32   29   30 ar 
    33   30   31 ar 
    34   12   32 1  
    35   12   33 1  
    36   14   34 1  
    37   14   35 1  
    38   15   36 1  
    39   17   37 1  
    40   18   38 1  
    41   19   39 1  
    42   20   40 1  
    43   21   41 1  
    44   23   42 1  
    45   27   43 1  
    46   27   44 1  
    47   29   45 1  
@<TRIPOS>SUBSTRUCTURE
     1 APC         1

