3nba_ligand
  -I-interpret- 

 49 51  0  0  0  0  0  0  0  0999 V2000
   45.7530  -32.9600   -2.2630 P   0  0  0  0  0
   46.3160  -34.3680   -2.1490 O   0  0  0  0  0
   46.7880  -31.9650   -2.7510 O   0  0  0  0  0
   44.9450  -32.4860   -1.0660 O   0  0  0  0  0
   43.3500  -33.9390   -3.6140 P   0  0  0  0  0
   42.1700  -33.0200   -3.8430 O   0  0  0  0  0
   43.7330  -34.9060   -4.7030 O   0  0  0  0  0
   44.6750  -33.0040   -3.4870 O   0  0  0  0  0
   42.4360  -36.5620   -2.2650 P   0  0  0  0  0
   41.3150  -36.7100   -1.2800 O   0  0  0  0  0
   43.6350  -37.4740   -2.0980 O   0  0  0  0  0
   43.0210  -34.8510   -2.0770 C   0  0  0  0  0
   41.8040  -36.8140   -3.7370 O   0  0  0  0  0
   41.5190  -38.1040   -4.2900 C   0  0  0  0  0
   42.0740  -38.2620   -5.7210 C   0  0  0  0  0
   41.1650  -37.7430   -6.7000 O   0  0  0  0  0
   43.4230  -37.5740   -5.9920 C   0  0  0  0  0
   44.5520  -38.4420   -5.8040 O   0  0  0  0  0
   43.3740  -37.2110   -7.4440 C   0  0  0  0  0
   43.8670  -38.3510   -8.1590 O   0  0  0  0  0
   41.8900  -37.0380   -7.7170 C   0  0  0  0  0
   41.5940  -35.5660   -7.7720 N   0  0  0  0  0
   41.6890  -34.6700   -6.7710 C   0  0  0  0  0
   41.3540  -33.4340   -7.1990 N   0  0  0  0  0
   41.0350  -33.5570   -8.4840 C   0  0  0  0  0
   40.6320  -32.6390   -9.4340 C   0  0  0  0  0
   40.5040  -31.3460   -9.0770 N   0  0  0  0  0
   40.3900  -33.0580  -10.7090 N   0  0  0  0  0
   40.5370  -34.3590  -11.0550 C   0  0  0  0  0
   40.9330  -35.2760  -10.1420 N   0  0  0  0  0
   41.1960  -34.8920   -8.8550 C   0  0  0  0  0
   45.6289  -34.9620   -1.8380 H   0  0  0  0  0
   44.3147  -33.1661   -0.8172 H   0  0  0  0  0
   42.0442  -32.4640   -3.0706 H   0  0  0  0  0
   44.2787  -37.2833   -2.7842 H   0  0  0  0  0
   42.2220  -34.3112   -1.5689 H   0  0  0  0  0
   43.9735  -34.9120   -1.5505 H   0  0  0  0  0
   40.4363  -38.2228   -4.3317 H   0  0  0  0  0
   41.9927  -38.8554   -3.6582 H   0  0  0  0  0
   42.2124  -39.3402   -5.8016 H   0  0  0  0  0
   43.5510  -36.7365   -5.3062 H   0  0  0  0  0
   45.3605  -37.9578   -5.9871 H   0  0  0  0  0
   43.9482  -36.3273   -7.7223 H   0  0  0  0  0
   43.8551  -38.1662   -9.1010 H   0  0  0  0  0
   41.5816  -37.4584   -8.6742 H   0  0  0  0  0
   41.9950  -34.9102   -5.7528 H   0  0  0  0  0
   40.7036  -31.0593   -8.1187 H   0  0  0  0  0
   40.2075  -30.6539   -9.7651 H   0  0  0  0  0
   40.3342  -34.6708  -12.0796 H   0  0  0  0  0
  1  2  1  0  0  0
  1  3  2  0  0  0
  1  4  1  0  0  0
  8  1  1  0  0  0
  5  6  1  0  0  0
  5  7  2  0  0  0
  5  8  1  0  0  0
 12  5  1  0  0  0
  9 10  2  0  0  0
  9 11  1  0  0  0
  9 12  1  0  0  0
  9 13  1  0  0  0
 13 14  1  0  0  0
 14 15  1  0  0  0
 15 16  1  0  0  0
 15 17  1  0  0  0
 16 21  1  0  0  0
 17 18  1  0  0  0
 17 19  1  0  0  0
 19 20  1  0  0  0
 19 21  1  0  0  0
 21 22  1  0  0  0
 22 23  4  0  0  0
 22 31  4  0  0  0
 23 24  4  0  0  0
 24 25  4  0  0  0
 25 26  4  0  0  0
 25 31  4  0  0  0
 26 27  1  0  0  0
 26 28  4  0  0  0
 28 29  4  0  0  0
 29 30  4  0  0  0
 30 31  4  0  0  0
  2 32  1  0  0  0
  4 33  1  0  0  0
  6 34  1  0  0  0
 11 35  1  0  0  0
 12 36  1  0  0  0
 12 37  1  0  0  0
 14 38  1  0  0  0
 14 39  1  0  0  0
 15 40  1  0  0  0
 17 41  1  0  0  0
 18 42  1  0  0  0
 19 43  1  0  0  0
 20 44  1  0  0  0
 21 45  1  0  0  0
 23 46  1  0  0  0
 27 47  1  0  0  0
 27 48  1  0  0  0
 29 49  1  0  0  0
M  END
$$$$
