3uyr_ligand
  -I-interpret- 

131134  0  0  0  0  0  0  0  0999 V2000
   31.6190  -22.8740   34.8810 N   0  3  0  0  0
   30.1830  -22.9740   35.1280 C   0  0  0  0  0
   29.4450  -21.6370   35.3410 C   0  0  0  0  0
   28.2230  -21.6450   35.4610 O   0  0  0  0  0
   29.9350  -23.8820   36.3270 C   0  0  0  0  0
   30.8470  -25.0940   36.3430 C   0  0  0  0  0
   30.5310  -26.0580   37.4650 C   0  0  0  0  0
   29.8500  -25.6510   38.4300 O   0  0  0  0  0
   30.9720  -27.2230   37.3810 O   0  0  0  0  0
   30.1670  -20.4990   35.3780 N   0  0  0  0  0
   29.6020  -19.1410   35.4750 C   0  0  0  0  0
   28.3820  -18.8770   34.5760 C   0  0  0  0  0
   27.2960  -18.6320   35.1010 O   0  0  0  0  0
   30.7630  -18.2660   34.9730 C   0  0  0  0  0
   31.5750  -19.1640   34.2200 C   0  0  0  0  0
   31.5740  -20.4220   34.9680 C   0  0  0  0  0
   28.5840  -18.9100   33.2540 N   0  0  0  0  0
   27.5850  -18.5030   32.2460 C   0  0  0  0  0
   27.7330  -17.0260   31.9030 C   0  0  0  0  0
   27.8080  -16.6790   30.7260 O   0  0  0  0  0
   26.1390  -18.8180   32.6640 C   0  0  0  0  0
   25.8620  -20.3110   32.8030 C   0  0  0  0  0
   26.4350  -21.1020   31.6460 C   0  0  0  0  0
   25.9310  -21.0350   30.5230 O   0  0  0  0  0
   27.5000  -21.8490   31.9080 N   0  0  0  0  0
   27.7670  -16.1700   32.9260 N   0  0  0  0  0
   28.0530  -14.7450   32.7510 C   0  0  0  0  0
   29.1980  -14.3790   33.7090 C   0  0  0  0  0
   28.9680  -13.8390   34.7940 O   0  0  0  0  0
   26.7790  -13.8830   33.0070 C   0  0  0  0  0
   30.4410  -14.7180   33.3140 N   0  0  0  0  0
   31.6670  -14.6030   34.1160 C   0  0  0  0  0
   31.8890  -13.2210   34.7180 C   0  0  0  0  0
   32.2060  -13.1200   35.9020 O   0  0  0  0  0
   32.7690  -14.9290   33.1030 C   0  0  0  0  0
   32.0960  -15.9220   32.1670 C   0  0  0  0  0
   30.7110  -15.3260   32.0010 C   0  0  0  0  0
   31.7210  -12.1750   33.9170 N   0  0  0  0  0
   31.9930  -10.8200   34.3830 C   0  0  0  0  0
   31.1080  -10.4820   35.5900 C   0  0  0  0  0
   31.4560   -9.6360   36.4140 O   0  0  0  0  0
   31.7710   -9.8100   33.2570 C   0  0  0  0  0
   30.3330   -9.6030   32.9450 C   0  0  0  0  0
   29.5090   -8.6510   33.4700 C   0  0  0  0  0
   29.5330  -10.3730   32.0420 C   0  0  0  0  0
   28.2450   -8.7810   32.9520 N   0  0  0  0  0
   28.2330   -9.8300   32.0710 C   0  0  0  0  0
   29.7900  -11.4690   31.2100 C   0  0  0  0  0
   27.1930  -10.3430   31.3020 C   0  0  0  0  0
   28.7520  -11.9810   30.4470 C   0  0  0  0  0
   27.4690  -11.4160   30.5000 C   0  0  0  0  0
   29.9690  -11.1570   35.7020 N   0  0  0  0  0
   29.1400  -11.0320   36.8990 C   0  0  0  0  0
   29.8250  -11.7300   38.0780 C   0  0  0  0  0
   29.1780  -12.1100   39.0570 O   0  0  0  0  0
   27.7280  -11.5820   36.6470 C   0  0  0  0  0
   26.9750  -10.8140   35.5490 C   0  0  0  0  0
   25.2630  -11.3220   35.2710 S   0  0  0  0  0
   24.4210  -10.5470   36.6500 C   0  0  0  0  0
   31.1440  -11.8870   37.9650 N   0  0  0  0  0
   31.9840  -12.4320   39.0230 C   0  0  0  0  0
   33.4080  -11.9020   38.8550 C   0  0  0  0  0
   33.7357  -11.2435   37.8320 O   0  0  0  0  0
   31.9930  -13.9610   38.9690 C   0  0  0  0  0
   30.5980  -14.5930   39.0220 C   0  0  0  0  0
   30.5390  -15.9700   38.3910 C   0  0  0  0  0
   31.5820  -16.4570   37.9060 O   0  0  0  0  0
   29.4370  -16.5610   38.3720 O   0  0  0  0  0
   34.2649  -12.1266   39.7510 O   0  0  0  0  0
   31.7832  -22.2662   34.0785 H   0  0  0  0  0
   32.0780  -22.4839   35.7041 H   0  0  0  0  0
   31.9951  -23.8024   34.6885 H   0  0  0  0  0
   29.7672  -23.3873   34.2091 H   0  0  0  0  0
   28.9064  -24.2382   36.2696 H   0  0  0  0  0
   30.1309  -23.3042   37.2302 H   0  0  0  0  0
   31.8674  -24.7393   36.4880 H   0  0  0  0  0
   30.7096  -25.6249   35.4010 H   0  0  0  0  0
   29.6175  -24.7301   38.2903 H   0  0  0  0  0
   29.2443  -18.9536   36.4874 H   0  0  0  0  0
   31.3126  -17.8013   35.7916 H   0  0  0  0  0
   30.4154  -17.4241   34.3743 H   0  0  0  0  0
   32.5862  -18.7764   34.0959 H   0  0  0  0  0
   31.1854  -19.3013   33.2113 H   0  0  0  0  0
   31.9136  -21.2809   34.3892 H   0  0  0  0  0
   32.2787  -20.4428   35.7993 H   0  0  0  0  0
   29.4898  -19.2387   32.9197 H   0  0  0  0  0
   27.7881  -19.0993   31.3565 H   0  0  0  0  0
   25.4801  -18.4321   31.8862 H   0  0  0  0  0
   25.9710  -18.3600   33.6387 H   0  0  0  0  0
   24.7821  -20.4584   32.8161 H   0  0  0  0  0
   26.3314  -20.6615   33.7222 H   0  0  0  0  0
   27.9339  -22.3970   31.1651 H   0  0  0  0  0
   27.8848  -21.8752   32.8523 H   0  0  0  0  0
   27.5868  -16.5221   33.8662 H   0  0  0  0  0
   28.3557  -14.5384   31.7245 H   0  0  0  0  0
   25.9987  -14.1723   32.3031 H   0  0  0  0  0
   26.4296  -14.0471   34.0264 H   0  0  0  0  0
   27.0213  -12.8292   32.8699 H   0  0  0  0  0
   31.6341  -15.2615   34.9840 H   0  0  0  0  0
   33.6657  -15.3338   33.5721 H   0  0  0  0  0
   33.1385  -14.0448   32.5837 H   0  0  0  0  0
   32.0802  -16.9382   32.5608 H   0  0  0  0  0
   32.6249  -16.0454   31.2219 H   0  0  0  0  0
   30.6614  -14.6029   31.1869 H   0  0  0  0  0
   29.9653  -16.0710   31.7235 H   0  0  0  0  0
   31.3967  -12.3216   32.9611 H   0  0  0  0  0
   33.0367  -10.7647   34.6925 H   0  0  0  0  0
   32.2548  -10.1976   32.3605 H   0  0  0  0  0
   32.1837   -8.8541   33.5796 H   0  0  0  0  0
   29.8110   -7.8962   34.1960 H   0  0  0  0  0
   30.7854  -11.9106   31.1631 H   0  0  0  0  0
   26.1951   -9.9059   31.3374 H   0  0  0  0  0
   28.9355  -12.8357   29.7959 H   0  0  0  0  0
   26.6739  -11.8419   29.8880 H   0  0  0  0  0
   29.6697  -11.7697   34.9435 H   0  0  0  0  0
   29.0282   -9.9771   37.1494 H   0  0  0  0  0
   27.1611  -11.4814   37.5725 H   0  0  0  0  0
   27.8270  -12.6175   36.3213 H   0  0  0  0  0
   27.5086  -11.0043   34.6178 H   0  0  0  0  0
   26.9399   -9.7727   35.8692 H   0  0  0  0  0
   24.8340  -10.9251   37.5852 H   0  0  0  0  0
   24.5615   -9.4673   36.5995 H   0  0  0  0  0
   23.3571  -10.7789   36.6012 H   0  0  0  0  0
   31.5893  -11.6104   37.0900 H   0  0  0  0  0
   31.5842  -12.1233   39.9889 H   0  0  0  0  0
   32.5414  -14.3128   39.8428 H   0  0  0  0  0
   32.4432  -14.2490   38.0190 H   0  0  0  0  0
   29.9217  -13.9456   38.4637 H   0  0  0  0  0
   30.3244  -14.6997   40.0717 H   0  0  0  0  0
   28.7733  -16.0118   38.7957 H   0  0  0  0  0
   33.8614  -12.6360   40.4576 H   0  0  0  0  0
  1  2  1  0  0  0
  2  3  1  0  0  0
  2  5  1  0  0  0
  3  4  2  0  0  0
  3 10  1  0  0  0
  5  6  1  0  0  0
  6  7  1  0  0  0
  7  8  1  0  0  0
  7  9  2  0  0  0
 10 11  1  0  0  0
 10 16  1  0  0  0
 11 12  1  0  0  0
 11 14  1  0  0  0
 12 13  2  0  0  0
 12 17  1  0  0  0
 14 15  1  0  0  0
 15 16  1  0  0  0
 17 18  1  0  0  0
 18 19  1  0  0  0
 18 21  1  0  0  0
 19 20  2  0  0  0
 19 26  1  0  0  0
 21 22  1  0  0  0
 22 23  1  0  0  0
 23 24  2  0  0  0
 23 25  1  0  0  0
 26 27  1  0  0  0
 27 28  1  0  0  0
 27 30  1  0  0  0
 28 29  2  0  0  0
 28 31  1  0  0  0
 31 32  1  0  0  0
 31 37  1  0  0  0
 32 33  1  0  0  0
 32 35  1  0  0  0
 33 34  2  0  0  0
 33 38  1  0  0  0
 35 36  1  0  0  0
 36 37  1  0  0  0
 38 39  1  0  0  0
 39 40  1  0  0  0
 39 42  1  0  0  0
 40 41  2  0  0  0
 40 52  1  0  0  0
 42 43  1  0  0  0
 43 44  4  0  0  0
 43 45  4  0  0  0
 44 46  4  0  0  0
 45 47  4  0  0  0
 45 48  4  0  0  0
 46 47  4  0  0  0
 47 49  4  0  0  0
 48 50  4  0  0  0
 49 51  4  0  0  0
 50 51  4  0  0  0
 52 53  1  0  0  0
 53 54  1  0  0  0
 53 56  1  0  0  0
 54 55  2  0  0  0
 54 60  1  0  0  0
 56 57  1  0  0  0
 57 58  1  0  0  0
 58 59  1  0  0  0
 60 61  1  0  0  0
 61 62  1  0  0  0
 61 64  1  0  0  0
 62 63  2  0  0  0
 64 65  1  0  0  0
 65 66  1  0  0  0
 66 67  2  0  0  0
 66 68  1  0  0  0
 62 69  1  0  0  0
  1 70  1  0  0  0
  1 71  1  0  0  0
  1 72  1  0  0  0
  2 73  1  0  0  0
  5 74  1  0  0  0
  5 75  1  0  0  0
  6 76  1  0  0  0
  6 77  1  0  0  0
  8 78  1  0  0  0
 11 79  1  0  0  0
 14 80  1  0  0  0
 14 81  1  0  0  0
 15 82  1  0  0  0
 15 83  1  0  0  0
 16 84  1  0  0  0
 16 85  1  0  0  0
 17 86  1  0  0  0
 18 87  1  0  0  0
 21 88  1  0  0  0
 21 89  1  0  0  0
 22 90  1  0  0  0
 22 91  1  0  0  0
 25 92  1  0  0  0
 25 93  1  0  0  0
 26 94  1  0  0  0
 27 95  1  0  0  0
 30 96  1  0  0  0
 30 97  1  0  0  0
 30 98  1  0  0  0
 32 99  1  0  0  0
 35100  1  0  0  0
 35101  1  0  0  0
 36102  1  0  0  0
 36103  1  0  0  0
 37104  1  0  0  0
 37105  1  0  0  0
 38106  1  0  0  0
 39107  1  0  0  0
 42108  1  0  0  0
 42109  1  0  0  0
 44110  1  0  0  0
 48111  1  0  0  0
 49112  1  0  0  0
 50113  1  0  0  0
 51114  1  0  0  0
 52115  1  0  0  0
 53116  1  0  0  0
 56117  1  0  0  0
 56118  1  0  0  0
 57119  1  0  0  0
 57120  1  0  0  0
 59121  1  0  0  0
 59122  1  0  0  0
 59123  1  0  0  0
 60124  1  0  0  0
 61125  1  0  0  0
 64126  1  0  0  0
 64127  1  0  0  0
 65128  1  0  0  0
 65129  1  0  0  0
 68130  1  0  0  0
 69131  1  0  0  0
M  END
$$$$
