5cao_ligand
  -I-interpret- 

 56 58  0  0  0  0  0  0  0  0999 V2000
  -54.3970    1.6160  -21.0740 C   0  0  0  0  0
  -55.3900    2.5560  -21.3850 C   0  0  0  0  0
  -52.1870   -1.0430  -22.3030 C   0  0  0  0  0
  -55.4720    1.8510  -23.6080 C   0  0  0  0  0
  -54.4510    0.9160  -23.3860 C   0  0  0  0  0
  -53.9100    0.7760  -22.1020 C   0  0  0  0  0
  -50.7000   -0.7210  -22.4950 C   0  0  0  0  0
  -52.4620   -2.4900  -21.8840 C   0  0  0  0  0
  -53.7200    1.2850  -19.9450 N   0  0  0  0  0
  -51.9650   -0.2220  -19.1090 C   0  0  0  0  0
  -52.8670    0.3310  -20.1910 C   0  0  0  0  0
  -55.8920    2.6320  -22.6070 N   0  0  0  0  0
  -52.9440   -0.0310  -21.5270 N   0  0  0  0  0
  -56.0410    2.0660  -24.8730 N   0  0  0  0  0
  -56.0580    1.1740  -25.9340 C   0  0  0  0  0
  -57.1330    1.2110  -26.8370 C   0  0  0  0  0
  -57.1410    0.2910  -27.8790 C   0  0  0  0  0
  -56.1330   -0.5760  -28.0090 N   0  0  0  0  0
  -55.1260   -0.5980  -27.1410 C   0  0  0  0  0
  -55.0850    0.2720  -26.1250 N   0  0  0  0  0
  -54.1270   -1.5430  -27.3100 N   0  0  0  0  0
  -52.9540   -1.6160  -26.4250 C   0  0  0  0  0
  -52.2460   -2.9770  -26.4950 C   0  0  0  0  0
  -53.0810   -4.0420  -25.7600 C   0  0  0  0  0
  -50.9020   -2.8170  -25.7690 C   0  0  0  0  0
  -52.0020   -3.4120  -28.2510 S   0  0  0  0  0
  -53.2720   -3.7090  -28.8270 O   0  0  0  0  0
  -51.2010   -2.3880  -28.8490 O   0  0  0  0  0
  -51.0480   -4.9630  -28.2630 C   0  0  0  0  0
  -55.7527    3.2322  -20.6109 H   0  0  0  0  0
  -52.6048   -0.9645  -23.3067 H   0  0  0  0  0
  -54.0809    0.3023  -24.2073 H   0  0  0  0  0
  -50.1687   -0.8920  -21.5587 H   0  0  0  0  0
  -50.2873   -1.3653  -23.2713 H   0  0  0  0  0
  -50.5908    0.3224  -22.7909 H   0  0  0  0  0
  -52.1913   -2.6212  -20.8363 H   0  0  0  0  0
  -53.5211   -2.7105  -22.0173 H   0  0  0  0  0
  -51.8687   -3.1646  -22.5012 H   0  0  0  0  0
  -51.3373    0.5782  -18.7169 H   0  0  0  0  0
  -52.5747   -0.6343  -18.3051 H   0  0  0  0  0
  -51.3355   -1.0068  -19.5285 H   0  0  0  0  0
  -56.4872    2.9702  -25.0272 H   0  0  0  0  0
  -57.9365    1.9389  -26.7242 H   0  0  0  0  0
  -57.9682    0.2770  -28.5887 H   0  0  0  0  0
  -54.2077   -2.2122  -28.0756 H   0  0  0  0  0
  -53.2965   -1.4681  -25.4008 H   0  0  0  0  0
  -52.2449   -0.8520  -26.7438 H   0  0  0  0  0
  -53.2001   -3.7518  -24.7161 H   0  0  0  0  0
  -54.0611   -4.1218  -26.2304 H   0  0  0  0  0
  -52.5708   -5.0036  -25.8151 H   0  0  0  0  0
  -50.3114   -2.0473  -26.2659 H   0  0  0  0  0
  -51.0820   -2.5269  -24.7338 H   0  0  0  0  0
  -50.3621   -3.7636  -25.7938 H   0  0  0  0  0
  -51.5742   -5.7163  -27.6767 H   0  0  0  0  0
  -50.9372   -5.3120  -29.2897 H   0  0  0  0  0
  -50.0636   -4.7859  -27.8298 H   0  0  0  0  0
  1  2  4  0  0  0
  6  1  4  0  0  0
  1  9  4  0  0  0
  2 12  4  0  0  0
  3  7  1  0  0  0
  3  8  1  0  0  0
 13  3  1  0  0  0
  5  4  4  0  0  0
  4 12  4  0  0  0
  4 14  1  0  0  0
  6  5  4  0  0  0
  6 13  4  0  0  0
  9 11  4  0  0  0
 11 10  1  0  0  0
 11 13  4  0  0  0
 14 15  1  0  0  0
 15 16  4  0  0  0
 15 20  4  0  0  0
 16 17  4  0  0  0
 17 18  4  0  0  0
 18 19  4  0  0  0
 19 20  4  0  0  0
 19 21  1  0  0  0
 21 22  1  0  0  0
 22 23  1  0  0  0
 23 24  1  0  0  0
 23 25  1  0  0  0
 23 26  1  0  0  0
 26 27  2  0  0  0
 26 28  2  0  0  0
 26 29  1  0  0  0
  2 30  1  0  0  0
  3 31  1  0  0  0
  5 32  1  0  0  0
  7 33  1  0  0  0
  7 34  1  0  0  0
  7 35  1  0  0  0
  8 36  1  0  0  0
  8 37  1  0  0  0
  8 38  1  0  0  0
 10 39  1  0  0  0
 10 40  1  0  0  0
 10 41  1  0  0  0
 14 42  1  0  0  0
 16 43  1  0  0  0
 17 44  1  0  0  0
 21 45  1  0  0  0
 22 46  1  0  0  0
 22 47  1  0  0  0
 24 48  1  0  0  0
 24 49  1  0  0  0
 24 50  1  0  0  0
 25 51  1  0  0  0
 25 52  1  0  0  0
 25 53  1  0  0  0
 29 54  1  0  0  0
 29 55  1  0  0  0
 29 56  1  0  0  0
M  END
$$$$
