4zs0_ligand
  -I-interpret- 

 29 32  0  0  0  0  0  0  0  0999 V2000
   -3.7530   32.4580   -9.2080 O   0  0  0  0  0
   -4.6100   31.6520   -8.8330 C   0  0  0  0  0
   -5.2980   30.8480   -9.6280 N   0  0  0  0  0
   -6.1240   30.1310   -8.8640 C   0  0  0  0  0
   -7.0260   29.1790   -9.1920 C   0  0  0  0  0
   -7.7980   28.5530   -8.2060 C   0  0  0  0  0
   -8.7240   27.5910   -8.5120 O   0  0  0  0  0
   -7.5970   28.9450   -6.8840 C   0  0  0  0  0
   -6.6490   29.9340   -6.6010 C   0  0  0  0  0
   -5.9300   30.5130   -7.5840 C   0  0  0  0  0
   -4.9870   31.4760   -7.5720 N   0  0  0  0  0
   -4.4640   32.1400   -6.5170 C   0  0  0  0  0
   -4.6440   31.8220   -5.2300 N   0  0  0  0  0
   -3.9630   32.7020   -4.5020 C   0  0  0  0  0
   -3.8290   32.8080   -3.1800 C   0  0  0  0  0
   -3.0410   33.8240   -2.6420 C   0  0  0  0  0
   -2.4080   34.7120   -3.5050 C   0  0  0  0  0
   -2.5870   34.5500   -4.8780 C   0  0  0  0  0
   -3.3540   33.5590   -5.3450 C   0  0  0  0  0
   -3.6660   33.2130   -6.5960 N   0  0  0  0  0
   -5.2121   30.7874  -10.6426 H   0  0  0  0  0
   -7.1538   28.8954  -10.2367 H   0  0  0  0  0
   -9.1461   27.2867   -7.7053 H   0  0  0  0  0
   -8.1719   28.4862   -6.0796 H   0  0  0  0  0
   -6.4887   30.2420   -5.5678 H   0  0  0  0  0
   -4.3345   32.1018   -2.5213 H   0  0  0  0  0
   -2.9228   33.9209   -1.5628 H   0  0  0  0  0
   -1.7851   35.5176   -3.1161 H   0  0  0  0  0
   -2.1000   35.2336   -5.5735 H   0  0  0  0  0
  1  2  2  0  0  0
  2  3  1  0  0  0
  2 11  1  0  0  0
  3  4  1  0  0  0
  4  5  4  0  0  0
  4 10  4  0  0  0
  5  6  4  0  0  0
  6  7  1  0  0  0
  6  8  4  0  0  0
  8  9  4  0  0  0
  9 10  4  0  0  0
 10 11  1  0  0  0
 11 12  1  0  0  0
 12 13  4  0  0  0
 12 20  4  0  0  0
 13 14  4  0  0  0
 14 15  4  0  0  0
 14 19  4  0  0  0
 15 16  4  0  0  0
 16 17  4  0  0  0
 17 18  4  0  0  0
 18 19  4  0  0  0
 19 20  4  0  0  0
  3 21  1  0  0  0
  5 22  1  0  0  0
  7 23  1  0  0  0
  8 24  1  0  0  0
  9 25  1  0  0  0
 15 26  1  0  0  0
 16 27  1  0  0  0
 17 28  1  0  0  0
 18 29  1  0  0  0
M  END
$$$$
