5l9i_ligand
  -I-interpret- 

 42 42  0  0  0  0  0  0  0  0999 V2000
   10.0890   47.8890   -1.8740 O   0  0  0  0  0
   10.8970   46.7360   -1.6690 C   0  0  0  0  0
   10.5220   45.6070   -2.4950 C   0  0  0  0  0
    9.2140   45.0220   -2.1740 O   0  0  0  0  0
   11.4580   44.5540   -2.6160 C   0  0  0  0  0
   11.4510   43.8020   -1.4120 O   0  0  0  0  0
   12.8950   44.9940   -2.7360 C   0  0  0  0  0
   13.1960   46.0140   -1.8150 O   0  0  0  0  0
   12.3640   47.1220   -1.8080 C   0  0  0  0  0
   12.4610   47.7200   -2.9850 O   0  0  0  0  0
   12.8460   48.0690   -0.6970 C   0  0  0  0  0
   12.4110   49.4620   -0.7290 N   0  3  0  0  0
   12.6310   50.2240    0.4840 C   0  0  0  0  0
   11.3320   50.4550    1.2220 C   0  0  0  0  0
   10.3000   49.9270    0.7870 O   0  0  0  0  0
   13.3690   51.5240    0.2550 C   0  0  0  0  0
   12.5890   52.7020   -0.2190 C   0  0  0  0  0
   13.3200   53.7690   -0.9140 C   0  0  0  0  0
   13.6330   54.7380   -0.3580 O   0  0  0  0  0
   13.6390   53.6080   -2.2460 N   0  0  0  0  0
   11.3110   51.1410    2.2590 O   0  0  0  0  0
    9.1635   47.6493   -1.7871 H   0  0  0  0  0
   10.7254   46.3779   -0.6539 H   0  0  0  0  0
   10.4806   46.1071   -3.4626 H   0  0  0  0  0
    8.5637   45.7229   -2.0877 H   0  0  0  0  0
   11.1561   44.0196   -3.5167 H   0  0  0  0  0
   10.5643   43.4734   -1.2464 H   0  0  0  0  0
   13.0575   45.3771   -3.7434 H   0  0  0  0  0
   13.5382   44.1387   -2.5289 H   0  0  0  0  0
   11.8901   48.4917   -2.9986 H   0  0  0  0  0
   13.9298   48.1072   -0.8065 H   0  0  0  0  0
   12.4288   47.6621    0.2241 H   0  0  0  0  0
   11.4019   49.4437   -0.8769 H   0  0  0  0  0
   12.9613   49.9174   -1.4572 H   0  0  0  0  0
   13.2847   49.6158    1.1092 H   0  0  0  0  0
   14.0833   51.3129   -0.5408 H   0  0  0  0  0
   13.7571   51.8104    1.2325 H   0  0  0  0  0
   12.1830   53.1645    0.6807 H   0  0  0  0  0
   11.8818   52.3091   -0.9494 H   0  0  0  0  0
   14.1491   54.3400   -2.7403 H   0  0  0  0  0
   13.3648   52.7569   -2.7368 H   0  0  0  0  0
   12.1947   51.4677    2.4432 H   0  0  0  0  0
  1  2  1  0  0  0
  2  3  1  0  0  0
  2  9  1  0  0  0
  3  4  1  0  0  0
  3  5  1  0  0  0
  5  6  1  0  0  0
  5  7  1  0  0  0
  7  8  1  0  0  0
  8  9  1  0  0  0
  9 10  1  0  0  0
  9 11  1  0  0  0
 11 12  1  0  0  0
 12 13  1  0  0  0
 13 14  1  0  0  0
 13 16  1  0  0  0
 14 15  2  0  0  0
 14 21  1  0  0  0
 16 17  1  0  0  0
 17 18  1  0  0  0
 18 19  2  0  0  0
 18 20  1  0  0  0
  1 22  1  0  0  0
  2 23  1  0  0  0
  3 24  1  0  0  0
  4 25  1  0  0  0
  5 26  1  0  0  0
  6 27  1  0  0  0
  7 28  1  0  0  0
  7 29  1  0  0  0
 10 30  1  0  0  0
 11 31  1  0  0  0
 11 32  1  0  0  0
 12 33  1  0  0  0
 12 34  1  0  0  0
 13 35  1  0  0  0
 16 36  1  0  0  0
 16 37  1  0  0  0
 17 38  1  0  0  0
 17 39  1  0  0  0
 20 40  1  0  0  0
 20 41  1  0  0  0
 21 42  1  0  0  0
M  END
$$$$
