6h4p_ligand
  -I-interpret- 

 26 28  0  0  0  0  0  0  0  0999 V2000
    3.7060  -14.0210  -52.0170 N   0  0  0  0  0
    3.0200  -14.2080  -50.9040 C   0  0  0  0  0
    5.0410  -15.4350  -53.4350 C   0  0  0  0  0
    6.3650  -14.3730  -54.9480 C   0  0  0  0  0
    8.3540  -18.0440  -55.5930 O   0  0  0  0  0
    7.3690  -17.9570  -54.8710 C   0  0  0  0  0
    6.6920  -16.6960  -54.5780 C   0  0  0  0  0
    7.0710  -15.5240  -55.2260 C   0  0  0  0  0
    5.3570  -14.3060  -54.0730 N   0  0  0  0  0
    6.8610  -19.0390  -54.2450 N   0  0  0  0  0
    5.8160  -18.9680  -53.3920 C   0  0  0  0  0
    5.1850  -17.8670  -53.0620 N   0  0  0  0  0
    5.6310  -16.7040  -53.6630 C   0  0  0  0  0
    4.1690  -15.2620  -52.3350 N   0  0  0  0  0
    3.7660  -16.1920  -51.4470 C   0  0  0  0  0
    3.0210  -15.5560  -50.4920 C   0  0  0  0  0
    2.3770  -16.1820  -49.2820 C   0  0  0  0  0
    2.5103  -13.4096  -50.3646 H   0  0  0  0  0
    6.6464  -13.4610  -55.4745 H   0  0  0  0  0
    7.9012  -15.5164  -55.9322 H   0  0  0  0  0
    7.2843  -19.9497  -54.4236 H   0  0  0  0  0
    5.4702  -19.8990  -52.9428 H   0  0  0  0  0
    3.9925  -17.2576  -51.4831 H   0  0  0  0  0
    2.7853  -15.7281  -48.3790 H   0  0  0  0  0
    1.3003  -16.0164  -49.3185 H   0  0  0  0  0
    2.5812  -17.2527  -49.2763 H   0  0  0  0  0
  1  2  4  0  0  0
 14  1  4  0  0  0
  2 16  4  0  0  0
  9  3  4  0  0  0
  3 13  4  0  0  0
  3 14  1  0  0  0
  8  4  4  0  0  0
  4  9  4  0  0  0
  6  5  2  0  0  0
  7  6  1  0  0  0
  6 10  1  0  0  0
  7  8  4  0  0  0
  7 13  4  0  0  0
 10 11  1  0  0  0
 11 12  2  0  0  0
 12 13  1  0  0  0
 14 15  4  0  0  0
 15 16  4  0  0  0
 16 17  1  0  0  0
  2 18  1  0  0  0
  4 19  1  0  0  0
  8 20  1  0  0  0
 10 21  1  0  0  0
 11 22  1  0  0  0
 15 23  1  0  0  0
 17 24  1  0  0  0
 17 25  1  0  0  0
 17 26  1  0  0  0
M  END
$$$$
