6hq4_ligand
  -I-interpret- 

 34 37  0  0  0  0  0  0  0  0999 V2000
  -83.5360  -17.2470   -6.4830 P   0  0  0  0  0
  -84.3130  -18.1060   -7.4500 O   0  0  0  0  0
  -82.6250  -16.1920   -7.0500 O   0  0  0  0  0
  -84.6200  -16.5670   -5.4970 O   0  0  0  0  0
  -85.2350  -17.2800   -4.4140 C   0  0  0  0  0
  -84.1640  -18.0400   -3.6530 C   0  0  0  0  0
  -84.6310  -18.9080   -2.6130 O   0  0  0  0  0
  -83.4450  -18.9550   -4.6110 C   0  0  0  0  0
  -82.6640  -18.1540   -5.4750 O   0  0  0  0  0
  -82.7610  -19.9250   -3.6750 C   0  0  0  0  0
  -81.5410  -19.3970   -3.1700 O   0  0  0  0  0
  -83.7810  -20.0670   -2.5520 C   0  0  0  0  0
  -84.6090  -21.2850   -2.7520 N   0  0  0  0  0
  -85.4450  -21.5010   -3.7900 C   0  0  0  0  0
  -86.0590  -22.7020   -3.6780 N   0  0  0  0  0
  -85.6190  -23.2710   -2.5480 C   0  0  0  0  0
  -85.8680  -24.5420   -1.8400 C   0  0  0  0  0
  -86.7390  -25.4370   -2.3520 N   0  0  0  0  0
  -85.2110  -24.7710   -0.6820 N   0  0  0  0  0
  -84.3460  -23.8690   -0.1750 C   0  0  0  0  0
  -84.0730  -22.6920   -0.7770 N   0  0  0  0  0
  -84.6650  -22.3390   -1.9410 C   0  0  0  0  0
  -84.8502  -18.7325   -6.9595 H   0  0  0  0  0
  -85.9739  -17.9789   -4.8061 H   0  0  0  0  0
  -85.7323  -16.5769   -3.7459 H   0  0  0  0  0
  -83.5546  -17.2574   -3.2011 H   0  0  0  0  0
  -84.0276  -19.5420   -5.3211 H   0  0  0  0  0
  -82.4914  -20.8643   -4.1579 H   0  0  0  0  0
  -81.1357  -20.0379   -2.5813 H   0  0  0  0  0
  -83.2769  -20.1506   -1.5892 H   0  0  0  0  0
  -85.6044  -20.8007   -4.6099 H   0  0  0  0  0
  -87.2235  -25.2344   -3.2264 H   0  0  0  0  0
  -86.9127  -26.3160   -1.8645 H   0  0  0  0  0
  -83.8441  -24.1011    0.7643 H   0  0  0  0  0
  1  2  1  0  0  0
  1  3  2  0  0  0
  1  4  1  0  0  0
  1  9  1  0  0  0
  4  5  1  0  0  0
  5  6  1  0  0  0
  6  7  1  0  0  0
  6  8  1  0  0  0
  7 12  1  0  0  0
  8  9  1  0  0  0
  8 10  1  0  0  0
 10 11  1  0  0  0
 10 12  1  0  0  0
 12 13  1  0  0  0
 13 14  4  0  0  0
 13 22  4  0  0  0
 14 15  4  0  0  0
 15 16  4  0  0  0
 16 17  4  0  0  0
 16 22  4  0  0  0
 17 18  1  0  0  0
 17 19  4  0  0  0
 19 20  4  0  0  0
 20 21  4  0  0  0
 21 22  4  0  0  0
  2 23  1  0  0  0
  5 24  1  0  0  0
  5 25  1  0  0  0
  6 26  1  0  0  0
  8 27  1  0  0  0
 10 28  1  0  0  0
 11 29  1  0  0  0
 12 30  1  0  0  0
 14 31  1  0  0  0
 18 32  1  0  0  0
 18 33  1  0  0  0
 20 34  1  0  0  0
M  END
$$$$
