### 
### Created by X-TOOL on Mon Aug  2 16:13:57 2021
### 

@<TRIPOS>MOLECULE
6hq4_ligand
   33    36     1     0     0
SMALL
GAST_HUCK


@<TRIPOS>ATOM
      1 P         -83.5360  -17.2470   -6.4830 P.3       1 CMP         0.2557
      2 O1P       -84.3130  -18.1060   -7.4500 O.co2     1 CMP        -0.6177
      3 O2P       -82.6250  -16.1920   -7.0500 O.co2     1 CMP        -0.6177
      4 O5'       -84.6200  -16.5670   -5.4970 O.3       1 CMP        -0.2514
      5 C5'       -85.2350  -17.2800   -4.4140 C.3       1 CMP         0.1128
      6 C4'       -84.1640  -18.0400   -3.6530 C.3       1 CMP         0.1242
      7 O4'       -84.6310  -18.9080   -2.6130 O.3       1 CMP        -0.3360
      8 C3'       -83.4450  -18.9550   -4.6110 C.3       1 CMP         0.1540
      9 O3'       -82.6640  -18.1540   -5.4750 O.3       1 CMP        -0.2453
     10 C2'       -82.7610  -19.9250   -3.6750 C.3       1 CMP         0.1439
     11 O2'       -81.5410  -19.3970   -3.1700 O.3       1 CMP        -0.3832
     12 C1'       -83.7810  -20.0670   -2.5520 C.3       1 CMP         0.2014
     13 N9        -84.6090  -21.2850   -2.7520 N.pl3     1 CMP        -0.1919
     14 C8        -85.4450  -21.5010   -3.7900 C.2       1 CMP         0.1123
     15 N7        -86.0590  -22.7020   -3.6780 N.2       1 CMP        -0.2958
     16 C5        -85.6190  -23.2710   -2.5480 C.ar      1 CMP         0.1045
     17 C6        -85.8680  -24.5420   -1.8400 C.ar      1 CMP         0.1298
     18 N6        -86.7390  -25.4370   -2.3520 N.pl3     1 CMP        -0.3152
     19 N1        -85.2110  -24.7710   -0.6820 N.ar      1 CMP        -0.2698
     20 C2        -84.3460  -23.8690   -0.1750 C.ar      1 CMP         0.0533
     21 N3        -84.0730  -22.6920   -0.7770 N.ar      1 CMP        -0.2714
     22 C4        -84.6650  -22.3390   -1.9410 C.ar      1 CMP         0.1613
     23 H1        -85.9771  -17.9876   -4.8122 H         1 CMP         0.0647
     24 H2        -85.7325  -16.5682   -3.7389 H         1 CMP         0.0647
     25 H3        -83.4650  -17.3083   -3.2218 H         1 CMP         0.0655
     26 H4        -84.1593  -19.5138   -5.2335 H         1 CMP         0.0712
     27 H5        -82.5699  -20.8884   -4.1703 H         1 CMP         0.0680
     28 H6        -80.9531  -19.2136   -3.8934 H         1 CMP         0.2101
     29 H7        -83.2703  -20.1198   -1.5792 H         1 CMP         0.0996
     30 H8        -85.6042  -20.8013   -4.6091 H         1 CMP         0.1349
     31 H9        -86.9144  -26.3246   -1.8597 H         1 CMP         0.1820
     32 H10       -87.2283  -25.2324   -3.2350 H         1 CMP         0.1820
     33 H11       -83.8469  -24.0998    0.7592 H         1 CMP         0.0996
@<TRIPOS>BOND
     1    1    2 ar 
     2    1    3 ar 
     3    1    4 1  
     4    1    9 1  
     5    4    5 1  
     6    5    6 1  
     7    6    7 1  
     8    6    8 1  
     9    7   12 1  
    10    8    9 1  
    11    8   10 1  
    12   10   11 1  
    13   10   12 1  
    14   12   13 1  
    15   13   14 1  
    16   13   22 1  
    17   14   15 2  
    18   15   16 1  
    19   16   17 ar 
    20   16   22 ar 
    21   17   18 1  
    22   17   19 ar 
    23   19   20 ar 
    24   20   21 ar 
    25   21   22 ar 
    26    5   23 1  
    27    5   24 1  
    28    6   25 1  
    29    8   26 1  
    30   10   27 1  
    31   11   28 1  
    32   12   29 1  
    33   14   30 1  
    34   18   31 1  
    35   18   32 1  
    36   20   33 1  
@<TRIPOS>SUBSTRUCTURE
     1 CMP         1

