2xj2_ligand
  -I-interpret- 

 48 50  0  0  0  0  0  0  0  0999 V2000
  -22.5470  -36.6700   -2.5280 C   0  0  0  0  0
  -21.9620  -35.6400   -3.1690 N   0  0  0  0  0
  -21.9530  -35.5170   -4.5080 C   0  0  0  0  0
  -22.6130  -36.4850   -5.2640 C   0  0  0  0  0
  -23.2050  -37.5010   -4.6370 N   0  0  0  0  0
  -23.2090  -37.6180   -3.3070 C   0  0  0  0  0
  -21.3280  -34.4680   -5.0710 N   0  0  0  0  0
  -20.4860  -33.6190   -4.2060 C   0  0  0  0  0
  -21.3220  -32.4710   -3.5890 C   0  0  0  0  0
  -22.3680  -31.8970   -4.4810 N   0  3  0  0  0
  -21.9320  -31.7140   -5.8850 C   0  0  0  0  0
  -22.3920  -32.9100   -6.7520 C   0  0  0  0  0
  -21.5230  -34.1740   -6.5190 C   0  0  0  0  0
  -22.7470  -30.5680   -3.9560 C   0  0  0  0  0
  -22.7750  -36.6370    1.6800 C   0  0  0  0  0
  -22.9370  -37.8380    0.9920 C   0  0  0  0  0
  -22.8510  -37.8670   -0.4000 C   0  0  0  0  0
  -22.5770  -36.7070   -1.1180 C   0  0  0  0  0
  -22.4370  -35.5090   -0.4090 C   0  0  0  0  0
  -22.5020  -35.4630    0.9810 C   0  0  0  0  0
  -22.3780  -34.2500    1.6700 C   0  0  0  0  0
  -21.7150  -33.1190    1.1950 C   0  0  0  0  0
  -21.6830  -31.9340    1.9420 C   0  0  0  0  0
  -21.0610  -30.9720    1.4560 O   0  0  0  0  0
  -22.2790  -31.8740    3.0460 O   0  0  0  0  0
  -22.6442  -36.4118   -6.3511 H   0  0  0  0  0
  -23.7275  -38.4510   -2.8323 H   0  0  0  0  0
  -19.6842  -33.1889   -4.8062 H   0  0  0  0  0
  -20.0774  -34.2302   -3.4013 H   0  0  0  0  0
  -20.6257  -31.6633   -3.3635 H   0  0  0  0  0
  -21.8415  -32.8905   -2.7275 H   0  0  0  0  0
  -23.1410  -32.5625   -4.4875 H   0  0  0  0  0
  -20.8442  -31.6518   -5.9140 H   0  0  0  0  0
  -22.3750  -30.7990   -6.2782 H   0  0  0  0  0
  -22.2992  -32.6240   -7.7997 H   0  0  0  0  0
  -23.4194  -33.1506   -6.4788 H   0  0  0  0  0
  -22.0348  -35.0239   -6.9705 H   0  0  0  0  0
  -20.5433  -33.9971   -6.9629 H   0  0  0  0  0
  -23.1363  -30.6762   -2.9437 H   0  0  0  0  0
  -21.8702  -29.9207   -3.9422 H   0  0  0  0  0
  -23.5130  -30.1307   -4.5964 H   0  0  0  0  0
  -22.8620  -36.6160    2.7663 H   0  0  0  0  0
  -23.1316  -38.7579    1.5434 H   0  0  0  0  0
  -22.9999  -38.8075   -0.9304 H   0  0  0  0  0
  -22.2721  -34.5839   -0.9614 H   0  0  0  0  0
  -22.8365  -34.1848    2.6567 H   0  0  0  0  0
  -21.2139  -33.1573    0.2277 H   0  0  0  0  0
  -22.6913  -32.7207    3.2322 H   0  0  0  0  0
  1  2  4  0  0  0
  1  6  4  0  0  0
 18  1  1  0  0  0
  2  3  4  0  0  0
  3  4  4  0  0  0
  3  7  1  0  0  0
  5  4  4  0  0  0
  6  5  4  0  0  0
  7  8  1  0  0  0
  7 13  1  0  0  0
  8  9  1  0  0  0
  9 10  1  0  0  0
 11 10  1  0  0  0
 10 14  1  0  0  0
 12 11  1  0  0  0
 13 12  1  0  0  0
 16 15  4  0  0  0
 15 20  4  0  0  0
 17 16  4  0  0  0
 17 18  4  0  0  0
 18 19  4  0  0  0
 19 20  4  0  0  0
 20 21  1  0  0  0
 21 22  2  0  0  0
 22 23  1  0  0  0
 23 24  2  0  0  0
 23 25  1  0  0  0
  4 26  1  0  0  0
  6 27  1  0  0  0
  8 28  1  0  0  0
  8 29  1  0  0  0
  9 30  1  0  0  0
  9 31  1  0  0  0
 10 32  1  0  0  0
 11 33  1  0  0  0
 11 34  1  0  0  0
 12 35  1  0  0  0
 12 36  1  0  0  0
 13 37  1  0  0  0
 13 38  1  0  0  0
 14 39  1  0  0  0
 14 40  1  0  0  0
 14 41  1  0  0  0
 15 42  1  0  0  0
 16 43  1  0  0  0
 17 44  1  0  0  0
 19 45  1  0  0  0
 21 46  1  0  0  0
 22 47  1  0  0  0
 25 48  1  0  0  0
M  END
$$$$
