6r11_ligand
  -I-interpret- 

 28 30  0  0  0  0  0  0  0  0999 V2000
   25.0440   15.9200   -8.0120 C   0  0  0  0  0
   25.8110   18.7140   -8.8980 C   0  0  0  0  0
   26.9110   19.7020   -8.9980 C   0  0  0  0  0
   29.0480   21.3890   -8.6380 C   0  0  0  0  0
   27.5620   19.7510   -7.7800 C   0  0  0  0  0
   26.9020   18.7960   -6.8590 C   0  0  0  0  0
   27.2970   20.4800  -10.0610 C   0  0  0  0  0
   28.3900   21.3430   -9.8740 C   0  0  0  0  0
   28.6400   20.5930   -7.5790 C   0  0  0  0  0
   23.7500   15.5340   -8.2290 N   0  0  0  0  0
   25.8920   18.1860   -7.6080 N   0  0  0  0  0
   25.0340   17.1320   -7.1060 C   0  0  0  0  0
   28.8160   22.1470  -10.9180 N   0  0  0  0  0
   22.8300   16.3510   -7.6170 C   0  0  0  0  0
   23.5540   17.5380   -7.0470 C   0  0  0  0  0
   26.0330   15.3790   -8.4700 O   0  0  0  0  0
   21.6340   16.1190   -7.5640 O   0  0  0  0  0
   24.9860   18.3880   -9.7200 O   0  0  0  0  0
   27.1380   18.5500   -5.7000 O   0  0  0  0  0
   29.8952   22.0622   -8.5068 H   0  0  0  0  0
   26.7742   20.4301  -11.0162 H   0  0  0  0  0
   29.1530   20.6298   -6.6180 H   0  0  0  0  0
   23.4935   14.7210   -8.7891 H   0  0  0  0  0
   25.4333   16.9231   -6.1135 H   0  0  0  0  0
   29.6100   22.7739  -10.7877 H   0  0  0  0  0
   28.3358   22.1122  -11.8172 H   0  0  0  0  0
   23.3533   18.4523   -7.6054 H   0  0  0  0  0
   23.2295   17.7728   -6.0333 H   0  0  0  0  0
  1 10  1  0  0  0
 12  1  1  0  0  0
  1 16  2  0  0  0
  2  3  1  0  0  0
 11  2  1  0  0  0
  2 18  2  0  0  0
  5  3  4  0  0  0
  3  7  4  0  0  0
  4  8  4  0  0  0
  9  4  4  0  0  0
  6  5  1  0  0  0
  5  9  4  0  0  0
 11  6  1  0  0  0
  6 19  2  0  0  0
  7  8  4  0  0  0
  8 13  1  0  0  0
 10 14  1  0  0  0
 11 12  1  0  0  0
 12 15  1  0  0  0
 14 15  1  0  0  0
 14 17  2  0  0  0
  4 20  1  0  0  0
  7 21  1  0  0  0
  9 22  1  0  0  0
 10 23  1  0  0  0
 12 24  1  0  0  0
 13 25  1  0  0  0
 13 26  1  0  0  0
 15 27  1  0  0  0
 15 28  1  0  0  0
M  END
$$$$
