1fo0_ligand
  -I-interpret- 

137138  0  0  0  0  0  0  0  0999 V2000
   26.6090   42.0530   46.0620 N   0  3  0  0  0
   26.3900   40.6410   46.4320 C   0  0  0  0  0
   24.9150   40.3210   46.6720 C   0  0  0  0  0
   24.1470   41.1170   47.1870 O   0  0  0  0  0
   27.1940   40.2640   47.6880 C   0  0  0  0  0
   26.7320   41.1110   48.8660 C   0  0  0  0  0
   28.6480   40.5650   47.3730 C   0  0  0  0  0
   27.4910   40.8010   50.1280 C   0  0  0  0  0
   24.5470   39.1220   46.2520 N   0  0  0  0  0
   23.2090   38.5980   46.3130 C   0  0  0  0  0
   22.7560   38.3920   47.7400 C   0  0  0  0  0
   23.4640   38.5930   48.7080 O   0  0  0  0  0
   23.1280   37.2960   45.5000 C   0  0  0  0  0
   21.7500   36.9800   44.9770 C   0  0  0  0  0
   20.7520   37.6250   45.3150 O   0  0  0  0  0
   21.5940   35.9800   44.1290 N   0  0  0  0  0
   21.5160   37.9820   47.8940 N   0  0  0  0  0
   20.9270   37.7010   49.2180 C   0  0  0  0  0
   20.8690   36.2110   49.4980 C   0  0  0  0  0
   21.0020   35.3470   48.6110 O   0  0  0  0  0
   19.5320   38.2860   49.1190 C   0  0  0  0  0
   18.5490   38.0700   50.1990 C   0  0  0  0  0
   18.5890   38.7000   51.4260 C   0  0  0  0  0
   17.4760   37.2240   49.9150 C   0  0  0  0  0
   17.6060   38.4910   52.3810 C   0  0  0  0  0
   16.4950   37.0260   50.8500 C   0  0  0  0  0
   16.5580   37.6470   52.0750 C   0  0  0  0  0
   20.6770   35.8650   50.7500 N   0  0  0  0  0
   20.5230   34.5070   51.2770 C   0  0  0  0  0
   19.0130   34.2040   51.3840 C   0  0  0  0  0
   18.3460   34.6060   52.3490 O   0  0  0  0  0
   21.0060   34.4810   52.7520 C   0  0  0  0  0
   22.5300   34.4940   52.7060 C   0  0  0  0  0
   23.1100   35.4850   53.1840 O   0  0  0  0  0
   23.0620   33.5170   52.1310 O   0  0  0  0  0
   18.5620   33.5270   50.3400 N   0  0  0  0  0
   17.1940   33.1490   50.1560 C   0  0  0  0  0
   16.7390   31.9970   51.0390 C   0  0  0  0  0
   17.3310   30.9160   51.0680 O   0  0  0  0  0
   16.9030   32.7220   48.6960 C   0  0  0  0  0
   17.0350   33.8660   47.7330 C   0  0  0  0  0
   15.9770   34.7580   47.5170 C   0  0  0  0  0
   18.2300   34.0940   47.0730 C   0  0  0  0  0
   16.1010   35.8180   46.6680 C   0  0  0  0  0
   18.3640   35.1770   46.2250 C   0  0  0  0  0
   17.3000   36.0280   46.0050 C   0  0  0  0  0
   15.6360   32.2320   51.7320 N   0  0  0  0  0
   15.0050   31.2030   52.5320 C   0  0  0  0  0
   14.0900   30.4340   51.5950 C   0  0  0  0  0
   14.2190   30.5940   50.3620 O   0  0  0  0  0
   14.2430   31.8510   53.6740 C   0  0  0  0  0
   15.0170   31.6430   54.9730 C   0  0  0  0  0
   15.6930   30.6110   55.0810 O   0  0  0  0  0
   14.9040   32.6060   55.8720 N   0  0  0  0  0
   13.1720   29.6070   52.0800 N   0  0  0  0  0
   12.3740   28.8710   51.0920 C   0  0  0  0  0
   10.9470   29.3340   51.1720 C   0  0  0  0  0
   10.5520   30.0140   52.1020 O   0  0  0  0  0
   12.4300   27.3630   51.4010 C   0  0  0  0  0
   11.9520   27.1150   52.7340 O   0  0  0  0  0
   13.8590   26.8490   51.3130 C   0  0  0  0  0
   10.1320   28.8830   50.2510 N   0  0  0  0  0
    8.7150   29.2240   50.2880 C   0  0  0  0  0
    7.9020   28.0610   50.9070 C   0  0  0  0  0
    6.6350   28.2370   50.9000 O   0  0  0  0  0
    8.2020   29.3430   48.8380 C   0  0  0  0  0
    8.4090   27.9650   48.1820 C   0  0  0  0  0
    8.8490   30.4480   48.0920 C   0  0  0  0  0
    7.8290   27.9670   46.8190 C   0  0  0  0  0
    8.5440   27.0430   51.3010 O   0  0  0  0  0
   27.6052   42.2137   45.9135 H   0  0  0  0  0
   26.0981   42.2616   45.2042 H   0  0  0  0  0
   26.2744   42.6560   46.8136 H   0  0  0  0  0
   26.7354   40.0512   45.5829 H   0  0  0  0  0
   27.0557   39.2152   47.9507 H   0  0  0  0  0
   25.6786   40.8949   49.0442 H   0  0  0  0  0
   26.9049   42.1580   48.6170 H   0  0  0  0  0
   28.7528   41.6202   47.1206 H   0  0  0  0  0
   29.2621   40.3357   48.2439 H   0  0  0  0  0
   28.9695   39.9545   46.5292 H   0  0  0  0  0
   27.3465   39.7527   50.3892 H   0  0  0  0  0
   28.5519   40.9943   49.9692 H   0  0  0  0  0
   27.1224   41.4323   50.9365 H   0  0  0  0  0
   25.2690   38.5217   45.8535 H   0  0  0  0  0
   22.5283   39.3272   45.8737 H   0  0  0  0  0
   23.4140   36.4821   46.1662 H   0  0  0  0  0
   23.7810   37.4151   44.6354 H   0  0  0  0  0
   20.6661   35.7563   43.7694 H   0  0  0  0  0
   22.4014   35.4312   43.8335 H   0  0  0  0  0
   20.9372   37.8528   47.0641 H   0  0  0  0  0
   21.5131   38.1261   50.0328 H   0  0  0  0  0
   19.0935   37.7881   48.2542 H   0  0  0  0  0
   19.6933   39.3640   49.1152 H   0  0  0  0  0
   19.4128   39.3779   51.6496 H   0  0  0  0  0
   17.4187   36.7211   48.9496 H   0  0  0  0  0
   17.6598   38.9826   53.3524 H   0  0  0  0  0
   15.6558   36.3694   50.6206 H   0  0  0  0  0
   15.7733   37.4712   52.8109 H   0  0  0  0  0
   20.6300   36.6243   51.4294 H   0  0  0  0  0
   21.0684   33.8138   50.6366 H   0  0  0  0  0
   20.6378   33.5947   53.2687 H   0  0  0  0  0
   20.6239   35.3398   53.3040 H   0  0  0  0  0
   22.3812   32.8962   51.8614 H   0  0  0  0  0
   19.2326   33.2573   49.6203 H   0  0  0  0  0
   16.6447   34.0498   50.4297 H   0  0  0  0  0
   15.8777   32.3552   48.6481 H   0  0  0  0  0
   17.6277   31.9576   48.4156 H   0  0  0  0  0
   15.0332   34.6014   48.0393 H   0  0  0  0  0
   19.0700   33.4157   47.2229 H   0  0  0  0  0
   15.2621   36.4962   46.5117 H   0  0  0  0  0
   19.3160   35.3602   45.7268 H   0  0  0  0  0
   17.4022   36.8629   45.3118 H   0  0  0  0  0
   15.2194   33.1626   51.7017 H   0  0  0  0  0
   15.7269   30.5217   52.9824 H   0  0  0  0  0
   13.2553   31.3979   53.7593 H   0  0  0  0  0
   14.1308   32.9179   53.4810 H   0  0  0  0  0
   15.4042   32.5375   56.7583 H   0  0  0  0  0
   14.3167   33.4173   55.6792 H   0  0  0  0  0
   13.0291   29.4895   53.0831 H   0  0  0  0  0
   12.7722   29.0534   50.0939 H   0  0  0  0  0
   11.8057   26.8503   50.6693 H   0  0  0  0  0
   11.9909   26.1733   52.9167 H   0  0  0  0  0
   14.2431   27.0177   50.3070 H   0  0  0  0  0
   14.4800   27.3804   52.0342 H   0  0  0  0  0
   13.8743   25.7820   51.5350 H   0  0  0  0  0
   10.4910   28.2895   49.5032 H   0  0  0  0  0
    8.5992   30.1440   50.8610 H   0  0  0  0  0
    6.4358   29.1064   50.5450 H   0  0  0  0  0
    7.1447   29.6077   48.8256 H   0  0  0  0  0
    7.9152   27.2015   48.7831 H   0  0  0  0  0
    9.4761   27.7518   48.1196 H   0  0  0  0  0
    8.6473   31.3926   48.5970 H   0  0  0  0  0
    9.9249   30.2776   48.0535 H   0  0  0  0  0
    8.4490   30.4836   47.0787 H   0  0  0  0  0
    6.7621   28.1817   46.8799 H   0  0  0  0  0
    8.3209   28.7312   46.2173 H   0  0  0  0  0
    7.9787   26.9896   46.3604 H   0  0  0  0  0
  2  1  1  0  0  0
  2  5  1  0  0  0
  3  2  1  0  0  0
  3  4  2  0  0  0
  5  7  1  0  0  0
  5  6  1  0  0  0
  6  8  1  0  0  0
 10  9  1  0  0  0
 10 13  1  0  0  0
 11 10  1  0  0  0
 11 12  2  0  0  0
 13 14  1  0  0  0
 14 16  1  0  0  0
 14 15  2  0  0  0
  9  3  1  0  0  0
 18 17  1  0  0  0
 18 21  1  0  0  0
 19 18  1  0  0  0
 19 20  2  0  0  0
 21 22  1  0  0  0
 22 23  4  0  0  0
 22 24  4  0  0  0
 24 26  4  0  0  0
 26 27  4  0  0  0
 25 27  4  0  0  0
 23 25  4  0  0  0
 17 11  1  0  0  0
 29 28  1  0  0  0
 29 32  1  0  0  0
 30 29  1  0  0  0
 30 31  2  0  0  0
 32 33  1  0  0  0
 33 34  2  0  0  0
 33 35  1  0  0  0
 28 19  1  0  0  0
 37 36  1  0  0  0
 37 40  1  0  0  0
 38 37  1  0  0  0
 38 39  2  0  0  0
 40 41  1  0  0  0
 41 42  4  0  0  0
 41 43  4  0  0  0
 43 45  4  0  0  0
 45 46  4  0  0  0
 44 46  4  0  0  0
 42 44  4  0  0  0
 36 30  1  0  0  0
 48 47  1  0  0  0
 48 51  1  0  0  0
 49 48  1  0  0  0
 49 50  2  0  0  0
 51 52  1  0  0  0
 52 54  1  0  0  0
 52 53  2  0  0  0
 47 38  1  0  0  0
 56 55  1  0  0  0
 56 59  1  0  0  0
 57 56  1  0  0  0
 57 58  2  0  0  0
 59 61  1  0  0  0
 59 60  1  0  0  0
 55 49  1  0  0  0
 62 63  1  0  0  0
 63 66  1  0  0  0
 63 64  1  0  0  0
 64 65  1  0  0  0
 64 70  2  0  0  0
 66 68  1  0  0  0
 66 67  1  0  0  0
 67 69  1  0  0  0
 57 62  1  0  0  0
  1 71  1  0  0  0
  1 72  1  0  0  0
  1 73  1  0  0  0
  2 74  1  0  0  0
  5 75  1  0  0  0
  6 76  1  0  0  0
  6 77  1  0  0  0
  7 78  1  0  0  0
  7 79  1  0  0  0
  7 80  1  0  0  0
  8 81  1  0  0  0
  8 82  1  0  0  0
  8 83  1  0  0  0
  9 84  1  0  0  0
 10 85  1  0  0  0
 13 86  1  0  0  0
 13 87  1  0  0  0
 16 88  1  0  0  0
 16 89  1  0  0  0
 17 90  1  0  0  0
 18 91  1  0  0  0
 21 92  1  0  0  0
 21 93  1  0  0  0
 23 94  1  0  0  0
 24 95  1  0  0  0
 25 96  1  0  0  0
 26 97  1  0  0  0
 27 98  1  0  0  0
 28 99  1  0  0  0
 29100  1  0  0  0
 32101  1  0  0  0
 32102  1  0  0  0
 35103  1  0  0  0
 36104  1  0  0  0
 37105  1  0  0  0
 40106  1  0  0  0
 40107  1  0  0  0
 42108  1  0  0  0
 43109  1  0  0  0
 44110  1  0  0  0
 45111  1  0  0  0
 46112  1  0  0  0
 47113  1  0  0  0
 48114  1  0  0  0
 51115  1  0  0  0
 51116  1  0  0  0
 54117  1  0  0  0
 54118  1  0  0  0
 55119  1  0  0  0
 56120  1  0  0  0
 59121  1  0  0  0
 60122  1  0  0  0
 61123  1  0  0  0
 61124  1  0  0  0
 61125  1  0  0  0
 62126  1  0  0  0
 63127  1  0  0  0
 65128  1  0  0  0
 66129  1  0  0  0
 67130  1  0  0  0
 67131  1  0  0  0
 68132  1  0  0  0
 68133  1  0  0  0
 68134  1  0  0  0
 69135  1  0  0  0
 69136  1  0  0  0
 69137  1  0  0  0
M  END
$$$$
