4cpu_ligand
  -I-interpret- 

106109  0  0  0  0  0  0  0  0999 V2000
    7.9540   23.4930    2.6660 C   0  0  0  0  0
    9.2200   23.0440    3.0300 C   0  0  0  0  0
   10.3290   23.8680    2.8680 C   0  0  0  0  0
   11.5620   23.4970    3.3980 C   0  0  0  0  0
   10.1620   25.1500    2.3600 C   0  0  0  0  0
    8.8980   25.5890    1.9780 C   0  0  0  0  0
    7.7800   24.7930    2.2010 C   0  0  0  0  0
    6.5430   25.2130    1.7130 C   0  0  0  0  0
    5.5030   24.8620    2.5740 C   0  0  0  0  0
    5.2980   25.4770    3.8110 C   0  0  0  0  0
    6.1670   26.4390    4.3220 C   0  0  0  0  0
    7.0930   25.8040    5.2930 N   0  0  0  0  0
    8.2510   26.4810    5.6930 C   0  0  0  0  0
    8.4600   27.6080    5.2450 O   0  0  0  0  0
    9.2340   25.8050    6.4230 C   0  0  0  0  0
    9.6180   26.6350    7.6530 C   0  0  0  0  0
    8.3540   27.0740    8.3990 C   0  0  0  0  0
   10.5000   25.7940    8.5780 C   0  0  0  0  0
   10.4190   25.5880    5.5520 N   0  0  0  0  0
   11.0460   24.3400    5.4690 C   0  0  0  0  0
   10.5510   23.3840    6.0670 O   0  0  0  0  0
   12.0630   24.1600    4.5210 C   0  0  0  0  0
   12.5650   25.4390    4.1320 O   0  0  0  0  0
   13.2170   23.3460    5.1070 C   0  0  0  0  0
   13.7280   24.0030    6.3910 C   0  0  0  0  0
   15.2370   23.7830    6.4900 C   0  0  0  0  0
   15.5230   22.4390    7.0100 N   0  3  0  0  0
   16.0930   21.6240    6.3110 N   0  0  0  0  0
   15.3640   20.6680    5.6920 C   0  0  0  0  0
   14.2890   20.2500    6.1190 O   0  0  0  0  0
   16.2330   19.7750    4.7880 C   0  0  0  0  0
   15.4580   19.0860    3.6530 C   0  0  0  0  0
   14.5420   17.9930    4.2080 C   0  0  0  0  0
   14.6260   20.1110    2.8760 C   0  0  0  0  0
   16.4750   18.4400    2.7060 C   0  0  0  0  0
   16.8760   18.7510    5.6150 N   0  0  0  0  0
   18.2040   18.7330    5.7530 C   0  0  0  0  0
   18.8970   19.5040    5.0860 O   0  0  0  0  0
   18.7800   17.8740    6.6380 O   0  0  0  0  0
   20.1700   18.1720    6.7820 C   0  0  0  0  0
   15.6550   22.2780    8.3340 C   0  0  0  0  0
   15.9570   21.0000    8.7880 C   0  0  0  0  0
   17.2790   20.5690    8.8570 C   0  0  0  0  0
   17.5800   19.3380    9.4340 C   0  0  0  0  0
   14.9660   20.2820    9.4420 C   0  0  0  0  0
   15.2630   19.0540   10.0140 C   0  0  0  0  0
   16.5670   18.5800   10.0140 C   0  0  0  0  0
   16.8180   17.3850   10.5440 C   0  0  0  0  0
   15.8270   16.4740   10.6450 C   0  0  0  0  0
   16.1740   15.3840   11.3410 C   0  0  0  0  0
   17.6420   15.6910   12.0350 S   0  0  0  0  0
   17.8360   17.2050   11.3920 C   0  0  0  0  0
    7.0966   22.8247    2.7453 H   0  0  0  0  0
    9.3430   22.0430    3.4435 H   0  0  0  0  0
   12.2783   23.7184    2.6068 H   0  0  0  0  0
   11.4201   22.4679    3.7279 H   0  0  0  0  0
   11.0217   25.8126    2.2605 H   0  0  0  0  0
    8.7837   26.5625    1.5012 H   0  0  0  0  0
    6.3709   24.7296    0.7513 H   0  0  0  0  0
    6.5608   26.2989    1.6205 H   0  0  0  0  0
    4.8187   24.0711    2.2670 H   0  0  0  0  0
    4.4251   25.1937    4.3991 H   0  0  0  0  0
    5.5924   27.2175    4.8238 H   0  0  0  0  0
    6.7414   26.8792    3.5069 H   0  0  0  0  0
    6.8863   24.8779    5.6673 H   0  0  0  0  0
    8.8552   24.8395    6.7584 H   0  0  0  0  0
   10.1675   27.5209    7.3348 H   0  0  0  0  0
    7.7335   27.6771    7.7362 H   0  0  0  0  0
    7.7973   26.1928    8.7179 H   0  0  0  0  0
    8.6350   27.6633    9.2718 H   0  0  0  0  0
    9.9511   24.9068    8.8936 H   0  0  0  0  0
   11.4019   25.4941    8.0443 H   0  0  0  0  0
   10.7732   26.3841    9.4528 H   0  0  0  0  0
   10.7831   26.3664    5.0026 H   0  0  0  0  0
   13.2624   25.3237    3.4824 H   0  0  0  0  0
   14.0285   23.3031    4.3806 H   0  0  0  0  0
   12.8641   22.3406    5.3365 H   0  0  0  0  0
   13.2327   23.5599    7.2550 H   0  0  0  0  0
   13.5110   25.0710    6.3710 H   0  0  0  0  0
   15.6611   24.5244    7.1672 H   0  0  0  0  0
   15.6770   23.8818    5.4977 H   0  0  0  0  0
   17.1055   21.6607    6.1932 H   0  0  0  0  0
   16.9609   20.4306    4.3100 H   0  0  0  0  0
   15.1426   17.2469    4.7283 H   0  0  0  0  0
   13.8291   18.4365    4.9031 H   0  0  0  0  0
   14.0041   17.5198    3.3865 H   0  0  0  0  0
   13.9169   20.5889    3.5519 H   0  0  0  0  0
   15.2872   20.8649    2.4487 H   0  0  0  0  0
   14.0840   19.6060    2.0764 H   0  0  0  0  0
   17.1315   19.2097    2.3001 H   0  0  0  0  0
   17.0673   17.7082    3.2554 H   0  0  0  0  0
   15.9471   17.9443    1.8914 H   0  0  0  0  0
   16.3068   18.0487    6.0875 H   0  0  0  0  0
   20.6636   18.0730    5.8152 H   0  0  0  0  0
   20.2856   19.1923    7.1476 H   0  0  0  0  0
   20.6175   17.4772    7.4926 H   0  0  0  0  0
   15.5309   23.1126    9.0240 H   0  0  0  0  0
   18.0780   21.1949    8.4595 H   0  0  0  0  0
   18.6057   18.9692    9.4315 H   0  0  0  0  0
   13.9545   20.6830    9.5062 H   0  0  0  0  0
   14.4690   18.4590   10.4653 H   0  0  0  0  0
   14.8403   16.6122   10.2030 H   0  0  0  0  0
   16.2342   14.5146   10.6863 H   0  0  0  0  0
   15.4280   15.1636   12.1045 H   0  0  0  0  0
   17.8356   17.9658   12.1726 H   0  0  0  0  0
   18.7939   17.2938   10.8796 H   0  0  0  0  0
  1  2  4  0  0  0
  1  7  4  0  0  0
  2  3  4  0  0  0
  3  4  1  0  0  0
  3  5  4  0  0  0
  4 22  1  0  0  0
  5  6  4  0  0  0
  6  7  4  0  0  0
  7  8  1  0  0  0
  8  9  1  0  0  0
  9 10  2  0  0  0
 10 11  1  0  0  0
 11 12  1  0  0  0
 12 13  1  0  0  0
 13 14  2  0  0  0
 13 15  1  0  0  0
 15 16  1  0  0  0
 15 19  1  0  0  0
 16 17  1  0  0  0
 16 18  1  0  0  0
 19 20  1  0  0  0
 20 21  2  0  0  0
 20 22  1  0  0  0
 22 23  1  0  0  0
 22 24  1  0  0  0
 24 25  1  0  0  0
 25 26  1  0  0  0
 26 27  1  0  0  0
 27 28  1  0  0  0
 27 41  2  0  0  0
 28 29  1  0  0  0
 29 30  2  0  0  0
 29 31  1  0  0  0
 31 32  1  0  0  0
 31 36  1  0  0  0
 32 33  1  0  0  0
 32 34  1  0  0  0
 32 35  1  0  0  0
 36 37  1  0  0  0
 37 38  2  0  0  0
 37 39  1  0  0  0
 39 40  1  0  0  0
 41 42  1  0  0  0
 42 43  4  0  0  0
 42 45  4  0  0  0
 43 44  4  0  0  0
 44 47  4  0  0  0
 45 46  4  0  0  0
 46 47  4  0  0  0
 47 48  1  0  0  0
 48 49  2  0  0  0
 48 52  1  0  0  0
 49 50  1  0  0  0
 50 51  1  0  0  0
 51 52  1  0  0  0
  1 53  1  0  0  0
  2 54  1  0  0  0
  4 55  1  0  0  0
  4 56  1  0  0  0
  5 57  1  0  0  0
  6 58  1  0  0  0
  8 59  1  0  0  0
  8 60  1  0  0  0
  9 61  1  0  0  0
 10 62  1  0  0  0
 11 63  1  0  0  0
 11 64  1  0  0  0
 12 65  1  0  0  0
 15 66  1  0  0  0
 16 67  1  0  0  0
 17 68  1  0  0  0
 17 69  1  0  0  0
 17 70  1  0  0  0
 18 71  1  0  0  0
 18 72  1  0  0  0
 18 73  1  0  0  0
 19 74  1  0  0  0
 23 75  1  0  0  0
 24 76  1  0  0  0
 24 77  1  0  0  0
 25 78  1  0  0  0
 25 79  1  0  0  0
 26 80  1  0  0  0
 26 81  1  0  0  0
 28 82  1  0  0  0
 31 83  1  0  0  0
 33 84  1  0  0  0
 33 85  1  0  0  0
 33 86  1  0  0  0
 34 87  1  0  0  0
 34 88  1  0  0  0
 34 89  1  0  0  0
 35 90  1  0  0  0
 35 91  1  0  0  0
 35 92  1  0  0  0
 36 93  1  0  0  0
 40 94  1  0  0  0
 40 95  1  0  0  0
 40 96  1  0  0  0
 41 97  1  0  0  0
 43 98  1  0  0  0
 44 99  1  0  0  0
 45100  1  0  0  0
 46101  1  0  0  0
 49102  1  0  0  0
 50103  1  0  0  0
 50104  1  0  0  0
 52105  1  0  0  0
 52106  1  0  0  0
M  END
$$$$
