5yhe_ligand
  -I-interpret- 

 44 44  0  0  0  0  0  0  0  0999 V2000
   11.0630   23.1680   20.6730 O   0  0  0  0  0
   11.3310   22.6300   19.5640 C   0  0  0  0  0
   10.5350   22.4570   18.6230 O   0  0  0  0  0
   12.7820   22.3270   19.2050 C   0  0  0  0  0
   12.7650   20.9760   18.4860 C   0  0  0  0  0
   13.7580   22.2790   20.3230 N   0  3  0  0  0
   13.8920   21.1530   21.2950 C   0  0  0  0  0
   12.6460   20.6070   22.0090 C   0  0  0  0  0
   11.7590   21.3990   22.3960 O   0  0  0  0  0
   12.6660   19.3700   22.1940 O   0  0  0  0  0
   15.0710   21.4510   22.2700 C   0  0  0  0  0
   14.8650   22.8170   22.9420 C   0  0  0  0  0
   13.6550   22.9690   23.7590 N   0  3  0  0  0
   13.5300   24.3870   24.1800 C   0  0  0  0  0
   13.2140   25.3430   22.9850 C   0  0  0  0  0
   13.5060   26.5490   23.1540 O   0  0  0  0  0
   12.6670   24.8770   21.9450 O   0  0  0  0  0
   12.4340   24.5290   25.2430 C   0  0  0  0  0
   11.0630   24.0150   24.7690 C   0  0  0  0  0
    9.9960   23.9110   25.5620 C   0  0  0  0  0
    8.9980   23.4350   24.8150 N   0  0  0  0  0
    9.4620   23.2390   23.5790 C   0  0  0  0  0
   10.7500   23.5940   23.5430 N   0  0  0  0  0
   11.8512   23.1788   21.2209 H   0  0  0  0  0
   13.1376   23.1617   18.6008 H   0  0  0  0  0
   13.7590   20.7624   18.0931 H   0  0  0  0  0
   12.4754   20.1952   19.1893 H   0  0  0  0  0
   12.0485   21.0116   17.6654 H   0  0  0  0  0
   13.4439   23.0448   20.9191 H   0  0  0  0  0
   14.6510   22.2492   19.8311 H   0  0  0  0  0
   14.1019   20.2953   20.6559 H   0  0  0  0  0
   13.4573   19.0007   21.7952 H   0  0  0  0  0
   16.0054   21.4647   21.7090 H   0  0  0  0  0
   15.1072   20.6764   23.0361 H   0  0  0  0  0
   14.7756   23.5413   22.1324 H   0  0  0  0  0
   15.7068   22.9490   23.6218 H   0  0  0  0  0
   13.7189   22.3704   24.5824 H   0  0  0  0  0
   12.8362   22.6989   23.2140 H   0  0  0  0  0
   14.4962   24.6780   24.5920 H   0  0  0  0  0
   12.5424   23.9306   22.0470 H   0  0  0  0  0
   12.3293   25.5897   25.4711 H   0  0  0  0  0
   12.7307   23.9333   26.1062 H   0  0  0  0  0
    9.9481   24.1666   26.6205 H   0  0  0  0  0
    8.8858   22.8532   22.7380 H   0  0  0  0  0
  1  2  1  0  0  0
  2  3  2  0  0  0
  2  4  1  0  0  0
  4  5  1  0  0  0
  4  6  1  0  0  0
  6  7  1  0  0  0
  7  8  1  0  0  0
  7 11  1  0  0  0
  8  9  2  0  0  0
  8 10  1  0  0  0
 11 12  1  0  0  0
 12 13  1  0  0  0
 13 14  1  0  0  0
 14 15  1  0  0  0
 14 18  1  0  0  0
 15 16  2  0  0  0
 15 17  1  0  0  0
 18 19  1  0  0  0
 19 20  4  0  0  0
 19 23  4  0  0  0
 20 21  4  0  0  0
 21 22  4  0  0  0
 22 23  4  0  0  0
  1 24  1  0  0  0
  4 25  1  0  0  0
  5 26  1  0  0  0
  5 27  1  0  0  0
  5 28  1  0  0  0
  6 29  1  0  0  0
  6 30  1  0  0  0
  7 31  1  0  0  0
 10 32  1  0  0  0
 11 33  1  0  0  0
 11 34  1  0  0  0
 12 35  1  0  0  0
 12 36  1  0  0  0
 13 37  1  0  0  0
 13 38  1  0  0  0
 14 39  1  0  0  0
 17 40  1  0  0  0
 18 41  1  0  0  0
 18 42  1  0  0  0
 20 43  1  0  0  0
 22 44  1  0  0  0
M  END
$$$$
