4g95_ligand
  -I-interpret- 

 34 36  0  0  0  0  0  0  0  0999 V2000
   30.0880   13.9890    0.8990 C   0  0  0  0  0
   31.2330   13.2110    1.3160 N   0  0  0  0  0
   33.4260   11.5760    2.4580 Cl  0  0  0  0  0
   34.3410   16.6540   -0.8360 Cl  0  0  0  0  0
   28.4380   13.2200   -0.7830 C   0  0  0  0  0
   32.4270   13.6930    1.0510 C   0  0  0  0  0
   28.4380   12.5850   -4.2970 N   0  0  0  0  0
   29.7420   13.6660   -0.5710 C   0  0  0  0  0
   33.5280   13.0010    1.5190 C   0  0  0  0  0
   34.9680   14.6950    0.4620 C   0  0  0  0  0
   27.1410   12.1850   -4.4820 C   0  0  0  0  0
   26.7090   11.8640   -5.7160 N   0  0  0  0  0
   34.7040   13.6410    1.2510 C   0  0  0  0  0
   26.2680   12.0320   -3.4790 N   0  0  0  0  0
   26.7170   12.3420   -2.2300 C   0  0  0  0  0
   25.7880   12.1880   -1.2800 N   0  0  0  0  0
   27.9900   12.8720   -2.0440 C   0  0  0  0  0
   33.8790   15.3230    0.0420 C   0  0  0  0  0
   32.5800   14.8720    0.2970 C   0  0  0  0  0
   30.5860   13.7620   -1.6700 C   0  0  0  0  0
   30.1680   13.3910   -2.8780 N   0  0  0  0  0
   28.9110   12.9330   -3.0590 C   0  0  0  0  0
   30.3214   15.0499    0.9892 H   0  0  0  0  0
   29.2355   13.7427    1.5320 H   0  0  0  0  0
   31.1185   12.3198    1.7987 H   0  0  0  0  0
   27.7565   13.1440    0.0643 H   0  0  0  0  0
   35.9783   15.0037    0.1934 H   0  0  0  0  0
   27.3469   11.9190   -6.5100 H   0  0  0  0  0
   25.7438   11.5658   -5.8569 H   0  0  0  0  0
   35.5731   13.2275    1.7627 H   0  0  0  0  0
   24.8525   11.8667   -1.5288 H   0  0  0  0  0
   26.0151   12.3919   -0.3067 H   0  0  0  0  0
   31.7128   15.4165   -0.0765 H   0  0  0  0  0
   31.5987   14.1442   -1.5421 H   0  0  0  0  0
  1  2  1  0  0  0
  8  1  1  0  0  0
  2  6  1  0  0  0
  9  3  1  0  0  0
 18  4  1  0  0  0
  5  8  4  0  0  0
 17  5  4  0  0  0
  6  9  4  0  0  0
  6 19  4  0  0  0
 11  7  4  0  0  0
  7 22  4  0  0  0
  8 20  4  0  0  0
  9 13  4  0  0  0
 13 10  4  0  0  0
 10 18  4  0  0  0
 11 12  1  0  0  0
 14 11  4  0  0  0
 15 14  4  0  0  0
 15 16  1  0  0  0
 15 17  4  0  0  0
 17 22  4  0  0  0
 18 19  4  0  0  0
 20 21  4  0  0  0
 21 22  4  0  0  0
  1 23  1  0  0  0
  1 24  1  0  0  0
  2 25  1  0  0  0
  5 26  1  0  0  0
 10 27  1  0  0  0
 12 28  1  0  0  0
 12 29  1  0  0  0
 13 30  1  0  0  0
 16 31  1  0  0  0
 16 32  1  0  0  0
 19 33  1  0  0  0
 20 34  1  0  0  0
M  END
$$$$
