2w1c_ligand
  -I-interpret- 

 51 55  0  0  0  0  0  0  0  0999 V2000
    8.2320   28.0410    0.9670 F   0  0  0  0  0
    7.6790   28.2390    2.1790 C   0  0  0  0  0
    7.2850   29.5100    2.5350 C   0  0  0  0  0
    6.7180   29.7170    3.7750 C   0  0  0  0  0
    6.5460   28.6450    4.6610 C   0  0  0  0  0
    6.9550   27.3650    4.2790 C   0  0  0  0  0
    7.5210   27.1640    3.0360 C   0  0  0  0  0
    5.9350   28.8770    6.0060 C   0  0  0  0  0
    5.9010   27.9960    6.8440 O   0  0  0  0  0
    5.4400   30.1110    6.2180 N   0  0  0  0  0
    4.9940   30.6220    7.3960 C   0  0  0  0  0
    5.2970   30.2530    8.6510 C   0  0  0  0  0
    4.6070   31.0620    9.4760 N   0  0  0  0  0
    3.8600   31.9520    8.7920 N   0  0  0  0  0
    4.1040   31.6830    7.5180 C   0  0  0  0  0
    3.4470   32.4560    6.4890 C   0  0  0  0  0
    3.7560   32.4690    5.1890 N   0  0  0  0  0
    2.8780   33.3290    4.5670 C   0  0  0  0  0
    2.7460   33.7180    3.2450 C   0  0  0  0  0
    1.7590   34.6160    2.8800 C   0  0  0  0  0
    0.8880   35.1420    3.8380 C   0  0  0  0  0
   -0.2070   36.1130    3.4610 C   0  0  0  0  0
    0.2640   37.3580    2.7690 N   0  3  0  0  0
   -0.8890   38.1610    2.2580 C   0  0  0  0  0
   -0.3830   39.4270    1.5880 C   0  0  0  0  0
    0.5230   39.1190    0.5140 O   0  0  0  0  0
    1.6480   38.3630    1.0030 C   0  0  0  0  0
    1.2000   37.0610    1.6460 C   0  0  0  0  0
    1.0360   34.7350    5.1580 C   0  0  0  0  0
    2.0230   33.8390    5.5220 C   0  0  0  0  0
    2.3950   33.2810    6.7000 N   0  0  0  0  0
    7.4198   30.3426    1.8446 H   0  0  0  0  0
    6.4023   30.7186    4.0671 H   0  0  0  0  0
    6.8273   26.5253    4.9621 H   0  0  0  0  0
    7.8407   26.1672    2.7322 H   0  0  0  0  0
    5.3948   30.7288    5.4076 H   0  0  0  0  0
    5.9734   29.4506    8.9456 H   0  0  0  0  0
    3.4214   33.3158    2.4899 H   0  0  0  0  0
    1.6599   34.9157    1.8367 H   0  0  0  0  0
   -0.6825   36.4287    4.3896 H   0  0  0  0  0
   -0.8635   35.5931    2.7632 H   0  0  0  0  0
    0.7696   37.9014    3.4686 H   0  0  0  0  0
   -1.5364   38.4307    3.0924 H   0  0  0  0  0
   -1.4453   37.5683    1.5318 H   0  0  0  0  0
    0.1461   40.0259    2.3293 H   0  0  0  0  0
   -1.2355   39.9698    1.1798 H   0  0  0  0  0
    2.1678   38.9596    1.7527 H   0  0  0  0  0
    2.3006   38.1284    0.1620 H   0  0  0  0  0
    0.6932   36.4445    0.9037 H   0  0  0  0  0
    2.0694   36.5267    2.0290 H   0  0  0  0  0
    0.3625   35.1289    5.9191 H   0  0  0  0  0
  1  2  1  0  0  0
  2  3  4  0  0  0
  2  7  4  0  0  0
  3  4  4  0  0  0
  4  5  4  0  0  0
  5  6  4  0  0  0
  5  8  1  0  0  0
  6  7  4  0  0  0
  8  9  2  0  0  0
  8 10  1  0  0  0
 10 11  1  0  0  0
 11 12  4  0  0  0
 11 15  4  0  0  0
 12 13  4  0  0  0
 13 14  4  0  0  0
 14 15  4  0  0  0
 15 16  1  0  0  0
 16 17  4  0  0  0
 16 31  4  0  0  0
 17 18  4  0  0  0
 18 19  4  0  0  0
 18 30  4  0  0  0
 19 20  4  0  0  0
 20 21  4  0  0  0
 21 22  1  0  0  0
 21 29  4  0  0  0
 22 23  1  0  0  0
 23 24  1  0  0  0
 23 28  1  0  0  0
 24 25  1  0  0  0
 25 26  1  0  0  0
 26 27  1  0  0  0
 27 28  1  0  0  0
 29 30  4  0  0  0
 30 31  4  0  0  0
  3 32  1  0  0  0
  4 33  1  0  0  0
  6 34  1  0  0  0
  7 35  1  0  0  0
 10 36  1  0  0  0
 12 37  1  0  0  0
 19 38  1  0  0  0
 20 39  1  0  0  0
 22 40  1  0  0  0
 22 41  1  0  0  0
 23 42  1  0  0  0
 24 43  1  0  0  0
 24 44  1  0  0  0
 25 45  1  0  0  0
 25 46  1  0  0  0
 27 47  1  0  0  0
 27 48  1  0  0  0
 28 49  1  0  0  0
 28 50  1  0  0  0
 29 51  1  0  0  0
M  END
$$$$
