2xye_ligand
  -I-interpret- 

107109  0  0  0  0  0  0  0  0999 V2000
   13.1970   23.5400    5.0280 C   0  0  0  0  0
   10.6860   24.2160    5.6020 C   0  0  0  0  0
   10.3950   23.2330    6.2920 O   0  0  0  0  0
    9.9920   25.3750    5.6420 N   0  0  0  0  0
    8.7460   25.7570    6.4860 C   0  0  0  0  0
    8.9740   26.3380    8.0220 C   0  0  0  0  0
    9.7680   27.6550    8.0530 C   0  0  0  0  0
    7.6150   26.6570    8.7410 C   0  0  0  0  0
    9.7570   25.3520    8.8960 C   0  0  0  0  0
    7.9630   26.7340    5.6300 C   0  0  0  0  0
    8.3490   27.8220    5.1970 O   0  0  0  0  0
    6.7300   26.1980    5.4040 N   0  0  0  0  0
   11.3300   23.4990    3.2570 C   0  0  0  0  0
    9.9750   24.0630    2.7090 C   0  0  0  0  0
    8.7500   23.2810    2.9220 C   0  0  0  0  0
    7.4770   23.7770    2.4380 C   0  0  0  0  0
    7.4090   25.0520    1.7400 C   0  0  0  0  0
    8.6170   25.8280    1.5250 C   0  0  0  0  0
    9.8920   25.3340    2.0090 C   0  0  0  0  0
   12.2780   25.5200    4.2370 O   0  0  0  0  0
   15.2250   23.7030    6.5960 C   0  0  0  0  0
   15.3430   22.3930    7.1420 N   0  3  0  0  0
   15.9450   21.4810    6.0940 N   0  0  0  0  0
   15.2770   20.4460    5.5630 C   0  0  0  0  0
   14.1020   20.1620    5.8940 O   0  0  0  0  0
   16.0370   19.6210    4.5190 C   0  0  0  0  0
   15.3450   18.7360    3.4170 C   0  0  0  0  0
   16.4320   18.0770    2.5610 C   0  0  0  0  0
   14.5100   19.5470    2.4460 C   0  0  0  0  0
   14.5230   17.5970    4.0130 C   0  0  0  0  0
   16.8460   18.8330    5.4870 N   0  0  0  0  0
   18.1720   18.9470    5.6570 C   0  0  0  0  0
   18.9430   19.7040    5.0620 O   0  0  0  0  0
   18.5870   18.0410    6.6580 O   0  0  0  0  0
   19.3220   16.8740    6.2620 C   0  0  0  0  0
   16.2060   22.3900    8.3090 C   0  0  0  0  0
   16.4120   21.0240    8.9890 C   0  0  0  0  0
   15.2500   20.2360    9.3820 C   0  0  0  0  0
   15.4270   18.9500   10.0210 C   0  0  0  0  0
   17.7580   20.5230    9.2320 C   0  0  0  0  0
   17.9410   19.2230    9.8800 C   0  0  0  0  0
   16.7700   18.4440   10.2720 C   0  0  0  0  0
   16.8600   17.0770   10.9610 C   0  0  0  0  0
   16.7560   15.8200   10.2360 C   0  0  0  0  0
   11.8670   24.1950    4.5810 C   0  0  0  0  0
   16.8430   14.5410   10.9370 C   0  0  0  0  0
    5.6440   26.8010    4.6200 C   0  0  0  0  0
   17.0330   14.5120   12.3770 C   0  0  0  0  0
   13.7550   24.0280    6.3920 C   0  0  0  0  0
   17.1400   15.7500   13.1160 C   0  0  0  0  0
   17.0550   17.0290   12.4130 C   0  0  0  0  0
   13.9410   23.8023    4.2758 H   0  0  0  0  0
   12.9974   22.4740    5.1371 H   0  0  0  0  0
   10.3390   26.1093    5.0249 H   0  0  0  0  0
    8.2206   24.8289    6.7111 H   0  0  0  0  0
    9.2081   28.4278    7.5263 H   0  0  0  0  0
    9.9243   27.9593    9.0879 H   0  0  0  0  0
   10.7323   27.5079    7.5666 H   0  0  0  0  0
    7.8133   26.9811    9.7626 H   0  0  0  0  0
    7.0971   27.4496    8.2010 H   0  0  0  0  0
    6.9946   25.7609    8.7567 H   0  0  0  0  0
   10.7576   25.2190    8.4845 H   0  0  0  0  0
    9.8291   25.7453    9.9100 H   0  0  0  0  0
    9.2393   24.3930    8.9128 H   0  0  0  0  0
    6.5427   25.2863    5.8214 H   0  0  0  0  0
   12.0782   23.6769    2.4845 H   0  0  0  0  0
   11.1563   22.4514    3.5027 H   0  0  0  0  0
    8.7984   22.3259    3.4450 H   0  0  0  0  0
    6.5696   23.1943    2.5970 H   0  0  0  0  0
    6.4506   25.4246    1.3784 H   0  0  0  0  0
    8.5658   26.7818    0.9999 H   0  0  0  0  0
   10.7958   25.9211    1.8463 H   0  0  0  0  0
   12.6080   25.9651    5.0209 H   0  0  0  0  0
   15.7462   23.7493    5.6398 H   0  0  0  0  0
   15.6681   24.4262    7.2807 H   0  0  0  0  0
   14.4155   22.0713    7.4189 H   0  0  0  0  0
   16.8982   21.6611    5.7786 H   0  0  0  0  0
   16.4977   20.2721    3.7761 H   0  0  0  0  0
   17.0389   18.8495    2.0887 H   0  0  0  0  0
   17.0633   17.4537    3.1943 H   0  0  0  0  0
   15.9642   17.4607    1.7933 H   0  0  0  0  0
   13.7256   20.0705    2.9926 H   0  0  0  0  0
   15.1467   20.2717    1.9386 H   0  0  0  0  0
   14.0594   18.8799    1.7111 H   0  0  0  0  0
   15.1734   16.9513    4.6031 H   0  0  0  0  0
   13.7422   18.0097    4.6518 H   0  0  0  0  0
   14.0683   17.0191    3.2084 H   0  0  0  0  0
   16.3544   18.1529    6.0668 H   0  0  0  0  0
   18.7154   16.2782    5.5800 H   0  0  0  0  0
   20.2414   17.1777    5.7615 H   0  0  0  0  0
   19.5656   16.2827    7.1447 H   0  0  0  0  0
   15.7257   23.0315    9.0478 H   0  0  0  0  0
   17.1886   22.7132    7.9652 H   0  0  0  0  0
   14.2460   20.6164    9.1941 H   0  0  0  0  0
   14.5577   18.3612   10.3139 H   0  0  0  0  0
   18.6244   21.1129    8.9330 H   0  0  0  0  0
   18.9438   18.8396   10.0684 H   0  0  0  0  0
   16.6113   15.8325    9.1557 H   0  0  0  0  0
   16.7653   13.6078   10.3791 H   0  0  0  0  0
    5.3652   27.7570    5.0632 H   0  0  0  0  0
    5.9813   26.9585    3.5956 H   0  0  0  0  0
    4.7824   26.1333    4.6216 H   0  0  0  0  0
   17.0948   13.5576   12.8999 H   0  0  0  0  0
   13.1948   23.5190    7.1764 H   0  0  0  0  0
   13.6523   25.1128    6.4190 H   0  0  0  0  0
   17.2839   15.7298   14.1963 H   0  0  0  0  0
   17.1377   17.9588   12.9758 H   0  0  0  0  0
  1 45  1  0  0  0
 49  1  1  0  0  0
  2  3  2  0  0  0
  2  4  1  0  0  0
 45  2  1  0  0  0
  4  5  1  0  0  0
  5  6  1  0  0  0
  5 10  1  0  0  0
  6  7  1  0  0  0
  6  8  1  0  0  0
  6  9  1  0  0  0
 10 11  2  0  0  0
 10 12  1  0  0  0
 12 47  1  0  0  0
 13 14  1  0  0  0
 45 13  1  0  0  0
 14 15  4  0  0  0
 14 19  4  0  0  0
 15 16  4  0  0  0
 16 17  4  0  0  0
 18 17  4  0  0  0
 19 18  4  0  0  0
 45 20  1  0  0  0
 21 22  1  0  0  0
 21 49  1  0  0  0
 22 23  1  0  0  0
 22 36  1  0  0  0
 23 24  1  0  0  0
 24 25  2  0  0  0
 24 26  1  0  0  0
 26 27  1  0  0  0
 26 31  1  0  0  0
 27 28  1  0  0  0
 27 29  1  0  0  0
 27 30  1  0  0  0
 31 32  1  0  0  0
 32 33  2  0  0  0
 32 34  1  0  0  0
 34 35  1  0  0  0
 36 37  1  0  0  0
 37 38  4  0  0  0
 37 40  4  0  0  0
 38 39  4  0  0  0
 39 42  4  0  0  0
 40 41  4  0  0  0
 41 42  4  0  0  0
 42 43  1  0  0  0
 43 44  4  0  0  0
 43 51  4  0  0  0
 44 46  4  0  0  0
 46 48  4  0  0  0
 48 50  4  0  0  0
 50 51  4  0  0  0
  1 52  1  0  0  0
  1 53  1  0  0  0
  4 54  1  0  0  0
  5 55  1  0  0  0
  7 56  1  0  0  0
  7 57  1  0  0  0
  7 58  1  0  0  0
  8 59  1  0  0  0
  8 60  1  0  0  0
  8 61  1  0  0  0
  9 62  1  0  0  0
  9 63  1  0  0  0
  9 64  1  0  0  0
 12 65  1  0  0  0
 13 66  1  0  0  0
 13 67  1  0  0  0
 15 68  1  0  0  0
 16 69  1  0  0  0
 17 70  1  0  0  0
 18 71  1  0  0  0
 19 72  1  0  0  0
 20 73  1  0  0  0
 21 74  1  0  0  0
 21 75  1  0  0  0
 22 76  1  0  0  0
 23 77  1  0  0  0
 26 78  1  0  0  0
 28 79  1  0  0  0
 28 80  1  0  0  0
 28 81  1  0  0  0
 29 82  1  0  0  0
 29 83  1  0  0  0
 29 84  1  0  0  0
 30 85  1  0  0  0
 30 86  1  0  0  0
 30 87  1  0  0  0
 31 88  1  0  0  0
 35 89  1  0  0  0
 35 90  1  0  0  0
 35 91  1  0  0  0
 36 92  1  0  0  0
 36 93  1  0  0  0
 38 94  1  0  0  0
 39 95  1  0  0  0
 40 96  1  0  0  0
 41 97  1  0  0  0
 44 98  1  0  0  0
 46 99  1  0  0  0
 47100  1  0  0  0
 47101  1  0  0  0
 47102  1  0  0  0
 48103  1  0  0  0
 49104  1  0  0  0
 49105  1  0  0  0
 50106  1  0  0  0
 51107  1  0  0  0
M  END
$$$$
