2nta_ligand
  -I-interpret- 

 29 31  0  0  0  0  0  0  0  0999 V2000
   29.3880  -32.5530    1.0090 C   0  0  0  0  0
   30.6440  -33.1950    0.8630 C   0  0  0  0  0
   31.6890  -32.5660    0.1400 C   0  0  0  0  0
   31.5080  -31.2850   -0.4540 C   0  0  0  0  0
   30.2240  -30.6420   -0.2950 C   0  0  0  0  0
   29.1760  -31.2740    0.4320 C   0  0  0  0  0
   32.6380  -30.6330   -1.1980 C   0  0  0  0  0
   34.4570  -28.5230   -3.7480 N   0  0  0  0  0
   35.2790  -27.4970   -5.8570 N   0  0  0  0  0
   34.0330  -29.3960   -2.6930 C   0  0  0  0  0
   32.6840  -29.8010   -2.3520 C   0  0  0  0  0
   34.9290  -29.9600   -1.7990 C   0  0  0  0  0
   34.2240  -30.9190   -0.5970 S   0  0  0  0  0
   34.4820  -27.0380   -3.6310 C   0  0  0  0  0
   34.9910  -26.4730   -4.9340 C   0  0  0  0  0
   35.1320  -25.2890   -5.1600 O   0  0  0  0  0
   34.9860  -29.0670   -5.2940 S   0  0  0  0  0
   36.2560  -29.7620   -5.1660 O   0  0  0  0  0
   33.8730  -29.6300   -6.0370 O   0  0  0  0  0
   31.3030  -29.3360   -3.2630 Cl  0  0  0  0  0
   28.5866  -33.0412    1.5636 H   0  0  0  0  0
   30.8068  -34.1764    1.3086 H   0  0  0  0  0
   32.6486  -33.0726    0.0371 H   0  0  0  0  0
   30.0556  -29.6602   -0.7375 H   0  0  0  0  0
   28.2127  -30.7766    0.5452 H   0  0  0  0  0
   35.6368  -27.3074   -6.7932 H   0  0  0  0  0
   36.0049  -29.7982   -1.8652 H   0  0  0  0  0
   35.1340  -26.7369   -2.8110 H   0  0  0  0  0
   33.4805  -26.6608   -3.4240 H   0  0  0  0  0
  2  1  4  0  0  0
  6  1  4  0  0  0
  3  2  4  0  0  0
  4  3  4  0  0  0
  4  5  4  0  0  0
  7  4  1  0  0  0
  5  6  4  0  0  0
 11  7  4  0  0  0
  7 13  4  0  0  0
 10  8  1  0  0  0
  8 14  1  0  0  0
  8 17  1  0  0  0
  9 15  1  0  0  0
 17  9  1  0  0  0
 10 11  4  0  0  0
 10 12  4  0  0  0
 11 20  1  0  0  0
 12 13  4  0  0  0
 14 15  1  0  0  0
 15 16  2  0  0  0
 17 18  2  0  0  0
 17 19  2  0  0  0
  1 21  1  0  0  0
  2 22  1  0  0  0
  3 23  1  0  0  0
  5 24  1  0  0  0
  6 25  1  0  0  0
  9 26  1  0  0  0
 12 27  1  0  0  0
 14 28  1  0  0  0
 14 29  1  0  0  0
M  END
$$$$
