### 
### Created by X-TOOL on Mon Sep 10 21:13:27 2018
### 

@<TRIPOS>MOLECULE
5heb_ligand
  103   102     1     0     0
SMALL
GAST_HUCK


@<TRIPOS>ATOM
      1 N          38.8490   43.5490   26.7180 N.4       1 ASN         0.2377
      2 CA         39.2050   44.9470   26.5060 C.3       1 ASN         0.0621
      3 C          39.9810   45.1430   25.2080 C.2       1 ASN         0.2264
      4 O          40.8400   44.3390   24.8580 O.2       1 ASN        -0.3907
      5 CB         40.0250   45.4760   27.6830 C.3       1 ASN        -0.0040
      6 N          39.6590   46.2130   24.4920 N.am      1 TYR        -0.2613
      7 CA         40.3660   46.5590   23.2760 C.3       1 TYR         0.1283
      8 C          39.9800   48.0290   22.8470 C.2       1 TYR         0.2036
      9 O          40.8310   48.6670   22.2240 O.2       1 TYR        -0.3944
     10 CB         40.0220   45.5880   22.1500 C.3       1 TYR        -0.0244
     11 N          38.8080   48.7290   22.9290 N.am      1 LYS        -0.2637
     12 CA         38.4560   49.9400   22.1850 C.3       1 LYS         0.1310
     13 C          39.1450   51.1600   22.7670 C.2       1 LYS         0.2039
     14 O          39.3130   51.2530   23.9750 O.2       1 LYS        -0.3944
     15 CB         36.9440   50.1550   22.2200 C.3       1 LYS        -0.0122
     16 CG         36.1300   49.0270   21.6120 C.3       1 LYS        -0.0440
     17 CD         34.6460   49.2160   21.8750 C.3       1 LYS        -0.0124
     18 CE         33.9380   47.8920   22.1270 C.3       1 LYS        -0.0354
     19 NZ         32.6050   47.8380   21.4660 N.4       1 LYS         0.2185
     20 N          39.5160   52.1030   21.9120 N.am      1 GLN        -0.2636
     21 CA         40.0560   53.3700   22.3850 C.3       1 GLN         0.1330
     22 C          39.6460   54.5330   21.4840 C.2       1 GLN         0.2041
     23 O          39.6530   54.4220   20.2690 O.2       1 GLN        -0.3944
     24 CB         41.5740   53.2850   22.5180 C.3       1 GLN         0.0045
     25 CG         42.1750   54.4720   23.2360 C.3       1 GLN         0.0412
     26 CD         43.4630   54.1610   23.9690 C.2       1 GLN         0.1737
     27 OE1        44.1830   55.0600   24.3510 O.2       1 GLN        -0.3973
     28 NE2        43.7610   52.8870   24.1470 N.am      1 GLN        -0.3009
     29 N          39.1910   55.6130   22.1020 N.am      1 THR        -0.2613
     30 CA         38.6610   56.7450   21.3580 C.3       1 THR         0.1565
     31 C          39.2290   58.0700   21.8560 C.2       1 THR         0.2065
     32 O          39.3020   58.3190   23.0590 O.2       1 THR        -0.3943
     33 CB         37.1150   56.8000   21.4550 C.3       1 THR         0.0924
     34 OG1        36.5390   55.5560   21.0090 O.3       1 THR        -0.3874
     35 CG2        36.5660   57.9460   20.6180 C.3       1 THR        -0.0346
     36 N          39.6340   58.9240   20.9240 N.am      1 SER        -0.2615
     37 CA         40.0950   60.2550   21.2760 C.3       1 SER         0.1539
     38 C          38.8910   61.2030   21.3370 C.2       1 SER         0.2056
     39 O          38.0630   61.2230   20.4130 O.2       1 SER        -0.3943
     40 CB         41.1380   60.7400   20.2640 C.3       1 SER         0.0843
     41 OG         40.5980   60.7720   18.9530 O.3       1 SER        -0.3903
     42 N          38.7940   61.9710   22.4220 N.am      1 VAL        -0.2692
     43 CA         37.6840   62.8980   22.6350 C.3       1 VAL         0.0967
     44 C          38.1930   64.3070   22.8860 C.2       1 VAL         0.0603
     45 O          37.3860   65.2410   22.9560 O.co2     1 VAL        -0.5666
     46 CB         36.7850   62.4510   23.8070 C.3       1 VAL        -0.0118
     47 CG1        36.2230   61.0710   23.5500 C.3       1 VAL        -0.0590
     48 CG2        37.5530   62.4710   25.1320 C.3       1 VAL        -0.0590
     49 OXT        39.3940   64.5430   23.0420 O.co2     1 VAL        -0.5666
     50 H1         38.3389   43.4596   27.5828 H         1 ASN         0.2015
     51 H2         39.6878   42.9918   26.7636 H         1 ASN         0.2015
     52 H3         38.2742   43.2291   25.9543 H         1 ASN         0.2015
     53 H4         38.2741   45.5294   26.4409 H         1 ASN         0.1095
     54 H5         40.2837   46.5303   27.5052 H         1 ASN         0.0310
     55 H6         40.9468   44.8842   27.7831 H         1 ASN         0.0310
     56 H7         39.4345   45.3943   28.6075 H         1 ASN         0.0310
     57 H8         38.9077   46.7964   24.8004 H         1 TYR         0.1884
     58 H9         41.4482   46.5114   23.4674 H         1 TYR         0.0797
     59 H10        40.5708   45.8725   21.2401 H         1 TYR         0.0277
     60 H11        38.9405   45.6241   21.9522 H         1 TYR         0.0277
     61 H12        40.3068   44.5676   22.4460 H         1 TYR         0.0277
     62 H13        38.1196   48.3771   23.5632 H         1 LYS         0.1883
     63 H14        38.7767   49.8162   21.1401 H         1 LYS         0.0800
     64 H15        36.7161   51.0786   21.6677 H         1 LYS         0.0312
     65 H16        36.6383   50.2709   23.2703 H         1 LYS         0.0312
     66 H17        36.4537   48.0728   22.0532 H         1 LYS         0.0269
     67 H18        36.3018   49.0057   20.5257 H         1 LYS         0.0269
     68 H19        34.1894   49.7019   21.0001 H         1 LYS         0.0317
     69 H20        34.5210   49.8592   22.7585 H         1 LYS         0.0317
     70 H21        33.8024   47.7623   23.2109 H         1 LYS         0.0813
     71 H22        34.5620   47.0753   21.7352 H         1 LYS         0.0813
     72 H23        32.1711   46.9484   21.6569 H         1 LYS         0.1994
     73 H24        32.7187   47.9497   20.4707 H         1 LYS         0.1994
     74 H25        32.0226   48.5793   21.8230 H         1 LYS         0.1994
     75 H26        39.4238   51.9421   20.9294 H         1 GLN         0.1883
     76 H27        39.6391   53.5603   23.3850 H         1 GLN         0.0801
     77 H28        42.0109   53.2279   21.5101 H         1 GLN         0.0337
     78 H29        41.8255   52.3728   23.0789 H         1 GLN         0.0337
     79 H30        41.4413   54.8415   23.9675 H         1 GLN         0.0504
     80 H31        42.3804   55.2575   22.4938 H         1 GLN         0.0504
     81 H32        44.6013   52.6322   24.6256 H         1 GLN         0.1814
     82 H33        43.1464   52.1770   23.8032 H         1 GLN         0.1814
     83 H34        39.2124   55.6507   23.1011 H         1 THR         0.1884
     84 H35        38.9429   56.6199   20.3021 H         1 THR         0.0826
     85 H36        36.8349   56.9638   22.5060 H         1 THR         0.0639
     86 H37        36.8588   54.8468   21.5543 H         1 THR         0.2101
     87 H38        35.4693   57.9675   20.7003 H         1 THR         0.0257
     88 H39        36.8519   57.8013   19.5657 H         1 THR         0.0257
     89 H40        36.9798   58.8976   20.9829 H         1 THR         0.0257
     90 H41        39.6214   58.6460   19.9635 H         1 SER         0.1884
     91 H42        40.5651   60.2182   22.2698 H         1 SER         0.0823
     92 H43        42.0004   60.0574   20.2811 H         1 SER         0.0606
     93 H44        41.4660   61.7523   20.5426 H         1 SER         0.0606
     94 H45        41.2624   61.0752   18.3454 H         1 SER         0.2097
     95 H46        39.5093   61.9106   23.1183 H         1 VAL         0.1875
     96 H47        37.0731   62.9098   21.7203 H         1 VAL         0.0729
     97 H48        35.9459   63.1579   23.8846 H         1 VAL         0.0336
     98 H49        35.5862   60.7712   24.3953 H         1 VAL         0.0234
     99 H50        37.0492   60.3531   23.4407 H         1 VAL         0.0234
    100 H51        35.6247   61.0848   22.6271 H         1 VAL         0.0234
    101 H52        37.9562   63.4794   25.3069 H         1 VAL         0.0234
    102 H53        38.3807   61.7479   25.0870 H         1 VAL         0.0234
    103 H54        36.8737   62.2002   25.9537 H         1 VAL         0.0234
@<TRIPOS>BOND
     1    1    2 1  
     2    2    3 1  
     3    2    5 1  
     4    3    4 2  
     5    3    6 am 
     6    6    7 1  
     7    7    8 1  
     8    7   10 1  
     9    8    9 2  
    10    8   11 am 
    11   11   12 1  
    12   12   13 1  
    13   12   15 1  
    14   13   14 2  
    15   13   20 am 
    16   15   16 1  
    17   16   17 1  
    18   17   18 1  
    19   18   19 1  
    20   20   21 1  
    21   21   22 1  
    22   21   24 1  
    23   22   23 2  
    24   22   29 am 
    25   24   25 1  
    26   25   26 1  
    27   26   27 2  
    28   26   28 am 
    29   29   30 1  
    30   30   31 1  
    31   30   33 1  
    32   31   32 2  
    33   31   36 am 
    34   33   34 1  
    35   33   35 1  
    36   36   37 1  
    37   37   38 1  
    38   37   40 1  
    39   38   39 2  
    40   38   42 am 
    41   40   41 1  
    42   42   43 1  
    43   43   44 1  
    44   43   46 1  
    45   44   45 ar 
    46   44   49 ar 
    47   46   47 1  
    48   46   48 1  
    49    1   50 1  
    50    1   51 1  
    51    1   52 1  
    52    2   53 1  
    53    5   54 1  
    54    5   55 1  
    55    5   56 1  
    56    6   57 1  
    57    7   58 1  
    58   10   59 1  
    59   10   60 1  
    60   10   61 1  
    61   11   62 1  
    62   12   63 1  
    63   15   64 1  
    64   15   65 1  
    65   16   66 1  
    66   16   67 1  
    67   17   68 1  
    68   17   69 1  
    69   18   70 1  
    70   18   71 1  
    71   19   72 1  
    72   19   73 1  
    73   19   74 1  
    74   20   75 1  
    75   21   76 1  
    76   24   77 1  
    77   24   78 1  
    78   25   79 1  
    79   25   80 1  
    80   28   81 1  
    81   28   82 1  
    82   29   83 1  
    83   30   84 1  
    84   33   85 1  
    85   34   86 1  
    86   35   87 1  
    87   35   88 1  
    88   35   89 1  
    89   36   90 1  
    90   37   91 1  
    91   40   92 1  
    92   40   93 1  
    93   41   94 1  
    94   42   95 1  
    95   43   96 1  
    96   46   97 1  
    97   47   98 1  
    98   47   99 1  
    99   47  100 1  
   100   48  101 1  
   101   48  102 1  
   102   48  103 1  
@<TRIPOS>SUBSTRUCTURE
     1 ASN         1

