5heb_ligand
  -I-interpret- 

104103  0  0  0  0  0  0  0  0999 V2000
   38.8490   43.5490   26.7180 N   0  3  0  0  0
   39.2050   44.9470   26.5060 C   0  0  0  0  0
   39.9810   45.1430   25.2080 C   0  0  0  0  0
   40.8400   44.3390   24.8580 O   0  0  0  0  0
   40.0250   45.4760   27.6830 C   0  0  0  0  0
   39.6590   46.2130   24.4920 N   0  0  0  0  0
   40.3660   46.5590   23.2760 C   0  0  0  0  0
   39.9800   48.0290   22.8470 C   0  0  0  0  0
   40.8310   48.6670   22.2240 O   0  0  0  0  0
   40.0220   45.5880   22.1500 C   0  0  0  0  0
   38.8080   48.7290   22.9290 N   0  0  0  0  0
   38.4560   49.9400   22.1850 C   0  0  0  0  0
   39.1450   51.1600   22.7670 C   0  0  0  0  0
   39.3130   51.2530   23.9750 O   0  0  0  0  0
   36.9440   50.1550   22.2200 C   0  0  0  0  0
   36.1300   49.0270   21.6120 C   0  0  0  0  0
   34.6460   49.2160   21.8750 C   0  0  0  0  0
   33.9380   47.8920   22.1270 C   0  0  0  0  0
   32.6050   47.8380   21.4660 N   0  3  0  0  0
   39.5160   52.1030   21.9120 N   0  0  0  0  0
   40.0560   53.3700   22.3850 C   0  0  0  0  0
   39.6460   54.5330   21.4840 C   0  0  0  0  0
   39.6530   54.4220   20.2690 O   0  0  0  0  0
   41.5740   53.2850   22.5180 C   0  0  0  0  0
   42.1750   54.4720   23.2360 C   0  0  0  0  0
   43.4630   54.1610   23.9690 C   0  0  0  0  0
   44.1830   55.0600   24.3510 O   0  0  0  0  0
   43.7610   52.8870   24.1470 N   0  0  0  0  0
   39.1910   55.6130   22.1020 N   0  0  0  0  0
   38.6610   56.7450   21.3580 C   0  0  0  0  0
   39.2290   58.0700   21.8560 C   0  0  0  0  0
   39.3020   58.3190   23.0590 O   0  0  0  0  0
   37.1150   56.8000   21.4550 C   0  0  0  0  0
   36.5390   55.5560   21.0090 O   0  0  0  0  0
   36.5660   57.9460   20.6180 C   0  0  0  0  0
   39.6340   58.9240   20.9240 N   0  0  0  0  0
   40.0950   60.2550   21.2760 C   0  0  0  0  0
   38.8910   61.2030   21.3370 C   0  0  0  0  0
   38.0630   61.2230   20.4130 O   0  0  0  0  0
   41.1380   60.7400   20.2640 C   0  0  0  0  0
   40.5980   60.7720   18.9530 O   0  0  0  0  0
   38.7940   61.9710   22.4220 N   0  0  0  0  0
   37.6840   62.8980   22.6350 C   0  0  0  0  0
   38.1930   64.3070   22.8860 C   0  0  0  0  0
   37.3860   65.2410   22.9560 O   0  0  0  0  0
   36.7850   62.4510   23.8070 C   0  0  0  0  0
   36.2230   61.0710   23.5500 C   0  0  0  0  0
   37.5530   62.4710   25.1320 C   0  0  0  0  0
   39.3940   64.5430   23.0420 O   0  0  0  0  0
   38.3033   43.2142   25.9240 H   0  0  0  0  0
   39.6992   42.9925   26.8066 H   0  0  0  0  0
   38.2963   43.4658   27.5713 H   0  0  0  0  0
   38.2744   45.5096   26.4316 H   0  0  0  0  0
   40.9683   44.9329   27.7402 H   0  0  0  0  0
   40.2239   46.5378   27.5375 H   0  0  0  0  0
   39.4654   45.3332   28.6074 H   0  0  0  0  0
   38.8926   46.8081   24.8066 H   0  0  0  0  0
   41.4375   46.4967   23.4661 H   0  0  0  0  0
   38.9527   45.6362   21.9444 H   0  0  0  0  0
   40.5784   45.8615   21.2535 H   0  0  0  0  0
   40.2901   44.5752   22.4507 H   0  0  0  0  0
   38.1058   48.3700   23.5759 H   0  0  0  0  0
   38.7884   49.8074   21.1554 H   0  0  0  0  0
   36.7365   51.0492   21.6322 H   0  0  0  0  0
   36.6571   50.2241   23.2693 H   0  0  0  0  0
   36.4463   48.0871   22.0643 H   0  0  0  0  0
   36.2942   49.0214   20.5345 H   0  0  0  0  0
   34.2001   49.6786   20.9945 H   0  0  0  0  0
   34.5338   49.8369   22.7638 H   0  0  0  0  0
   33.7904   47.7834   23.2015 H   0  0  0  0  0
   34.5546   47.0922   21.7169 H   0  0  0  0  0
   32.1670   46.9375   21.6598 H   0  0  0  0  0
   32.0167   48.5885   21.8280 H   0  0  0  0  0
   32.7213   47.9512   20.4590 H   0  0  0  0  0
   39.4219   51.9388   20.9097 H   0  0  0  0  0
   39.6329   53.5655   23.3703 H   0  0  0  0  0
   41.9933   53.2598   21.5122 H   0  0  0  0  0
   41.8056   52.3937   23.1011 H   0  0  0  0  0
   41.4502   54.8002   23.9810 H   0  0  0  0  0
   42.4060   55.2235   22.4810 H   0  0  0  0  0
   44.6255   52.6270   24.6218 H   0  0  0  0  0
   43.1267   52.1629   23.8097 H   0  0  0  0  0
   39.2128   55.6515   23.1210 H   0  0  0  0  0
   38.9613   56.5998   20.3203 H   0  0  0  0  0
   36.8467   56.9644   22.4986 H   0  0  0  0  0
   35.5826   55.6057   21.0750 H   0  0  0  0  0
   36.9768   58.8883   20.9805 H   0  0  0  0  0
   36.8500   57.8015   19.5756 H   0  0  0  0  0
   35.4793   57.9663   20.7004 H   0  0  0  0  0
   39.6211   58.6405   19.9443 H   0  0  0  0  0
   40.5735   60.2346   22.2552 H   0  0  0  0  0
   41.9838   60.0526   20.2770 H   0  0  0  0  0
   41.4493   61.7479   20.5386 H   0  0  0  0  0
   41.2694   61.0784   18.3390 H   0  0  0  0  0
   39.5236   61.9094   23.1322 H   0  0  0  0  0
   37.0854   62.8936   21.7241 H   0  0  0  0  0
   36.4975   64.9060   22.8149 H   0  0  0  0  0
   35.9590   63.1583   23.8816 H   0  0  0  0  0
   35.6304   61.0860   22.6353 H   0  0  0  0  0
   37.0426   60.3606   23.4419 H   0  0  0  0  0
   35.5922   60.7751   24.3882 H   0  0  0  0  0
   38.4042   61.7932   25.0674 H   0  0  0  0  0
   37.9068   63.4828   25.3302 H   0  0  0  0  0
   36.8927   62.1512   25.9381 H   0  0  0  0  0
  1  2  1  0  0  0
  2  3  1  0  0  0
  2  5  1  0  0  0
  3  4  2  0  0  0
  3  6  1  0  0  0
  6  7  1  0  0  0
  7  8  1  0  0  0
  7 10  1  0  0  0
  8  9  2  0  0  0
  8 11  1  0  0  0
 11 12  1  0  0  0
 12 13  1  0  0  0
 12 15  1  0  0  0
 13 14  2  0  0  0
 13 20  1  0  0  0
 15 16  1  0  0  0
 16 17  1  0  0  0
 17 18  1  0  0  0
 18 19  1  0  0  0
 20 21  1  0  0  0
 21 22  1  0  0  0
 21 24  1  0  0  0
 22 23  2  0  0  0
 22 29  1  0  0  0
 24 25  1  0  0  0
 25 26  1  0  0  0
 26 27  2  0  0  0
 26 28  1  0  0  0
 29 30  1  0  0  0
 30 31  1  0  0  0
 30 33  1  0  0  0
 31 32  2  0  0  0
 31 36  1  0  0  0
 33 34  1  0  0  0
 33 35  1  0  0  0
 36 37  1  0  0  0
 37 38  1  0  0  0
 37 40  1  0  0  0
 38 39  2  0  0  0
 38 42  1  0  0  0
 40 41  1  0  0  0
 42 43  1  0  0  0
 43 44  1  0  0  0
 43 46  1  0  0  0
 44 45  1  0  0  0
 44 49  2  0  0  0
 46 47  1  0  0  0
 46 48  1  0  0  0
  1 50  1  0  0  0
  1 51  1  0  0  0
  1 52  1  0  0  0
  2 53  1  0  0  0
  5 54  1  0  0  0
  5 55  1  0  0  0
  5 56  1  0  0  0
  6 57  1  0  0  0
  7 58  1  0  0  0
 10 59  1  0  0  0
 10 60  1  0  0  0
 10 61  1  0  0  0
 11 62  1  0  0  0
 12 63  1  0  0  0
 15 64  1  0  0  0
 15 65  1  0  0  0
 16 66  1  0  0  0
 16 67  1  0  0  0
 17 68  1  0  0  0
 17 69  1  0  0  0
 18 70  1  0  0  0
 18 71  1  0  0  0
 19 72  1  0  0  0
 19 73  1  0  0  0
 19 74  1  0  0  0
 20 75  1  0  0  0
 21 76  1  0  0  0
 24 77  1  0  0  0
 24 78  1  0  0  0
 25 79  1  0  0  0
 25 80  1  0  0  0
 28 81  1  0  0  0
 28 82  1  0  0  0
 29 83  1  0  0  0
 30 84  1  0  0  0
 33 85  1  0  0  0
 34 86  1  0  0  0
 35 87  1  0  0  0
 35 88  1  0  0  0
 35 89  1  0  0  0
 36 90  1  0  0  0
 37 91  1  0  0  0
 40 92  1  0  0  0
 40 93  1  0  0  0
 41 94  1  0  0  0
 42 95  1  0  0  0
 43 96  1  0  0  0
 45 97  1  0  0  0
 46 98  1  0  0  0
 47 99  1  0  0  0
 47100  1  0  0  0
 47101  1  0  0  0
 48102  1  0  0  0
 48103  1  0  0  0
 48104  1  0  0  0
M  END
$$$$
