4yje_ligand
  -I-interpret- 

139138  0  0  0  0  0  0  0  0999 V2000
  -10.8100   -4.0970    1.2650 N   0  3  0  0  0
  -10.0660   -4.6810    2.4240 C   0  0  0  0  0
  -10.7360   -5.9510    2.9560 C   0  0  0  0  0
  -11.9450   -6.1490    2.7990 O   0  0  0  0  0
   -9.9290   -3.6570    3.5550 C   0  0  0  0  0
   -9.3680   -2.2660    3.2620 C   0  0  0  0  0
   -9.7360   -1.3410    4.3980 C   0  0  0  0  0
   -7.8570   -2.2710    3.0380 C   0  0  0  0  0
   -9.9340   -6.8010    3.5890 N   0  0  0  0  0
  -10.4100   -8.0620    4.1410 C   0  0  0  0  0
  -10.4090   -8.0420    5.6770 C   0  0  0  0  0
   -9.8340   -7.1470    6.3000 O   0  0  0  0  0
   -9.5970   -9.2710    3.5810 C   0  0  0  0  0
   -8.2020   -9.0880    3.8540 O   0  0  0  0  0
   -9.8020   -9.3990    2.0590 C   0  0  0  0  0
  -11.0940   -9.0120    6.2750 N   0  0  0  0  0
  -11.1570   -9.1690    7.7250 C   0  0  0  0  0
  -11.6000  -10.5840    8.0390 C   0  0  0  0  0
  -11.8790  -11.3610    7.1210 O   0  0  0  0  0
  -11.6700  -10.9270    9.3250 N   0  0  0  0  0
  -12.0200  -12.2930    9.7300 C   0  0  0  0  0
  -13.1230  -12.3850   10.7910 C   0  0  0  0  0
  -13.3300  -13.4470   11.3850 O   0  0  0  0  0
  -10.7770  -13.0560   10.2040 C   0  0  0  0  0
   -9.9570  -12.2640   11.6120 S   0  0  0  0  0
  -13.8440  -11.2950   11.0160 N   0  0  0  0  0
  -15.0140  -11.3570   11.8950 C   0  0  0  0  0
  -14.6600  -11.5490   13.3600 C   0  0  0  0  0
  -13.5380  -11.2320   13.7860 O   0  0  0  0  0
  -15.6320  -12.0620   14.1180 N   0  0  0  0  0
  -15.5170  -12.3070   15.5600 C   0  0  0  0  0
  -15.1840  -13.7670   15.8470 C   0  0  0  0  0
  -15.3700  -14.6460   14.9910 O   0  0  0  0  0
  -16.8420  -11.9890   16.2770 C   0  0  0  0  0
  -17.1860  -10.5160   16.2790 C   0  0  0  0  0
  -16.2570   -9.6740   16.2640 O   0  0  0  0  0
  -18.4060  -10.1970   16.3140 O   0  0  0  0  0
  -14.7400  -14.0250   17.0720 N   0  0  0  0  0
  -14.4550  -15.3900   17.5010 C   0  0  0  0  0
  -14.9740  -15.6450   18.9110 C   0  0  0  0  0
  -15.0700  -14.7280   19.7240 O   0  0  0  0  0
  -12.9400  -15.7310   17.3980 C   0  0  0  0  0
  -12.7410  -17.2570   17.3120 C   0  0  0  0  0
  -12.1280  -15.0560   18.5540 C   0  0  0  0  0
  -11.3210  -17.7140   17.0320 C   0  0  0  0  0
  -15.3350  -16.8990   19.1690 N   0  0  0  0  0
  -15.6920  -17.3660   20.5060 C   0  0  0  0  0
  -14.3860  -17.7690   21.1880 C   0  0  0  0  0
  -13.4060  -18.0750   20.5050 O   0  0  0  0  0
  -16.7150  -18.5390   20.4000 C   0  0  0  0  0
  -18.1180  -17.9950   20.0920 C   0  0  0  0  0
  -16.7550  -19.4100   21.6560 C   0  0  0  0  0
  -18.8610  -17.3710   21.3000 C   0  0  0  0  0
  -14.3710  -17.7540   22.5210 N   0  0  0  0  0
  -13.1750  -18.0780   23.2960 C   0  0  0  0  0
  -12.6980  -19.5120   23.0590 C   0  0  0  0  0
  -13.4960  -20.3970   22.7220 O   0  0  0  0  0
  -13.4420  -17.8620   24.7910 C   0  0  0  0  0
  -11.3910  -19.7130   23.2570 N   0  0  0  0  0
  -10.7410  -21.0330   23.2810 C   0  0  0  0  0
  -10.6290  -21.6370   21.8920 C   0  0  0  0  0
   -9.6510  -21.3880   21.1910 O   0  0  0  0  0
  -11.4340  -21.9880   24.2680 C   0  0  0  0  0
  -10.9500  -23.4410   24.2520 C   0  0  0  0  0
   -9.5890  -23.6360   24.9120 C   0  0  0  0  0
   -8.5750  -23.1340   24.3750 O   0  0  0  0  0
   -9.5310  -24.3110   25.9590 O   0  0  0  0  0
  -11.5160  -22.3750   21.4700 O   0  0  0  0  0
  -10.8885   -4.7957    0.5261 H   0  0  0  0  0
  -11.7421   -3.8148    1.5682 H   0  0  0  0  0
  -10.3049   -3.2837    0.9132 H   0  0  0  0  0
   -9.0747   -4.9501    2.0593 H   0  0  0  0  0
   -9.2083   -4.1028    4.2406 H   0  0  0  0  0
  -10.9523   -3.4747    3.8832 H   0  0  0  0  0
   -9.8104   -1.9140    2.3301 H   0  0  0  0  0
   -9.2448   -1.6762    5.3115 H   0  0  0  0  0
   -9.4111   -0.3282    4.1599 H   0  0  0  0  0
  -10.8167   -1.3534    4.5395 H   0  0  0  0  0
   -7.5238   -1.2623    2.7939 H   0  0  0  0  0
   -7.3576   -2.6104    3.9455 H   0  0  0  0  0
   -7.6152   -2.9439    2.2153 H   0  0  0  0  0
   -8.9480   -6.5612    3.6921 H   0  0  0  0  0
  -11.4443   -8.1891    3.8214 H   0  0  0  0  0
   -9.9514  -10.1798    4.0673 H   0  0  0  0  0
   -7.7085   -9.8348    3.5070 H   0  0  0  0  0
  -10.8601   -9.5542    1.8480 H   0  0  0  0  0
   -9.4628   -8.4858    1.5699 H   0  0  0  0  0
   -9.2276  -10.2471    1.6864 H   0  0  0  0  0
  -11.6001   -9.6789    5.6923 H   0  0  0  0  0
  -11.8664   -8.4560    8.1451 H   0  0  0  0  0
  -10.1760   -8.9816    8.1617 H   0  0  0  0  0
  -11.4766  -10.2267   10.0410 H   0  0  0  0  0
  -12.4285  -12.7558    8.8317 H   0  0  0  0  0
  -10.0672  -13.0820    9.3772 H   0  0  0  0  0
  -11.0967  -14.0488   10.5206 H   0  0  0  0  0
   -8.8932  -12.9805   11.9639 H   0  0  0  0  0
  -13.5835  -10.4123   10.5764 H   0  0  0  0  0
  -15.6111  -12.2151   11.5865 H   0  0  0  0  0
  -15.5415  -10.4073   11.8066 H   0  0  0  0  0
  -16.5140  -12.2996   13.6640 H   0  0  0  0  0
  -14.7189  -11.6601   15.9244 H   0  0  0  0  0
  -16.7371  -12.3031   17.3155 H   0  0  0  0  0
  -17.6370  -12.5112   15.7447 H   0  0  0  0  0
  -18.9435  -10.9924   16.3194 H   0  0  0  0  0
  -14.5956  -13.2546   17.7248 H   0  0  0  0  0
  -14.9842  -16.0542   16.8177 H   0  0  0  0  0
  -12.5386  -15.3122   16.4752 H   0  0  0  0  0
  -13.3497  -17.6035   16.4768 H   0  0  0  0  0
  -13.0113  -17.6614   18.2874 H   0  0  0  0  0
  -12.2463  -13.9740   18.4957 H   0  0  0  0  0
  -12.5008  -15.4123   19.5143 H   0  0  0  0  0
  -11.0736  -15.3134   18.4540 H   0  0  0  0  0
  -10.9907  -17.3051   16.0771 H   0  0  0  0  0
  -10.6637  -17.3611   17.8267 H   0  0  0  0  0
  -11.2924  -18.8029   16.9918 H   0  0  0  0  0
  -15.3638  -17.5654   18.3973 H   0  0  0  0  0
  -16.1832  -16.5955   21.1003 H   0  0  0  0  0
  -16.3780  -19.1759   19.5821 H   0  0  0  0  0
  -18.7170  -18.8426   19.7590 H   0  0  0  0  0
  -17.9919  -17.2004   19.3566 H   0  0  0  0  0
  -15.7696  -19.8430   21.8279 H   0  0  0  0  0
  -17.0387  -18.7979   22.5122 H   0  0  0  0  0
  -17.4851  -20.2078   21.5202 H   0  0  0  0  0
  -18.9825  -18.1240   22.0786 H   0  0  0  0  0
  -18.2807  -16.5344   21.6892 H   0  0  0  0  0
  -19.8407  -17.0171   20.9790 H   0  0  0  0  0
  -15.2264  -17.5071   23.0187 H   0  0  0  0  0
  -12.3831  -17.4090   22.9592 H   0  0  0  0  0
  -13.7100  -16.8197   24.9640 H   0  0  0  0  0
  -14.2612  -18.5068   25.1093 H   0  0  0  0  0
  -12.5439  -18.1066   25.3582 H   0  0  0  0  0
  -10.8024  -18.8927   23.4018 H   0  0  0  0  0
   -9.7232  -20.8819   23.6407 H   0  0  0  0  0
   -9.0587  -20.8012   21.6669 H   0  0  0  0  0
  -12.4853  -22.0133   23.9812 H   0  0  0  0  0
  -11.2182  -21.6053   25.2655 H   0  0  0  0  0
  -10.8547  -23.7431   23.2091 H   0  0  0  0  0
  -11.6736  -24.0336   24.8118 H   0  0  0  0  0
   -8.8363  -22.6566   23.5842 H   0  0  0  0  0
  1  2  1  0  0  0
  2  3  1  0  0  0
  2  5  1  0  0  0
  3  4  2  0  0  0
  3  9  1  0  0  0
  5  6  1  0  0  0
  6  7  1  0  0  0
  6  8  1  0  0  0
  9 10  1  0  0  0
 10 11  1  0  0  0
 10 13  1  0  0  0
 11 12  2  0  0  0
 11 16  1  0  0  0
 13 14  1  0  0  0
 13 15  1  0  0  0
 16 17  1  0  0  0
 17 18  1  0  0  0
 18 19  2  0  0  0
 18 20  1  0  0  0
 20 21  1  0  0  0
 21 22  1  0  0  0
 21 24  1  0  0  0
 22 23  2  0  0  0
 22 26  1  0  0  0
 24 25  1  0  0  0
 26 27  1  0  0  0
 27 28  1  0  0  0
 28 29  2  0  0  0
 28 30  1  0  0  0
 30 31  1  0  0  0
 31 32  1  0  0  0
 31 34  1  0  0  0
 32 33  2  0  0  0
 32 38  1  0  0  0
 34 35  1  0  0  0
 35 36  2  0  0  0
 35 37  1  0  0  0
 38 39  1  0  0  0
 39 40  1  0  0  0
 39 42  1  0  0  0
 40 41  2  0  0  0
 40 46  1  0  0  0
 42 43  1  0  0  0
 42 44  1  0  0  0
 43 45  1  0  0  0
 46 47  1  0  0  0
 47 48  1  0  0  0
 47 50  1  0  0  0
 48 49  2  0  0  0
 48 54  1  0  0  0
 50 51  1  0  0  0
 50 52  1  0  0  0
 51 53  1  0  0  0
 54 55  1  0  0  0
 55 56  1  0  0  0
 55 58  1  0  0  0
 56 57  2  0  0  0
 56 59  1  0  0  0
 59 60  1  0  0  0
 60 61  1  0  0  0
 60 63  1  0  0  0
 61 62  1  0  0  0
 61 68  2  0  0  0
 63 64  1  0  0  0
 64 65  1  0  0  0
 65 66  1  0  0  0
 65 67  2  0  0  0
  1 69  1  0  0  0
  1 70  1  0  0  0
  1 71  1  0  0  0
  2 72  1  0  0  0
  5 73  1  0  0  0
  5 74  1  0  0  0
  6 75  1  0  0  0
  7 76  1  0  0  0
  7 77  1  0  0  0
  7 78  1  0  0  0
  8 79  1  0  0  0
  8 80  1  0  0  0
  8 81  1  0  0  0
  9 82  1  0  0  0
 10 83  1  0  0  0
 13 84  1  0  0  0
 14 85  1  0  0  0
 15 86  1  0  0  0
 15 87  1  0  0  0
 15 88  1  0  0  0
 16 89  1  0  0  0
 17 90  1  0  0  0
 17 91  1  0  0  0
 20 92  1  0  0  0
 21 93  1  0  0  0
 24 94  1  0  0  0
 24 95  1  0  0  0
 25 96  1  0  0  0
 26 97  1  0  0  0
 27 98  1  0  0  0
 27 99  1  0  0  0
 30100  1  0  0  0
 31101  1  0  0  0
 34102  1  0  0  0
 34103  1  0  0  0
 37104  1  0  0  0
 38105  1  0  0  0
 39106  1  0  0  0
 42107  1  0  0  0
 43108  1  0  0  0
 43109  1  0  0  0
 44110  1  0  0  0
 44111  1  0  0  0
 44112  1  0  0  0
 45113  1  0  0  0
 45114  1  0  0  0
 45115  1  0  0  0
 46116  1  0  0  0
 47117  1  0  0  0
 50118  1  0  0  0
 51119  1  0  0  0
 51120  1  0  0  0
 52121  1  0  0  0
 52122  1  0  0  0
 52123  1  0  0  0
 53124  1  0  0  0
 53125  1  0  0  0
 53126  1  0  0  0
 54127  1  0  0  0
 55128  1  0  0  0
 58129  1  0  0  0
 58130  1  0  0  0
 58131  1  0  0  0
 59132  1  0  0  0
 60133  1  0  0  0
 62134  1  0  0  0
 63135  1  0  0  0
 63136  1  0  0  0
 64137  1  0  0  0
 64138  1  0  0  0
 66139  1  0  0  0
M  END
$$$$
