### 
### Created by X-TOOL on Mon Sep 10 21:13:27 2018
### 

@<TRIPOS>MOLECULE
4yje_ligand
  136   135     1     0     0
SMALL
GAST_HUCK


@<TRIPOS>ATOM
      1 N         -10.8100   -4.0970    1.2650 N.4       1 LEU         0.2379
      2 CA        -10.0660   -4.6810    2.4240 C.3       1 LEU         0.0652
      3 C         -10.7360   -5.9510    2.9560 C.2       1 LEU         0.2268
      4 O         -11.9450   -6.1490    2.7990 O.2       1 LEU        -0.3907
      5 CB         -9.9290   -3.6570    3.5550 C.3       1 LEU         0.0102
      6 CG         -9.3680   -2.2660    3.2620 C.3       1 LEU        -0.0394
      7 CD1        -9.7360   -1.3410    4.3980 C.3       1 LEU        -0.0623
      8 CD2        -7.8570   -2.2710    3.0380 C.3       1 LEU        -0.0623
      9 N          -9.9340   -6.8010    3.5890 N.am      1 THR        -0.2586
     10 CA        -10.4100   -8.0620    4.1410 C.3       1 THR         0.1566
     11 C         -10.4090   -8.0420    5.6770 C.2       1 THR         0.2063
     12 O          -9.8340   -7.1470    6.3000 O.2       1 THR        -0.3943
     13 CB         -9.5970   -9.2710    3.5810 C.3       1 THR         0.0924
     14 OG1        -8.2020   -9.0880    3.8540 O.3       1 THR        -0.3874
     15 CG2        -9.8020   -9.3990    2.0590 C.3       1 THR        -0.0346
     16 N         -11.0940   -9.0120    6.2750 N.am      1 GLY        -0.2663
     17 CA        -11.1570   -9.1690    7.7250 C.3       1 GLY         0.1201
     18 C         -11.6000  -10.5840    8.0390 C.2       1 GLY         0.2008
     19 O         -11.8790  -11.3610    7.1210 O.2       1 GLY        -0.3947
     20 N         -11.6700  -10.9270    9.3250 N.am      1 CYS        -0.2632
     21 CA        -12.0200  -12.2930    9.7300 C.3       1 CYS         0.1396
     22 C         -13.1230  -12.3850   10.7910 C.2       1 CYS         0.2045
     23 O         -13.3300  -13.4470   11.3850 O.2       1 CYS        -0.3944
     24 CB        -10.7770  -13.0560   10.2040 C.3       1 CYS         0.0311
     25 SG         -9.9570  -12.2640   11.6120 S.3       1 CYS        -0.1735
     26 N         -13.8440  -11.2950   11.0160 N.am      1 GLY        -0.2664
     27 CA        -15.0140  -11.3570   11.8950 C.3       1 GLY         0.1201
     28 C         -14.6600  -11.5490   13.3600 C.2       1 GLY         0.2008
     29 O         -13.5380  -11.2320   13.7860 O.2       1 GLY        -0.3947
     30 N         -15.6320  -12.0620   14.1180 N.am      1 ASP        -0.2624
     31 CA        -15.5170  -12.3070   15.5600 C.3       1 ASP         0.1423
     32 C         -15.1840  -13.7670   15.8470 C.2       1 ASP         0.2056
     33 O         -15.3700  -14.6460   14.9910 O.2       1 ASP        -0.3943
     34 CB        -16.8420  -11.9890   16.2770 C.3       1 ASP         0.0406
     35 CG        -17.1860  -10.5160   16.2790 C.2       1 ASP         0.0393
     36 OD1       -16.2570   -9.6740   16.2640 O.co2     1 ASP        -0.5688
     37 OD2       -18.4060  -10.1970   16.3140 O.co2     1 ASP        -0.5688
     38 N         -14.7400  -14.0250   17.0720 N.am      1 ILE        -0.2634
     39 CA        -14.4550  -15.3900   17.5010 C.3       1 ILE         0.1335
     40 C         -14.9740  -15.6450   18.9110 C.2       1 ILE         0.2042
     41 O         -15.0700  -14.7280   19.7240 O.2       1 ILE        -0.3944
     42 CB        -12.9400  -15.7310   17.3980 C.3       1 ILE        -0.0037
     43 CG1       -12.7410  -17.2570   17.3120 C.3       1 ILE        -0.0491
     44 CG2       -12.1280  -15.0560   18.5540 C.3       1 ILE        -0.0582
     45 CD1       -11.3210  -17.7140   17.0320 C.3       1 ILE        -0.0648
     46 N         -15.3350  -16.8990   19.1690 N.am      1 ILE        -0.2635
     47 CA        -15.6920  -17.3660   20.5060 C.3       1 ILE         0.1335
     48 C         -14.3860  -17.7690   21.1880 C.2       1 ILE         0.2041
     49 O         -13.4060  -18.0750   20.5050 O.2       1 ILE        -0.3944
     50 CB        -16.7150  -18.5390   20.4000 C.3       1 ILE        -0.0037
     51 CG1       -18.1180  -17.9950   20.0920 C.3       1 ILE        -0.0491
     52 CG2       -16.7550  -19.4100   21.6560 C.3       1 ILE        -0.0582
     53 CD1       -18.8610  -17.3710   21.3000 C.3       1 ILE        -0.0648
     54 N         -14.3710  -17.7540   22.5210 N.am      1 ALA        -0.2640
     55 CA        -13.1750  -18.0780   23.2960 C.3       1 ALA         0.1282
     56 C         -12.6980  -19.5120   23.0590 C.2       1 ALA         0.2031
     57 O         -13.4960  -20.3970   22.7220 O.2       1 ALA        -0.3944
     58 CB        -13.4420  -17.8620   24.7910 C.3       1 ALA        -0.0244
     59 N         -11.3910  -19.7130   23.2570 N.am      1 GLU        -0.2694
     60 CA        -10.7410  -21.0330   23.2810 C.3       1 GLU         0.0959
     61 C         -10.6290  -21.6370   21.8920 C.2       1 GLU         0.0602
     62 O          -9.6510  -21.3880   21.1910 O.co2     1 GLU        -0.5666
     63 CB        -11.4340  -21.9880   24.2680 C.3       1 GLU        -0.0064
     64 CG        -10.9500  -23.4410   24.2520 C.3       1 GLU         0.0038
     65 CD         -9.5890  -23.6360   24.9120 C.2       1 GLU         0.0350
     66 OE1        -8.5750  -23.1340   24.3750 O.co2     1 GLU        -0.5690
     67 OE2        -9.5310  -24.3110   25.9590 O.co2     1 GLU        -0.5690
     68 OXT       -11.5160  -22.3750   21.4700 O.co2     1 GLU        -0.5666
     69 H1        -10.3371   -3.2657    0.9466 H         1 LEU         0.2015
     70 H2        -11.7472   -3.8614    1.5516 H         1 LEU         0.2015
     71 H3        -10.8470   -4.7703    0.5158 H         1 LEU         0.2015
     72 H4         -9.0572   -4.9481    2.0763 H         1 LEU         0.1098
     73 H5         -9.2755   -4.1093    4.3155 H         1 LEU         0.0348
     74 H6        -10.9350   -3.5116    3.9755 H         1 LEU         0.0348
     75 H7         -9.8416   -1.8940    2.3415 H         1 LEU         0.0299
     76 H8         -9.3365   -0.3361    4.1967 H         1 LEU         0.0232
     77 H9         -9.3084   -1.7243    5.3362 H         1 LEU         0.0232
     78 H10       -10.8310   -1.2888    4.4884 H         1 LEU         0.0232
     79 H11        -7.6117   -2.9498    2.2079 H         1 LEU         0.0232
     80 H12        -7.3518   -2.6134    3.9531 H         1 LEU         0.0232
     81 H13        -7.5195   -1.2535    2.7915 H         1 LEU         0.0232
     82 H14        -8.9673   -6.5659    3.6901 H         1 THR         0.1885
     83 H15       -11.4531   -8.1896    3.8160 H         1 THR         0.0826
     84 H16        -9.9442  -10.1931    4.0701 H         1 THR         0.0639
     85 H17        -7.7137   -9.8270    3.5106 H         1 THR         0.2101
     86 H18        -9.2228  -10.2547    1.6817 H         1 THR         0.0257
     87 H19        -9.4600   -8.4780    1.5642 H         1 THR         0.0257
     88 H20       -10.8695   -9.5557    1.8447 H         1 THR         0.0257
     89 H21       -11.5902   -9.6658    5.7037 H         1 GLY         0.1881
     90 H22       -11.8791   -8.4529    8.1443 H         1 GLY         0.0763
     91 H23       -10.1638   -8.9862    8.1611 H         1 GLY         0.0763
     92 H24       -11.4804  -10.2405   10.0270 H         1 CYS         0.1884
     93 H25       -12.3996  -12.8007    8.8311 H         1 CYS         0.0808
     94 H26       -10.0624  -13.1153    9.3698 H         1 CYS         0.0422
     95 H27       -11.0801  -14.0711   10.5001 H         1 CYS         0.0422
     96 H28        -9.1507  -12.8071   11.8787 H         1 CYS         0.1019
     97 H29       -13.5886  -10.4296   10.5850 H         1 GLY         0.1881
     98 H30       -15.6454  -12.1993   11.5758 H         1 GLY         0.0763
     99 H31       -15.5768  -10.4175   11.7928 H         1 GLY         0.0763
    100 H32       -16.4967  -12.2949   13.6729 H         1 ASP         0.1884
    101 H33       -14.7198  -11.6654   15.9634 H         1 ASP         0.0819
    102 H34       -16.7647  -12.3303   17.3198 H         1 ASP         0.0478
    103 H35       -17.6518  -12.5354   15.7714 H         1 ASP         0.0478
    104 H36       -14.5985  -13.2697   17.7120 H         1 ILE         0.1883
    105 H37       -14.9925  -16.0672   16.8209 H         1 ILE         0.0803
    106 H38       -12.5677  -15.3038   16.4552 H         1 ILE         0.0345
    107 H39       -13.3852  -17.6383   16.5061 H         1 ILE         0.0267
    108 H40       -13.0554  -17.6948   18.2709 H         1 ILE         0.0267
    109 H41       -12.3195  -13.9728   18.5526 H         1 ILE         0.0235
    110 H42       -11.0539  -15.2386   18.4028 H         1 ILE         0.0235
    111 H43       -12.4401  -15.4823   19.5188 H         1 ILE         0.0235
    112 H44       -11.2908  -18.8128   16.9912 H         1 ILE         0.0230
    113 H45       -10.6566  -17.3585   17.8334 H         1 ILE         0.0230
    114 H46       -10.9865  -17.3020   16.0685 H         1 ILE         0.0230
    115 H47       -15.3633  -17.5523   18.4124 H         1 ILE         0.1883
    116 H48       -16.1577  -16.5476   21.0746 H         1 ILE         0.0803
    117 H49       -16.4028  -19.1780   19.5609 H         1 ILE         0.0345
    118 H50       -18.7288  -18.8255   19.7083 H         1 ILE         0.0267
    119 H51       -18.0208  -17.2220   19.3155 H         1 ILE         0.0267
    120 H52       -15.7464  -19.7944   21.8679 H         1 ILE         0.0235
    121 H53       -17.4426  -20.2535   21.4956 H         1 ILE         0.0235
    122 H54       -17.1047  -18.8088   22.5082 H         1 ILE         0.0235
    123 H55       -19.8499  -17.0134   20.9773 H         1 ILE         0.0230
    124 H56       -18.2763  -16.5265   21.6937 H         1 ILE         0.0230
    125 H57       -18.9843  -18.1300   22.0866 H         1 ILE         0.0230
    126 H58       -15.2096  -17.5120   23.0090 H         1 ALA         0.1883
    127 H59       -12.3716  -17.3952   22.9824 H         1 ALA         0.0797
    128 H60       -12.5363  -18.1085   25.3646 H         1 ALA         0.0277
    129 H61       -14.2685  -18.5122   25.1136 H         1 ALA         0.0277
    130 H62       -13.7125  -16.8104   24.9670 H         1 ALA         0.0277
    131 H63       -10.8139  -18.9087   23.3989 H         1 GLU         0.1875
    132 H64        -9.7153  -20.8799   23.6477 H         1 GLU         0.0727
    133 H65       -12.5092  -21.9894   24.0356 H         1 GLU         0.0323
    134 H66       -11.2787  -21.5932   25.2829 H         1 GLU         0.0323
    135 H67       -10.8804  -23.7733   23.2057 H         1 GLU         0.0432
    136 H68       -11.6872  -24.0595   24.7849 H         1 GLU         0.0432
@<TRIPOS>BOND
     1    1    2 1  
     2    2    3 1  
     3    2    5 1  
     4    3    4 2  
     5    3    9 am 
     6    5    6 1  
     7    6    7 1  
     8    6    8 1  
     9    9   10 1  
    10   10   11 1  
    11   10   13 1  
    12   11   12 2  
    13   11   16 am 
    14   13   14 1  
    15   13   15 1  
    16   16   17 1  
    17   17   18 1  
    18   18   19 2  
    19   18   20 am 
    20   20   21 1  
    21   21   22 1  
    22   21   24 1  
    23   22   23 2  
    24   22   26 am 
    25   24   25 1  
    26   26   27 1  
    27   27   28 1  
    28   28   29 2  
    29   28   30 am 
    30   30   31 1  
    31   31   32 1  
    32   31   34 1  
    33   32   33 2  
    34   32   38 am 
    35   34   35 1  
    36   35   36 ar 
    37   35   37 ar 
    38   38   39 1  
    39   39   40 1  
    40   39   42 1  
    41   40   41 2  
    42   40   46 am 
    43   42   43 1  
    44   42   44 1  
    45   43   45 1  
    46   46   47 1  
    47   47   48 1  
    48   47   50 1  
    49   48   49 2  
    50   48   54 am 
    51   50   51 1  
    52   50   52 1  
    53   51   53 1  
    54   54   55 1  
    55   55   56 1  
    56   55   58 1  
    57   56   57 2  
    58   56   59 am 
    59   59   60 1  
    60   60   61 1  
    61   60   63 1  
    62   61   62 ar 
    63   61   68 ar 
    64   63   64 1  
    65   64   65 1  
    66   65   66 ar 
    67   65   67 ar 
    68    1   69 1  
    69    1   70 1  
    70    1   71 1  
    71    2   72 1  
    72    5   73 1  
    73    5   74 1  
    74    6   75 1  
    75    7   76 1  
    76    7   77 1  
    77    7   78 1  
    78    8   79 1  
    79    8   80 1  
    80    8   81 1  
    81    9   82 1  
    82   10   83 1  
    83   13   84 1  
    84   14   85 1  
    85   15   86 1  
    86   15   87 1  
    87   15   88 1  
    88   16   89 1  
    89   17   90 1  
    90   17   91 1  
    91   20   92 1  
    92   21   93 1  
    93   24   94 1  
    94   24   95 1  
    95   25   96 1  
    96   26   97 1  
    97   27   98 1  
    98   27   99 1  
    99   30  100 1  
   100   31  101 1  
   101   34  102 1  
   102   34  103 1  
   103   38  104 1  
   104   39  105 1  
   105   42  106 1  
   106   43  107 1  
   107   43  108 1  
   108   44  109 1  
   109   44  110 1  
   110   44  111 1  
   111   45  112 1  
   112   45  113 1  
   113   45  114 1  
   114   46  115 1  
   115   47  116 1  
   116   50  117 1  
   117   51  118 1  
   118   51  119 1  
   119   52  120 1  
   120   52  121 1  
   121   52  122 1  
   122   53  123 1  
   123   53  124 1  
   124   53  125 1  
   125   54  126 1  
   126   55  127 1  
   127   58  128 1  
   128   58  129 1  
   129   58  130 1  
   130   59  131 1  
   131   60  132 1  
   132   63  133 1  
   133   63  134 1  
   134   64  135 1  
   135   64  136 1  
@<TRIPOS>SUBSTRUCTURE
     1 LEU         1

