### 
### Created by X-TOOL on Mon Sep 10 21:13:16 2018
### 

@<TRIPOS>MOLECULE
4is6_ligand
  236   239     1     0     0
SMALL
GAST_HUCK


@<TRIPOS>ATOM
      1 N          26.5000   38.8080   26.5350 N.4       1 ARG         0.2379
      2 CA         25.4230   39.4730   25.7430 C.3       1 ARG         0.0651
      3 C          24.1420   38.6420   25.7700 C.2       1 ARG         0.2267
      4 O          24.0940   37.5710   26.3740 O.2       1 ARG        -0.3907
      5 CB         25.8910   39.7000   24.2950 C.3       1 ARG         0.0110
      6 CG         26.8050   40.9170   24.1160 C.3       1 ARG        -0.0125
      7 CD         27.6370   40.8670   22.8240 C.3       1 ARG         0.0629
      8 NE         28.4940   42.0510   22.6970 N.pl3     1 ARG        -0.2723
      9 CZ         29.4830   42.1920   21.8130 C.cat     1 ARG         0.2882
     10 NH1        29.7630   41.2180   20.9540 N.pl3     1 ARG        -0.2849
     11 NH2        30.1950   43.3130   21.7880 N.pl3     1 ARG        -0.2849
     12 N          23.1010   39.1420   25.1210 N.am      1 GLN        -0.2609
     13 CA         21.8270   38.4440   25.1000 C.3       1 GLN         0.1331
     14 C          21.2600   38.3460   23.6890 C.2       1 GLN         0.2040
     15 O          21.5590   39.1720   22.8190 O.2       1 GLN        -0.3944
     16 CB         20.8160   39.1690   25.9890 C.3       1 GLN         0.0045
     17 CG         20.1580   40.3640   25.3240 C.3       1 GLN         0.0412
     18 CD         19.0560   40.9550   26.1700 C.2       1 GLN         0.1737
     19 OE1        19.3040   41.4630   27.2610 O.2       1 GLN        -0.3973
     20 NE2        17.8230   40.8870   25.6740 N.am      1 GLN        -0.3009
     21 N          20.4290   37.3360   23.4660 N.am      1 LEU        -0.2637
     22 CA         19.8310   37.1630   22.1630 C.3       1 LEU         0.1312
     23 C          18.6550   38.1230   22.0150 C.2       1 LEU         0.2040
     24 O          17.8770   38.3250   22.9490 O.2       1 LEU        -0.3944
     25 CB         19.3670   35.7140   21.9740 C.3       1 LEU        -0.0101
     26 CG         20.4260   34.6090   21.9900 C.3       1 LEU        -0.0425
     27 CD1        21.6600   35.0520   21.2220 C.3       1 LEU        -0.0625
     28 CD2        20.7950   34.2780   23.4180 C.3       1 LEU        -0.0625
     29 N          18.5450   38.7270   20.8360 N.am      1 TYR        -0.2621
     30 CA         17.4600   39.6630   20.5460 C.3       1 TYR         0.1392
     31 C          16.3720   38.9770   19.7020 C.2       1 TYR         0.2082
     32 O          16.6560   38.3920   18.6520 O.2       1 TYR        -0.3940
     33 CB         17.9900   40.8900   19.7750 C.3       1 TYR         0.0164
     34 CG         18.8540   41.8670   20.5600 C.ar      1 TYR        -0.0493
     35 CD1        19.6090   42.8390   19.8930 C.ar      1 TYR        -0.0685
     36 CD2        18.9000   41.8450   21.9620 C.ar      1 TYR        -0.0685
     37 CE1        20.3870   43.7630   20.5950 C.ar      1 TYR        -0.0398
     38 CE2        19.6770   42.7700   22.6800 C.ar      1 TYR        -0.0398
     39 CZ         20.4160   43.7220   21.9890 C.ar      1 TYR         0.0805
     40 OH         21.1850   44.6310   22.6800 O.3       1 TYR        -0.3376
     41 N          15.1110   39.0310   20.1580 N.am      1 PRO        -0.2497
     42 CA         14.0680   38.3900   19.3610 C.3       1 PRO         0.1338
     43 C          13.7130   39.3210   18.2080 C.2       1 PRO         0.2041
     44 O          13.7260   40.5320   18.3750 O.2       1 PRO        -0.3944
     45 CB         12.9280   38.2470   20.3590 C.3       1 PRO        -0.0104
     46 CG         13.0620   39.5110   21.1710 C.3       1 PRO        -0.0281
     47 CD         14.5570   39.6010   21.4020 C.3       1 PRO         0.0369
     48 N          13.4430   38.7670   17.0330 N.am      1 GLU        -0.2636
     49 CA         13.0410   39.5910   15.8970 C.3       1 GLU         0.1325
     50 C          11.5240   39.6770   16.0230 C.2       1 GLU         0.2041
     51 O          10.8630   38.6610   16.2630 O.2       1 GLU        -0.3944
     52 CB         13.4290   38.9350   14.5710 C.3       1 GLU        -0.0008
     53 CG         12.9110   39.6590   13.3340 C.3       1 GLU         0.0044
     54 CD         13.4030   41.0950   13.2190 C.2       1 GLU         0.0350
     55 OE1        13.0080   41.7690   12.2410 O.co2     1 GLU        -0.5690
     56 OE2        14.1760   41.5520   14.0950 O.co2     1 GLU        -0.5690
     57 N          10.9750   40.8810   15.8690 N.am      1 TRP        -0.2627
     58 CA          9.5360   41.0870   16.0180 C.3       1 TRP         0.1352
     59 C           8.6900   40.4450   14.9430 C.2       1 TRP         0.2052
     60 O           9.1080   40.3410   13.7870 O.2       1 TRP        -0.3942
     61 CB          9.2130   42.5830   16.0640 C.3       1 TRP         0.0042
     62 CG          9.9150   43.3170   17.1620 C.2       1 TRP        -0.0418
     63 CD1        10.5440   44.5280   17.0620 C.2       1 TRP         0.0167
     64 CD2        10.0820   42.8890   18.5240 C.ar      1 TRP        -0.0214
     65 NE1        11.0970   44.8770   18.2740 N.pl3     1 TRP        -0.2890
     66 CE2        10.8310   43.8900   19.1880 C.ar      1 TRP         0.0603
     67 CE3         9.6750   41.7580   19.2450 C.ar      1 TRP        -0.0747
     68 CZ2        11.1840   43.7950   20.5390 C.ar      1 TRP        -0.0443
     69 CZ3        10.0260   41.6630   20.5890 C.ar      1 TRP        -0.0792
     70 CH2        10.7760   42.6790   21.2200 C.ar      1 TRP        -0.0768
     71 N           7.4960   40.0130   15.3480 N.am      1 THR        -0.2612
     72 CA          6.5390   39.4120   14.4320 C.3       1 THR         0.1565
     73 C           5.5200   40.4860   14.1290 C.2       1 THR         0.2065
     74 O           4.7780   40.9220   15.0040 O.2       1 THR        -0.3943
     75 CB          5.8390   38.1790   15.0330 C.3       1 THR         0.0924
     76 OG1         6.7360   37.0630   15.0060 O.3       1 THR        -0.3874
     77 CG2         4.5960   37.8260   14.2270 C.3       1 THR        -0.0346
     78 N           5.5020   40.9110   12.8710 N.am      1 GLU        -0.2635
     79 CA          4.6090   41.9640   12.4480 C.3       1 GLU         0.1325
     80 C           3.1540   41.5360   12.4100 C.2       1 GLU         0.2040
     81 O           2.8470   40.4020   12.0580 O.2       1 GLU        -0.3944
     82 CB          5.0940   42.5280   11.1070 C.3       1 GLU        -0.0008
     83 CG          5.7610   43.9170   11.2150 C.3       1 GLU         0.0044
     84 CD          6.9150   43.9980   12.2220 C.2       1 GLU         0.0350
     85 OE1         7.8050   43.1090   12.2070 O.co2     1 GLU        -0.5690
     86 OE2         6.9320   44.9780   13.0100 O.co2     1 GLU        -0.5690
     87 N           2.2660   42.4470   12.8040 N.am      1 ALA        -0.2640
     88 CA          0.8420   42.1570   12.8330 C.3       1 ALA         0.1282
     89 C           0.1370   42.5020   11.5270 C.2       1 ALA         0.2036
     90 O           0.4070   43.5230   10.8940 O.2       1 ALA        -0.3944
     91 CB          0.1890   42.8900   13.9860 C.3       1 ALA        -0.0244
     92 N          -0.7790   41.6320   11.1340 N.am      1 GLN        -0.2636
     93 CA         -1.5450   41.8170    9.9110 C.3       1 GLN         0.1330
     94 C          -2.8230   42.6010   10.2190 C.2       1 GLN         0.2040
     95 O          -3.1640   42.8080   11.3920 O.2       1 GLN        -0.3944
     96 CB         -1.8790   40.4490    9.3200 C.3       1 GLN         0.0045
     97 CG         -0.6470   39.5750    9.0780 C.3       1 GLN         0.0412
     98 CD         -0.9670   38.0910    9.0020 C.2       1 GLN         0.1737
     99 OE1        -1.8450   37.6710    8.2540 O.2       1 GLN        -0.3973
    100 NE2        -0.2460   37.2910    9.7730 N.am      1 GLN        -0.3009
    101 N          -3.5140   43.0250    9.1580 N.am      1 ARG        -0.2637
    102 CA         -4.7520   43.8090    9.2430 C.3       1 ARG         0.1310
    103 C          -5.9690   42.9760    8.8380 C.2       1 ARG         0.2034
    104 O          -5.8810   42.1660    7.9200 O.2       1 ARG        -0.3944
    105 CB         -4.6620   45.0120    8.2940 C.3       1 ARG        -0.0092
    106 CG         -5.7930   46.0340    8.4250 C.3       1 ARG        -0.0156
    107 CD         -5.4550   47.3360    7.7250 C.3       1 ARG         0.0627
    108 NE         -5.0430   47.1130    6.3450 N.pl3     1 ARG        -0.2723
    109 CZ         -4.4670   48.0400    5.5900 C.cat     1 ARG         0.2882
    110 NH1        -4.2380   49.2490    6.0950 N.pl3     1 ARG        -0.2849
    111 NH2        -4.1190   47.7600    4.3370 N.pl3     1 ARG        -0.2849
    112 N          -7.1030   43.1640    9.5060 N.am      1 LEU        -0.2670
    113 CA         -8.3050   42.4140    9.1320 C.3       1 LEU         0.1228
    114 C          -9.4170   43.3530    8.6790 C.2       1 LEU         0.2149
    115 O          -9.2230   44.5840    8.7860 O.co2     1 LEU        -0.4120
    116 CB         -8.8110   41.5450   10.3010 C.3       1 LEU        -0.0132
    117 CG        -10.0810   40.6960   10.0540 C.3       1 LEU        -0.0430
    118 CD1        -9.7630   39.1830   10.0200 C.3       1 LEU        -0.0625
    119 CD2       -11.1000   41.0080   11.1530 C.3       1 LEU        -0.0625
    120 H          27.3356   39.3710   26.5049 H         1 ARG         0.2015
    121 H          26.6928   37.8994   26.1434 H         1 ARG         0.2015
    122 H          26.1988   38.7047   27.4914 H         1 ARG         0.2015
    123 H          25.2106   40.4518   26.1977 H         1 ARG         0.1098
    124 H          25.0019   39.8398   23.6626 H         1 ARG         0.0347
    125 H          26.4388   38.8051   23.9648 H         1 ARG         0.0347
    126 H          27.4931   40.9661   24.9728 H         1 ARG         0.0302
    127 H          26.1808   41.8225   24.0946 H         1 ARG         0.0302
    128 H          26.9566   40.8227   21.9608 H         1 ARG         0.0689
    129 H          28.2691   39.9669   22.8392 H         1 ARG         0.0689
    130 H          28.3182   42.8352   23.3412 H         1 ARG         0.2642
    131 H          30.5283   41.3348   20.2746 H         1 ARG         0.2615
    132 H          29.2148   40.3461   20.9674 H         1 ARG         0.2615
    133 H          29.9835   44.0723   22.4510 H         1 ARG         0.2615
    134 H          30.9586   43.4230   21.1056 H         1 ARG         0.2615
    135 H          23.1935   40.0129   24.6383 H         1 GLN         0.1885
    136 H          21.9814   37.4267   25.4890 H         1 GLN         0.0801
    137 H          21.3373   39.5189   26.8922 H         1 GLN         0.0337
    138 H          20.0296   38.4543   26.2732 H         1 GLN         0.0337
    139 H          19.7321   40.0434   24.3618 H         1 GLN         0.0504
    140 H          20.9216   41.1360   25.1480 H         1 GLN         0.0504
    141 H          17.0544   41.2627   26.1918 H         1 GLN         0.1814
    142 H          17.6651   40.4602   24.7835 H         1 GLN         0.1814
    143 H          20.2163   36.6931   24.2019 H         1 LEU         0.1883
    144 H          20.5808   37.3963   21.3928 H         1 LEU         0.0800
    145 H          18.8533   35.6597   21.0028 H         1 LEU         0.0315
    146 H          18.6519   35.4924   22.7799 H         1 LEU         0.0315
    147 H          20.0117   33.7102   21.5099 H         1 LEU         0.0298
    148 H          22.4118   34.2493   21.2416 H         1 LEU         0.0232
    149 H          22.0772   35.9566   21.6886 H         1 LEU         0.0232
    150 H          21.3844   35.2708   20.1798 H         1 LEU         0.0232
    151 H          19.8954   33.9588   23.9646 H         1 LEU         0.0232
    152 H          21.2215   35.1687   23.9024 H         1 LEU         0.0232
    153 H          21.5366   33.4656   23.4262 H         1 LEU         0.0232
    154 H          19.2238   38.5357   20.1271 H         1 TYR         0.1885
    155 H          17.0198   39.9992   21.4964 H         1 TYR         0.0821
    156 H          17.1206   41.4455   19.3934 H         1 TYR         0.0453
    157 H          18.5886   40.5200   18.9296 H         1 TYR         0.0453
    158 H          19.5896   42.8755   18.8098 H         1 TYR         0.0530
    159 H          18.3255   41.1007   22.5015 H         1 TYR         0.0530
    160 H          20.9648   44.5076   20.0594 H         1 TYR         0.0525
    161 H          19.6995   42.7409   23.7634 H         1 TYR         0.0525
    162 H          21.6227   45.2068   22.0641 H         1 TYR         0.2458
    163 H          14.3849   37.4102   18.9742 H         1 PRO         0.0802
    164 H          13.0563   37.3531   20.9870 H         1 PRO         0.0313
    165 H          11.9542   38.2006   19.8496 H         1 PRO         0.0313
    166 H          12.5176   39.4303   22.1234 H         1 PRO         0.0287
    167 H          12.6939   40.3833   20.6109 H         1 PRO         0.0287
    168 H          14.8756   40.6452   21.5365 H         1 PRO         0.0524
    169 H          14.8594   39.0095   22.2787 H         1 PRO         0.0524
    170 H          13.5156   37.7755   16.9246 H         1 GLU         0.1883
    171 H          13.4976   40.5898   15.9594 H         1 GLU         0.0801
    172 H          13.0273   37.9110   14.5634 H         1 GLU         0.0330
    173 H          14.5269   38.8987   14.5136 H         1 GLU         0.0330
    174 H          11.8117   39.6698   13.3719 H         1 GLU         0.0433
    175 H          13.2417   39.1055   12.4428 H         1 GLU         0.0433
    176 H          11.5603   41.6607   15.6466 H         1 TRP         0.1884
    177 H           9.2430   40.6400   16.9794 H         1 TRP         0.0815
    178 H           8.1285   42.6998   16.2065 H         1 TRP         0.0397
    179 H           9.5070   43.0313   15.1035 H         1 TRP         0.0397
    180 H          10.5993   45.1288   16.1554 H         1 TRP         0.0795
    181 H          11.6254   45.7406   18.4635 H         1 TRP         0.2216
    182 H           9.0993   40.9740   18.7664 H         1 TRP         0.0540
    183 H          11.7579   44.5743   21.0273 H         1 TRP         0.0541
    184 H           9.7183   40.7946   21.1602 H         1 TRP         0.0510
    185 H          11.0349   42.5734   22.2673 H         1 TRP         0.0530
    186 H           7.2500   40.1050   16.3129 H         1 THR         0.1884
    187 H           7.0546   39.1102   13.5084 H         1 THR         0.0826
    188 H           5.5509   38.3960   16.0722 H         1 THR         0.0639
    189 H           6.3044   36.3022   15.3767 H         1 THR         0.2101
    190 H           4.1098   36.9444   14.6702 H         1 THR         0.0257
    191 H           4.8832   37.6032   13.1888 H         1 THR         0.0257
    192 H           3.8971   38.6753   14.2399 H         1 THR         0.0257
    193 H           6.1189   40.4937   12.2036 H         1 GLU         0.1883
    194 H           4.6805   42.7722   13.1907 H         1 GLU         0.0801
    195 H           4.2285   42.6112   10.4332 H         1 GLU         0.0330
    196 H           5.8249   41.8255   10.6801 H         1 GLU         0.0330
    197 H           4.9921   44.6437   11.5161 H         1 GLU         0.0433
    198 H           6.1524   44.1871   10.2231 H         1 GLU         0.0433
    199 H           2.5863   43.3513   13.0864 H         1 ALA         0.1883
    200 H           0.7243   41.0762   13.0005 H         1 ALA         0.0797
    201 H          -0.8877   42.6652   14.0007 H         1 ALA         0.0277
    202 H           0.3357   43.9731   13.8621 H         1 ALA         0.0277
    203 H           0.6445   42.5641   14.9327 H         1 ALA         0.0277
    204 H          -0.9502   40.8221   11.6950 H         1 GLN         0.1883
    205 H          -0.9426   42.3847    9.1865 H         1 GLN         0.0801
    206 H          -2.3934   40.6002    8.3595 H         1 GLN         0.0337
    207 H          -2.5488   39.9225   10.0158 H         1 GLN         0.0337
    208 H           0.0632   39.7370    9.9022 H         1 GLN         0.0504
    209 H          -0.1831   39.8810    8.1287 H         1 GLN         0.0504
    210 H          -0.4124   36.3050    9.7645 H         1 GLN         0.1814
    211 H           0.4648   37.6730   10.3636 H         1 GLN         0.1814
    212 H          -3.1665   42.7941    8.2492 H         1 ARG         0.1883
    213 H          -4.8816   44.1622   10.2767 H         1 ARG         0.0800
    214 H          -4.6655   44.6317    7.2619 H         1 ARG         0.0313
    215 H          -3.7117   45.5298    8.4908 H         1 ARG         0.0313
    216 H          -5.9680   46.2376    9.4917 H         1 ARG         0.0301
    217 H          -6.7061   45.6149    7.9771 H         1 ARG         0.0301
    218 H          -4.6349   47.8299    8.2667 H         1 ARG         0.0689
    219 H          -6.3426   47.9856    7.7318 H         1 ARG         0.0689
    220 H          -5.2081   46.1838    5.9325 H         1 ARG         0.2642
    221 H          -3.7913   49.9733    5.5147 H         1 ARG         0.2615
    222 H          -4.5073   49.4609    7.0663 H         1 ARG         0.2615
    223 H          -4.2982   46.8224    3.9500 H         1 ARG         0.2615
    224 H          -3.6703   48.4808    3.7538 H         1 ARG         0.2615
    225 H          -7.1356   43.8166   10.2630 H         1 LEU         0.1876
    226 H          -8.0463   41.7508    8.2934 H         1 LEU         0.0751
    227 O1        -10.4973   42.9034    8.2116 O.co2     1 LEU        -0.4120
    228 H          -9.0217   42.2172   11.1458 H         1 LEU         0.0309
    229 H          -7.9998   40.8546   10.5752 H         1 LEU         0.0309
    230 H         -10.5093   40.9796    9.0813 H         1 LEU         0.0297
    231 H         -10.6897   38.6175    9.8428 H         1 LEU         0.0232
    232 H          -9.3260   38.8784   10.9824 H         1 LEU         0.0232
    233 H          -9.0472   38.9768    9.2106 H         1 LEU         0.0232
    234 H         -11.3122   42.0873   11.1605 H         1 LEU         0.0232
    235 H         -10.6903   40.7081   12.1288 H         1 LEU         0.0232
    236 H         -12.0297   40.4529   10.9594 H         1 LEU         0.0232
@<TRIPOS>BOND
     1    1    2 1  
     2    2    3 1  
     3    2    5 1  
     4    3    4 2  
     5    3   12 am 
     6    5    6 1  
     7    6    7 1  
     8    7    8 1  
     9    8    9 ar 
    10    9   10 ar 
    11    9   11 ar 
    12   12   13 1  
    13   13   14 1  
    14   13   16 1  
    15   14   15 2  
    16   14   21 am 
    17   16   17 1  
    18   17   18 1  
    19   18   19 2  
    20   18   20 am 
    21   21   22 1  
    22   22   23 1  
    23   22   25 1  
    24   23   24 2  
    25   23   29 am 
    26   25   26 1  
    27   26   27 1  
    28   26   28 1  
    29   29   30 1  
    30   30   31 1  
    31   30   33 1  
    32   31   32 2  
    33   31   41 am 
    34   33   34 1  
    35   34   35 ar 
    36   34   36 ar 
    37   35   37 ar 
    38   36   38 ar 
    39   37   39 ar 
    40   38   39 ar 
    41   39   40 1  
    42   41   42 1  
    43   41   47 1  
    44   42   43 1  
    45   42   45 1  
    46   43   44 2  
    47   43   48 am 
    48   45   46 1  
    49   46   47 1  
    50   48   49 1  
    51   49   50 1  
    52   49   52 1  
    53   50   51 2  
    54   50   57 am 
    55   52   53 1  
    56   53   54 1  
    57   54   55 ar 
    58   54   56 ar 
    59   57   58 1  
    60   58   59 1  
    61   58   61 1  
    62   59   60 2  
    63   59   71 am 
    64   61   62 1  
    65   62   63 2  
    66   62   64 1  
    67   63   65 1  
    68   64   66 ar 
    69   64   67 ar 
    70   65   66 1  
    71   66   68 ar 
    72   67   69 ar 
    73   68   70 ar 
    74   69   70 ar 
    75   71   72 1  
    76   72   73 1  
    77   72   75 1  
    78   73   74 2  
    79   73   78 am 
    80   75   76 1  
    81   75   77 1  
    82   78   79 1  
    83   79   80 1  
    84   79   82 1  
    85   80   81 2  
    86   80   87 am 
    87   82   83 1  
    88   83   84 1  
    89   84   85 ar 
    90   84   86 ar 
    91   87   88 1  
    92   88   89 1  
    93   88   91 1  
    94   89   90 2  
    95   89   92 am 
    96   92   93 1  
    97   93   94 1  
    98   93   96 1  
    99   94   95 2  
   100   94  101 am 
   101   96   97 1  
   102   97   98 1  
   103   98   99 2  
   104   98  100 am 
   105  101  102 1  
   106  102  103 1  
   107  102  105 1  
   108  103  104 2  
   109  103  112 am 
   110  105  106 1  
   111  106  107 1  
   112  107  108 1  
   113  108  109 ar 
   114  109  110 ar 
   115  109  111 ar 
   116  112  113 1  
   117  113  114 1  
   118  113  116 1  
   119  114  115 ar 
   120  116  117 1  
   121  117  118 1  
   122  117  119 1  
   123    1  120 1  
   124    1  121 1  
   125    1  122 1  
   126    2  123 1  
   127    5  124 1  
   128    5  125 1  
   129    6  126 1  
   130    6  127 1  
   131    7  128 1  
   132    7  129 1  
   133    8  130 1  
   134   10  131 1  
   135   10  132 1  
   136   11  133 1  
   137   11  134 1  
   138   12  135 1  
   139   13  136 1  
   140   16  137 1  
   141   16  138 1  
   142   17  139 1  
   143   17  140 1  
   144   20  141 1  
   145   20  142 1  
   146   21  143 1  
   147   22  144 1  
   148   25  145 1  
   149   25  146 1  
   150   26  147 1  
   151   27  148 1  
   152   27  149 1  
   153   27  150 1  
   154   28  151 1  
   155   28  152 1  
   156   28  153 1  
   157   29  154 1  
   158   30  155 1  
   159   33  156 1  
   160   33  157 1  
   161   35  158 1  
   162   36  159 1  
   163   37  160 1  
   164   38  161 1  
   165   40  162 1  
   166   42  163 1  
   167   45  164 1  
   168   45  165 1  
   169   46  166 1  
   170   46  167 1  
   171   47  168 1  
   172   47  169 1  
   173   48  170 1  
   174   49  171 1  
   175   52  172 1  
   176   52  173 1  
   177   53  174 1  
   178   53  175 1  
   179   57  176 1  
   180   58  177 1  
   181   61  178 1  
   182   61  179 1  
   183   63  180 1  
   184   65  181 1  
   185   67  182 1  
   186   68  183 1  
   187   69  184 1  
   188   70  185 1  
   189   71  186 1  
   190   72  187 1  
   191   75  188 1  
   192   76  189 1  
   193   77  190 1  
   194   77  191 1  
   195   77  192 1  
   196   78  193 1  
   197   79  194 1  
   198   82  195 1  
   199   82  196 1  
   200   83  197 1  
   201   83  198 1  
   202   87  199 1  
   203   88  200 1  
   204   91  201 1  
   205   91  202 1  
   206   91  203 1  
   207   92  204 1  
   208   93  205 1  
   209   96  206 1  
   210   96  207 1  
   211   97  208 1  
   212   97  209 1  
   213  100  210 1  
   214  100  211 1  
   215  101  212 1  
   216  102  213 1  
   217  105  214 1  
   218  105  215 1  
   219  106  216 1  
   220  106  217 1  
   221  107  218 1  
   222  107  219 1  
   223  108  220 1  
   224  110  221 1  
   225  110  222 1  
   226  111  223 1  
   227  111  224 1  
   228  112  225 1  
   229  113  226 1  
   230  114  227 ar 
   231  116  228 1  
   232  116  229 1  
   233  117  230 1  
   234  118  231 1  
   235  118  232 1  
   236  118  233 1  
   237  119  234 1  
   238  119  235 1  
   239  119  236 1  
@<TRIPOS>SUBSTRUCTURE
     1 ARG         1

