4is6_ligand
  -I-interpret- 

236239  0  0  0  0  0  0  0  0999 V2000
   26.5000   38.8080   26.5350 N   0  3  0  0  0
   25.4230   39.4730   25.7430 C   0  0  0  0  0
   24.1420   38.6420   25.7700 C   0  0  0  0  0
   24.0940   37.5710   26.3740 O   0  0  0  0  0
   25.8910   39.7000   24.2950 C   0  0  0  0  0
   26.8050   40.9170   24.1160 C   0  0  0  0  0
   27.6370   40.8670   22.8240 C   0  0  0  0  0
   28.4940   42.0510   22.6970 N   0  0  0  0  0
   29.4830   42.1920   21.8130 C   0  0  0  0  0
   29.7630   41.2180   20.9540 N   0  0  0  0  0
   30.1950   43.3130   21.7880 N   0  0  0  0  0
   23.1010   39.1420   25.1210 N   0  0  0  0  0
   21.8270   38.4440   25.1000 C   0  0  0  0  0
   21.2600   38.3460   23.6890 C   0  0  0  0  0
   21.5590   39.1720   22.8190 O   0  0  0  0  0
   20.8160   39.1690   25.9890 C   0  0  0  0  0
   20.1580   40.3640   25.3240 C   0  0  0  0  0
   19.0560   40.9550   26.1700 C   0  0  0  0  0
   19.3040   41.4630   27.2610 O   0  0  0  0  0
   17.8230   40.8870   25.6740 N   0  0  0  0  0
   20.4290   37.3360   23.4660 N   0  0  0  0  0
   19.8310   37.1630   22.1630 C   0  0  0  0  0
   18.6550   38.1230   22.0150 C   0  0  0  0  0
   17.8770   38.3250   22.9490 O   0  0  0  0  0
   19.3670   35.7140   21.9740 C   0  0  0  0  0
   20.4260   34.6090   21.9900 C   0  0  0  0  0
   21.6600   35.0520   21.2220 C   0  0  0  0  0
   20.7950   34.2780   23.4180 C   0  0  0  0  0
   18.5450   38.7270   20.8360 N   0  0  0  0  0
   17.4600   39.6630   20.5460 C   0  0  0  0  0
   16.3720   38.9770   19.7020 C   0  0  0  0  0
   16.6560   38.3920   18.6520 O   0  0  0  0  0
   17.9900   40.8900   19.7750 C   0  0  0  0  0
   18.8540   41.8670   20.5600 C   0  0  0  0  0
   19.6090   42.8390   19.8930 C   0  0  0  0  0
   18.9000   41.8450   21.9620 C   0  0  0  0  0
   20.3870   43.7630   20.5950 C   0  0  0  0  0
   19.6770   42.7700   22.6800 C   0  0  0  0  0
   20.4160   43.7220   21.9890 C   0  0  0  0  0
   21.1850   44.6310   22.6800 O   0  0  0  0  0
   15.1110   39.0310   20.1580 N   0  0  0  0  0
   14.0680   38.3900   19.3610 C   0  0  0  0  0
   13.7130   39.3210   18.2080 C   0  0  0  0  0
   13.7260   40.5320   18.3750 O   0  0  0  0  0
   12.9280   38.2470   20.3590 C   0  0  0  0  0
   13.0620   39.5110   21.1710 C   0  0  0  0  0
   14.5570   39.6010   21.4020 C   0  0  0  0  0
   13.4430   38.7670   17.0330 N   0  0  0  0  0
   13.0410   39.5910   15.8970 C   0  0  0  0  0
   11.5240   39.6770   16.0230 C   0  0  0  0  0
   10.8630   38.6610   16.2630 O   0  0  0  0  0
   13.4290   38.9350   14.5710 C   0  0  0  0  0
   12.9110   39.6590   13.3340 C   0  0  0  0  0
   13.4030   41.0950   13.2190 C   0  0  0  0  0
   13.0080   41.7690   12.2410 O   0  0  0  0  0
   14.1760   41.5520   14.0950 O   0  0  0  0  0
   10.9750   40.8810   15.8690 N   0  0  0  0  0
    9.5360   41.0870   16.0180 C   0  0  0  0  0
    8.6900   40.4450   14.9430 C   0  0  0  0  0
    9.1080   40.3410   13.7870 O   0  0  0  0  0
    9.2130   42.5830   16.0640 C   0  0  0  0  0
    9.9150   43.3170   17.1620 C   0  0  0  0  0
   10.5440   44.5280   17.0620 C   0  0  0  0  0
   10.0820   42.8890   18.5240 C   0  0  0  0  0
   11.0970   44.8770   18.2740 N   0  0  0  0  0
   10.8310   43.8900   19.1880 C   0  0  0  0  0
    9.6750   41.7580   19.2450 C   0  0  0  0  0
   11.1840   43.7950   20.5390 C   0  0  0  0  0
   10.0260   41.6630   20.5890 C   0  0  0  0  0
   10.7760   42.6790   21.2200 C   0  0  0  0  0
    7.4960   40.0130   15.3480 N   0  0  0  0  0
    6.5390   39.4120   14.4320 C   0  0  0  0  0
    5.5200   40.4860   14.1290 C   0  0  0  0  0
    4.7780   40.9220   15.0040 O   0  0  0  0  0
    5.8390   38.1790   15.0330 C   0  0  0  0  0
    6.7360   37.0630   15.0060 O   0  0  0  0  0
    4.5960   37.8260   14.2270 C   0  0  0  0  0
    5.5020   40.9110   12.8710 N   0  0  0  0  0
    4.6090   41.9640   12.4480 C   0  0  0  0  0
    3.1540   41.5360   12.4100 C   0  0  0  0  0
    2.8470   40.4020   12.0580 O   0  0  0  0  0
    5.0940   42.5280   11.1070 C   0  0  0  0  0
    5.7610   43.9170   11.2150 C   0  0  0  0  0
    6.9150   43.9980   12.2220 C   0  0  0  0  0
    7.8050   43.1090   12.2070 O   0  0  0  0  0
    6.9320   44.9780   13.0100 O   0  0  0  0  0
    2.2660   42.4470   12.8040 N   0  0  0  0  0
    0.8420   42.1570   12.8330 C   0  0  0  0  0
    0.1370   42.5020   11.5270 C   0  0  0  0  0
    0.4070   43.5230   10.8940 O   0  0  0  0  0
    0.1890   42.8900   13.9860 C   0  0  0  0  0
   -0.7790   41.6320   11.1340 N   0  0  0  0  0
   -1.5450   41.8170    9.9110 C   0  0  0  0  0
   -2.8230   42.6010   10.2190 C   0  0  0  0  0
   -3.1640   42.8080   11.3920 O   0  0  0  0  0
   -1.8790   40.4490    9.3200 C   0  0  0  0  0
   -0.6470   39.5750    9.0780 C   0  0  0  0  0
   -0.9670   38.0910    9.0020 C   0  0  0  0  0
   -1.8450   37.6710    8.2540 O   0  0  0  0  0
   -0.2460   37.2910    9.7730 N   0  0  0  0  0
   -3.5140   43.0250    9.1580 N   0  0  0  0  0
   -4.7520   43.8090    9.2430 C   0  0  0  0  0
   -5.9690   42.9760    8.8380 C   0  0  0  0  0
   -5.8810   42.1660    7.9200 O   0  0  0  0  0
   -4.6620   45.0120    8.2940 C   0  0  0  0  0
   -5.7930   46.0340    8.4250 C   0  0  0  0  0
   -5.4550   47.3360    7.7250 C   0  0  0  0  0
   -5.0430   47.1130    6.3450 N   0  0  0  0  0
   -4.4670   48.0400    5.5900 C   0  0  0  0  0
   -4.2380   49.2490    6.0950 N   0  0  0  0  0
   -4.1190   47.7600    4.3370 N   0  0  0  0  0
   -7.1030   43.1640    9.5060 N   0  0  0  0  0
   -8.3050   42.4140    9.1320 C   0  0  0  0  0
   -9.4170   43.3530    8.6790 C   0  0  0  0  0
   -9.2230   44.5840    8.7860 O   0  0  0  0  0
   -8.8110   41.5450   10.3010 C   0  0  0  0  0
  -10.0810   40.6960   10.0540 C   0  0  0  0  0
   -9.7630   39.1830   10.0200 C   0  0  0  0  0
  -11.1000   41.0080   11.1530 C   0  0  0  0  0
  -10.4973   42.9034    8.2116 O   0  0  0  0  0
   26.1770   38.6636   27.4917 H   0  0  0  0  0
   26.7254   37.9079   26.1115 H   0  0  0  0  0
   27.3307   39.3998   26.5410 H   0  0  0  0  0
   25.2083   40.4414   26.1950 H   0  0  0  0  0
   25.0000   39.8745   23.6919 H   0  0  0  0  0
   26.4634   38.8207   23.9996 H   0  0  0  0  0
   27.5002   40.9335   24.9554 H   0  0  0  0  0
   26.1701   41.8015   24.0652 H   0  0  0  0  0
   26.9562   40.8381   21.9733 H   0  0  0  0  0
   28.2710   39.9808   22.8531 H   0  0  0  0  0
   28.3199   42.8276   23.3350 H   0  0  0  0  0
   30.5206   41.3338   20.2809 H   0  0  0  0  0
   29.2203   40.3544   20.9675 H   0  0  0  0  0
   29.9853   44.0651   22.4444 H   0  0  0  0  0
   23.1953   40.0303   24.6287 H   0  0  0  0  0
   22.0041   37.4356   25.4739 H   0  0  0  0  0
   21.3571   39.5397   26.8595 H   0  0  0  0  0
   20.0268   38.4568   26.2298 H   0  0  0  0  0
   19.7201   40.0293   24.3836 H   0  0  0  0  0
   20.9189   41.1303   25.1760 H   0  0  0  0  0
   17.0383   41.2656   26.2044 H   0  0  0  0  0
   17.6626   40.4562   24.7634 H   0  0  0  0  0
   20.2121   36.6803   24.2166 H   0  0  0  0  0
   20.5731   37.3834   21.3956 H   0  0  0  0  0
   18.9298   35.6795   20.9761 H   0  0  0  0  0
   18.7201   35.5053   22.8261 H   0  0  0  0  0
   20.0181   33.7195   21.5099 H   0  0  0  0  0
   21.3856   35.2685   20.1896 H   0  0  0  0  0
   22.0724   35.9484   21.6853 H   0  0  0  0  0
   22.4042   34.2558   21.2422 H   0  0  0  0  0
   21.1933   35.1683   23.9047 H   0  0  0  0  0
   19.9078   33.9369   23.9515 H   0  0  0  0  0
   21.5491   33.4910   23.4240 H   0  0  0  0  0
   19.2374   38.5319   20.1129 H   0  0  0  0  0
   17.0369   39.9883   21.4964 H   0  0  0  0  0
   17.1100   41.4514   19.4611 H   0  0  0  0  0
   18.6257   40.4958   18.9822 H   0  0  0  0  0
   19.5895   42.8757   18.8038 H   0  0  0  0  0
   18.3223   41.0966   22.5044 H   0  0  0  0  0
   20.9680   44.5117   20.0565 H   0  0  0  0  0
   19.6996   42.7408   23.7694 H   0  0  0  0  0
   21.0975   44.4714   23.6226 H   0  0  0  0  0
   14.3366   37.4322   18.9153 H   0  0  0  0  0
   12.9910   37.3394   20.9594 H   0  0  0  0  0
   11.9517   38.1387   19.8866 H   0  0  0  0  0
   12.4892   39.4838   22.0980 H   0  0  0  0  0
   12.6563   40.3869   20.6647 H   0  0  0  0  0
   14.8978   40.6186   21.5927 H   0  0  0  0  0
   14.8825   39.0690   22.2959 H   0  0  0  0  0
   13.5170   37.7557   16.9224 H   0  0  0  0  0
   13.5263   40.5670   15.9034 H   0  0  0  0  0
   12.9875   37.9384   14.5663 H   0  0  0  0  0
   14.5175   38.9462   14.5154 H   0  0  0  0  0
   11.8237   39.6903   13.4045 H   0  0  0  0  0
   13.2755   39.1173   12.4612 H   0  0  0  0  0
   14.3514   40.8733   14.7509 H   0  0  0  0  0
   11.5720   41.6763   15.6422 H   0  0  0  0  0
    9.2798   40.5946   16.9561 H   0  0  0  0  0
    8.1418   42.6796   16.2408 H   0  0  0  0  0
    9.5427   43.0165   15.1198 H   0  0  0  0  0
   10.5994   45.1293   16.1546 H   0  0  0  0  0
    9.0961   40.9697   18.7638 H   0  0  0  0  0
   11.7611   44.5786   21.0300 H   0  0  0  0  0
    9.7166   40.7898   21.1634 H   0  0  0  0  0
   11.0363   42.5729   22.2731 H   0  0  0  0  0
    7.2451   40.1068   16.3322 H   0  0  0  0  0
    7.0530   39.0593   13.5378 H   0  0  0  0  0
    5.5497   38.4089   16.0584 H   0  0  0  0  0
    6.2999   36.2942   15.3806 H   0  0  0  0  0
    3.9044   38.6684   14.2406 H   0  0  0  0  0
    4.8819   37.6055   13.1985 H   0  0  0  0  0
    4.1152   36.9524   14.6671 H   0  0  0  0  0
    6.1312   40.4854   12.1903 H   0  0  0  0  0
    4.6390   42.7569   13.1954 H   0  0  0  0  0
    4.2188   42.6382   10.4667 H   0  0  0  0  0
    5.8433   41.8386   10.7179 H   0  0  0  0  0
    4.9934   44.6117   11.5560 H   0  0  0  0  0
    6.1792   44.1450   10.2346 H   0  0  0  0  0
    7.5957   42.4596   11.5317 H   0  0  0  0  0
    2.5927   43.3694   13.0920 H   0  0  0  0  0
    0.7405   41.0804   12.9698 H   0  0  0  0  0
    0.6412   42.5663   14.9234 H   0  0  0  0  0
    0.3352   43.9630   13.8621 H   0  0  0  0  0
   -0.8777   42.6665   13.9995 H   0  0  0  0  0
   -0.9536   40.8059   11.7062 H   0  0  0  0  0
   -0.9608   42.3829    9.1853 H   0  0  0  0  0
   -2.3583   40.6158    8.3554 H   0  0  0  0  0
   -2.5159   39.9285   10.0353 H   0  0  0  0  0
    0.0315   39.7227    9.9182 H   0  0  0  0  0
   -0.2182   39.8687    8.1199 H   0  0  0  0  0
   -0.4112   36.2846    9.7593 H   0  0  0  0  0
    0.4744   37.6814   10.3805 H   0  0  0  0  0
   -3.1596   42.7895    8.2310 H   0  0  0  0  0
   -4.8688   44.1332   10.2771 H   0  0  0  0  0
   -4.7161   44.6147    7.2804 H   0  0  0  0  0
   -3.7382   45.5355    8.5403 H   0  0  0  0  0
   -5.9468   46.2428    9.4837 H   0  0  0  0  0
   -6.6880   45.6175    7.9628 H   0  0  0  0  0
   -4.6303   47.8092    8.2581 H   0  0  0  0  0
   -6.3448   47.9655    7.7209 H   0  0  0  0  0
   -5.2065   46.1928    5.9365 H   0  0  0  0  0
   -4.5047   49.4588    7.0569 H   0  0  0  0  0
   -3.6747   48.4738    3.7595 H   0  0  0  0  0
   -4.2965   46.8315    3.9538 H   0  0  0  0  0
   -7.1363   43.8297   10.2781 H   0  0  0  0  0
   -8.0304   41.7611    8.3035 H   0  0  0  0  0
   -9.0719   42.2427   11.0967 H   0  0  0  0  0
   -8.0132   40.8310   10.5056 H   0  0  0  0  0
  -10.4924   40.9537    9.0781 H   0  0  0  0  0
   -9.0537   38.9801    9.2177 H   0  0  0  0  0
   -9.3300   38.8825   10.9741 H   0  0  0  0  0
  -10.6820   38.6237    9.8443 H   0  0  0  0  0
  -10.6717   40.7613   12.1245 H   0  0  0  0  0
  -11.3508   42.0683   11.1237 H   0  0  0  0  0
  -12.0005   40.4157   10.9905 H   0  0  0  0  0
  -10.4671   41.9439    8.2052 H   0  0  0  0  0
  1  2  1  0  0  0
  2  3  1  0  0  0
  2  5  1  0  0  0
  3  4  2  0  0  0
  3 12  1  0  0  0
  5  6  1  0  0  0
  6  7  1  0  0  0
  7  8  1  0  0  0
  8  9  1  0  0  0
  9 10  1  0  0  0
  9 11  2  0  0  0
 12 13  1  0  0  0
 13 14  1  0  0  0
 13 16  1  0  0  0
 14 15  2  0  0  0
 14 21  1  0  0  0
 16 17  1  0  0  0
 17 18  1  0  0  0
 18 19  2  0  0  0
 18 20  1  0  0  0
 21 22  1  0  0  0
 22 23  1  0  0  0
 22 25  1  0  0  0
 23 24  2  0  0  0
 23 29  1  0  0  0
 25 26  1  0  0  0
 26 27  1  0  0  0
 26 28  1  0  0  0
 29 30  1  0  0  0
 30 31  1  0  0  0
 30 33  1  0  0  0
 31 32  2  0  0  0
 31 41  1  0  0  0
 33 34  1  0  0  0
 34 35  4  0  0  0
 34 36  4  0  0  0
 35 37  4  0  0  0
 36 38  4  0  0  0
 37 39  4  0  0  0
 38 39  4  0  0  0
 39 40  1  0  0  0
 41 42  1  0  0  0
 41 47  1  0  0  0
 42 43  1  0  0  0
 42 45  1  0  0  0
 43 44  2  0  0  0
 43 48  1  0  0  0
 45 46  1  0  0  0
 46 47  1  0  0  0
 48 49  1  0  0  0
 49 50  1  0  0  0
 49 52  1  0  0  0
 50 51  2  0  0  0
 50 57  1  0  0  0
 52 53  1  0  0  0
 53 54  1  0  0  0
 54 55  2  0  0  0
 54 56  1  0  0  0
 57 58  1  0  0  0
 58 59  1  0  0  0
 58 61  1  0  0  0
 59 60  2  0  0  0
 59 71  1  0  0  0
 61 62  1  0  0  0
 62 63  4  0  0  0
 62 64  4  0  0  0
 63 65  4  0  0  0
 64 66  4  0  0  0
 64 67  4  0  0  0
 65 66  4  0  0  0
 66 68  4  0  0  0
 67 69  4  0  0  0
 68 70  4  0  0  0
 69 70  4  0  0  0
 71 72  1  0  0  0
 72 73  1  0  0  0
 72 75  1  0  0  0
 73 74  2  0  0  0
 73 78  1  0  0  0
 75 76  1  0  0  0
 75 77  1  0  0  0
 78 79  1  0  0  0
 79 80  1  0  0  0
 79 82  1  0  0  0
 80 81  2  0  0  0
 80 87  1  0  0  0
 82 83  1  0  0  0
 83 84  1  0  0  0
 84 85  1  0  0  0
 84 86  2  0  0  0
 87 88  1  0  0  0
 88 89  1  0  0  0
 88 91  1  0  0  0
 89 90  2  0  0  0
 89 92  1  0  0  0
 92 93  1  0  0  0
 93 94  1  0  0  0
 93 96  1  0  0  0
 94 95  2  0  0  0
 94101  1  0  0  0
 96 97  1  0  0  0
 97 98  1  0  0  0
 98 99  2  0  0  0
 98100  1  0  0  0
101102  1  0  0  0
102103  1  0  0  0
102105  1  0  0  0
103104  2  0  0  0
103112  1  0  0  0
105106  1  0  0  0
106107  1  0  0  0
107108  1  0  0  0
108109  1  0  0  0
109110  2  0  0  0
109111  1  0  0  0
112113  1  0  0  0
113114  1  0  0  0
113116  1  0  0  0
114115  2  0  0  0
116117  1  0  0  0
117118  1  0  0  0
117119  1  0  0  0
114120  1  0  0  0
  1121  1  0  0  0
  1122  1  0  0  0
  1123  1  0  0  0
  2124  1  0  0  0
  5125  1  0  0  0
  5126  1  0  0  0
  6127  1  0  0  0
  6128  1  0  0  0
  7129  1  0  0  0
  7130  1  0  0  0
  8131  1  0  0  0
 10132  1  0  0  0
 10133  1  0  0  0
 11134  1  0  0  0
 12135  1  0  0  0
 13136  1  0  0  0
 16137  1  0  0  0
 16138  1  0  0  0
 17139  1  0  0  0
 17140  1  0  0  0
 20141  1  0  0  0
 20142  1  0  0  0
 21143  1  0  0  0
 22144  1  0  0  0
 25145  1  0  0  0
 25146  1  0  0  0
 26147  1  0  0  0
 27148  1  0  0  0
 27149  1  0  0  0
 27150  1  0  0  0
 28151  1  0  0  0
 28152  1  0  0  0
 28153  1  0  0  0
 29154  1  0  0  0
 30155  1  0  0  0
 33156  1  0  0  0
 33157  1  0  0  0
 35158  1  0  0  0
 36159  1  0  0  0
 37160  1  0  0  0
 38161  1  0  0  0
 40162  1  0  0  0
 42163  1  0  0  0
 45164  1  0  0  0
 45165  1  0  0  0
 46166  1  0  0  0
 46167  1  0  0  0
 47168  1  0  0  0
 47169  1  0  0  0
 48170  1  0  0  0
 49171  1  0  0  0
 52172  1  0  0  0
 52173  1  0  0  0
 53174  1  0  0  0
 53175  1  0  0  0
 56176  1  0  0  0
 57177  1  0  0  0
 58178  1  0  0  0
 61179  1  0  0  0
 61180  1  0  0  0
 63181  1  0  0  0
 67182  1  0  0  0
 68183  1  0  0  0
 69184  1  0  0  0
 70185  1  0  0  0
 71186  1  0  0  0
 72187  1  0  0  0
 75188  1  0  0  0
 76189  1  0  0  0
 77190  1  0  0  0
 77191  1  0  0  0
 77192  1  0  0  0
 78193  1  0  0  0
 79194  1  0  0  0
 82195  1  0  0  0
 82196  1  0  0  0
 83197  1  0  0  0
 83198  1  0  0  0
 85199  1  0  0  0
 87200  1  0  0  0
 88201  1  0  0  0
 91202  1  0  0  0
 91203  1  0  0  0
 91204  1  0  0  0
 92205  1  0  0  0
 93206  1  0  0  0
 96207  1  0  0  0
 96208  1  0  0  0
 97209  1  0  0  0
 97210  1  0  0  0
100211  1  0  0  0
100212  1  0  0  0
101213  1  0  0  0
102214  1  0  0  0
105215  1  0  0  0
105216  1  0  0  0
106217  1  0  0  0
106218  1  0  0  0
107219  1  0  0  0
107220  1  0  0  0
108221  1  0  0  0
110222  1  0  0  0
111223  1  0  0  0
111224  1  0  0  0
112225  1  0  0  0
113226  1  0  0  0
116227  1  0  0  0
116228  1  0  0  0
117229  1  0  0  0
118230  1  0  0  0
118231  1  0  0  0
118232  1  0  0  0
119233  1  0  0  0
119234  1  0  0  0
119235  1  0  0  0
120236  1  0  0  0
M  END
$$$$
