4qb3_ligand
  -I-interpret- 

 43 45  0  0  0  0  0  0  0  0999 V2000
   24.5750   51.2090   -4.4730 C   0  0  0  0  0
   23.2250   51.7780   -4.6380 C   0  0  0  0  0
   22.8960   51.8200   -6.1140 C   0  0  0  0  0
   24.3100   49.8260   -6.4940 C   0  0  0  0  0
   22.3350   47.7410    0.2750 O   0  0  0  0  0
   23.4440   48.0850    0.7810 C   0  0  0  0  0
   24.3390   47.0790    1.4210 C   0  0  0  0  0
   23.8270   49.3460    0.7610 N   0  0  0  0  0
   23.0100   50.4280    0.2500 C   0  0  0  0  0
   23.4960   50.9320   -1.0950 C   0  0  0  0  0
   24.8810   51.5060   -1.0490 C   0  0  0  0  0
   25.3110   52.2540   -2.2970 C   0  0  0  0  0
   25.4310   51.3830   -3.4520 N   0  0  0  0  0
   25.0970   50.3100   -5.3480 C   0  0  0  0  0
   24.6010   48.8050   -7.1400 O   0  0  0  0  0
   23.1880   50.5110   -6.7400 N   0  0  0  0  0
   26.3600   49.8950   -4.8590 C   0  0  0  0  0
   26.5550   50.5780   -3.6520 C   0  0  0  0  0
   27.6840   50.4340   -2.8640 C   0  0  0  0  0
   28.6500   49.5400   -3.2710 C   0  0  0  0  0
   28.5060   48.8200   -4.4800 C   0  0  0  0  0
   27.3780   48.9840   -5.2860 C   0  0  0  0  0
   23.1933   52.7850   -4.2219 H   0  0  0  0  0
   22.4957   51.1615   -4.1126 H   0  0  0  0  0
   23.5030   52.5881   -6.5932 H   0  0  0  0  0
   21.8369   52.0462   -6.2372 H   0  0  0  0  0
   23.8157   46.6054    2.2516 H   0  0  0  0  0
   24.6173   46.3230    0.6868 H   0  0  0  0  0
   25.2360   47.5757    1.7908 H   0  0  0  0  0
   24.7518   49.5733    1.1263 H   0  0  0  0  0
   23.0618   51.2542    0.9591 H   0  0  0  0  0
   21.9942   50.0535    0.1234 H   0  0  0  0  0
   22.8207   51.7266   -1.4124 H   0  0  0  0  0
   23.5142   50.0826   -1.7779 H   0  0  0  0  0
   25.5651   50.6649   -0.9365 H   0  0  0  0  0
   24.8944   52.2268   -0.2315 H   0  0  0  0  0
   26.2890   52.6953   -2.1049 H   0  0  0  0  0
   24.5518   53.0042   -2.5184 H   0  0  0  0  0
   22.5051   50.1149   -7.3859 H   0  0  0  0  0
   27.8052   51.0115   -1.9476 H   0  0  0  0  0
   29.5354   49.3857   -2.6543 H   0  0  0  0  0
   29.2883   48.1260   -4.7873 H   0  0  0  0  0
   27.2749   48.4307   -6.2195 H   0  0  0  0  0
  1  2  1  0  0  0
 13  1  4  0  0  0
  1 14  4  0  0  0
  2  3  1  0  0  0
  3 16  1  0  0  0
 14  4  1  0  0  0
  4 15  2  0  0  0
  4 16  1  0  0  0
  6  5  2  0  0  0
  6  7  1  0  0  0
  8  6  1  0  0  0
  9  8  1  0  0  0
 10  9  1  0  0  0
 11 10  1  0  0  0
 12 11  1  0  0  0
 12 13  1  0  0  0
 13 18  4  0  0  0
 14 17  4  0  0  0
 17 18  4  0  0  0
 17 22  4  0  0  0
 18 19  4  0  0  0
 19 20  4  0  0  0
 20 21  4  0  0  0
 21 22  4  0  0  0
  2 23  1  0  0  0
  2 24  1  0  0  0
  3 25  1  0  0  0
  3 26  1  0  0  0
  7 27  1  0  0  0
  7 28  1  0  0  0
  7 29  1  0  0  0
  8 30  1  0  0  0
  9 31  1  0  0  0
  9 32  1  0  0  0
 10 33  1  0  0  0
 10 34  1  0  0  0
 11 35  1  0  0  0
 11 36  1  0  0  0
 12 37  1  0  0  0
 12 38  1  0  0  0
 16 39  1  0  0  0
 19 40  1  0  0  0
 20 41  1  0  0  0
 21 42  1  0  0  0
 22 43  1  0  0  0
M  END
$$$$
