1x8j_ligand
  -I-interpret- 

 51 54  0  0  0  0  0  0  0  0999 V2000
   22.9800   -7.5390   41.0900 C   0  0  0  0  0
   24.3850   -8.1060   40.7770 C   0  0  0  0  0
   25.0090   -8.7760   42.0230 C   0  0  0  0  0
   25.3520   -7.7130   42.9430 O   0  0  0  0  0
   24.0890   -9.7800   42.6710 C   0  0  0  0  0
   22.6790   -9.2060   42.9830 C   0  0  0  0  0
   21.7460  -10.2660   43.6460 C   0  0  0  0  0
   20.3830   -9.6810   43.9470 C   0  0  0  0  0
   19.6740   -9.0990   42.6990 C   0  0  0  0  0
   20.5900   -8.0130   42.0410 C   0  0  0  0  0
   22.0060   -8.6220   41.6670 C   0  0  0  0  0
   19.8580   -7.4110   40.7930 C   0  0  0  0  0
   18.4480   -6.8110   41.1350 C   0  0  0  0  0
   17.5610   -7.8710   41.8020 C   0  0  0  0  0
   18.3140   -8.4700   43.0420 C   0  0  0  0  0
   17.1990   -9.3050   43.7140 C   0  0  0  0  0
   16.0410   -8.3040   43.7020 C   0  0  0  0  0
   16.2940   -7.3780   42.5030 C   0  0  0  0  0
   15.6040   -6.4500   42.2020 O   0  0  0  0  0
   17.0970   -8.9470   40.7530 C   0  0  0  0  0
   21.8310   -9.7350   40.5690 C   0  0  0  0  0
   22.5536   -7.1678   40.1581 H   0  0  0  0  0
   23.0942   -6.7573   41.8410 H   0  0  0  0  0
   25.0297   -7.2845   40.4646 H   0  0  0  0  0
   24.2903   -8.8547   39.9905 H   0  0  0  0  0
   25.8902   -9.3458   41.7284 H   0  0  0  0  0
   25.9368   -7.0895   42.5061 H   0  0  0  0  0
   24.5405  -10.0794   43.6168 H   0  0  0  0  0
   23.9616  -10.6088   41.9747 H   0  0  0  0  0
   22.8147   -8.3966   43.7003 H   0  0  0  0  0
   22.1994  -10.5927   44.5818 H   0  0  0  0  0
   21.6223  -11.1012   42.9567 H   0  0  0  0  0
   20.5250   -8.8644   44.6548 H   0  0  0  0  0
   19.7583  -10.4859   44.3342 H   0  0  0  0  0
   19.4948   -9.9234   42.0088 H   0  0  0  0  0
   20.7752   -7.2076   42.7517 H   0  0  0  0  0
   19.7091   -8.2180   40.0756 H   0  0  0  0  0
   20.4767   -6.6018   40.4049 H   0  0  0  0  0
   17.9710   -6.4790   40.2129 H   0  0  0  0  0
   18.5761   -5.9736   41.8208 H   0  0  0  0  0
   18.7099   -7.7590   43.7671 H   0  0  0  0  0
   17.4579   -9.6695   44.7081 H   0  0  0  0  0
   16.9788  -10.2418   43.2021 H   0  0  0  0  0
   15.9970   -7.7402   44.6338 H   0  0  0  0  0
   15.0809   -8.8122   43.6125 H   0  0  0  0  0
   16.5291   -8.4590   39.9609 H   0  0  0  0  0
   17.9719   -9.4369   40.3257 H   0  0  0  0  0
   16.4695   -9.6882   41.2480 H   0  0  0  0  0
   21.1872  -10.5257   40.9543 H   0  0  0  0  0
   21.3785   -9.2976   39.6790 H   0  0  0  0  0
   22.8065  -10.1501   40.3156 H   0  0  0  0  0
  1  2  1  0  0  0
  1 11  1  0  0  0
  2  3  1  0  0  0
  3  4  1  0  0  0
  3  5  1  0  0  0
  5  6  1  0  0  0
  6  7  1  0  0  0
 11  6  1  0  0  0
  7  8  1  0  0  0
  8  9  1  0  0  0
  9 10  1  0  0  0
  9 15  1  0  0  0
 10 11  1  0  0  0
 10 12  1  0  0  0
 11 21  1  0  0  0
 12 13  1  0  0  0
 13 14  1  0  0  0
 15 14  1  0  0  0
 14 18  1  0  0  0
 14 20  1  0  0  0
 15 16  1  0  0  0
 16 17  1  0  0  0
 17 18  1  0  0  0
 18 19  2  0  0  0
  1 22  1  0  0  0
  1 23  1  0  0  0
  2 24  1  0  0  0
  2 25  1  0  0  0
  3 26  1  0  0  0
  4 27  1  0  0  0
  5 28  1  0  0  0
  5 29  1  0  0  0
  6 30  1  0  0  0
  7 31  1  0  0  0
  7 32  1  0  0  0
  8 33  1  0  0  0
  8 34  1  0  0  0
  9 35  1  0  0  0
 10 36  1  0  0  0
 12 37  1  0  0  0
 12 38  1  0  0  0
 13 39  1  0  0  0
 13 40  1  0  0  0
 15 41  1  0  0  0
 16 42  1  0  0  0
 16 43  1  0  0  0
 17 44  1  0  0  0
 17 45  1  0  0  0
 20 46  1  0  0  0
 20 47  1  0  0  0
 20 48  1  0  0  0
 21 49  1  0  0  0
 21 50  1  0  0  0
 21 51  1  0  0  0
M  END
$$$$
