4gu6_ligand
  -I-interpret- 

 50 53  0  0  0  0  0  0  0  0999 V2000
   23.6300   -6.7070  -39.4170 N   0  0  0  0  0
   22.8430   -5.6860  -39.2580 C   0  0  0  0  0
   21.9770   -5.2720  -40.2670 C   0  0  0  0  0
   21.9470   -5.9660  -41.4930 C   0  0  0  0  0
   21.0770   -5.5250  -42.4790 N   0  0  0  0  0
   20.6900   -6.4950  -43.5060 C   0  0  0  0  0
   19.6910   -5.8400  -44.4350 C   0  0  0  0  0
   20.1470   -5.0740  -45.4900 C   0  0  0  0  0
   19.2240   -4.4770  -46.3330 C   0  0  0  0  0
   17.8820   -4.6630  -46.1010 C   0  0  0  0  0
   17.4700   -5.3940  -45.0900 N   0  0  0  0  0
   18.3130   -5.9760  -44.2610 C   0  0  0  0  0
   17.7720   -6.7340  -43.2310 N   0  0  0  0  0
   17.3180   -6.0310  -41.8050 S   0  0  0  0  0
   18.2670   -5.0310  -41.5760 O   0  0  0  0  0
   15.9740   -5.6840  -42.0250 O   0  0  0  0  0
   17.4290   -7.3530  -40.5820 C   0  0  0  0  0
   17.5610   -8.1620  -43.4390 C   0  0  0  0  0
   22.8230   -7.0650  -41.6240 C   0  0  0  0  0
   23.6570   -7.3990  -40.5400 C   0  0  0  0  0
   24.3970   -8.4790  -40.8980 N   0  0  0  0  0
   24.0890   -8.8670  -42.1670 C   0  0  0  0  0
   23.1320   -8.0440  -42.6680 C   0  0  0  0  0
   24.7330  -10.0160  -42.8340 C   0  0  0  0  0
   25.9100  -10.5450  -42.3020 C   0  0  0  0  0
   26.5230  -11.6170  -42.9100 C   0  0  0  0  0
   25.9680  -12.1730  -44.0430 C   0  0  0  0  0
   24.8020  -11.6570  -44.5740 C   0  0  0  0  0
   24.1800  -10.5850  -43.9770 C   0  0  0  0  0
   21.1340   -4.1480  -40.0250 C   0  0  0  0  0
   20.4720   -3.2580  -39.8250 N   0  0  0  0  0
   22.8608   -5.1412  -38.3141 H   0  0  0  0  0
   20.7227   -4.5685  -42.4885 H   0  0  0  0  0
   20.2430   -7.3725  -43.0387 H   0  0  0  0  0
   21.5686   -6.8112  -44.0684 H   0  0  0  0  0
   21.2160   -4.9414  -45.6566 H   0  0  0  0  0
   19.5584   -3.8661  -47.1715 H   0  0  0  0  0
   17.1513   -4.1988  -46.7633 H   0  0  0  0  0
   18.4201   -7.8045  -40.6258 H   0  0  0  0  0
   17.2597   -6.9410  -39.5872 H   0  0  0  0  0
   16.6740   -8.1093  -40.7968 H   0  0  0  0  0
   18.1084   -8.7230  -42.6816 H   0  0  0  0  0
   16.4971   -8.3860  -43.3607 H   0  0  0  0  0
   17.9203   -8.4406  -44.4297 H   0  0  0  0  0
   22.6802   -8.1013  -43.6583 H   0  0  0  0  0
   26.3447  -10.1082  -41.4030 H   0  0  0  0  0
   27.4452  -12.0254  -42.4966 H   0  0  0  0  0
   26.4518  -13.0241  -44.5221 H   0  0  0  0  0
   24.3721  -12.1018  -45.4714 H   0  0  0  0  0
   23.2581  -10.1832  -44.3975 H   0  0  0  0  0
  1  2  4  0  0  0
  1 20  4  0  0  0
  2  3  4  0  0  0
  3  4  4  0  0  0
  3 30  1  0  0  0
  4  5  1  0  0  0
  4 19  4  0  0  0
  5  6  1  0  0  0
  6  7  1  0  0  0
  7  8  4  0  0  0
  7 12  4  0  0  0
  8  9  4  0  0  0
  9 10  4  0  0  0
 10 11  4  0  0  0
 11 12  4  0  0  0
 12 13  1  0  0  0
 13 14  1  0  0  0
 13 18  1  0  0  0
 14 15  2  0  0  0
 14 16  2  0  0  0
 14 17  1  0  0  0
 19 20  4  0  0  0
 19 23  4  0  0  0
 20 21  4  0  0  0
 21 22  4  0  0  0
 22 23  4  0  0  0
 22 24  1  0  0  0
 24 25  4  0  0  0
 24 29  4  0  0  0
 25 26  4  0  0  0
 26 27  4  0  0  0
 27 28  4  0  0  0
 28 29  4  0  0  0
 30 31  3  0  0  0
  2 32  1  0  0  0
  5 33  1  0  0  0
  6 34  1  0  0  0
  6 35  1  0  0  0
  8 36  1  0  0  0
  9 37  1  0  0  0
 10 38  1  0  0  0
 17 39  1  0  0  0
 17 40  1  0  0  0
 17 41  1  0  0  0
 18 42  1  0  0  0
 18 43  1  0  0  0
 18 44  1  0  0  0
 23 45  1  0  0  0
 25 46  1  0  0  0
 26 47  1  0  0  0
 27 48  1  0  0  0
 28 49  1  0  0  0
 29 50  1  0  0  0
M  END
$$$$
