6rhe_ligand
  -I-interpret- 

 53 53  0  0  0  0  0  0  0  0999 V2000
   49.6080   -6.2850   -9.0650 C   0  0  0  0  0
   50.6650   -6.8830   -8.8800 O   0  0  0  0  0
   49.6330   -4.8150   -9.5680 C   0  0  0  0  0
   48.3790   -6.8380   -8.8480 N   0  0  0  0  0
   48.1690   -8.2310   -8.3420 C   0  0  0  0  0
   47.5110   -9.1100   -9.4420 C   0  0  0  0  0
   47.4990  -10.3320   -9.2840 O   0  0  0  0  0
   47.3180   -8.2300   -7.0340 C   0  0  0  0  0
   47.0160   -8.4220  -10.5280 N   0  0  0  0  0
   46.3660   -8.9710  -11.7480 C   0  0  0  0  0
   45.8680   -7.7610  -12.6340 C   0  0  0  0  0
   46.2290   -6.6340  -12.3270 O   0  0  0  0  0
   45.2380   -9.9500  -11.3800 C   0  0  0  0  0
   44.0740   -9.3130  -10.5880 C   0  0  0  0  0
   43.2210   -8.3670  -10.9850 N   0  0  0  0  0
   43.7430   -9.6730   -9.3590 C   0  0  0  0  0
   42.3610   -8.1260   -9.9910 C   0  0  0  0  0
   42.6850   -8.9350   -8.9860 N   0  0  0  0  0
   45.0390   -7.9880  -13.6980 N   0  0  0  0  0
   44.4610   -6.9010  -14.5710 C   0  0  0  0  0
   43.0890   -6.3300  -14.0640 C   0  0  0  0  0
   42.7940   -6.4420  -12.8770 O   0  0  0  0  0
   44.2100   -7.5910  -15.9330 C   0  0  0  0  0
   45.8240   -7.6570  -16.7110 S   0  0  0  0  0
   42.2490   -5.7370  -14.9790 N   0  0  0  0  0
   40.8750   -5.2420  -14.7240 C   0  0  0  0  0
   40.6650   -4.4630  -13.3780 C   0  0  0  0  0
   41.5740   -3.9420  -12.7250 O   0  0  0  0  0
   39.3950   -4.3760  -12.9970 N   0  0  0  0  0
   50.1682   -4.1952   -8.8486 H   0  0  0  0  0
   50.1372   -4.7712  -10.5334 H   0  0  0  0  0
   48.6110   -4.4510   -9.6736 H   0  0  0  0  0
   47.5553   -6.2685   -9.0421 H   0  0  0  0  0
   49.1410   -8.6601   -8.0985 H   0  0  0  0  0
   46.3254   -7.8338   -7.2482 H   0  0  0  0  0
   47.2304   -9.2494   -6.6583 H   0  0  0  0  0
   47.8059   -7.6061   -6.2851 H   0  0  0  0  0
   47.1068   -7.4067  -10.4907 H   0  0  0  0  0
   47.0801   -9.5531  -12.3305 H   0  0  0  0  0
   45.6761  -10.7183  -10.7428 H   0  0  0  0  0
   44.8217  -10.3248  -12.3150 H   0  0  0  0  0
   44.2403  -10.4331   -8.7565 H   0  0  0  0  0
   41.5463   -7.4019  -10.0017 H   0  0  0  0  0
   44.7957   -8.9544  -13.9155 H   0  0  0  0  0
   45.1488   -6.0557  -14.5932 H   0  0  0  0  0
   43.4874   -7.0449  -16.5394 H   0  0  0  0  0
   43.7746   -8.5830  -15.8131 H   0  0  0  0  0
   45.7169   -8.2394  -17.9019 H   0  0  0  0  0
   42.6077   -5.6271  -15.9275 H   0  0  0  0  0
   40.2363   -6.1237  -14.6709 H   0  0  0  0  0
   40.6494   -4.5375  -15.5245 H   0  0  0  0  0
   39.1514   -3.8692  -12.1460 H   0  0  0  0  0
   38.6637   -4.8161  -13.5555 H   0  0  0  0  0
  1  2  2  0  0  0
  1  3  1  0  0  0
  1  4  1  0  0  0
  4  5  1  0  0  0
  5  6  1  0  0  0
  5  8  1  0  0  0
  6  7  2  0  0  0
  6  9  1  0  0  0
  9 10  1  0  0  0
 10 11  1  0  0  0
 10 13  1  0  0  0
 11 12  2  0  0  0
 11 19  1  0  0  0
 13 14  1  0  0  0
 14 15  4  0  0  0
 14 16  4  0  0  0
 15 17  4  0  0  0
 16 18  4  0  0  0
 17 18  4  0  0  0
 19 20  1  0  0  0
 20 21  1  0  0  0
 20 23  1  0  0  0
 21 22  2  0  0  0
 21 25  1  0  0  0
 23 24  1  0  0  0
 25 26  1  0  0  0
 26 27  1  0  0  0
 27 28  2  0  0  0
 27 29  1  0  0  0
  3 30  1  0  0  0
  3 31  1  0  0  0
  3 32  1  0  0  0
  4 33  1  0  0  0
  5 34  1  0  0  0
  8 35  1  0  0  0
  8 36  1  0  0  0
  8 37  1  0  0  0
  9 38  1  0  0  0
 10 39  1  0  0  0
 13 40  1  0  0  0
 13 41  1  0  0  0
 16 42  1  0  0  0
 17 43  1  0  0  0
 19 44  1  0  0  0
 20 45  1  0  0  0
 23 46  1  0  0  0
 23 47  1  0  0  0
 24 48  1  0  0  0
 25 49  1  0  0  0
 26 50  1  0  0  0
 26 51  1  0  0  0
 29 52  1  0  0  0
 29 53  1  0  0  0
M  END
$$$$
