5vqq_ligand
  -I-interpret- 

 60 63  0  0  0  0  0  0  0  0999 V2000
  847.5250  -33.3090  144.7380 C   0  0  0  0  0
  844.9530  -35.8750  140.1170 N   0  0  0  0  0
  848.2800  -33.0440  142.0760 C   0  0  0  0  0
  844.4210  -38.2620  141.5040 C   0  0  0  0  0
  843.6550  -37.0580  141.7540 C   0  0  0  0  0
  843.9610  -35.9480  141.0590 C   0  0  0  0  0
  844.3750  -33.2420  144.8660 C   0  0  0  0  0
  843.7030  -34.1210  145.7100 C   0  0  0  0  0
  842.7820  -33.6380  146.6900 C   0  0  0  0  0
  842.5450  -32.2320  146.7960 C   0  0  0  0  0
  843.2410  -31.3410  145.9140 C   0  0  0  0  0
  844.1320  -31.8710  144.9660 C   0  0  0  0  0
  842.0840  -34.5140  147.5740 C   0  0  0  0  0
  846.9570  -33.3600  142.3950 C   0  0  0  0  0
  841.1860  -34.0480  148.5300 C   0  0  0  0  0
  840.9620  -32.6820  148.6320 C   0  0  0  0  0
  841.6200  -31.7890  147.7830 C   0  0  0  0  0
  840.5000  -34.9950  149.4080 C   0  0  0  0  0
  843.9700  -35.6190  145.5840 C   0  0  0  0  0
  843.8290  -29.1090  146.7440 C   0  0  0  0  0
  844.9490  -29.7300  147.5840 C   0  0  0  0  0
  841.9700  -29.3870  145.1440 C   0  0  0  0  0
  846.5630  -33.4860  143.7310 C   0  0  0  0  0
  848.8480  -32.9950  144.4050 C   0  0  0  0  0
  849.2360  -32.8610  143.0730 C   0  0  0  0  0
  846.4360  -33.8940  140.0390 C   0  0  0  0  0
  845.2470  -34.6290  139.3980 C   0  0  0  0  0
  845.7240  -36.9880  139.8330 C   0  0  0  0  0
  845.6220  -28.7980  148.2600 F   0  0  0  0  0
  845.3900  -38.1040  140.5570 N   0  0  0  0  0
  843.0530  -29.9310  145.9670 N   0  0  0  0  0
  839.9590  -35.7520  150.1030 N   0  0  0  0  0
  845.2370  -33.8090  143.9530 O   0  0  0  0  0
  846.0670  -33.5180  141.3520 O   0  0  0  0  0
  846.6410  -37.0240  139.0100 O   0  0  0  0  0
  844.2180  -39.3240  142.0860 O   0  0  0  0  0
  843.6810  -27.8780  146.8050 O   0  0  0  0  0
  847.2403  -33.4166  145.7847 H   0  0  0  0  0
  848.5690  -32.9389  141.0303 H   0  0  0  0  0
  842.8494  -37.0519  142.4883 H   0  0  0  0  0
  843.3813  -35.0467  141.2584 H   0  0  0  0  0
  844.6490  -31.1915  144.2884 H   0  0  0  0  0
  842.2604  -35.5869  147.4979 H   0  0  0  0  0
  840.2667  -32.3029  149.3810 H   0  0  0  0  0
  841.4193  -30.7220  147.8791 H   0  0  0  0  0
  843.7081  -35.9502  144.5791 H   0  0  0  0  0
  845.0261  -35.8153  145.7689 H   0  0  0  0  0
  843.3657  -36.1571  146.3143 H   0  0  0  0  0
  845.6415  -30.2411  146.9152 H   0  0  0  0  0
  844.5036  -30.4226  148.2982 H   0  0  0  0  0
  842.1564  -29.6252  144.0968 H   0  0  0  0  0
  841.0227  -29.8274  145.4550 H   0  0  0  0  0
  841.9280  -28.3051  145.2700 H   0  0  0  0  0
  849.5835  -32.8536  145.1969 H   0  0  0  0  0
  850.2671  -32.6178  142.8163 H   0  0  0  0  0
  846.6902  -33.0104  139.4535 H   0  0  0  0  0
  847.3088  -34.5463  140.0672 H   0  0  0  0  0
  844.3701  -33.9831  139.4423 H   0  0  0  0  0
  845.4994  -34.8709  138.3656 H   0  0  0  0  0
  845.9463  -38.9356  140.3587 H   0  0  0  0  0
 23  1  4  0  0  0
  1 24  4  0  0  0
  2  6  1  0  0  0
 27  2  1  0  0  0
  2 28  1  0  0  0
 14  3  4  0  0  0
  3 25  4  0  0  0
  5  4  1  0  0  0
  4 30  1  0  0  0
  4 36  2  0  0  0
  6  5  2  0  0  0
  7  8  4  0  0  0
  7 12  4  0  0  0
 33  7  1  0  0  0
  8  9  4  0  0  0
  8 19  1  0  0  0
  9 10  4  0  0  0
  9 13  4  0  0  0
 11 10  4  0  0  0
 10 17  4  0  0  0
 12 11  4  0  0  0
 11 31  1  0  0  0
 13 15  4  0  0  0
 14 23  4  0  0  0
 34 14  1  0  0  0
 15 16  4  0  0  0
 15 18  1  0  0  0
 17 16  4  0  0  0
 18 32  3  0  0  0
 20 21  1  0  0  0
 31 20  1  0  0  0
 20 37  2  0  0  0
 21 29  1  0  0  0
 31 22  1  0  0  0
 23 33  1  0  0  0
 25 24  4  0  0  0
 26 27  1  0  0  0
 26 34  1  0  0  0
 28 30  1  0  0  0
 28 35  2  0  0  0
  1 38  1  0  0  0
  3 39  1  0  0  0
  5 40  1  0  0  0
  6 41  1  0  0  0
 12 42  1  0  0  0
 13 43  1  0  0  0
 16 44  1  0  0  0
 17 45  1  0  0  0
 19 46  1  0  0  0
 19 47  1  0  0  0
 19 48  1  0  0  0
 21 49  1  0  0  0
 21 50  1  0  0  0
 22 51  1  0  0  0
 22 52  1  0  0  0
 22 53  1  0  0  0
 24 54  1  0  0  0
 25 55  1  0  0  0
 26 56  1  0  0  0
 26 57  1  0  0  0
 27 58  1  0  0  0
 27 59  1  0  0  0
 30 60  1  0  0  0
M  END
$$$$
