3dux_ligand
  -I-interpret- 

 58 60  0  0  0  0  0  0  0  0999 V2000
   17.9320  -14.9390   24.5340 C   0  0  0  0  0
   16.1710  -15.9180   23.2080 N   0  3  0  0  0
   17.3660  -15.0440   23.0940 C   0  0  0  0  0
   17.0830  -13.6790   22.5060 C   0  0  0  0  0
   16.1630  -13.0030   22.9900 O   0  0  0  0  0
   17.7750  -13.1570   21.4440 N   0  0  0  0  0
   18.8890  -13.8440   20.7900 C   0  0  0  0  0
   19.3320  -12.8270   19.7330 C   0  0  0  0  0
   18.3990  -11.6260   19.7770 C   0  0  0  0  0
   17.4290  -11.8450   20.9360 C   0  0  0  0  0
   15.9810  -11.7680   20.4910 C   0  0  0  0  0
   15.3670  -10.6120   20.8330 N   0  0  0  0  0
   14.0480  -10.3120   20.2910 C   0  0  0  0  0
   13.0700  -10.3010   21.4780 C   0  0  0  0  0
   13.0740   -9.2230   22.3770 C   0  0  0  0  0
   12.1770   -9.2260   23.4530 C   0  0  0  0  0
   11.2870  -10.2800   23.6420 C   0  0  0  0  0
   11.2970  -11.3430   22.7390 C   0  0  0  0  0
   12.1820  -11.3530   21.6650 C   0  0  0  0  0
   15.4240  -12.6860   19.9010 O   0  0  0  0  0
   19.2230  -14.1140   24.5550 C   0  0  0  0  0
   19.4910  -13.7480   26.0370 C   0  0  0  0  0
   20.8000  -12.9330   26.1570 C   0  0  0  0  0
   21.9860  -13.7640   25.5820 C   0  0  0  0  0
   21.7380  -14.0550   24.0710 C   0  0  0  0  0
   20.4160  -14.8770   23.9260 C   0  0  0  0  0
   12.1650   -7.9020   24.5830 Cl  0  0  0  0  0
   18.1513  -15.9425   24.8986 H   0  0  0  0  0
   17.1922  -14.4485   25.1666 H   0  0  0  0  0
   16.4441  -16.8144   23.6108 H   0  0  0  0  0
   15.4798  -15.4700   23.8096 H   0  0  0  0  0
   15.7712  -16.0678   22.2817 H   0  0  0  0  0
   18.0789  -15.4776   22.3927 H   0  0  0  0  0
   18.6059  -14.8065   20.3640 H   0  0  0  0  0
   19.6869  -14.1167   21.4807 H   0  0  0  0  0
   19.2943  -13.2850   18.7446 H   0  0  0  0  0
   20.3533  -12.5060   19.9380 H   0  0  0  0  0
   17.8559  -11.5289   18.8369 H   0  0  0  0  0
   18.9660  -10.7063   19.9214 H   0  0  0  0  0
   17.5167  -11.0715   21.6990 H   0  0  0  0  0
   15.8240   -9.9552   21.4656 H   0  0  0  0  0
   13.7535  -11.0590   19.5539 H   0  0  0  0  0
   14.0490   -9.3484   19.7815 H   0  0  0  0  0
   13.7671   -8.3931   22.2394 H   0  0  0  0  0
   10.5932  -10.2745   24.4826 H   0  0  0  0  0
   10.6050  -12.1739   22.8758 H   0  0  0  0  0
   12.1784  -12.1903   20.9671 H   0  0  0  0  0
   19.1096  -13.2155   23.9484 H   0  0  0  0  0
   19.5864  -14.6644   26.6194 H   0  0  0  0  0
   18.6616  -13.1486   26.4123 H   0  0  0  0  0
   20.9911  -12.7060   27.2059 H   0  0  0  0  0
   20.7018  -12.0043   25.5950 H   0  0  0  0  0
   22.0636  -14.7065   26.1239 H   0  0  0  0  0
   22.9115  -13.1993   25.6945 H   0  0  0  0  0
   22.5732  -14.6240   23.6627 H   0  0  0  0  0
   21.6510  -13.1164   23.5237 H   0  0  0  0  0
   20.2138  -15.0341   22.8665 H   0  0  0  0  0
   20.5357  -15.8297   24.4419 H   0  0  0  0  0
  1  3  1  0  0  0
  1 21  1  0  0  0
  3  2  1  0  0  0
  3  4  1  0  0  0
  4  5  2  0  0  0
  4  6  1  0  0  0
  6  7  1  0  0  0
  6 10  1  0  0  0
  7  8  1  0  0  0
  8  9  1  0  0  0
  9 10  1  0  0  0
 10 11  1  0  0  0
 11 12  1  0  0  0
 11 20  2  0  0  0
 12 13  1  0  0  0
 13 14  1  0  0  0
 14 15  4  0  0  0
 14 19  4  0  0  0
 15 16  4  0  0  0
 16 17  4  0  0  0
 16 27  1  0  0  0
 17 18  4  0  0  0
 18 19  4  0  0  0
 21 22  1  0  0  0
 21 26  1  0  0  0
 22 23  1  0  0  0
 23 24  1  0  0  0
 24 25  1  0  0  0
 25 26  1  0  0  0
  1 28  1  0  0  0
  1 29  1  0  0  0
  2 30  1  0  0  0
  2 31  1  0  0  0
  2 32  1  0  0  0
  3 33  1  0  0  0
  7 34  1  0  0  0
  7 35  1  0  0  0
  8 36  1  0  0  0
  8 37  1  0  0  0
  9 38  1  0  0  0
  9 39  1  0  0  0
 10 40  1  0  0  0
 12 41  1  0  0  0
 13 42  1  0  0  0
 13 43  1  0  0  0
 15 44  1  0  0  0
 17 45  1  0  0  0
 18 46  1  0  0  0
 19 47  1  0  0  0
 21 48  1  0  0  0
 22 49  1  0  0  0
 22 50  1  0  0  0
 23 51  1  0  0  0
 23 52  1  0  0  0
 24 53  1  0  0  0
 24 54  1  0  0  0
 25 55  1  0  0  0
 25 56  1  0  0  0
 26 57  1  0  0  0
 26 58  1  0  0  0
M  END
$$$$
