### 
### Created by X-TOOL on Mon Aug  2 16:12:31 2021
### 

@<TRIPOS>MOLECULE
6a03_ligand
   66    72     1     0     0
SMALL
GAST_HUCK


@<TRIPOS>ATOM
      1 P          -8.1630    4.8930   15.2630 P.3       1 MOL         0.2557
      2 O1P        -8.6610    5.9000   16.2750 O.co2     1 MOL        -0.6177
      3 O2P        -6.6710    4.7400   15.0600 O.co2     1 MOL        -0.6177
      4 O5'        -8.8320    5.1870   13.8270 O.3       1 MOL        -0.2514
      5 C5'       -10.1730    5.6670   13.7460 C.3       1 MOL         0.1128
      6 C4'       -10.6340    5.7230   12.2950 C.3       1 MOL         0.1242
      7 O4'        -9.8510    6.6970   11.5980 O.3       1 MOL        -0.3360
      8 C3'       -10.4270    4.4270   11.5300 C.3       1 MOL         0.1540
      9 O3'       -11.5790    3.5990   11.4710 O.3       1 MOL        -0.2453
     10 C2'       -10.1470    4.8770   10.1200 C.3       1 MOL         0.1439
     11 O2'       -11.3910    4.9880    9.4260 O.3       1 MOL        -0.3832
     12 C1'        -9.5450    6.2510   10.2740 C.3       1 MOL         0.2014
     13 N9         -8.0860    6.0400   10.1430 N.pl3     1 MOL        -0.1919
     14 C8         -7.1780    6.0860   11.1360 C.2       1 MOL         0.1123
     15 N7         -5.9300    5.8290   10.6650 N.2       1 MOL        -0.2958
     16 C5         -6.0350    5.6080    9.3410 C.ar      1 MOL         0.1045
     17 C6         -5.1080    5.2810    8.2310 C.ar      1 MOL         0.1298
     18 N6         -3.7790    5.1360    8.4430 N.pl3     1 MOL        -0.3152
     19 N1         -5.6360    5.1290    6.9980 N.ar      1 MOL        -0.2698
     20 C2         -6.9540    5.2700    6.7670 C.ar      1 MOL         0.0533
     21 N3         -7.8500    5.5660    7.7220 N.ar      1 MOL        -0.2714
     22 C4         -7.4600    5.7410    9.0050 C.ar      1 MOL         0.1613
     23 P1        -11.3640    2.0100   11.5470 P.3       1 MOL         0.2557
     24 O1P1      -12.6540    1.3180   11.2040 O.co2     1 MOL        -0.6177
     25 O2P1      -10.1230    1.6480   10.7620 O.co2     1 MOL        -0.6177
     26 O5'1      -11.0360    1.7740   13.1040 O.3       1 MOL        -0.2514
     27 C5'1       -9.8650    1.0260   13.3800 C.3       1 MOL         0.1128
     28 C4'1       -9.3010    1.1710   14.7830 C.3       1 MOL         0.1242
     29 O4'1       -8.5620   -0.0350   15.0000 O.3       1 MOL        -0.3360
     30 C3'1       -8.2870    2.3020   14.9090 C.3       1 MOL         0.1540
     31 O3'1       -8.7780    3.4430   15.6070 O.3       1 MOL        -0.2453
     32 C2'1       -7.1220    1.6820   15.6450 C.3       1 MOL         0.1439
     33 O2'1       -7.3590    1.7690   17.0530 O.3       1 MOL        -0.3832
     34 C1'1       -7.1760    0.2390   15.2080 C.3       1 MOL         0.2014
     35 N91        -6.4140    0.1780   13.9270 N.pl3     1 MOL        -0.1919
     36 C81        -6.9060    0.1340   12.6700 C.2       1 MOL         0.1123
     37 N71        -5.9280    0.1040   11.7360 N.2       1 MOL        -0.2958
     38 C51        -4.7580    0.1270   12.3960 C.ar      1 MOL         0.1045
     39 C61        -3.3230    0.1120   12.0270 C.ar      1 MOL         0.1298
     40 N61        -2.9220    0.0650   10.7370 N.pl3     1 MOL        -0.3152
     41 N11        -2.4230    0.1490   13.0330 N.ar      1 MOL        -0.2698
     42 C21        -2.8030    0.1980   14.3240 C.ar      1 MOL         0.0533
     43 N31        -4.0800    0.2110   14.7300 N.ar      1 MOL        -0.2714
     44 C41        -5.0850    0.1790   13.8320 C.ar      1 MOL         0.1613
     45 H1        -10.2229    6.6762   14.1807 H         1 MOL         0.0647
     46 H2        -10.8336    4.9919   14.3097 H         1 MOL         0.0647
     47 H3        -11.6993    5.9961   12.2725 H         1 MOL         0.0655
     48 H4         -9.5838    3.8629   11.9552 H         1 MOL         0.0712
     49 H5         -9.4651    4.1895    9.5981 H         1 MOL         0.0680
     50 H6        -11.2303    5.2715    8.5336 H         1 MOL         0.2101
     51 H7         -9.9222    6.9570    9.5195 H         1 MOL         0.0996
     52 H8         -7.4126    6.3006   12.1776 H         1 MOL         0.1349
     53 H9         -3.1538    4.9087    7.6566 H         1 MOL         0.1820
     54 H10        -3.3929    5.2530    9.3907 H         1 MOL         0.1820
     55 H11        -7.3126    5.1371    5.7527 H         1 MOL         0.0996
     56 H12        -9.0872    1.3429   12.6696 H         1 MOL         0.0647
     57 H13       -10.0980   -0.0368   13.2185 H         1 MOL         0.0647
     58 H14       -10.1118    1.2992   15.5153 H         1 MOL         0.0655
     59 H15        -7.9712    2.6234   13.9055 H         1 MOL         0.0712
     60 H16        -6.1655    2.1565   15.3807 H         1 MOL         0.0680
     61 H17        -7.4465    2.6815   17.3025 H         1 MOL         0.2101
     62 H18        -6.7447   -0.4411   15.9572 H         1 MOL         0.0996
     63 H19        -7.9693    0.1238   12.4351 H         1 MOL         0.1349
     64 H20        -1.9174    0.0556   10.5100 H         1 MOL         0.1820
     65 H21        -3.6211    0.0386    9.9810 H         1 MOL         0.1820
     66 H22        -2.0281    0.2288   15.0814 H         1 MOL         0.0996
@<TRIPOS>BOND
     1    1    2 ar 
     2    1    3 ar 
     3    1    4 1  
     4    1   31 1  
     5    4    5 1  
     6    5    6 1  
     7    6    7 1  
     8    6    8 1  
     9    7   12 1  
    10    8    9 1  
    11    8   10 1  
    12    9   23 1  
    13   10   11 1  
    14   10   12 1  
    15   12   13 1  
    16   13   14 1  
    17   13   22 1  
    18   14   15 2  
    19   15   16 1  
    20   16   17 ar 
    21   16   22 ar 
    22   17   18 1  
    23   17   19 ar 
    24   19   20 ar 
    25   20   21 ar 
    26   21   22 ar 
    27   23   24 ar 
    28   23   25 ar 
    29   23   26 1  
    30   26   27 1  
    31   27   28 1  
    32   28   29 1  
    33   28   30 1  
    34   29   34 1  
    35   30   31 1  
    36   30   32 1  
    37   32   33 1  
    38   32   34 1  
    39   34   35 1  
    40   35   36 1  
    41   35   44 1  
    42   36   37 2  
    43   37   38 1  
    44   38   39 ar 
    45   38   44 ar 
    46   39   40 1  
    47   39   41 ar 
    48   41   42 ar 
    49   42   43 ar 
    50   43   44 ar 
    51    5   45 1  
    52    5   46 1  
    53    6   47 1  
    54    8   48 1  
    55   10   49 1  
    56   11   50 1  
    57   12   51 1  
    58   14   52 1  
    59   18   53 1  
    60   18   54 1  
    61   20   55 1  
    62   27   56 1  
    63   27   57 1  
    64   28   58 1  
    65   30   59 1  
    66   32   60 1  
    67   33   61 1  
    68   34   62 1  
    69   36   63 1  
    70   40   64 1  
    71   40   65 1  
    72   42   66 1  
@<TRIPOS>SUBSTRUCTURE
     1 MOL         1

