6a03_ligand
  -I-interpret- 

 68 74  0  0  0  0  0  0  0  0999 V2000
   -8.1630    4.8930   15.2630 P   0  0  0  0  0
   -8.6610    5.9000   16.2750 O   0  0  0  0  0
   -6.6710    4.7400   15.0600 O   0  0  0  0  0
   -8.8320    5.1870   13.8270 O   0  0  0  0  0
  -10.1730    5.6670   13.7460 C   0  0  0  0  0
  -10.6340    5.7230   12.2950 C   0  0  0  0  0
   -9.8510    6.6970   11.5980 O   0  0  0  0  0
  -10.4270    4.4270   11.5300 C   0  0  0  0  0
  -11.5790    3.5990   11.4710 O   0  0  0  0  0
  -10.1470    4.8770   10.1200 C   0  0  0  0  0
  -11.3910    4.9880    9.4260 O   0  0  0  0  0
   -9.5450    6.2510   10.2740 C   0  0  0  0  0
   -8.0860    6.0400   10.1430 N   0  0  0  0  0
   -7.1780    6.0860   11.1360 C   0  0  0  0  0
   -5.9300    5.8290   10.6650 N   0  0  0  0  0
   -6.0350    5.6080    9.3410 C   0  0  0  0  0
   -5.1080    5.2810    8.2310 C   0  0  0  0  0
   -3.7790    5.1360    8.4430 N   0  0  0  0  0
   -5.6360    5.1290    6.9980 N   0  0  0  0  0
   -6.9540    5.2700    6.7670 C   0  0  0  0  0
   -7.8500    5.5660    7.7220 N   0  0  0  0  0
   -7.4600    5.7410    9.0050 C   0  0  0  0  0
  -11.3640    2.0100   11.5470 P   0  0  0  0  0
  -12.6540    1.3180   11.2040 O   0  0  0  0  0
  -10.1230    1.6480   10.7620 O   0  0  0  0  0
  -11.0360    1.7740   13.1040 O   0  0  0  0  0
   -9.8650    1.0260   13.3800 C   0  0  0  0  0
   -9.3010    1.1710   14.7830 C   0  0  0  0  0
   -8.5620   -0.0350   15.0000 O   0  0  0  0  0
   -8.2870    2.3020   14.9090 C   0  0  0  0  0
   -8.7780    3.4430   15.6070 O   0  0  0  0  0
   -7.1220    1.6820   15.6450 C   0  0  0  0  0
   -7.3590    1.7690   17.0530 O   0  0  0  0  0
   -7.1760    0.2390   15.2080 C   0  0  0  0  0
   -6.4140    0.1780   13.9270 N   0  0  0  0  0
   -6.9060    0.1340   12.6700 C   0  0  0  0  0
   -5.9280    0.1040   11.7360 N   0  0  0  0  0
   -4.7580    0.1270   12.3960 C   0  0  0  0  0
   -3.3230    0.1120   12.0270 C   0  0  0  0  0
   -2.9220    0.0650   10.7370 N   0  0  0  0  0
   -2.4230    0.1490   13.0330 N   0  0  0  0  0
   -2.8030    0.1980   14.3240 C   0  0  0  0  0
   -4.0800    0.2110   14.7300 N   0  0  0  0  0
   -5.0850    0.1790   13.8320 C   0  0  0  0  0
   -6.5071    4.0699   14.3924 H   0  0  0  0  0
  -10.2158    6.6703   14.1698 H   0  0  0  0  0
  -10.8249    4.9903   14.2985 H   0  0  0  0  0
  -11.6995    5.9491   12.3364 H   0  0  0  0  0
   -9.6454    3.8434   12.0164 H   0  0  0  0  0
   -9.4966    4.1942    9.5734 H   0  0  0  0  0
  -11.2286    5.2745    8.5242 H   0  0  0  0  0
   -9.9113    6.9802    9.5514 H   0  0  0  0  0
   -7.4129    6.3007   12.1785 H   0  0  0  0  0
   -3.3966    5.2518    9.3815 H   0  0  0  0  0
   -3.1599    4.9109    7.6643 H   0  0  0  0  0
   -7.3146    5.1364    5.7471 H   0  0  0  0  0
   -9.3798    2.1625   11.0853 H   0  0  0  0  0
   -9.0971    1.3958   12.7005 H   0  0  0  0  0
  -10.1366   -0.0233   13.2651 H   0  0  0  0  0
  -10.1175    1.3687   15.4775 H   0  0  0  0  0
   -8.0240    2.6890   13.9245 H   0  0  0  0  0
   -6.1640    2.1601   15.4405 H   0  0  0  0  0
   -6.6213    1.3762   17.5254 H   0  0  0  0  0
   -6.7566   -0.4769   15.9150 H   0  0  0  0  0
   -7.9703    0.1238   12.4349 H   0  0  0  0  0
   -3.6143    0.0388    9.9884 H   0  0  0  0  0
   -1.9271    0.0557   10.5122 H   0  0  0  0  0
   -2.0239    0.2290   15.0856 H   0  0  0  0  0
  1  2  2  0  0  0
  1  3  1  0  0  0
  1  4  1  0  0  0
  1 31  1  0  0  0
  4  5  1  0  0  0
  5  6  1  0  0  0
  6  7  1  0  0  0
  6  8  1  0  0  0
  7 12  1  0  0  0
  8  9  1  0  0  0
  8 10  1  0  0  0
  9 23  1  0  0  0
 10 11  1  0  0  0
 10 12  1  0  0  0
 12 13  1  0  0  0
 13 14  4  0  0  0
 13 22  4  0  0  0
 14 15  4  0  0  0
 15 16  4  0  0  0
 16 17  4  0  0  0
 16 22  4  0  0  0
 17 18  1  0  0  0
 17 19  4  0  0  0
 19 20  4  0  0  0
 20 21  4  0  0  0
 21 22  4  0  0  0
 23 24  2  0  0  0
 23 25  1  0  0  0
 23 26  1  0  0  0
 26 27  1  0  0  0
 27 28  1  0  0  0
 28 29  1  0  0  0
 28 30  1  0  0  0
 29 34  1  0  0  0
 30 31  1  0  0  0
 30 32  1  0  0  0
 32 33  1  0  0  0
 32 34  1  0  0  0
 34 35  1  0  0  0
 35 36  4  0  0  0
 35 44  4  0  0  0
 36 37  4  0  0  0
 37 38  4  0  0  0
 38 39  4  0  0  0
 38 44  4  0  0  0
 39 40  1  0  0  0
 39 41  4  0  0  0
 41 42  4  0  0  0
 42 43  4  0  0  0
 43 44  4  0  0  0
  3 45  1  0  0  0
  5 46  1  0  0  0
  5 47  1  0  0  0
  6 48  1  0  0  0
  8 49  1  0  0  0
 10 50  1  0  0  0
 11 51  1  0  0  0
 12 52  1  0  0  0
 14 53  1  0  0  0
 18 54  1  0  0  0
 18 55  1  0  0  0
 20 56  1  0  0  0
 25 57  1  0  0  0
 27 58  1  0  0  0
 27 59  1  0  0  0
 28 60  1  0  0  0
 30 61  1  0  0  0
 32 62  1  0  0  0
 33 63  1  0  0  0
 34 64  1  0  0  0
 36 65  1  0  0  0
 40 66  1  0  0  0
 40 67  1  0  0  0
 42 68  1  0  0  0
M  END
$$$$
