5zaj_ligand
  -I-interpret- 

 54 56  0  0  0  0  0  0  0  0999 V2000
  -26.0530  -15.0730   -1.4880 N   0  0  0  0  0
  -30.2820  -18.6530   -4.6820 O   0  0  0  0  0
  -30.1670  -18.4810   -3.4760 C   0  0  0  0  0
  -30.9930  -18.9870   -2.5480 N   0  0  0  0  0
  -31.9420  -19.8960   -2.7500 C   0  0  0  0  0
  -32.1420  -20.3750   -3.8960 N   0  0  0  0  0
  -32.6850  -20.2630   -1.7140 N   0  0  0  0  0
  -29.0780  -17.5980   -2.9630 C   0  0  0  0  0
  -28.8930  -17.5280   -1.6260 N   0  0  0  0  0
  -27.9360  -16.7490   -1.0680 C   0  0  0  0  0
  -27.9450  -16.8530    0.4210 C   0  0  0  0  0
  -28.8800  -16.0930    1.1320 C   0  0  0  0  0
  -27.0870  -17.6920    1.1310 C   0  0  0  0  0
  -26.1480  -18.4710    0.5050 O   0  0  0  0  0
  -25.1530  -19.1800    1.2530 C   0  0  0  0  0
  -27.1780  -17.7310    2.4820 N   0  0  0  0  0
  -28.0810  -16.9850    3.1560 C   0  0  0  0  0
  -28.9340  -16.1670    2.4790 N   0  0  0  0  0
  -28.0950  -17.0820    4.5230 O   0  0  0  0  0
  -29.2540  -17.4040    5.2880 C   0  0  0  0  0
  -28.2750  -16.8350   -3.7980 C   0  0  0  0  0
  -28.4430  -16.8710   -5.1390 N   0  0  0  0  0
  -27.3220  -16.0470   -3.2500 N   0  0  0  0  0
  -27.1020  -15.9560   -1.8960 C   0  0  0  0  0
  -25.6650  -14.8370   -0.0810 C   0  0  0  0  0
  -25.2020  -13.4010    0.1890 C   0  0  0  0  0
  -25.2910  -14.3480   -2.5230 C   0  0  0  0  0
  -25.7490  -12.8880   -2.6260 C   0  0  0  0  0
  -26.7930  -12.4290   -1.6020 C   0  0  0  0  0
  -26.2620  -12.3610   -0.1700 C   0  0  0  0  0
  -31.5727  -20.0666   -4.6841 H   0  0  0  0  0
  -32.5198  -19.8500   -0.7961 H   0  0  0  0  0
  -33.4215  -20.9582   -1.8354 H   0  0  0  0  0
  -29.5676  -15.4385    0.5963 H   0  0  0  0  0
  -24.5526  -18.4695    1.8212 H   0  0  0  0  0
  -25.6408  -19.8743    1.9371 H   0  0  0  0  0
  -24.5112  -19.7337    0.5678 H   0  0  0  0  0
  -30.0254  -16.6550    5.1092 H   0  0  0  0  0
  -29.6230  -18.3856    4.9905 H   0  0  0  0  0
  -28.9967  -17.4168    6.3471 H   0  0  0  0  0
  -29.1662  -17.4636   -5.5467 H   0  0  0  0  0
  -27.8465  -16.3056   -5.7431 H   0  0  0  0  0
  -24.8300  -15.4999    0.1456 H   0  0  0  0  0
  -26.5432  -15.0213    0.5377 H   0  0  0  0  0
  -24.3245  -13.2110   -0.4291 H   0  0  0  0  0
  -24.9939  -13.3118    1.2552 H   0  0  0  0  0
  -25.4586  -14.8344   -3.4839 H   0  0  0  0  0
  -24.2350  -14.3637   -2.2534 H   0  0  0  0  0
  -26.2185  -12.7858   -3.6044 H   0  0  0  0  0
  -24.8625  -12.2789   -2.4491 H   0  0  0  0  0
  -27.6036  -13.1576   -1.6145 H   0  0  0  0  0
  -27.1034  -11.4224   -1.8823 H   0  0  0  0  0
  -25.7887  -11.3852   -0.0606 H   0  0  0  0  0
  -27.1129  -12.5463    0.4855 H   0  0  0  0  0
 24  1  1  0  0  0
  1 25  1  0  0  0
  1 27  1  0  0  0
  3  2  2  0  0  0
  3  4  1  0  0  0
  8  3  1  0  0  0
  4  5  4  0  0  0
  5  6  2  0  0  0
  5  7  1  0  0  0
  9  8  4  0  0  0
  8 21  4  0  0  0
 10  9  4  0  0  0
 10 11  1  0  0  0
 10 24  4  0  0  0
 11 12  4  0  0  0
 11 13  4  0  0  0
 12 18  4  0  0  0
 13 14  1  0  0  0
 13 16  4  0  0  0
 14 15  1  0  0  0
 16 17  4  0  0  0
 17 18  4  0  0  0
 17 19  1  0  0  0
 19 20  1  0  0  0
 21 22  1  0  0  0
 21 23  4  0  0  0
 23 24  4  0  0  0
 25 26  1  0  0  0
 26 30  1  0  0  0
 27 28  1  0  0  0
 28 29  1  0  0  0
 29 30  1  0  0  0
  6 31  1  0  0  0
  7 32  1  0  0  0
  7 33  1  0  0  0
 12 34  1  0  0  0
 15 35  1  0  0  0
 15 36  1  0  0  0
 15 37  1  0  0  0
 20 38  1  0  0  0
 20 39  1  0  0  0
 20 40  1  0  0  0
 22 41  1  0  0  0
 22 42  1  0  0  0
 25 43  1  0  0  0
 25 44  1  0  0  0
 26 45  1  0  0  0
 26 46  1  0  0  0
 27 47  1  0  0  0
 27 48  1  0  0  0
 28 49  1  0  0  0
 28 50  1  0  0  0
 29 51  1  0  0  0
 29 52  1  0  0  0
 30 53  1  0  0  0
 30 54  1  0  0  0
M  END
$$$$
