### 
### Created by X-TOOL on Wed Jan  1 15:39:38 2020
### 

@<TRIPOS>MOLECULE
5zaj_ligand
   56    58     1     0     0
SMALL
GAST_HUCK


@<TRIPOS>ATOM
      1 N1        -26.0530  -15.0730   -1.4880 N.pl3     1 32I        -0.2868
      2 O1        -30.2820  -18.6530   -4.6820 O.2       1 32I        -0.3895
      3 C11       -30.1670  -18.4810   -3.4760 C.2       1 32I         0.2145
      4 N3        -30.9930  -18.9870   -2.5480 N.am      1 32I        -0.2247
      5 C12       -31.9420  -19.8960   -2.7500 C.cat     1 32I         0.3257
      6 N5        -32.1420  -20.3750   -3.8960 N.pl3     1 32I        -0.2544
      7 N4        -32.6850  -20.2630   -1.7140 N.pl3     1 32I        -0.2544
      8 C18       -29.0780  -17.5980   -2.9630 C.ar      1 32I         0.1501
      9 N8        -28.8930  -17.5280   -1.6260 N.ar      1 32I        -0.2772
     10 C8        -27.9360  -16.7490   -1.0680 C.ar      1 32I         0.0957
     11 C10       -27.9450  -16.8530    0.4210 C.ar      1 32I         0.0664
     12 C13       -28.8800  -16.0930    1.1320 C.ar      1 32I         0.0147
     13 C15       -27.0870  -17.6920    1.1310 C.ar      1 32I         0.1806
     14 O3        -26.1480  -18.4710    0.5050 O.3       1 32I        -0.2939
     15 C17       -25.1530  -19.1800    1.2530 C.3       1 32I         0.0666
     16 N7        -27.1780  -17.7310    2.4820 N.ar      1 32I        -0.2161
     17 C14       -28.0810  -16.9850    3.1560 C.ar      1 32I         0.2346
     18 N6        -28.9340  -16.1670    2.4790 N.ar      1 32I        -0.2577
     19 O2        -28.0950  -17.0820    4.5230 O.3       1 32I        -0.2833
     20 C16       -29.2540  -17.4040    5.2880 C.3       1 32I         0.0678
     21 C9        -28.2750  -16.8350   -3.7980 C.ar      1 32I         0.1418
     22 N2        -28.4430  -16.8710   -5.1390 N.pl3     1 32I        -0.3153
     23 N9        -27.3220  -16.0470   -3.2500 N.ar      1 32I        -0.2428
     24 C7        -27.1020  -15.9560   -1.8960 C.ar      1 32I         0.1409
     25 C6        -25.6650  -14.8370   -0.0810 C.3       1 32I         0.0327
     26 C1        -25.2020  -13.4010    0.1890 C.3       1 32I        -0.0322
     27 C5        -25.2910  -14.3480   -2.5230 C.3       1 32I         0.0327
     28 C4        -25.7490  -12.8880   -2.6260 C.3       1 32I        -0.0322
     29 C3        -26.7930  -12.4290   -1.6020 C.3       1 32I        -0.0511
     30 C2        -26.2620  -12.3610   -0.1700 C.3       1 32I        -0.0511
     31 H1        -30.8844  -18.6476   -1.6136 H         1 32I         0.1846
     32 H2        -32.8806  -21.0786   -4.0384 H         1 32I         0.3199
     33 H3        -31.5671  -20.0635   -4.6919 H         1 32I         0.3199
     34 H4        -32.5060  -19.8597   -0.7833 H         1 32I         0.3199
     35 H5        -33.4408  -20.9513   -1.8404 H         1 32I         0.3199
     36 H6        -29.5638  -15.4421    0.5993 H         1 32I         0.0857
     37 H7        -24.5046  -19.7393    0.5625 H         1 32I         0.0591
     38 H8        -25.6440  -19.8812    1.9438 H         1 32I         0.0591
     39 H9        -24.5463  -18.4641    1.8269 H         1 32I         0.0591
     40 H10       -28.9956  -17.4172    6.3571 H         1 32I         0.0591
     41 H11       -29.6274  -18.3945    4.9888 H         1 32I         0.0591
     42 H12       -30.0333  -16.6488    5.1085 H         1 32I         0.0591
     43 H13       -27.8407  -16.3000   -5.7490 H         1 32I         0.1812
     44 H14       -29.1733  -17.4694   -5.5507 H         1 32I         0.1812
     45 H15       -24.8432  -15.5222    0.1739 H         1 32I         0.0527
     46 H16       -26.5326  -15.0502    0.5607 H         1 32I         0.0527
     47 H17       -24.2997  -13.2042   -0.4086 H         1 32I         0.0285
     48 H18       -24.9621  -13.3040    1.2581 H         1 32I         0.0285
     49 H19       -25.4445  -14.8418   -3.4939 H         1 32I         0.0527
     50 H20       -24.2221  -14.3716   -2.2645 H         1 32I         0.0527
     51 H21       -26.1763  -12.7409   -3.6289 H         1 32I         0.0285
     52 H22       -24.8612  -12.2493   -2.5084 H         1 32I         0.0285
     53 H23       -27.6366  -13.1345   -1.6262 H         1 32I         0.0266
     54 H24       -27.1444  -11.4272   -1.8898 H         1 32I         0.0266
     55 H25       -25.8233  -11.3638   -0.0184 H         1 32I         0.0266
     56 H26       -27.1133  -12.4949    0.5137 H         1 32I         0.0266
@<TRIPOS>BOND
     1   24    1 1  
     2    1   25 1  
     3    1   27 1  
     4    3    2 2  
     5    3    4 am 
     6    8    3 1  
     7    4    5 ar 
     8    5    6 ar 
     9    5    7 ar 
    10    9    8 ar 
    11    8   21 ar 
    12   10    9 ar 
    13   10   11 1  
    14   10   24 ar 
    15   11   12 ar 
    16   11   13 ar 
    17   12   18 ar 
    18   13   14 1  
    19   13   16 ar 
    20   14   15 1  
    21   16   17 ar 
    22   17   18 ar 
    23   17   19 1  
    24   19   20 1  
    25   21   22 1  
    26   21   23 ar 
    27   23   24 ar 
    28   25   26 1  
    29   26   30 1  
    30   27   28 1  
    31   28   29 1  
    32   29   30 1  
    33    4   31 1  
    34    6   32 1  
    35    6   33 1  
    36    7   34 1  
    37    7   35 1  
    38   12   36 1  
    39   15   37 1  
    40   15   38 1  
    41   15   39 1  
    42   20   40 1  
    43   20   41 1  
    44   20   42 1  
    45   22   43 1  
    46   22   44 1  
    47   25   45 1  
    48   25   46 1  
    49   26   47 1  
    50   26   48 1  
    51   27   49 1  
    52   27   50 1  
    53   28   51 1  
    54   28   52 1  
    55   29   53 1  
    56   29   54 1  
    57   30   55 1  
    58   30   56 1  
@<TRIPOS>SUBSTRUCTURE
     1 32I         1

