4yym_ligand
  -I-interpret- 

115114  0  0  0  0  0  0  0  0999 V2000
   -2.1700   40.2360    7.7090 C   0  0  0  0  0
   -4.1390   40.7740    9.0560 N   0  3  0  0  0
   -2.5110   40.9500    6.7200 O   0  0  0  0  0
   -3.2050   39.6600    8.6460 C   0  0  0  0  0
   -3.9930   38.5240    8.0160 C   0  0  0  0  0
   -3.7510   36.3800    6.9640 C   0  0  0  0  0
   -3.0290   35.0840    6.8270 C   0  0  0  0  0
   -3.3860   37.1300    8.2130 C   0  0  0  0  0
   -3.4270   34.2880    5.7480 N   0  0  0  0  0
   -6.4200   32.5260    4.9280 C   0  0  0  0  0
   -3.6430   32.3440    6.9110 O   0  0  0  0  0
   -5.3390   31.4950    4.7090 C   0  0  0  0  0
   -4.0500   32.2080    4.6220 C   0  0  0  0  0
   -3.6590   32.9720    5.8730 C   0  0  0  0  0
   -0.8860   40.0110    8.0250 N   0  0  0  0  0
    0.2250   40.5050    7.1720 C   0  0  0  0  0
    0.2430   42.0280    7.0450 C   0  0  0  0  0
    0.0860   42.7200    8.0540 O   0  0  0  0  0
    0.4510   42.5320    5.8200 N   0  0  0  0  0
    0.4760   43.9710    5.5270 C   0  0  0  0  0
   -0.8570   44.7200    5.5670 C   0  0  0  0  0
   -0.9080   45.9550    5.3780 O   0  0  0  0  0
   -3.4740   45.5150    7.1250 C   0  0  0  0  0
   -1.9490   44.0110    5.8270 N   0  0  0  0  0
   -3.1800   45.0530    8.2420 O   0  0  0  0  0
   -3.2870   44.6720    5.8650 C   0  0  0  0  0
   -4.3600   43.5660    5.7150 C   0  0  0  0  0
   -6.2270   44.1390    4.1580 C   0  0  0  0  0
   -7.7000   44.5170    4.1650 C   0  0  0  0  0
   -5.7760   44.1150    5.6080 C   0  0  0  0  0
   -8.1990   44.4470    2.8040 N   0  0  0  0  0
   -6.5490   44.2490   -0.4120 C   0  0  0  0  0
   -7.5800   46.5600    2.1510 O   0  0  0  0  0
   -7.7670   45.1170   -0.6120 C   0  0  0  0  0
   -8.7250   45.1950    0.5470 C   0  0  0  0  0
   -8.0970   45.4550    1.9030 C   0  0  0  0  0
   -3.9850   46.7440    6.9590 N   0  0  0  0  0
   -4.2800   47.6720    8.0750 C   0  0  0  0  0
   -3.1040   48.5460    8.4680 C   0  0  0  0  0
   -3.2090   49.3110    9.4210 O   0  0  0  0  0
   -2.0190   48.4480    7.7040 N   0  0  0  0  0
   -0.7640   49.1930    7.9870 C   0  0  0  0  0
   -0.7210   50.7160    7.7040 C   0  0  0  0  0
    0.3550   51.3390    7.7670 O   0  0  0  0  0
    0.4440   48.4880    7.3440 C   0  0  0  0  0
    1.0040   47.3250    8.1840 C   0  0  0  0  0
    2.3870   46.8700    7.6980 C   0  0  0  0  0
    1.0010   47.7100    9.6640 C   0  0  0  0  0
   -1.8840   51.3200    7.4700 N   0  0  0  0  0
   -1.9420   52.7120    7.0390 C   0  0  0  0  0
   -2.9640   53.4940    7.8170 C   0  0  0  0  0
   -2.6960   54.6070    8.2500 O   0  0  0  0  0
   -4.0760   53.0270    8.0260 O   0  0  0  0  0
   -3.5998   41.5304    9.4773 H   0  0  0  0  0
   -4.6316   41.1230    8.2338 H   0  0  0  0  0
   -4.8141   40.4183    9.7328 H   0  0  0  0  0
   -2.6931   39.2393    9.5115 H   0  0  0  0  0
   -4.0121   38.7108    6.9423 H   0  0  0  0  0
   -4.9707   38.5132    8.4977 H   0  0  0  0  0
   -4.8178   36.1611    7.0095 H   0  0  0  0  0
   -3.4773   37.0028    6.1123 H   0  0  0  0  0
   -3.2404   34.5124    7.7307 H   0  0  0  0  0
   -1.9792   35.3278    6.6640 H   0  0  0  0  0
   -3.7683   36.6412    9.1091 H   0  0  0  0  0
   -2.3072   37.1720    8.3634 H   0  0  0  0  0
   -3.5452   34.7233    4.8332 H   0  0  0  0  0
   -6.2222   33.0670    5.8533 H   0  0  0  0  0
   -6.4285   33.2250    4.0917 H   0  0  0  0  0
   -7.3870   32.0277    4.9966 H   0  0  0  0  0
   -5.5268   30.9376    3.7913 H   0  0  0  0  0
   -5.3229   30.7814    5.5328 H   0  0  0  0  0
   -4.1476   32.9411    3.8213 H   0  0  0  0  0
   -3.2812   31.4526    4.4596 H   0  0  0  0  0
   -0.6670   39.4874    8.8725 H   0  0  0  0  0
    0.0897   40.0886    6.1738 H   0  0  0  0  0
    1.1628   40.1978    7.6348 H   0  0  0  0  0
    0.6000   41.8804    5.0495 H   0  0  0  0  0
    0.8309   44.0562    4.4999 H   0  0  0  0  0
    1.0895   44.4199    6.3081 H   0  0  0  0  0
   -1.8733   43.0089    6.0018 H   0  0  0  0  0
   -3.3816   45.3808    5.0423 H   0  0  0  0  0
   -4.3151   42.9392    6.6056 H   0  0  0  0  0
   -4.1465   43.0211    4.7954 H   0  0  0  0  0
   -5.6442   44.8576    3.5817 H   0  0  0  0  0
   -6.0777   43.1667    3.6886 H   0  0  0  0  0
   -7.8234   45.5272    4.5554 H   0  0  0  0  0
   -8.2576   43.8303    4.8019 H   0  0  0  0  0
   -5.7932   45.1312    6.0018 H   0  0  0  0  0
   -6.4489   43.4746    6.1783 H   0  0  0  0  0
   -8.6554   43.5847    2.5064 H   0  0  0  0  0
   -5.9710   44.6251    0.4321 H   0  0  0  0  0
   -6.8633   43.2248   -0.2112 H   0  0  0  0  0
   -5.9359   44.2723   -1.3130 H   0  0  0  0  0
   -8.3238   44.6746   -1.4380 H   0  0  0  0  0
   -7.3965   46.1299   -0.7695 H   0  0  0  0  0
   -9.2097   44.2209    0.6129 H   0  0  0  0  0
   -9.3851   46.0387    0.3456 H   0  0  0  0  0
   -4.1819   47.0578    6.0087 H   0  0  0  0  0
   -4.5402   47.0660    8.9428 H   0  0  0  0  0
   -5.0819   48.3330    7.7461 H   0  0  0  0  0
   -2.0497   47.8353    6.8891 H   0  0  0  0  0
   -0.7203   49.1604    9.0756 H   0  0  0  0  0
    1.2375   49.2286    7.2442 H   0  0  0  0  0
    0.1095   48.0713    6.3939 H   0  0  0  0  0
    0.3526   46.4606    8.0554 H   0  0  0  0  0
    2.3152   46.5362    6.6629 H   0  0  0  0  0
    3.0864   47.7033    7.7647 H   0  0  0  0  0
    2.7380   46.0485    8.3225 H   0  0  0  0  0
    1.6224   48.5936    9.8095 H   0  0  0  0  0
   -0.0196   47.9260    9.9799 H   0  0  0  0  0
    1.3981   46.8838   10.2538 H   0  0  0  0  0
   -2.7519   50.7988    7.5946 H   0  0  0  0  0
   -2.2223   52.7337    5.9859 H   0  0  0  0  0
   -0.9643   53.1639    7.2060 H   0  0  0  0  0
   -4.1357   52.1553    7.6282 H   0  0  0  0  0
  1  3  2  0  0  0
  1  4  1  0  0  0
 15  1  1  0  0  0
  4  2  1  0  0  0
  4  5  1  0  0  0
  5  8  1  0  0  0
  6  7  1  0  0  0
  8  6  1  0  0  0
  7  9  1  0  0  0
  9 14  1  0  0  0
 12 10  1  0  0  0
 14 11  2  0  0  0
 13 12  1  0  0  0
 14 13  1  0  0  0
 16 15  1  0  0  0
 17 16  1  0  0  0
 17 18  2  0  0  0
 19 17  1  0  0  0
 20 19  1  0  0  0
 21 20  1  0  0  0
 21 22  2  0  0  0
 24 21  1  0  0  0
 23 25  2  0  0  0
 26 23  1  0  0  0
 23 37  1  0  0  0
 26 24  1  0  0  0
 27 26  1  0  0  0
 30 27  1  0  0  0
 29 28  1  0  0  0
 28 30  1  0  0  0
 31 29  1  0  0  0
 36 31  1  0  0  0
 34 32  1  0  0  0
 36 33  2  0  0  0
 35 34  1  0  0  0
 35 36  1  0  0  0
 37 38  1  0  0  0
 38 39  1  0  0  0
 39 40  2  0  0  0
 39 41  1  0  0  0
 41 42  1  0  0  0
 42 43  1  0  0  0
 42 45  1  0  0  0
 43 44  2  0  0  0
 43 49  1  0  0  0
 45 46  1  0  0  0
 46 47  1  0  0  0
 46 48  1  0  0  0
 49 50  1  0  0  0
 50 51  1  0  0  0
 51 52  2  0  0  0
 51 53  1  0  0  0
  2 54  1  0  0  0
  2 55  1  0  0  0
  2 56  1  0  0  0
  4 57  1  0  0  0
  5 58  1  0  0  0
  5 59  1  0  0  0
  6 60  1  0  0  0
  6 61  1  0  0  0
  7 62  1  0  0  0
  7 63  1  0  0  0
  8 64  1  0  0  0
  8 65  1  0  0  0
  9 66  1  0  0  0
 10 67  1  0  0  0
 10 68  1  0  0  0
 10 69  1  0  0  0
 12 70  1  0  0  0
 12 71  1  0  0  0
 13 72  1  0  0  0
 13 73  1  0  0  0
 15 74  1  0  0  0
 16 75  1  0  0  0
 16 76  1  0  0  0
 19 77  1  0  0  0
 20 78  1  0  0  0
 20 79  1  0  0  0
 24 80  1  0  0  0
 26 81  1  0  0  0
 27 82  1  0  0  0
 27 83  1  0  0  0
 28 84  1  0  0  0
 28 85  1  0  0  0
 29 86  1  0  0  0
 29 87  1  0  0  0
 30 88  1  0  0  0
 30 89  1  0  0  0
 31 90  1  0  0  0
 32 91  1  0  0  0
 32 92  1  0  0  0
 32 93  1  0  0  0
 34 94  1  0  0  0
 34 95  1  0  0  0
 35 96  1  0  0  0
 35 97  1  0  0  0
 37 98  1  0  0  0
 38 99  1  0  0  0
 38100  1  0  0  0
 41101  1  0  0  0
 42102  1  0  0  0
 45103  1  0  0  0
 45104  1  0  0  0
 46105  1  0  0  0
 47106  1  0  0  0
 47107  1  0  0  0
 47108  1  0  0  0
 48109  1  0  0  0
 48110  1  0  0  0
 48111  1  0  0  0
 49112  1  0  0  0
 50113  1  0  0  0
 50114  1  0  0  0
 53115  1  0  0  0
M  END
$$$$
