### 
### Created by X-TOOL on Mon Sep 10 21:13:25 2018
### 

@<TRIPOS>MOLECULE
4yym_ligand
  114   113     1     0     0
SMALL
GAST_HUCK


@<TRIPOS>ATOM
      1 C          -2.1700   40.2360    7.7090 C.2       1 BTK         0.2265
      2 N          -4.1390   40.7740    9.0560 N.4       1 BTK         0.2379
      3 O          -2.5110   40.9500    6.7200 O.2       1 BTK        -0.3907
      4 CA         -3.2050   39.6600    8.6460 C.3       1 BTK         0.0650
      5 CB         -3.9930   38.5240    8.0160 C.3       1 BTK         0.0079
      6 CD         -3.7510   36.3800    6.9640 C.3       1 BTK        -0.0324
      7 CE         -3.0290   35.0840    6.8270 C.3       1 BTK         0.0309
      8 CG         -3.3860   37.1300    8.2130 C.3       1 BTK        -0.0439
      9 NZ         -3.4270   34.2880    5.7480 N.am      1 BTK        -0.2870
     10 CAA        -6.4200   32.5260    4.9280 C.3       1 BTK        -0.0632
     11 OAD        -3.6430   32.3440    6.9110 O.2       1 BTK        -0.3971
     12 CAF        -5.3390   31.4950    4.7090 C.3       1 BTK        -0.0389
     13 CAJ        -4.0500   32.2080    4.6220 C.3       1 BTK         0.0370
     14 CAN        -3.6590   32.9720    5.8730 C.2       1 BTK         0.1760
     15 N          -0.8860   40.0110    8.0250 N.am      1 GLY        -0.2637
     16 CA          0.2250   40.5050    7.1720 C.3       1 GLY         0.1202
     17 C           0.2430   42.0280    7.0450 C.2       1 GLY         0.2005
     18 O           0.0860   42.7200    8.0540 O.2       1 GLY        -0.3947
     19 N           0.4510   42.5320    5.8200 N.am      1 GLY        -0.2666
     20 CA          0.4760   43.9710    5.5270 C.3       1 GLY         0.1201
     21 C          -0.8570   44.7200    5.5670 C.2       1 GLY         0.2007
     22 O          -0.9080   45.9550    5.3780 O.2       1 GLY        -0.3947
     23 C          -3.4740   45.5150    7.1250 C.2       1 BTK         0.2037
     24 N          -1.9490   44.0110    5.8270 N.am      1 BTK        -0.2640
     25 O          -3.1800   45.0530    8.2420 O.2       1 BTK        -0.3944
     26 CA         -3.2870   44.6720    5.8650 C.3       1 BTK         0.1310
     27 CB         -4.3600   43.5660    5.7150 C.3       1 BTK        -0.0123
     28 CD         -6.2270   44.1390    4.1580 C.3       1 BTK        -0.0325
     29 CE         -7.7000   44.5170    4.1650 C.3       1 BTK         0.0309
     30 CG         -5.7760   44.1150    5.6080 C.3       1 BTK        -0.0470
     31 NZ         -8.1990   44.4470    2.8040 N.am      1 BTK        -0.2870
     32 CAA        -6.5490   44.2490   -0.4120 C.3       1 BTK        -0.0632
     33 OAD        -7.5800   46.5600    2.1510 O.2       1 BTK        -0.3971
     34 CAF        -7.7670   45.1170   -0.6120 C.3       1 BTK        -0.0389
     35 CAJ        -8.7250   45.1950    0.5470 C.3       1 BTK         0.0370
     36 CAN        -8.0970   45.4550    1.9030 C.2       1 BTK         0.1760
     37 N          -3.9850   46.7440    6.9590 N.am      1 GLY        -0.2664
     38 CA         -4.2800   47.6720    8.0750 C.3       1 GLY         0.1201
     39 C          -3.1040   48.5460    8.4680 C.2       1 GLY         0.2007
     40 O          -3.2090   49.3110    9.4210 O.2       1 GLY        -0.3947
     41 N          -2.0190   48.4480    7.7040 N.am      1 LEU        -0.2640
     42 CA         -0.7640   49.1930    7.9870 C.3       1 LEU         0.1312
     43 C          -0.7210   50.7160    7.7040 C.2       1 LEU         0.2031
     44 O           0.3550   51.3390    7.7670 O.2       1 LEU        -0.3944
     45 CB          0.4440   48.4880    7.3440 C.3       1 LEU        -0.0101
     46 CG          1.0040   47.3250    8.1840 C.3       1 LEU        -0.0425
     47 CD1         2.3870   46.8700    7.6980 C.3       1 LEU        -0.0625
     48 CD2         1.0010   47.7100    9.6640 C.3       1 LEU        -0.0625
     49 N          -1.8840   51.3200    7.4700 N.am      1 GLY        -0.2722
     50 CA         -1.9420   52.7120    7.0390 C.3       1 GLY         0.0833
     51 C          -2.9640   53.4940    7.8170 C.2       1 GLY         0.0570
     52 O          -2.6960   54.6070    8.2500 O.co2     1 GLY        -0.5669
     53 OXT        -4.0760   53.0270    8.0260 O.co2     1 GLY        -0.5669
     54 H1         -4.8398   40.4112    9.6832 H         1 BTK         0.2015
     55 H2         -4.5862   41.1560    8.2374 H         1 BTK         0.2015
     56 H3         -3.6144   41.4982    9.5211 H         1 BTK         0.2015
     57 H4         -2.6936   39.2711    9.5388 H         1 BTK         0.1098
     58 H5         -4.0643   38.7159    6.9352 H         1 BTK         0.0346
     59 H6         -5.0013   38.5227    8.4556 H         1 BTK         0.0346
     60 H7         -4.8322   36.1781    6.9805 H         1 BTK         0.0285
     61 H8         -3.5087   37.0091    6.0948 H         1 BTK         0.0285
     62 H9         -3.1872   34.5078    7.7506 H         1 BTK         0.0520
     63 H10        -1.9573   35.3029    6.7104 H         1 BTK         0.0520
     64 H11        -3.8156   36.6408    9.0996 H         1 BTK         0.0269
     65 H12        -2.2934   37.1938    8.3227 H         1 BTK         0.0269
     66 H13        -3.5429   34.7148    4.8511 H         1 BTK         0.1850
     67 H14        -7.3965   32.0243    4.9974 H         1 BTK         0.0231
     68 H15        -6.4296   33.2320    4.0846 H         1 BTK         0.0231
     69 H16        -6.2216   33.0727    5.8616 H         1 BTK         0.0231
     70 H17        -5.5278   30.9470    3.7741 H         1 BTK         0.0287
     71 H18        -5.3197   30.7877    5.5512 H         1 BTK         0.0287
     72 H19        -4.1106   32.9239    3.7890 H         1 BTK         0.0502
     73 H20        -3.2632   31.4681    4.4132 H         1 BTK         0.0502
     74 H21        -0.6713   39.4977    8.8559 H         1 GLY         0.1882
     75 H22         0.1169   40.0700    6.1675 H         1 GLY         0.0763
     76 H23         1.1784   40.1780    7.6126 H         1 GLY         0.0763
     77 H24         0.5971   41.8932    5.0646 H         1 GLY         0.1881
     78 H25         0.8941   44.0951    4.5172 H         1 GLY         0.0763
     79 H26         1.1435   44.4458    6.2611 H         1 GLY         0.0763
     80 H27        -1.8748   43.0286    5.9984 H         1 BTK         0.1883
     81 H28        -3.3659   45.3487    5.0014 H         1 BTK         0.0800
     82 H29        -4.3065   42.9056    6.5930 H         1 BTK         0.0312
     83 H30        -4.1401   42.9865    4.8063 H         1 BTK         0.0312
     84 H31        -5.6471   44.8836    3.5929 H         1 BTK         0.0285
     85 H32        -6.0923   43.1468    3.7026 H         1 BTK         0.0285
     86 H33        -7.8189   45.5399    4.5518 H         1 BTK         0.0520
     87 H34        -8.2600   43.8166    4.8021 H         1 BTK         0.0520
     88 H35        -5.7995   45.1380    6.0117 H         1 BTK         0.0268
     89 H36        -6.4573   43.4759    6.1888 H         1 BTK         0.0268
     90 H37        -8.6465   43.6016    2.5122 H         1 BTK         0.1850
     91 H38        -5.9294   44.2716   -1.3206 H         1 BTK         0.0231
     92 H39        -6.8649   43.2150   -0.2093 H         1 BTK         0.0231
     93 H40        -5.9647   44.6276    0.4396 H         1 BTK         0.0231
     94 H41        -8.3198   44.7252   -1.4785 H         1 BTK         0.0287
     95 H42        -7.4197   46.1378   -0.8296 H         1 BTK         0.0287
     96 H43        -9.2663   44.2391    0.6030 H         1 BTK         0.0502
     97 H44        -9.4370   46.0082    0.3428 H         1 BTK         0.0502
     98 H45        -4.1781   47.0517    6.0273 H         1 GLY         0.1881
     99 H46        -4.5791   47.0778    8.9510 H         1 GLY         0.0763
    100 H47        -5.1123   48.3248    7.7731 H         1 GLY         0.0763
    101 H48        -2.0491   47.8473    6.9050 H         1 LEU         0.1883
    102 H49        -0.6281   49.1073    9.0752 H         1 LEU         0.0800
    103 H50         1.2436   49.2299    7.2023 H         1 LEU         0.0315
    104 H51         0.1340   48.0915    6.3659 H         1 LEU         0.0315
    105 H52         0.3228   46.4698    8.0630 H         1 LEU         0.0298
    106 H53         2.7424   46.0409    8.3275 H         1 LEU         0.0232
    107 H54         3.0939   47.7101    7.7649 H         1 LEU         0.0232
    108 H55         2.3159   46.5328    6.6534 H         1 LEU         0.0232
    109 H56        -0.0104   48.0269    9.9584 H         1 LEU         0.0232
    110 H57         1.7070   48.5372    9.8291 H         1 LEU         0.0232
    111 H58         1.3041   46.8429   10.2691 H         1 LEU         0.0232
    112 H59        -2.7349   50.8090    7.5922 H         1 GLY         0.1873
    113 H60        -2.2060   52.7438    5.9716 H         1 GLY         0.0689
    114 H61        -0.9537   53.1721    7.1862 H         1 GLY         0.0689
@<TRIPOS>BOND
     1    1    3 2  
     2    1    4 1  
     3   15    1 am 
     4    4    2 1  
     5    4    5 1  
     6    5    8 1  
     7    6    7 1  
     8    8    6 1  
     9    7    9 1  
    10    9   14 am 
    11   12   10 1  
    12   14   11 2  
    13   13   12 1  
    14   14   13 1  
    15   16   15 1  
    16   17   16 1  
    17   17   18 2  
    18   19   17 am 
    19   20   19 1  
    20   21   20 1  
    21   21   22 2  
    22   24   21 am 
    23   23   25 2  
    24   26   23 1  
    25   23   37 am 
    26   26   24 1  
    27   27   26 1  
    28   30   27 1  
    29   29   28 1  
    30   28   30 1  
    31   31   29 1  
    32   36   31 am 
    33   34   32 1  
    34   36   33 2  
    35   35   34 1  
    36   35   36 1  
    37   37   38 1  
    38   38   39 1  
    39   39   40 2  
    40   39   41 am 
    41   41   42 1  
    42   42   43 1  
    43   42   45 1  
    44   43   44 2  
    45   43   49 am 
    46   45   46 1  
    47   46   47 1  
    48   46   48 1  
    49   49   50 1  
    50   50   51 1  
    51   51   52 ar 
    52   51   53 ar 
    53    2   54 1  
    54    2   55 1  
    55    2   56 1  
    56    4   57 1  
    57    5   58 1  
    58    5   59 1  
    59    6   60 1  
    60    6   61 1  
    61    7   62 1  
    62    7   63 1  
    63    8   64 1  
    64    8   65 1  
    65    9   66 1  
    66   10   67 1  
    67   10   68 1  
    68   10   69 1  
    69   12   70 1  
    70   12   71 1  
    71   13   72 1  
    72   13   73 1  
    73   15   74 1  
    74   16   75 1  
    75   16   76 1  
    76   19   77 1  
    77   20   78 1  
    78   20   79 1  
    79   24   80 1  
    80   26   81 1  
    81   27   82 1  
    82   27   83 1  
    83   28   84 1  
    84   28   85 1  
    85   29   86 1  
    86   29   87 1  
    87   30   88 1  
    88   30   89 1  
    89   31   90 1  
    90   32   91 1  
    91   32   92 1  
    92   32   93 1  
    93   34   94 1  
    94   34   95 1  
    95   35   96 1  
    96   35   97 1  
    97   37   98 1  
    98   38   99 1  
    99   38  100 1  
   100   41  101 1  
   101   42  102 1  
   102   45  103 1  
   103   45  104 1  
   104   46  105 1  
   105   47  106 1  
   106   47  107 1  
   107   47  108 1  
   108   48  109 1  
   109   48  110 1  
   110   48  111 1  
   111   49  112 1  
   112   50  113 1  
   113   50  114 1  
@<TRIPOS>SUBSTRUCTURE
     1 BTK         1

