5l7h_ligand
  -I-interpret- 

 50 53  0  0  0  0  0  0  0  0999 V2000
   11.1810   13.5430   16.5990 C   0  0  0  0  0
    6.1430   17.4720   16.5350 C   0  0  0  0  0
    7.9690   18.9810   16.1990 C   0  0  0  0  0
    9.8810   13.4050   16.1310 C   0  0  0  0  0
    9.3950   15.5870   16.9670 C   0  0  0  0  0
    7.1920   17.9260   15.7500 C   0  0  0  0  0
    7.4710   17.3650   14.4410 C   0  0  0  0  0
    6.6850   19.1040   18.2230 C   0  0  0  0  0
   10.6680   15.7310   17.4340 C   0  0  0  0  0
    8.9960   14.4590   16.3140 C   0  0  0  0  0
    7.6070   16.0460   14.0500 C   0  0  0  0  0
    7.6020   18.0550   13.2040 C   0  0  0  0  0
   10.9150   17.0250   18.1220 C   0  0  0  0  0
    9.9470   17.1570   19.2940 C   0  0  0  0  0
    9.8860   18.5780   19.7890 C   0  0  0  0  0
    7.5730   19.4960   12.9330 C   0  0  0  0  0
    7.6050   20.0580   20.3640 N   0  0  0  0  0
   11.5790   14.7030   17.2540 C   0  0  0  0  0
    5.8950   18.0650   17.7620 C   0  0  0  0  0
    7.7170   19.5610   17.4260 C   0  0  0  0  0
    6.4010   19.7160   19.5630 C   0  0  0  0  0
    7.6140   14.6800   14.5550 C   0  0  0  0  0
    7.7850   17.2450   12.1570 N   0  0  0  0  0
    7.8900   17.6360   21.2570 O   0  0  0  0  0
    9.3780   19.4520   22.1310 O   0  0  0  0  0
    7.8160   15.9800   12.7150 O   0  0  0  0  0
    7.6550   14.5140   15.9510 O   0  0  0  0  0
    8.6480   18.8520   21.0350 S   0  0  0  0  0
   11.8964   12.7340   16.4514 H   0  0  0  0  0
    5.5156   16.6511   16.1877 H   0  0  0  0  0
    8.7842   19.3554   15.5799 H   0  0  0  0  0
    9.5626   12.4901   15.6314 H   0  0  0  0  0
    8.6785   16.3941   17.1197 H   0  0  0  0  0
   10.7613   17.8478   17.4238 H   0  0  0  0  0
   11.9414   17.0570   18.4875 H   0  0  0  0  0
   10.2941   16.5190   20.1068 H   0  0  0  0  0
    8.9525   16.8608   18.9602 H   0  0  0  0  0
    9.6338   19.2084   18.9363 H   0  0  0  0  0
   10.8532   18.8081   20.2360 H   0  0  0  0  0
    6.6142   19.9051   13.2515 H   0  0  0  0  0
    8.3781   19.9840   13.4823 H   0  0  0  0  0
    7.7052   19.6662   11.8645 H   0  0  0  0  0
    7.8248   21.0411   20.5242 H   0  0  0  0  0
   12.5998   14.8028   17.6230 H   0  0  0  0  0
    5.0660   17.7084   18.3732 H   0  0  0  0  0
    8.3385   20.3879   17.7696 H   0  0  0  0  0
    5.8417   18.9758   20.1352 H   0  0  0  0  0
    5.8708   20.6500   19.3768 H   0  0  0  0  0
    8.5300   14.2276   14.1751 H   0  0  0  0  0
    6.6715   14.2387   14.2310 H   0  0  0  0  0
  1  4  4  0  0  0
 18  1  4  0  0  0
  2  6  4  0  0  0
 19  2  4  0  0  0
  3  6  4  0  0  0
 20  3  4  0  0  0
 10  4  4  0  0  0
  9  5  4  0  0  0
  5 10  4  0  0  0
  6  7  1  0  0  0
  7 11  4  0  0  0
  7 12  4  0  0  0
  8 19  4  0  0  0
  8 20  4  0  0  0
 21  8  1  0  0  0
 13  9  1  0  0  0
  9 18  4  0  0  0
 10 27  1  0  0  0
 11 22  1  0  0  0
 11 26  4  0  0  0
 12 16  1  0  0  0
 12 23  4  0  0  0
 14 13  1  0  0  0
 15 14  1  0  0  0
 28 15  1  0  0  0
 17 21  1  0  0  0
 17 28  1  0  0  0
 22 27  1  0  0  0
 23 26  4  0  0  0
 28 24  2  0  0  0
 28 25  2  0  0  0
  1 29  1  0  0  0
  2 30  1  0  0  0
  3 31  1  0  0  0
  4 32  1  0  0  0
  5 33  1  0  0  0
 13 34  1  0  0  0
 13 35  1  0  0  0
 14 36  1  0  0  0
 14 37  1  0  0  0
 15 38  1  0  0  0
 15 39  1  0  0  0
 16 40  1  0  0  0
 16 41  1  0  0  0
 16 42  1  0  0  0
 17 43  1  0  0  0
 18 44  1  0  0  0
 19 45  1  0  0  0
 20 46  1  0  0  0
 21 47  1  0  0  0
 21 48  1  0  0  0
 22 49  1  0  0  0
 22 50  1  0  0  0
M  END
$$$$
