2p33_ligand
  -I-interpret- 

 50 53  0  0  0  0  0  0  0  0999 V2000
   29.1850    4.5930   29.2020 C   0  0  0  0  0
   28.4270    5.0480   27.9700 C   0  0  0  0  0
   26.9940    4.8280   28.1280 N   0  0  0  0  0
   26.1190    5.8870   28.0050 C   0  0  0  0  0
   25.9170    6.4400   26.9220 O   0  0  0  0  0
   25.4790    6.2960   29.2120 N   0  0  0  0  0
   24.5380    7.4400   29.1350 C   0  0  0  0  0
   23.1780    7.1060   29.7560 C   0  0  0  0  0
   23.3740    6.6250   31.2170 C   0  0  0  0  0
   24.2950    5.3720   31.2230 C   0  0  0  0  0
   25.6530    5.6990   30.5860 C   0  0  0  0  0
   22.0520    6.3120   31.8210 N   0  0  0  0  0
   21.1470    7.2600   32.3030 C   0  0  0  0  0
   21.4630    8.5710   32.1220 N   0  0  0  0  0
   20.5940    9.5520   32.5890 C   0  0  0  0  0
   19.3600    9.2250   33.2570 C   0  0  0  0  0
   19.1420    7.8510   33.3800 C   0  0  0  0  0
   19.9950    6.8680   32.9200 N   0  0  0  0  0
   18.1740   10.3030   33.8950 Cl  0  0  0  0  0
   21.0960   10.9110   32.2930 C   0  0  0  0  0
   22.3730   11.2950   31.7860 C   0  0  0  0  0
   23.5660   10.5870   31.4090 C   0  0  0  0  0
   24.6810   11.3190   30.9250 C   0  0  0  0  0
   24.6310   12.7280   30.8140 C   0  0  0  0  0
   23.4720   13.4510   31.1800 C   0  0  0  0  0
   22.3620   12.7120   31.6650 C   0  0  0  0  0
   21.1340   13.1470   32.0800 N   0  0  0  0  0
   20.3740   12.0870   32.4550 C   0  0  0  0  0
   28.8377    5.1551   30.0689 H   0  0  0  0  0
   29.0094    3.5293   29.3628 H   0  0  0  0  0
   30.2509    4.7687   29.0567 H   0  0  0  0  0
   28.7767    4.4738   27.1120 H   0  0  0  0  0
   28.6035    6.1137   27.8243 H   0  0  0  0  0
   26.6396    3.8929   28.3290 H   0  0  0  0  0
   24.3825    7.6837   28.0840 H   0  0  0  0  0
   24.9696    8.2746   29.6875 H   0  0  0  0  0
   22.7007    6.3157   29.1766 H   0  0  0  0  0
   22.5498    7.9968   29.7503 H   0  0  0  0  0
   23.8447    7.4101   31.8087 H   0  0  0  0  0
   23.8167    4.5785   30.6489 H   0  0  0  0  0
   24.4547    5.0551   32.2536 H   0  0  0  0  0
   26.1692    6.4221   31.2175 H   0  0  0  0  0
   26.2267    4.7766   30.4953 H   0  0  0  0  0
   21.7857    5.3297   31.8885 H   0  0  0  0  0
   18.2271    7.5299   33.8780 H   0  0  0  0  0
   23.6134    9.5013   31.4939 H   0  0  0  0  0
   25.5879   10.7884   30.6350 H   0  0  0  0  0
   25.5016   13.2665   30.4395 H   0  0  0  0  0
   23.4328   14.5368   31.0927 H   0  0  0  0  0
   19.3514   12.1489   32.8272 H   0  0  0  0  0
  1  2  1  0  0  0
  2  3  1  0  0  0
  3  4  1  0  0  0
  4  5  2  0  0  0
  4  6  1  0  0  0
  6  7  1  0  0  0
  6 11  1  0  0  0
  7  8  1  0  0  0
  8  9  1  0  0  0
  9 10  1  0  0  0
  9 12  1  0  0  0
 10 11  1  0  0  0
 12 13  1  0  0  0
 13 14  4  0  0  0
 13 18  4  0  0  0
 14 15  4  0  0  0
 15 16  4  0  0  0
 15 20  1  0  0  0
 16 17  4  0  0  0
 16 19  1  0  0  0
 17 18  4  0  0  0
 20 21  4  0  0  0
 20 28  4  0  0  0
 21 22  4  0  0  0
 21 26  4  0  0  0
 22 23  4  0  0  0
 23 24  4  0  0  0
 24 25  4  0  0  0
 25 26  4  0  0  0
 26 27  4  0  0  0
 27 28  4  0  0  0
  1 29  1  0  0  0
  1 30  1  0  0  0
  1 31  1  0  0  0
  2 32  1  0  0  0
  2 33  1  0  0  0
  3 34  1  0  0  0
  7 35  1  0  0  0
  7 36  1  0  0  0
  8 37  1  0  0  0
  8 38  1  0  0  0
  9 39  1  0  0  0
 10 40  1  0  0  0
 10 41  1  0  0  0
 11 42  1  0  0  0
 11 43  1  0  0  0
 12 44  1  0  0  0
 17 45  1  0  0  0
 22 46  1  0  0  0
 23 47  1  0  0  0
 24 48  1  0  0  0
 25 49  1  0  0  0
 28 50  1  0  0  0
M  END
$$$$
