5jm4_ligand
  -I-interpret- 

209211  0  0  0  0  0  0  0  0999 V2000
   18.5990   14.2970   10.7180 N   0  3  0  0  0
   18.6590   14.7130   12.1130 C   0  0  0  0  0
   18.6500   13.5090   13.0490 C   0  0  0  0  0
   18.9390   12.3870   12.6350 O   0  0  0  0  0
   17.4910   15.6450   12.4450 C   0  0  0  0  0
   17.5400   16.2260   13.8490 C   0  0  0  0  0
   18.7410   17.1240   14.0660 C   0  0  0  0  0
   18.9100   18.1320   13.3790 O   0  0  0  0  0
   19.5840   16.7630   15.0270 N   0  0  0  0  0
   18.3160   13.7510   14.3130 N   0  0  0  0  0
   18.2700   12.7120   15.2870 C   0  0  0  0  0
   16.9940   12.2510   15.8740 C   0  0  0  0  0
   16.5750   11.1320   15.6190 O   0  0  0  0  0
   12.9210   12.0290   15.9760 O   0  0  0  0  0
   13.8990   12.7390   15.9740 C   0  0  0  0  0
   14.9510   12.6490   17.0670 C   0  0  0  0  0
   15.0450   11.2120   17.5830 C   0  0  0  0  0
   16.2170   13.0710   16.4730 N   0  0  0  0  0
   14.5600   13.5750   18.2210 C   0  0  0  0  0
   13.2590   13.2030   18.9000 C   0  0  0  0  0
   12.1630   14.1920   18.5620 C   0  0  0  0  0
   10.7750   13.5490   18.5610 C   0  0  0  0  0
   10.5830   12.7490   19.8520 C   0  0  0  0  0
   10.5470   11.2550   19.5260 C   0  0  0  0  0
   12.4820   11.5560   12.7040 O   0  0  0  0  0
   13.3340   12.1340   13.0400 C   0  0  0  0  0
   13.1510   13.4190   13.8490 C   0  0  0  0  0
   14.1430   13.4200   14.8860 N   0  0  0  0  0
   12.8950   14.6940   13.1850 C   0  0  0  0  0
   14.1710   15.1710   12.5010 C   0  0  0  0  0
   11.8060   14.5050   12.1360 C   0  0  0  0  0
   11.5420   15.8300   11.4390 C   0  0  0  0  0
   11.0930   16.8610   12.4630 C   0  0  0  0  0
   12.8150   16.3090   10.7620 C   0  0  0  0  0
   13.9050   16.4950   11.8050 C   0  0  0  0  0
   13.4570   17.5260   12.8280 C   0  0  0  0  0
   12.1830   17.0480   13.5060 C   0  0  0  0  0
   12.4470   15.7260   14.2070 C   0  0  0  0  0
   14.5650   11.7300   12.7500 N   0  0  0  0  0
   14.8480   10.6150   11.8540 C   0  0  0  0  0
   14.2770    9.3110   12.4000 C   0  0  0  0  0
   13.4110    8.6930   11.7800 O   0  0  0  0  0
   16.3550   10.4770   11.6300 C   0  0  0  0  0
   16.8800   11.4420   10.5850 C   0  0  0  0  0
   16.0610   12.1550    9.9680 O   0  0  0  0  0
   18.1110   11.4860   10.3800 O   0  0  0  0  0
   11.9350    6.7560   14.3790 O   0  0  0  0  0
   12.6080    7.7550   14.2850 C   0  0  0  0  0
   14.1120    7.6770   14.0780 C   0  0  0  0  0
   14.4360    6.6810   12.9650 C   0  0  0  0  0
   14.5900    9.0050   13.7090 N   0  0  0  0  0
   14.7660    7.2270   15.3860 C   0  0  0  0  0
   14.5020    8.1540   16.6030 C   0  0  0  0  0
   13.2000    7.6980   17.2760 C   0  0  0  0  0
   12.6470    8.8150   18.1630 C   0  0  0  0  0
   11.9730    8.2040   19.3930 C   0  0  0  0  0
   11.1360    9.2720   20.1000 C   0  0  0  0  0
   11.9760    8.9790   14.2220 N   0  0  0  0  0
   10.5140    9.0980   14.3260 C   0  0  0  0  0
    9.9580    8.4930   12.9870 C   0  0  0  0  0
    8.7610    8.2220   12.8720 O   0  0  0  0  0
    9.9600   10.4240   14.3870 C   0  0  0  0  0
    9.2810   10.6970   15.7590 C   0  0  0  0  0
    8.6230   12.0740   15.8210 C   0  0  0  0  0
    8.2650    9.6070   15.9640 C   0  0  0  0  0
   10.8360    8.2930   12.0110 N   0  0  0  0  0
   10.4270    7.7320   10.7270 C   0  0  0  0  0
    9.1410    8.3740   10.2120 C   0  0  0  0  0
    8.0910    7.7340   10.1590 O   0  0  0  0  0
   10.2490    6.2160   10.8380 C   0  0  0  0  0
   10.5130    5.5010    9.5270 C   0  0  0  0  0
   10.9120    6.1720    8.5520 O   0  0  0  0  0
   10.3200    4.2680    9.4710 O   0  0  0  0  0
    9.2370    9.6440    9.8330 N   0  0  0  0  0
    8.0970   10.4010    9.3120 C   0  0  0  0  0
    7.7740   10.0440    7.8950 C   0  0  0  0  0
    8.7280    9.7410    7.1510 O   0  0  0  0  0
    8.2380   11.8880    9.5350 C   0  0  0  0  0
    8.2830   12.4660   10.9020 C   0  0  0  0  0
    8.6180   13.9100   10.8700 C   0  0  0  0  0
    7.0040   12.0400   11.6100 C   0  0  0  0  0
    6.4980   10.1960    7.4980 N   0  0  0  0  0
    6.1200    9.9230    6.1210 C   0  0  0  0  0
    6.8040   10.8350    5.1390 C   0  0  0  0  0
    6.9540   11.9730    5.4430 O   0  0  0  0  0
    4.6170    9.9920    5.9980 C   0  0  0  0  0
    6.7200    7.4540    3.2360 O   0  0  0  0  0
    7.6240    7.8960    2.6320 C   0  0  0  0  0
    8.8620    7.3510    2.7270 O   0  0  0  0  0
    7.3180    8.9690    1.6360 C   0  0  0  0  0
    7.5260    8.2110    0.3440 C   0  0  0  0  0
    8.6660    8.2240   -0.2060 O   0  0  0  0  0
    6.5820    7.5410   -0.1020 O   0  0  0  0  0
    8.2190   10.0770    1.8180 C   0  0  0  0  0
    7.8650   10.9760    2.9940 C   0  0  0  0  0
    7.2400   10.2000    3.9890 N   0  0  0  0  0
    7.0720   12.1520    2.4360 C   0  0  0  0  0
    5.8450   11.8980    2.2320 O   0  0  0  0  0
    7.8210   13.3220    2.3900 N   0  0  0  0  0
   19.3836   13.6776   10.5151 H   0  0  0  0  0
   17.7223   13.8038   10.5489 H   0  0  0  0  0
   18.6493   15.1194   10.1167 H   0  0  0  0  0
   19.5952   15.2517   12.2596 H   0  0  0  0  0
   16.5772   15.0554   12.3718 H   0  0  0  0  0
   17.5380   16.4817   11.7480 H   0  0  0  0  0
   17.6094   15.3968   14.5531 H   0  0  0  0  0
   16.6417   16.8258   13.9955 H   0  0  0  0  0
   20.4102   17.3292   15.2198 H   0  0  0  0  0
   19.4051   15.9196   15.5721 H   0  0  0  0  0
   18.0868   14.7048   14.5926 H   0  0  0  0  0
   18.8084   13.1312   16.1370 H   0  0  0  0  0
   18.6373   11.8379   14.7493 H   0  0  0  0  0
   14.0792   10.9085   17.9871 H   0  0  0  0  0
   15.3211   10.5499   16.7623 H   0  0  0  0  0
   15.8014   11.1572   18.3659 H   0  0  0  0  0
   16.4901   14.0516   16.5382 H   0  0  0  0  0
   14.4312   14.5735   17.8032 H   0  0  0  0  0
   15.3470   13.5039   18.9718 H   0  0  0  0  0
   13.4147   13.2112   19.9788 H   0  0  0  0  0
   12.9555   12.2152   18.5533 H   0  0  0  0  0
   12.3555   14.5789   17.5613 H   0  0  0  0  0
   12.1707   14.9751   19.3201 H   0  0  0  0  0
   10.6837   12.8826   17.7033 H   0  0  0  0  0
   10.0140   14.3269   18.4987 H   0  0  0  0  0
    9.6446   13.0405   20.3237 H   0  0  0  0  0
   11.4104   12.9525   20.5318 H   0  0  0  0  0
    9.7194   11.0526   18.8461 H   0  0  0  0  0
   11.4858   10.9646   19.0543 H   0  0  0  0  0
   10.4103   10.6868   20.4461 H   0  0  0  0  0
   12.1440   13.3656   14.2627 H   0  0  0  0  0
   15.0147   13.9382   14.7767 H   0  0  0  0  0
   14.4891   14.4310   11.7667 H   0  0  0  0  0
   14.9562   15.3022   13.2456 H   0  0  0  0  0
   10.8919   14.1586   12.6182 H   0  0  0  0  0
   12.1304   13.7662   11.4032 H   0  0  0  0  0
   10.7607   15.6974   10.6906 H   0  0  0  0  0
   10.1804   16.5163   12.9492 H   0  0  0  0  0
   10.9023   17.8105   11.9628 H   0  0  0  0  0
   12.6251   17.2587   10.2618 H   0  0  0  0  0
   13.1366   15.5696   10.0285 H   0  0  0  0  0
   14.8181   16.8393   11.3194 H   0  0  0  0  0
   13.2675   18.4755   12.3274 H   0  0  0  0  0
   14.2386   17.6585   13.5761 H   0  0  0  0  0
   11.8613   17.7887   14.2381 H   0  0  0  0  0
   13.2280   15.8602   14.9554 H   0  0  0  0  0
   11.5341   15.3835   14.6943 H   0  0  0  0  0
   15.3505   12.2233   13.1744 H   0  0  0  0  0
   14.3664   10.8240   10.8988 H   0  0  0  0  0
   16.5505    9.4637   11.2791 H   0  0  0  0  0
   16.8558   10.6982   12.5725 H   0  0  0  0  0
   15.1733   11.9628   10.2788 H   0  0  0  0  0
   14.0599    5.6956   13.2401 H   0  0  0  0  0
   13.9625    7.0065   12.0387 H   0  0  0  0  0
   15.5159    6.6330   12.8251 H   0  0  0  0  0
   15.0928    9.6294   14.3396 H   0  0  0  0  0
   15.8428    7.2283   15.2166 H   0  0  0  0  0
   14.3405    6.2543   15.6327 H   0  0  0  0  0
   14.4124    9.1894   16.2742 H   0  0  0  0  0
   15.3308    8.0933   17.3083 H   0  0  0  0  0
   13.4033    6.8210   17.8905 H   0  0  0  0  0
   12.4662    7.4553   16.5074 H   0  0  0  0  0
   11.9171    9.3974   17.6007 H   0  0  0  0  0
   13.4631    9.4638   18.4809 H   0  0  0  0  0
   12.7352    7.8290   20.0760 H   0  0  0  0  0
   11.3269    7.3828   19.0827 H   0  0  0  0  0
   11.7830   10.0927   20.4098 H   0  0  0  0  0
   10.3743    9.6464   19.4161 H   0  0  0  0  0
   10.6566    8.8351   20.9760 H   0  0  0  0  0
   12.5364    9.8225   14.1003 H   0  0  0  0  0
   10.2424    8.6127   15.2635 H   0  0  0  0  0
    9.2070   10.5194   13.6047 H   0  0  0  0  0
   10.7691   11.1421   14.2538 H   0  0  0  0  0
   10.0314   10.6956   16.5496 H   0  0  0  0  0
    9.3779   12.8436   15.6599 H   0  0  0  0  0
    7.8588   12.1453   15.0471 H   0  0  0  0  0
    8.1644   12.2124   16.8001 H   0  0  0  0  0
    7.5337    9.6372   15.1563 H   0  0  0  0  0
    8.7672    8.6396   15.9653 H   0  0  0  0  0
    7.7605    9.7572   16.9185 H   0  0  0  0  0
   11.8151    8.5361   12.1615 H   0  0  0  0  0
   11.2185    7.9487   10.0096 H   0  0  0  0  0
    9.2161    6.0195   11.1255 H   0  0  0  0  0
   10.9653    5.8468   11.5719 H   0  0  0  0  0
   10.0167    3.9536   10.3258 H   0  0  0  0  0
   10.1411   10.1102    9.9080 H   0  0  0  0  0
    7.2295   10.0981    9.8983 H   0  0  0  0  0
    7.3259   12.3033    9.1065 H   0  0  0  0  0
    9.2189   12.1216    9.1210 H   0  0  0  0  0
    9.1017   12.0786   11.5084 H   0  0  0  0  0
    9.5946   14.0449   10.4052 H   0  0  0  0  0
    7.8629   14.4442   10.2934 H   0  0  0  0  0
    8.6419   14.2988   11.8880 H   0  0  0  0  0
    6.1424   12.4186   11.0600 H   0  0  0  0  0
    6.9594   10.9518   11.6533 H   0  0  0  0  0
    6.9978   12.4458   12.6216 H   0  0  0  0  0
    5.7919   10.5044    8.1664 H   0  0  0  0  0
    6.4564    8.9180    5.8660 H   0  0  0  0  0
    4.1654    9.2502    6.6567 H   0  0  0  0  0
    4.2758   10.9875    6.2819 H   0  0  0  0  0
    4.3284    9.7879    4.9669 H   0  0  0  0  0
    9.4695    7.8400    2.1672 H   0  0  0  0  0
    6.3309    9.4269    1.6992 H   0  0  0  0  0
    9.2526    8.8001    0.2896 H   0  0  0  0  0
    8.1665   10.6878    0.9168 H   0  0  0  0  0
    9.2072    9.6612    2.0148 H   0  0  0  0  0
    8.7254   11.4114    3.5022 H   0  0  0  0  0
    7.1119    9.1957    3.8654 H   0  0  0  0  0
    7.3718   14.2061    2.1512 H   0  0  0  0  0
    8.8198   13.2965    2.5951 H   0  0  0  0  0
  2  1  1  0  0  0
  3  2  1  0  0  0
  2  5  1  0  0  0
  3  4  2  0  0  0
 10  3  1  0  0  0
  5  6  1  0  0  0
  6  7  1  0  0  0
  7  8  2  0  0  0
  7  9  1  0  0  0
 11 10  1  0  0  0
 12 11  1  0  0  0
 12 13  2  0  0  0
 18 12  1  0  0  0
 15 14  2  0  0  0
 15 16  1  0  0  0
 28 15  1  0  0  0
 16 17  1  0  0  0
 16 18  1  0  0  0
 16 19  1  0  0  0
 19 20  1  0  0  0
 20 21  1  0  0  0
 21 22  1  0  0  0
 22 23  1  0  0  0
 23 24  1  0  0  0
 26 25  2  0  0  0
 26 27  1  0  0  0
 39 26  1  0  0  0
 27 28  1  0  0  0
 27 29  1  0  0  0
 29 30  1  0  0  0
 29 31  1  0  0  0
 29 38  1  0  0  0
 30 35  1  0  0  0
 31 32  1  0  0  0
 32 33  1  0  0  0
 32 34  1  0  0  0
 37 33  1  0  0  0
 35 34  1  0  0  0
 35 36  1  0  0  0
 37 36  1  0  0  0
 38 37  1  0  0  0
 40 39  1  0  0  0
 41 40  1  0  0  0
 40 43  1  0  0  0
 41 42  2  0  0  0
 51 41  1  0  0  0
 43 44  1  0  0  0
 44 45  1  0  0  0
 44 46  2  0  0  0
 48 47  2  0  0  0
 48 49  1  0  0  0
 58 48  1  0  0  0
 49 50  1  0  0  0
 49 51  1  0  0  0
 49 52  1  0  0  0
 52 53  1  0  0  0
 53 54  1  0  0  0
 54 55  1  0  0  0
 55 56  1  0  0  0
 56 57  1  0  0  0
 59 58  1  0  0  0
 60 59  1  0  0  0
 59 62  1  0  0  0
 60 61  2  0  0  0
 66 60  1  0  0  0
 62 63  1  0  0  0
 63 64  1  0  0  0
 63 65  1  0  0  0
 67 66  1  0  0  0
 68 67  1  0  0  0
 67 70  1  0  0  0
 68 69  2  0  0  0
 74 68  1  0  0  0
 70 71  1  0  0  0
 71 72  2  0  0  0
 71 73  1  0  0  0
 75 74  1  0  0  0
 76 75  1  0  0  0
 75 78  1  0  0  0
 76 77  2  0  0  0
 82 76  1  0  0  0
 78 79  1  0  0  0
 79 80  1  0  0  0
 79 81  1  0  0  0
 83 82  1  0  0  0
 84 83  1  0  0  0
 83 86  1  0  0  0
 84 85  2  0  0  0
 96 84  1  0  0  0
 88 87  2  0  0  0
 88 89  1  0  0  0
 90 88  1  0  0  0
 90 91  1  0  0  0
 94 90  1  0  0  0
 91 92  1  0  0  0
 91 93  2  0  0  0
 95 94  1  0  0  0
 95 96  1  0  0  0
 95 97  1  0  0  0
 97 98  2  0  0  0
 97 99  1  0  0  0
  1100  1  0  0  0
  1101  1  0  0  0
  1102  1  0  0  0
  2103  1  0  0  0
  5104  1  0  0  0
  5105  1  0  0  0
  6106  1  0  0  0
  6107  1  0  0  0
  9108  1  0  0  0
  9109  1  0  0  0
 10110  1  0  0  0
 11111  1  0  0  0
 11112  1  0  0  0
 17113  1  0  0  0
 17114  1  0  0  0
 17115  1  0  0  0
 18116  1  0  0  0
 19117  1  0  0  0
 19118  1  0  0  0
 20119  1  0  0  0
 20120  1  0  0  0
 21121  1  0  0  0
 21122  1  0  0  0
 22123  1  0  0  0
 22124  1  0  0  0
 23125  1  0  0  0
 23126  1  0  0  0
 24127  1  0  0  0
 24128  1  0  0  0
 24129  1  0  0  0
 27130  1  0  0  0
 28131  1  0  0  0
 30132  1  0  0  0
 30133  1  0  0  0
 31134  1  0  0  0
 31135  1  0  0  0
 32136  1  0  0  0
 33137  1  0  0  0
 33138  1  0  0  0
 34139  1  0  0  0
 34140  1  0  0  0
 35141  1  0  0  0
 36142  1  0  0  0
 36143  1  0  0  0
 37144  1  0  0  0
 38145  1  0  0  0
 38146  1  0  0  0
 39147  1  0  0  0
 40148  1  0  0  0
 43149  1  0  0  0
 43150  1  0  0  0
 45151  1  0  0  0
 50152  1  0  0  0
 50153  1  0  0  0
 50154  1  0  0  0
 51155  1  0  0  0
 52156  1  0  0  0
 52157  1  0  0  0
 53158  1  0  0  0
 53159  1  0  0  0
 54160  1  0  0  0
 54161  1  0  0  0
 55162  1  0  0  0
 55163  1  0  0  0
 56164  1  0  0  0
 56165  1  0  0  0
 57166  1  0  0  0
 57167  1  0  0  0
 57168  1  0  0  0
 58169  1  0  0  0
 59170  1  0  0  0
 62171  1  0  0  0
 62172  1  0  0  0
 63173  1  0  0  0
 64174  1  0  0  0
 64175  1  0  0  0
 64176  1  0  0  0
 65177  1  0  0  0
 65178  1  0  0  0
 65179  1  0  0  0
 66180  1  0  0  0
 67181  1  0  0  0
 70182  1  0  0  0
 70183  1  0  0  0
 73184  1  0  0  0
 74185  1  0  0  0
 75186  1  0  0  0
 78187  1  0  0  0
 78188  1  0  0  0
 79189  1  0  0  0
 80190  1  0  0  0
 80191  1  0  0  0
 80192  1  0  0  0
 81193  1  0  0  0
 81194  1  0  0  0
 81195  1  0  0  0
 82196  1  0  0  0
 83197  1  0  0  0
 86198  1  0  0  0
 86199  1  0  0  0
 86200  1  0  0  0
 89201  1  0  0  0
 90202  1  0  0  0
 92203  1  0  0  0
 94204  1  0  0  0
 94205  1  0  0  0
 95206  1  0  0  0
 96207  1  0  0  0
 99208  1  0  0  0
 99209  1  0  0  0
M  END
$$$$
