### 
### Created by X-TOOL on Mon Jan  6 15:52:12 2020
### 

@<TRIPOS>MOLECULE
5jm4_ligand
  205   207     1     0     0
SMALL
GAST_HUCK


@<TRIPOS>ATOM
      1 N          18.5990   14.2970   10.7180 N.4       1 GLN         0.2380
      2 CA         18.6590   14.7130   12.1130 C.3       1 GLN         0.0671
      3 C          18.6500   13.5090   13.0490 C.2       1 GLN         0.2267
      4 O          18.9390   12.3870   12.6350 O.2       1 GLN        -0.3907
      5 CB         17.4910   15.6450   12.4450 C.3       1 GLN         0.0247
      6 CG         17.5400   16.2260   13.8490 C.3       1 GLN         0.0443
      7 CD         18.7410   17.1240   14.0660 C.2       1 GLN         0.1738
      8 OE1        18.9100   18.1320   13.3790 O.2       1 GLN        -0.3973
      9 NE2        19.5840   16.7630   15.0270 N.am      1 GLN        -0.3009
     10 N          18.3160   13.7510   14.3130 N.am      1 GLN        -0.2637
     11 CA         18.2700   12.7120   15.2870 C.3       1 GLN         0.1200
     12 C          16.9940   12.2510   15.8740 C.2       1 GLN         0.1978
     13 O          16.5750   11.1320   15.6190 O.2       1 GLN        -0.3950
     14 O          12.9210   12.0290   15.9760 O.2       1 GLN        -0.3419
     15 C          13.8990   12.7390   15.9740 C.2       1 GLN         0.2263
     16 CA         14.9510   12.6490   17.0670 C.3       1 GLN         0.1302
     17 CB1        15.0450   11.2120   17.5830 C.3       1 GLN        -0.0320
     18 N          16.2170   13.0710   16.4730 N.am      1 GLN        -0.2745
     19 CB         14.5600   13.5750   18.2210 C.3       1 GLN        -0.0201
     20 CG         13.2590   13.2030   18.9000 C.3       1 GLN        -0.0516
     21 CD         12.1630   14.1920   18.5620 C.3       1 GLN        -0.0531
     22 CE         10.7750   13.5490   18.5610 C.3       1 GLN        -0.0533
     23 CF         10.5830   12.7490   19.8520 C.3       1 GLN        -0.0559
     24 CH         10.5470   11.2550   19.5260 C.3       1 GLN        -0.0653
     25 O          12.4820   11.5560   12.7040 O.2       1 GLN        -0.3943
     26 C          13.3340   12.1340   13.0400 C.2       1 GLN         0.2048
     27 CA         13.1510   13.4190   13.8490 C.3       1 GLN         0.1367
     28 N          14.1430   13.4200   14.8860 N.am      1 GLN        -0.2623
     29 CB         12.8950   14.6940   13.1850 C.3       1 GLN         0.0119
     30 CG         14.1710   15.1710   12.5010 C.3       1 GLN        -0.0402
     31 CH         11.8060   14.5050   12.1360 C.3       1 GLN        -0.0402
     32 CI         11.5420   15.8300   11.4390 C.3       1 GLN        -0.0398
     33 CJ         11.0930   16.8610   12.4630 C.3       1 GLN        -0.0473
     34 CK         12.8150   16.3090   10.7620 C.3       1 GLN        -0.0473
     35 CL         13.9050   16.4950   11.8050 C.3       1 GLN        -0.0398
     36 CM         13.4570   17.5260   12.8280 C.3       1 GLN        -0.0473
     37 CN         12.1830   17.0480   13.5060 C.3       1 GLN        -0.0398
     38 CO         12.4470   15.7260   14.2070 C.3       1 GLN        -0.0402
     39 N          14.5650   11.7300   12.7500 N.am      1 GLN        -0.2609
     40 CA         14.8480   10.6150   11.8540 C.3       1 GLN         0.1418
     41 C          14.2770    9.3110   12.4000 C.2       1 GLN         0.2043
     42 O          13.4110    8.6930   11.7800 O.2       1 GLN        -0.3943
     43 CB         16.3550   10.4770   11.6300 C.3       1 GLN         0.0267
     44 CG         16.8800   11.4420   10.5850 C.2       1 GLN         0.0324
     45 OD1        16.0610   12.1550    9.9680 O.co2     1 GLN        -0.5664
     46 OD2        18.1110   11.4860   10.3800 O.co2     1 GLN        -0.5664
     47 O          11.9350    6.7560   14.3790 O.2       1 GLN        -0.3419
     48 C          12.6080    7.7550   14.2850 C.2       1 GLN         0.2263
     49 CA         14.1120    7.6770   14.0780 C.3       1 GLN         0.1303
     50 CB1        14.4360    6.6810   12.9650 C.3       1 GLN        -0.0320
     51 N          14.5900    9.0050   13.7090 N.am      1 GLN        -0.2740
     52 CB         14.7660    7.2270   15.3860 C.3       1 GLN        -0.0201
     53 CG         14.5020    8.1540   16.6030 C.3       1 GLN        -0.0516
     54 CD         13.2000    7.6980   17.2760 C.3       1 GLN        -0.0531
     55 CE         12.6470    8.8150   18.1630 C.3       1 GLN        -0.0533
     56 CF         11.9730    8.2040   19.3930 C.3       1 GLN        -0.0559
     57 CH         11.1360    9.2720   20.1000 C.3       1 GLN        -0.0653
     58 N          11.9760    8.9790   14.2220 N.am      1 GLN        -0.2629
     59 CA         10.5140    9.0980   14.3260 C.3       1 GLN         0.1314
     60 C           9.9580    8.4930   12.9870 C.2       1 GLN         0.2043
     61 O           8.7610    8.2220   12.8720 O.2       1 GLN        -0.3944
     62 CB          9.9600   10.4240   14.3870 C.3       1 GLN        -0.0099
     63 CG          9.2810   10.6970   15.7590 C.3       1 GLN        -0.0425
     64 CD1         8.6230   12.0740   15.8210 C.3       1 GLN        -0.0625
     65 CD2         8.2650    9.6070   15.9640 C.3       1 GLN        -0.0625
     66 N          10.8360    8.2930   12.0110 N.am      1 GLN        -0.2609
     67 CA         10.4270    7.7320   10.7270 C.3       1 GLN         0.1421
     68 C           9.1410    8.3740   10.2120 C.2       1 GLN         0.2072
     69 O           8.0910    7.7340   10.1590 O.2       1 GLN        -0.3940
     70 CB         10.2490    6.2160   10.8380 C.3       1 GLN         0.0267
     71 CG         10.5130    5.5010    9.5270 C.2       1 GLN         0.0324
     72 OD1        10.9120    6.1720    8.5520 O.co2     1 GLN        -0.5664
     73 OD2        10.3200    4.2680    9.4710 O.co2     1 GLN        -0.5664
     74 N           9.2370    9.6440    9.8330 N.am      1 GLN        -0.2635
     75 CA          8.0970   10.4010    9.3120 C.3       1 GLN         0.1312
     76 C           7.7740   10.0440    7.8950 C.2       1 GLN         0.2039
     77 O           8.7280    9.7410    7.1510 O.2       1 GLN        -0.3944
     78 CB          8.2380   11.8880    9.5350 C.3       1 GLN        -0.0101
     79 CG          8.2830   12.4660   10.9020 C.3       1 GLN        -0.0425
     80 CD1         8.6180   13.9100   10.8700 C.3       1 GLN        -0.0625
     81 CD2         7.0040   12.0400   11.6100 C.3       1 GLN        -0.0625
     82 N           6.4980   10.1960    7.4980 N.am      1 GLN        -0.2640
     83 CA          6.1200    9.9230    6.1210 C.3       1 GLN         0.1282
     84 C           6.8040   10.8350    5.1390 C.2       1 GLN         0.2036
     85 O           6.9540   11.9730    5.4430 O.2       1 GLN        -0.3944
     86 CB          4.6170    9.9920    5.9980 C.3       1 GLN        -0.0244
     87 O2          6.7200    7.4540    3.2360 O.co2     1 GLN        -0.5711
     88 CD1         7.6240    7.8960    2.6320 C.2       1 GLN         0.0432
     89 O3          8.8620    7.3510    2.7270 O.co2     1 GLN        -0.5711
     90 CG          7.3180    8.9690    1.6360 C.3       1 GLN         0.0396
     91 CD2         7.5260    8.2110    0.3440 C.2       1 GLN         0.0432
     92 O4          8.6660    8.2240   -0.2060 O.co2     1 GLN        -0.5711
     93 O5          6.5820    7.5410   -0.1020 O.co2     1 GLN        -0.5711
     94 CB          8.2190   10.0770    1.8180 C.3       1 GLN         0.0209
     95 CA          7.8650   10.9760    2.9940 C.3       1 GLN         0.1396
     96 N           7.2400   10.2000    3.9890 N.am      1 GLN        -0.2628
     97 C           7.0720   12.1520    2.4360 C.2       1 GLN         0.2001
     98 O           5.8450   11.8980    2.2320 O.2       1 GLN        -0.3947
     99 N1          7.8210   13.3220    2.3900 N.am      1 GLN        -0.2989
    100 H1         18.6064   15.1113   10.1240 H         1 GLN         0.2015
    101 H2         17.7524   13.7733   10.5596 H         1 GLN         0.2015
    102 H3         19.3967   13.7187   10.5052 H         1 GLN         0.2015
    103 H4         19.5985   15.2638   12.2676 H         1 GLN         0.1100
    104 H5         16.5550   15.0771   12.3387 H         1 GLN         0.0370
    105 H6         17.4984   16.4776   11.7262 H         1 GLN         0.0370
    106 H7         17.5841   15.3979   14.5717 H         1 GLN         0.0506
    107 H8         16.6256   16.8132   14.0195 H         1 GLN         0.0506
    108 H9         20.3945   17.3176   15.2154 H         1 GLN         0.1814
    109 H10        19.4081   15.9367   15.5620 H         1 GLN         0.1814
    110 H11        18.0913   14.6861   14.5871 H         1 GLN         0.1882
    111 H12        18.8930   13.0494   16.1284 H         1 GLN         0.0763
    112 H13        18.7316   11.8297   14.8196 H         1 GLN         0.0763
    113 H14        15.8081   11.1554   18.3733 H         1 GLN         0.0242
    114 H15        15.3237   10.5428   16.7557 H         1 GLN         0.0242
    115 H16        14.0709   10.9045   17.9912 H         1 GLN         0.0242
    116 H17        16.4847   14.0324   16.5369 H         1 GLN         0.1839
    117 H18        14.4632   14.5970   17.8259 H         1 GLN         0.0277
    118 H19        15.3622   13.5470   18.9731 H         1 GLN         0.0277
    119 H20        13.4120   13.1954   19.9893 H         1 GLN         0.0265
    120 H21        12.9534   12.2006   18.5656 H         1 GLN         0.0265
    121 H22        12.3595   14.6089   17.5632 H         1 GLN         0.0265
    122 H23        12.1763   15.0017   19.3065 H         1 GLN         0.0265
    123 H24        10.6830   12.8763   17.6956 H         1 GLN         0.0265
    124 H25        10.0071   14.3341   18.4984 H         1 GLN         0.0265
    125 H26         9.6361   13.0432   20.3282 H         1 GLN         0.0263
    126 H27        11.4178   12.9544   20.5382 H         1 GLN         0.0263
    127 H28        10.4090   10.6805   20.4539 H         1 GLN         0.0230
    128 H29        11.4939   10.9606   19.0499 H         1 GLN         0.0230
    129 H30         9.7121   11.0494   18.8399 H         1 GLN         0.0230
    130 H31        12.2032   13.2516   14.3816 H         1 GLN         0.0807
    131 H32        14.9976   13.9280   14.7788 H         1 GLN         0.1889
    132 H33        14.4912   14.4243   11.7594 H         1 GLN         0.0275
    133 H34        14.9628   15.3041   13.2528 H         1 GLN         0.0275
    134 H35        10.8835   14.1563   12.6232 H         1 GLN         0.0275
    135 H36        12.1342   13.7600   11.3962 H         1 GLN         0.0275
    136 H37        10.7535   15.6961   10.6838 H         1 GLN         0.0301
    137 H38        10.1719   16.5133   12.9537 H         1 GLN         0.0271
    138 H39        10.9004   17.8192   11.9583 H         1 GLN         0.0271
    139 H40        12.6234   17.2673   10.2571 H         1 GLN         0.0271
    140 H41        13.1396   15.5629   10.0217 H         1 GLN         0.0271
    141 H42        14.8262   16.8424   11.3144 H         1 GLN         0.0301
    142 H43        13.2660   18.4844   12.3230 H         1 GLN         0.0271
    143 H44        14.2458   17.6601   13.5829 H         1 GLN         0.0271
    144 H45        11.8586   17.7957   14.2447 H         1 GLN         0.0301
    145 H46        13.2357   15.8618   14.9616 H         1 GLN         0.0275
    146 H47        11.5253   15.3804   14.6980 H         1 GLN         0.0275
    147 H48        15.3351   12.2136   13.1660 H         1 GLN         0.1886
    148 H49        14.3700   10.8223   10.8852 H         1 GLN         0.0838
    149 H50        16.5696    9.4498   11.3003 H         1 GLN         0.0532
    150 H51        16.8719   10.6723   12.5811 H         1 GLN         0.0532
    151 H52        15.5257    6.6317   12.8229 H         1 GLN         0.0242
    152 H53        13.9587    7.0084   12.0296 H         1 GLN         0.0242
    153 H54        14.0569    5.6861   13.2415 H         1 GLN         0.0242
    154 H55        15.0829    9.6172   14.3273 H         1 GLN         0.1839
    155 H56        15.8529    7.1766   15.2247 H         1 GLN         0.0277
    156 H57        14.3848    6.2247   15.6312 H         1 GLN         0.0277
    157 H58        14.4013    9.1955   16.2636 H         1 GLN         0.0265
    158 H59        15.3362    8.0798   17.3162 H         1 GLN         0.0265
    159 H60        13.4011    6.8097   17.8928 H         1 GLN         0.0265
    160 H61        12.4591    7.4473   16.5025 H         1 GLN         0.0265
    161 H62        11.9105    9.4029   17.5956 H         1 GLN         0.0265
    162 H63        13.4705    9.4700   18.4838 H         1 GLN         0.0265
    163 H64        12.7421    7.8254   20.0823 H         1 GLN         0.0263
    164 H65        11.3210    7.3752   19.0800 H         1 GLN         0.0263
    165 H66        10.6516    8.8322   20.9843 H         1 GLN         0.0230
    166 H67        10.3668    9.6507   19.4109 H         1 GLN         0.0230
    167 H68        11.7878   10.1009   20.4132 H         1 GLN         0.0230
    168 H69        12.5254    9.8060   14.1027 H         1 GLN         0.1889
    169 H70        10.1708    8.5262   15.2008 H         1 GLN         0.0802
    170 H71         9.2107   10.5351   13.5894 H         1 GLN         0.0315
    171 H72        10.7674   11.1557   14.2362 H         1 GLN         0.0315
    172 H73        10.0404   10.6421   16.5529 H         1 GLN         0.0298
    173 H74         8.1598   12.2149   16.8087 H         1 GLN         0.0232
    174 H75         7.8514   12.1472   15.0404 H         1 GLN         0.0232
    175 H76         9.3839   12.8516   15.6586 H         1 GLN         0.0232
    176 H77         8.7632    8.6275   15.9149 H         1 GLN         0.0232
    177 H78         7.4980    9.6680   15.1779 H         1 GLN         0.0232
    178 H79         7.7909    9.7282   16.9491 H         1 GLN         0.0232
    179 H80        11.7959    8.5313   12.1585 H         1 GLN         0.1886
    180 H81        11.2253    7.9343    9.9978 H         1 GLN         0.0838
    181 H82         9.2165    6.0045   11.1531 H         1 GLN         0.0532
    182 H83        10.9491    5.8334   11.5952 H         1 GLN         0.0532
    183 H84        10.1234   10.1011    9.9065 H         1 GLN         0.1883
    184 H85         7.2267   10.0885    9.9077 H         1 GLN         0.0800
    185 H86         7.3849   12.3605    9.0261 H         1 GLN         0.0315
    186 H87         9.1730   12.1889    9.0398 H         1 GLN         0.0315
    187 H88         9.1111   11.9837   11.4421 H         1 GLN         0.0298
    188 H89         8.6424   14.3035   11.8969 H         1 GLN         0.0232
    189 H90         7.8566   14.4503   10.2883 H         1 GLN         0.0232
    190 H91         9.6035   14.0475   10.4011 H         1 GLN         0.0232
    191 H92         6.8970   10.9470   11.5475 H         1 GLN         0.0232
    192 H93         6.1403   12.5211   11.1278 H         1 GLN         0.0232
    193 H94         7.0508   12.3440   12.6661 H         1 GLN         0.0232
    194 H95         5.8058   10.4983    8.1533 H         1 GLN         0.1883
    195 H96         6.4328    8.8953    5.8842 H         1 GLN         0.0797
    196 H97         4.3244    9.7862    4.9578 H         1 GLN         0.0277
    197 H98         4.2714   10.9963    6.2842 H         1 GLN         0.0277
    198 H99         4.1600    9.2438    6.6623 H         1 GLN         0.0277
    199 H100        6.2814    9.3267    1.7220 H         1 GLN         0.0944
    200 H101        8.2082   10.6857    0.9018 H         1 GLN         0.0430
    201 H102        9.2307    9.6770    1.9807 H         1 GLN         0.0430
    202 H103        8.7906   11.3791    3.4308 H         1 GLN         0.0810
    203 H104        7.1144    9.2153    3.8679 H         1 GLN         0.1884
    204 H105        7.4106   14.1650    2.0423 H         1 GLN         0.1815
    205 H106        8.7702   13.3207    2.7046 H         1 GLN         0.1815
@<TRIPOS>BOND
     1    2    1 1  
     2    3    2 1  
     3    2    5 1  
     4    3    4 2  
     5   10    3 am 
     6    5    6 1  
     7    6    7 1  
     8    7    8 2  
     9    7    9 am 
    10   11   10 1  
    11   12   11 1  
    12   12   13 2  
    13   18   12 am 
    14   15   14 2  
    15   15   16 1  
    16   28   15 am 
    17   16   17 1  
    18   16   18 1  
    19   16   19 1  
    20   19   20 1  
    21   20   21 1  
    22   21   22 1  
    23   22   23 1  
    24   23   24 1  
    25   26   25 2  
    26   26   27 1  
    27   39   26 am 
    28   27   28 1  
    29   27   29 1  
    30   29   30 1  
    31   29   31 1  
    32   29   38 1  
    33   30   35 1  
    34   31   32 1  
    35   32   33 1  
    36   32   34 1  
    37   37   33 1  
    38   35   34 1  
    39   35   36 1  
    40   37   36 1  
    41   38   37 1  
    42   40   39 1  
    43   41   40 1  
    44   40   43 1  
    45   41   42 2  
    46   51   41 am 
    47   43   44 1  
    48   44   45 2  
    49   44   46 2  
    50   48   47 2  
    51   48   49 1  
    52   58   48 am 
    53   49   50 1  
    54   49   51 1  
    55   49   52 1  
    56   52   53 1  
    57   53   54 1  
    58   54   55 1  
    59   55   56 1  
    60   56   57 1  
    61   59   58 1  
    62   60   59 1  
    63   59   62 1  
    64   60   61 2  
    65   66   60 am 
    66   62   63 1  
    67   63   64 1  
    68   63   65 1  
    69   67   66 1  
    70   68   67 1  
    71   67   70 1  
    72   68   69 2  
    73   74   68 am 
    74   70   71 1  
    75   71   72 2  
    76   71   73 2  
    77   75   74 1  
    78   76   75 1  
    79   75   78 1  
    80   76   77 2  
    81   82   76 am 
    82   78   79 1  
    83   79   80 1  
    84   79   81 1  
    85   83   82 1  
    86   84   83 1  
    87   83   86 1  
    88   84   85 2  
    89   96   84 am 
    90   88   87 2  
    91   88   89 2  
    92   90   88 1  
    93   90   91 1  
    94   94   90 1  
    95   91   92 2  
    96   91   93 2  
    97   95   94 1  
    98   95   96 1  
    99   95   97 1  
   100   97   98 2  
   101   97   99 am 
   102    1  100 1  
   103    1  101 1  
   104    1  102 1  
   105    2  103 1  
   106    5  104 1  
   107    5  105 1  
   108    6  106 1  
   109    6  107 1  
   110    9  108 1  
   111    9  109 1  
   112   10  110 1  
   113   11  111 1  
   114   11  112 1  
   115   17  113 1  
   116   17  114 1  
   117   17  115 1  
   118   18  116 1  
   119   19  117 1  
   120   19  118 1  
   121   20  119 1  
   122   20  120 1  
   123   21  121 1  
   124   21  122 1  
   125   22  123 1  
   126   22  124 1  
   127   23  125 1  
   128   23  126 1  
   129   24  127 1  
   130   24  128 1  
   131   24  129 1  
   132   27  130 1  
   133   28  131 1  
   134   30  132 1  
   135   30  133 1  
   136   31  134 1  
   137   31  135 1  
   138   32  136 1  
   139   33  137 1  
   140   33  138 1  
   141   34  139 1  
   142   34  140 1  
   143   35  141 1  
   144   36  142 1  
   145   36  143 1  
   146   37  144 1  
   147   38  145 1  
   148   38  146 1  
   149   39  147 1  
   150   40  148 1  
   151   43  149 1  
   152   43  150 1  
   153   50  151 1  
   154   50  152 1  
   155   50  153 1  
   156   51  154 1  
   157   52  155 1  
   158   52  156 1  
   159   53  157 1  
   160   53  158 1  
   161   54  159 1  
   162   54  160 1  
   163   55  161 1  
   164   55  162 1  
   165   56  163 1  
   166   56  164 1  
   167   57  165 1  
   168   57  166 1  
   169   57  167 1  
   170   58  168 1  
   171   59  169 1  
   172   62  170 1  
   173   62  171 1  
   174   63  172 1  
   175   64  173 1  
   176   64  174 1  
   177   64  175 1  
   178   65  176 1  
   179   65  177 1  
   180   65  178 1  
   181   66  179 1  
   182   67  180 1  
   183   70  181 1  
   184   70  182 1  
   185   74  183 1  
   186   75  184 1  
   187   78  185 1  
   188   78  186 1  
   189   79  187 1  
   190   80  188 1  
   191   80  189 1  
   192   80  190 1  
   193   81  191 1  
   194   81  192 1  
   195   81  193 1  
   196   82  194 1  
   197   83  195 1  
   198   86  196 1  
   199   86  197 1  
   200   86  198 1  
   201   90  199 1  
   202   94  200 1  
   203   94  201 1  
   204   95  202 1  
   205   96  203 1  
   206   99  204 1  
   207   99  205 1  
@<TRIPOS>SUBSTRUCTURE
     1 GLN         1

