6c9q_ligand
  -I-interpret- 

 34 36  0  0  0  0  0  0  0  0999 V2000
  -15.9480   20.7010    6.7130 O   0  0  0  0  0
  -14.9270   19.7470    6.6440 C   0  0  0  0  0
  -13.9030   20.0310    5.6220 C   0  0  0  0  0
  -14.1880   21.2390    4.8870 O   0  0  0  0  0
  -13.9160   18.8140    4.6760 C   0  0  0  0  0
  -12.5200   18.3360    4.2540 C   0  0  0  0  0
  -12.6070   17.0920    3.4760 N   0  3  0  0  0
  -14.5400   17.7680    5.4170 O   0  0  0  0  0
  -15.5420   18.3950    6.2570 C   0  0  0  0  0
  -15.7420   17.3740    7.2630 N   0  0  0  0  0
  -14.8210   17.0080    8.1460 C   0  0  0  0  0
  -15.3380   16.0690    8.9720 N   0  0  0  0  0
  -16.6350   15.8450    8.5770 C   0  0  0  0  0
  -16.9050   16.6590    7.5170 C   0  0  0  0  0
  -18.1470   16.6230    6.9200 N   0  0  0  0  0
  -19.0610   15.7890    7.4000 C   0  0  0  0  0
  -18.8670   14.9840    8.4150 N   0  0  0  0  0
  -17.6790   14.9560    9.0280 C   0  0  0  0  0
  -17.4690   14.0730   10.1110 N   0  0  0  0  0
  -15.5740   21.5515    6.9546 H   0  0  0  0  0
  -14.4501   19.7539    7.6241 H   0  0  0  0  0
  -12.9296   20.1874    6.0869 H   0  0  0  0  0
  -14.1767   21.9878    5.4876 H   0  0  0  0  0
  -14.4311   19.0882    3.7554 H   0  0  0  0  0
  -11.9269   18.1497    5.1493 H   0  0  0  0  0
  -12.0571   19.1053    3.6359 H   0  0  0  0  0
  -11.6692   16.7942    3.2072 H   0  0  0  0  0
  -13.0455   16.3671    4.0440 H   0  0  0  0  0
  -13.1665   17.2544    2.6387 H   0  0  0  0  0
  -16.5282   18.6608    5.8764 H   0  0  0  0  0
  -13.8062   17.4024    8.1977 H   0  0  0  0  0
  -20.0382   15.7728    6.9175 H   0  0  0  0  0
  -16.5677   14.0565   10.5882 H   0  0  0  0  0
  -18.2187   13.4521   10.4155 H   0  0  0  0  0
  1  2  1  0  0  0
  2  3  1  0  0  0
  2  9  1  0  0  0
  3  4  1  0  0  0
  3  5  1  0  0  0
  5  6  1  0  0  0
  5  8  1  0  0  0
  6  7  1  0  0  0
  8  9  1  0  0  0
  9 10  1  0  0  0
 10 11  4  0  0  0
 10 14  4  0  0  0
 11 12  4  0  0  0
 12 13  4  0  0  0
 13 14  4  0  0  0
 13 18  4  0  0  0
 14 15  4  0  0  0
 15 16  4  0  0  0
 16 17  4  0  0  0
 17 18  4  0  0  0
 18 19  1  0  0  0
  1 20  1  0  0  0
  2 21  1  0  0  0
  3 22  1  0  0  0
  4 23  1  0  0  0
  5 24  1  0  0  0
  6 25  1  0  0  0
  6 26  1  0  0  0
  7 27  1  0  0  0
  7 28  1  0  0  0
  7 29  1  0  0  0
  9 30  1  0  0  0
 11 31  1  0  0  0
 16 32  1  0  0  0
 19 33  1  0  0  0
 19 34  1  0  0  0
M  END
$$$$
