2w6o_ligand
  -I-interpret- 

 27 28  0  0  0  0  0  0  0  0999 V2000
   19.4530   10.8210    0.5560 O   0  0  0  0  0
   18.6550   10.2790   -0.1970 C   0  0  0  0  0
   17.6110    9.3320    0.3580 C   0  0  0  0  0
   17.6120    8.0660   -0.4880 C   0  0  0  0  0
   16.6110    7.0540    0.0590 C   0  0  0  0  0
   18.9970    7.4230   -0.4020 C   0  0  0  0  0
   17.2590    8.4090   -1.9390 C   0  0  0  0  0
   17.9970    9.6140   -2.5140 C   0  0  0  0  0
   18.0050    9.8290   -3.8530 N   0  0  0  0  0
   18.6380   10.8770   -4.4040 C   0  0  0  0  0
   19.2900   11.7510   -3.6210 N   0  0  0  0  0
   19.3140   11.5810   -2.2750 C   0  0  0  0  0
   18.6670   10.5080   -1.6900 C   0  0  0  0  0
   19.9680   12.4670   -1.5010 N   0  0  0  0  0
   16.6276    9.8010    0.3262 H   0  0  0  0  0
   17.8425    9.0879    1.3948 H   0  0  0  0  0
   15.6083    7.4799    0.0214 H   0  0  0  0  0
   16.6452    6.1478   -0.5457 H   0  0  0  0  0
   16.8665    6.8135    1.0910 H   0  0  0  0  0
   19.0081    6.5068   -0.9924 H   0  0  0  0  0
   19.7428    8.1164   -0.7907 H   0  0  0  0  0
   19.2237    7.1892    0.6382 H   0  0  0  0  0
   16.1968    8.6531   -1.9553 H   0  0  0  0  0
   17.5428    7.5479   -2.5441 H   0  0  0  0  0
   18.6225   11.0179   -5.4848 H   0  0  0  0  0
   20.4433   13.2628   -1.9267 H   0  0  0  0  0
   19.9883   12.3426   -0.4888 H   0  0  0  0  0
  1  2  2  0  0  0
  2  3  1  0  0  0
  2 13  1  0  0  0
  3  4  1  0  0  0
  4  5  1  0  0  0
  4  6  1  0  0  0
  4  7  1  0  0  0
  7  8  1  0  0  0
  8  9  4  0  0  0
  8 13  4  0  0  0
  9 10  4  0  0  0
 10 11  4  0  0  0
 11 12  4  0  0  0
 12 13  4  0  0  0
 12 14  1  0  0  0
  3 15  1  0  0  0
  3 16  1  0  0  0
  5 17  1  0  0  0
  5 18  1  0  0  0
  5 19  1  0  0  0
  6 20  1  0  0  0
  6 21  1  0  0  0
  6 22  1  0  0  0
  7 23  1  0  0  0
  7 24  1  0  0  0
 10 25  1  0  0  0
 14 26  1  0  0  0
 14 27  1  0  0  0
M  END
$$$$
