4mwu_ligand
  -I-interpret- 

 48 48  0  0  0  0  0  0  0  0999 V2000
   63.6720   18.6520  -24.3430 C   0  0  0  0  0
   63.6360   17.2400  -23.7770 C   0  0  0  0  0
   62.5590   16.4400  -24.4250 C   0  0  0  0  0
   62.5440   16.5160  -25.9060 C   0  0  0  0  0
   62.5400   17.9350  -26.3780 C   0  0  0  0  0
   63.6580   18.7200  -25.7560 O   0  0  0  0  0
   64.6050   19.6350  -23.7610 C   0  0  0  0  0
   65.1450   19.4520  -22.6420 O   0  0  0  0  0
   64.8020   20.7000  -24.4060 O   0  0  0  0  0
   62.6860   18.0960  -27.8330 C   0  0  0  0  0
   62.4990   19.5690  -28.2320 C   0  0  0  0  0
   62.6530   19.7700  -29.7290 C   0  0  0  0  0
   61.7420   19.1140  -30.5470 O   0  0  0  0  0
   63.9770   17.6940  -28.2000 O   0  0  0  0  0
   64.1380   16.6470  -29.1130 C   0  0  0  0  0
   61.2600   20.0480  -27.8390 O   0  0  0  0  0
   62.7820   15.0230  -24.0680 N   0  0  0  0  0
   61.7780   14.0340  -23.8340 C   0  0  0  0  0
   60.5070   14.3540  -23.8890 N   0  0  0  0  0
   62.1020   12.8050  -23.5660 N   0  0  0  0  0
   61.6400   14.4680  -27.1150 C   0  0  0  0  0
   60.4510   13.7420  -27.6530 C   0  0  0  0  0
   62.7720   14.0080  -27.2120 O   0  0  0  0  0
   61.4150   15.7300  -26.4810 N   0  0  0  0  0
   62.7075   18.9956  -23.9691 H   0  0  0  0  0
   63.4387   17.2945  -22.7064 H   0  0  0  0  0
   64.5954   16.7593  -23.9681 H   0  0  0  0  0
   61.6114   16.8464  -24.0715 H   0  0  0  0  0
   63.4647   16.0611  -26.2712 H   0  0  0  0  0
   61.5585   18.3018  -26.0778 H   0  0  0  0  0
   64.3143   20.6672  -25.2323 H   0  0  0  0  0
   61.9317   17.4913  -28.3364 H   0  0  0  0  0
   63.2804   20.1275  -27.7166 H   0  0  0  0  0
   63.6315   19.3643  -29.9859 H   0  0  0  0  0
   62.4999   20.8348  -29.9049 H   0  0  0  0  0
   61.9364   19.3142  -31.4655 H   0  0  0  0  0
   63.6781   15.7435  -28.7126 H   0  0  0  0  0
   63.6601   16.9123  -30.0560 H   0  0  0  0  0
   65.2009   16.4720  -29.2795 H   0  0  0  0  0
   61.1754   20.9673  -28.1023 H   0  0  0  0  0
   63.7521   14.7204  -23.9797 H   0  0  0  0  0
   59.7945   13.6433  -23.7228 H   0  0  0  0  0
   60.2312   15.3135  -24.0980 H   0  0  0  0  0
   63.0845   12.5350  -23.5203 H   0  0  0  0  0
   60.5694   13.5993  -28.7271 H   0  0  0  0  0
   60.3671   12.7718  -27.1634 H   0  0  0  0  0
   59.5517   14.3269  -27.4598 H   0  0  0  0  0
   60.4659   16.0987  -26.4211 H   0  0  0  0  0
  2  1  1  0  0  0
  6  1  1  0  0  0
  1  7  1  0  0  0
  3  2  1  0  0  0
  4  3  1  0  0  0
  3 17  1  0  0  0
  4  5  1  0  0  0
 24  4  1  0  0  0
  5  6  1  0  0  0
  5 10  1  0  0  0
  7  8  2  0  0  0
  7  9  1  0  0  0
 10 11  1  0  0  0
 10 14  1  0  0  0
 11 12  1  0  0  0
 11 16  1  0  0  0
 12 13  1  0  0  0
 14 15  1  0  0  0
 17 18  1  0  0  0
 18 19  1  0  0  0
 18 20  2  0  0  0
 21 22  1  0  0  0
 21 23  2  0  0  0
 21 24  1  0  0  0
  1 25  1  0  0  0
  2 26  1  0  0  0
  2 27  1  0  0  0
  3 28  1  0  0  0
  4 29  1  0  0  0
  5 30  1  0  0  0
  9 31  1  0  0  0
 10 32  1  0  0  0
 11 33  1  0  0  0
 12 34  1  0  0  0
 12 35  1  0  0  0
 13 36  1  0  0  0
 15 37  1  0  0  0
 15 38  1  0  0  0
 15 39  1  0  0  0
 16 40  1  0  0  0
 17 41  1  0  0  0
 19 42  1  0  0  0
 19 43  1  0  0  0
 20 44  1  0  0  0
 22 45  1  0  0  0
 22 46  1  0  0  0
 22 47  1  0  0  0
 24 48  1  0  0  0
M  END
$$$$
