4zec_ligand
  -I-interpret- 

 79 82  0  0  0  0  0  0  0  0999 V2000
   -9.6000  -27.4570   26.6300 O   0  0  0  0  0
  -10.6340  -27.9180   27.3200 C   0  0  0  0  0
  -11.8620  -27.2830   26.8230 O   0  0  0  0  0
  -10.7860  -29.3630   27.0770 C   0  0  0  0  0
  -12.2270  -29.5770   26.9220 C   0  0  0  0  0
  -12.4670  -30.6430   26.1230 O   0  0  0  0  0
  -12.7510  -28.2770   26.3700 C   0  0  0  0  0
  -13.0120  -28.1370   24.9160 N   0  0  0  0  0
  -12.3730  -28.5410   23.7730 C   0  0  0  0  0
  -13.0800  -28.0690   22.7070 N   0  0  0  0  0
  -14.1730  -27.3200   23.1990 C   0  0  0  0  0
  -14.1370  -27.3490   24.6100 C   0  0  0  0  0
  -15.1160  -26.6520   25.3340 N   0  0  0  0  0
  -16.0930  -25.9420   24.6780 C   0  0  0  0  0
  -16.1560  -25.9080   23.2990 N   0  0  0  0  0
  -15.2490  -26.5870   22.5350 C   0  0  0  0  0
  -15.2640  -26.5170   21.0740 N   0  0  0  0  0
   -2.7420  -24.0410   29.3610 C   0  0  0  0  0
   -4.1800  -23.7090   29.5780 C   0  0  0  0  0
   -4.5160  -23.1770   30.9370 C   0  0  0  0  0
   -4.9610  -23.1630   28.3320 C   0  0  0  0  0
   -4.9210  -21.7740   28.1640 O   0  0  0  0  0
   -6.4130  -23.6530   28.2000 C   0  0  0  0  0
   -7.1130  -22.9360   27.2600 O   0  0  0  0  0
   -6.5980  -25.1370   27.9550 C   0  0  0  0  0
   -5.7170  -25.9470   28.1600 O   0  0  0  0  0
   -7.8910  -25.6330   27.4770 N   0  0  0  0  0
   -8.1480  -27.2620   27.1990 P   0  0  0  0  0
   -7.9860  -27.9910   28.5820 O   0  0  0  0  0
   -7.0620  -27.7280   26.1690 O   0  0  0  0  0
  -16.6110  -26.3030   20.1330 P   0  0  0  0  0
  -17.6090  -27.4090   20.4590 O   0  0  0  0  0
  -17.2770  -24.9920   20.5250 O   0  0  0  0  0
  -16.1720  -26.3330   18.6030 O   0  0  0  0  0
  -15.8380  -27.5490   17.9770 C   0  0  0  0  0
  -14.3620  -27.8270   17.9250 C   0  0  0  0  0
  -13.8670  -28.2940   19.2240 O   0  0  0  0  0
  -14.0120  -28.8120   16.9000 C   0  0  0  0  0
  -12.6290  -29.1590   16.8530 O   0  0  0  0  0
  -14.6990  -28.8130   15.5460 C   0  0  0  0  0
  -15.0190  -30.1660   14.9950 C   0  0  0  0  0
  -14.5470  -30.4160   13.7160 O   0  0  0  0  0
  -15.9700  -28.0140   15.5290 O   0  0  0  0  0
  -16.6750  -27.7940   16.7260 C   0  0  0  0  0
  -17.7460  -26.9240   16.5230 O   0  0  0  0  0
  -10.4696  -27.7105   28.3774 H   0  0  0  0  0
  -10.3777  -29.9538   27.8970 H   0  0  0  0  0
  -10.2347  -29.6822   26.1925 H   0  0  0  0  0
  -12.7309  -29.8205   27.8573 H   0  0  0  0  0
  -12.1092  -31.4347   26.5315 H   0  0  0  0  0
  -13.7727  -28.1970   26.7412 H   0  0  0  0  0
  -11.4604  -29.1350   23.7246 H   0  0  0  0  0
  -16.8345  -25.3937   25.2591 H   0  0  0  0  0
  -14.3689  -26.6077   20.5934 H   0  0  0  0  0
   -2.1383  -23.1443   29.5009 H   0  0  0  0  0
   -2.4343  -24.8031   30.0770 H   0  0  0  0  0
   -2.6063  -24.4174   28.3471 H   0  0  0  0  0
   -4.6688  -24.6810   29.6434 H   0  0  0  0  0
   -4.2516  -23.9180   31.6914 H   0  0  0  0  0
   -3.9556  -22.2592   31.1153 H   0  0  0  0  0
   -5.5844  -22.9679   30.9900 H   0  0  0  0  0
   -4.3861  -23.6115   27.5218 H   0  0  0  0  0
   -5.4225  -21.5328   27.3818 H   0  0  0  0  0
   -6.8216  -23.4714   29.1940 H   0  0  0  0  0
   -8.0112  -23.2708   27.2074 H   0  0  0  0  0
   -8.6495  -24.9717   27.3105 H   0  0  0  0  0
   -8.6651  -27.6826   29.1865 H   0  0  0  0  0
  -17.2294  -28.2596   20.2268 H   0  0  0  0  0
  -16.1480  -28.3682   18.6258 H   0  0  0  0  0
  -13.8862  -26.8810   17.6665 H   0  0  0  0  0
  -12.9241  -28.4639   19.1636 H   0  0  0  0  0
  -14.5546  -29.6495   17.3385 H   0  0  0  0  0
  -12.4860  -29.8059   16.1582 H   0  0  0  0  0
  -13.9438  -28.3511   14.9101 H   0  0  0  0  0
  -16.1058  -30.2310   14.9431 H   0  0  0  0  0
  -14.5366  -30.8905   15.6511 H   0  0  0  0  0
  -14.8000  -31.3032   13.4505 H   0  0  0  0  0
  -17.1078  -28.7572   16.9963 H   0  0  0  0  0
  -18.2032  -27.1644   15.7138 H   0  0  0  0  0
  1  2  1  0  0  0
 28  1  1  0  0  0
  2  3  1  0  0  0
  2  4  1  0  0  0
  3  7  1  0  0  0
  4  5  1  0  0  0
  5  6  1  0  0  0
  5  7  1  0  0  0
  7  8  1  0  0  0
  8  9  4  0  0  0
  8 12  4  0  0  0
  9 10  4  0  0  0
 11 10  4  0  0  0
 12 11  4  0  0  0
 11 16  4  0  0  0
 12 13  4  0  0  0
 13 14  4  0  0  0
 14 15  4  0  0  0
 16 15  4  0  0  0
 16 17  1  0  0  0
 17 31  1  0  0  0
 19 18  1  0  0  0
 19 20  1  0  0  0
 21 19  1  0  0  0
 21 22  1  0  0  0
 23 21  1  0  0  0
 23 24  1  0  0  0
 25 23  1  0  0  0
 25 26  2  0  0  0
 27 25  1  0  0  0
 27 28  1  0  0  0
 28 29  1  0  0  0
 28 30  2  0  0  0
 31 32  1  0  0  0
 31 33  2  0  0  0
 31 34  1  0  0  0
 34 35  1  0  0  0
 35 36  1  0  0  0
 35 44  1  0  0  0
 36 37  1  0  0  0
 36 38  1  0  0  0
 38 39  1  0  0  0
 38 40  1  0  0  0
 40 41  1  0  0  0
 40 43  1  0  0  0
 41 42  1  0  0  0
 43 44  1  0  0  0
 44 45  1  0  0  0
  2 46  1  0  0  0
  4 47  1  0  0  0
  4 48  1  0  0  0
  5 49  1  0  0  0
  6 50  1  0  0  0
  7 51  1  0  0  0
  9 52  1  0  0  0
 14 53  1  0  0  0
 17 54  1  0  0  0
 18 55  1  0  0  0
 18 56  1  0  0  0
 18 57  1  0  0  0
 19 58  1  0  0  0
 20 59  1  0  0  0
 20 60  1  0  0  0
 20 61  1  0  0  0
 21 62  1  0  0  0
 22 63  1  0  0  0
 23 64  1  0  0  0
 24 65  1  0  0  0
 27 66  1  0  0  0
 29 67  1  0  0  0
 32 68  1  0  0  0
 35 69  1  0  0  0
 36 70  1  0  0  0
 37 71  1  0  0  0
 38 72  1  0  0  0
 39 73  1  0  0  0
 40 74  1  0  0  0
 41 75  1  0  0  0
 41 76  1  0  0  0
 42 77  1  0  0  0
 44 78  1  0  0  0
 45 79  1  0  0  0
M  END
$$$$
