### 
### Created by X-TOOL on Mon Sep 10 21:13:26 2018
### 

@<TRIPOS>MOLECULE
4y5i_ligand
  135   137     1     0     0
SMALL
GAST_HUCK


@<TRIPOS>ATOM
      1 C          23.4760    4.9260   18.4650 C.2       1 ACE         0.1751
      2 O          24.0590    5.9210   18.8410 O.2       1 ACE        -0.3972
      3 CH3        22.9890    3.8690   19.4940 C.3       1 ACE         0.0258
      4 N          23.2330    4.7330   17.0500 N.am      1 ARG        -0.2658
      5 CA         23.6950    5.7250   16.1350 C.3       1 ARG         0.1310
      6 C          22.8510    6.9570   16.2320 C.2       1 ARG         0.2040
      7 O          21.8930    7.0290   16.9900 O.2       1 ARG        -0.3944
      8 CB         23.5970    5.2060   14.6930 C.3       1 ARG        -0.0092
      9 CG         24.4760    3.9830   14.4360 C.3       1 ARG        -0.0156
     10 CD         23.6520    2.8250   13.8250 C.3       1 ARG         0.0627
     11 NE         24.4930    1.6700   13.6100 N.pl3     1 ARG        -0.2723
     12 CZ         24.6550    0.6840   14.6880 C.cat     1 ARG         0.2882
     13 NH1        25.4020   -0.3530   14.5050 N.pl3     1 ARG        -0.2849
     14 NH2        23.9810    0.8760   15.9420 N.pl3     1 ARG        -0.2849
     15 N          23.2000    8.0970   15.3790 N.am      1 THR        -0.2613
     16 CA         22.4120    9.2840   15.4280 C.3       1 THR         0.1567
     17 C          21.0600    8.9810   14.8480 C.2       1 THR         0.2090
     18 O          20.9520    8.3480   13.8230 O.2       1 THR        -0.3941
     19 CB         23.0460   10.3000   14.5070 C.3       1 THR         0.0924
     20 OG1        24.3640   10.5890   14.9490 O.3       1 THR        -0.3874
     21 CG2        22.2350   11.5700   14.5140 C.3       1 THR        -0.0346
     22 N          19.8590    9.4760   15.4860 N.am      1 PRO        -0.2498
     23 CA         18.5370    9.2190   14.9690 C.3       1 PRO         0.1338
     24 C          18.2670    9.9380   13.6920 C.2       1 PRO         0.2042
     25 O          18.5870   11.0980   13.4510 O.2       1 PRO        -0.3944
     26 CB         17.5730    9.6660   16.0010 C.3       1 PRO        -0.0104
     27 CG         18.3640   10.2290   17.1430 C.3       1 PRO        -0.0281
     28 CD         19.7930   10.2390   16.7210 C.3       1 PRO         0.0369
     29 N          17.5580    9.1990   12.6520 N.am      1 SEP        -0.2613
     30 CA         17.2110    9.7960   11.4230 C.3       1 SEP         0.1586
     31 CB         17.3840    8.8150   10.2700 C.3       1 SEP         0.1184
     32 OG         16.5860    7.6780   10.5660 O.3       1 SEP        -0.2714
     33 C          15.7230   10.2210   11.5330 C.2       1 SEP         0.2065
     34 O          15.0800   10.0850   12.5740 O.2       1 SEP        -0.3943
     35 P          16.7830    6.3560    9.6660 P.3       1 SEP         0.2010
     36 O1P        16.4460    6.7320    8.2450 O.co2     1 SEP        -0.5537
     37 O2P        15.8350    5.3130   10.2110 O.co2     1 SEP        -0.5537
     38 O3P        18.2330    5.9400    9.7850 O.co2     1 SEP        -0.5537
     39 N          15.0680   10.7820   10.3860 N.am      1 LEU        -0.2636
     40 CA         13.6770   11.2080   10.4490 C.3       1 LEU         0.1314
     41 C          12.8230   10.0110   10.8450 C.2       1 LEU         0.2064
     42 O          12.8560    8.9610   10.2640 O.2       1 LEU        -0.3942
     43 CB         13.3190   11.7450    9.1130 C.3       1 LEU        -0.0101
     44 CG         11.9200   12.4460    9.0250 C.3       1 LEU        -0.0425
     45 CD1        11.8970   13.7550    9.7560 C.3       1 LEU        -0.0625
     46 CD2        11.5710   12.6470    7.5590 C.3       1 LEU        -0.0625
     47 N          11.9570   10.1300   12.0160 N.am      1 PRO        -0.2498
     48 CA         11.1450    9.0390   12.5120 C.3       1 PRO         0.1338
     49 C           9.7760    8.9080   11.8460 C.2       1 PRO         0.2042
     50 O           9.0560    7.9680   12.1350 O.2       1 PRO        -0.3944
     51 CB         10.9910    9.3840   13.9850 C.3       1 PRO        -0.0104
     52 CG         10.9500   10.8790   14.0080 C.3       1 PRO        -0.0281
     53 CD         11.8320   11.2980   12.8530 C.3       1 PRO         0.0369
     54 N           9.3650    9.9190   10.9220 N.am      1 THR        -0.2613
     55 CA          8.0700    9.8630   10.3180 C.3       1 THR         0.1565
     56 C           8.1180    9.0810    9.0410 C.2       1 THR         0.2067
     57 O           9.1780    8.8090    8.5130 O.2       1 THR        -0.3942
     58 CB          7.6560   11.3010   10.0870 C.3       1 THR         0.0924
     59 OG1         8.6430   11.9440    9.2770 O.3       1 THR        -0.3874
     60 CG2         7.5360   12.0530   11.3900 C.3       1 THR        -0.0346
     61 N1          6.8580    8.6570    8.4350 N.am      1 PIP        -0.2713
     62 C2          6.8820    7.9280    7.2190 C.3       1 PIP         0.0339
     63 C3          5.9000    8.4740    6.1860 C.3       1 PIP        -0.0325
     64 C4          5.1000    9.6730    6.6730 C.3       1 PIP        -0.0494
     65 C5          4.5550    9.4940    8.0830 C.3       1 PIP        -0.0325
     66 C6          5.5970    8.9780    9.0550 C.3       1 PIP         0.0339
     67 H1         22.4866    3.0461   18.9644 H         1 ACE         0.0467
     68 H2         22.2837    4.3382   20.1957 H         1 ACE         0.0467
     69 H3         23.8518    3.4742   20.0504 H         1 ACE         0.0467
     70 H4         22.7511    3.9207   16.7213 H         1 ARG         0.1882
     71 H5         24.7407    5.9731   16.3694 H         1 ARG         0.0800
     72 H6         23.9072    6.0101   14.0095 H         1 ARG         0.0313
     73 H7         22.5508    4.9344   14.4888 H         1 ARG         0.0313
     74 H8         24.9144    3.6489   15.3879 H         1 ARG         0.0301
     75 H9         25.2806    4.2587   13.7384 H         1 ARG         0.0301
     76 H10        23.2282    3.1493   12.8631 H         1 ARG         0.0689
     77 H11        22.8368    2.5572   14.5132 H         1 ARG         0.0689
     78 H12        24.9748    1.5387   12.7092 H         1 ARG         0.2642
     79 H13        25.5165   -1.0448   15.2594 H         1 ARG         0.2615
     80 H14        25.8834   -0.4885   13.6046 H         1 ARG         0.2615
     81 H15        23.3857    1.7042   16.0852 H         1 ARG         0.2615
     82 H16        24.0931    0.1854   16.6979 H         1 ARG         0.2615
     83 H17        23.9876    8.0422   14.7653 H         1 THR         0.1884
     84 H18        22.3325    9.6647   16.4569 H         1 THR         0.0826
     85 H19        23.0822    9.8936   13.4855 H         1 THR         0.0639
     86 H20        24.8807    9.7918   14.9431 H         1 THR         0.2101
     87 H21        22.7007   12.3061   13.8422 H         1 THR         0.0257
     88 H22        22.1995   11.9768   15.5354 H         1 THR         0.0257
     89 H23        21.2129   11.3543   14.1695 H         1 THR         0.0257
     90 H24        18.4220    8.1389   14.7952 H         1 PRO         0.0802
     91 H25        16.9701    8.8132   16.3462 H         1 PRO         0.0313
     92 H26        16.9102   10.4395   15.5859 H         1 PRO         0.0313
     93 H27        18.2384    9.5993   18.0361 H         1 PRO         0.0287
     94 H28        18.0290   11.2527   17.3661 H         1 PRO         0.0287
     95 H29        20.1322   11.2712   16.5496 H         1 PRO         0.0524
     96 H30        20.4212    9.7699   17.4926 H         1 PRO         0.0524
     97 H31        17.3118    8.2437   12.8157 H         1 SEP         0.1884
     98 H32        17.8432   10.6785   11.2457 H         1 SEP         0.0827
     99 H33        18.4402    8.5214   10.1795 H         1 SEP         0.0662
    100 H34        17.0496    9.2760    9.3289 H         1 SEP         0.0662
    101 H35        15.5749   10.8820    9.5298 H         1 LEU         0.1883
    102 H36        13.5575   11.9999   11.2030 H         1 LEU         0.0800
    103 H37        13.3256   10.9091    8.3980 H         1 LEU         0.0315
    104 H38        14.0856   12.4796    8.8255 H         1 LEU         0.0315
    105 H39        11.1685   11.7853    9.4819 H         1 LEU         0.0298
    106 H40        10.8984   14.2076    9.6662 H         1 LEU         0.0232
    107 H41        12.6467   14.4317    9.3201 H         1 LEU         0.0232
    108 H42        12.1288   13.5861   10.8179 H         1 LEU         0.0232
    109 H43        11.5931   11.6771    7.0405 H         1 LEU         0.0232
    110 H44        12.3030   13.3261    7.0976 H         1 LEU         0.0232
    111 H45        10.5644   13.0831    7.4781 H         1 LEU         0.0232
    112 H46        11.6823    8.0871   12.3890 H         1 PRO         0.0802
    113 H47        11.8464    9.0080   14.5655 H         1 PRO         0.0313
    114 H48        10.0593    8.9617   14.3895 H         1 PRO         0.0313
    115 H49        11.3454   11.2645   14.9593 H         1 PRO         0.0287
    116 H50         9.9218   11.2424   13.8641 H         1 PRO         0.0287
    117 H51        11.3662   12.1228   12.2939 H         1 PRO         0.0524
    118 H52        12.8195   11.6151   13.2195 H         1 PRO         0.0524
    119 H53         9.9866   10.6693   10.6970 H         1 THR         0.1884
    120 H54         7.3578    9.3787   11.0022 H         1 THR         0.0826
    121 H55         6.6853   11.3176    9.5698 H         1 THR         0.0639
    122 H56         8.3893   12.8473    9.1280 H         1 THR         0.2101
    123 H57         7.2346   13.0914   11.1876 H         1 THR         0.0257
    124 H58         8.5066   12.0472   11.9075 H         1 THR         0.0257
    125 H59         6.7792   11.5687   12.0246 H         1 THR         0.0257
    126 H60         6.6229    6.8803    7.4315 H         1 PIP         0.0522
    127 H61         7.8976    7.9768    6.7993 H         1 PIP         0.0522
    128 H62         5.1956    7.6723    5.9194 H         1 PIP         0.0285
    129 H63         6.4676    8.7753    5.2932 H         1 PIP         0.0285
    130 H64         4.2539    9.8310    5.9881 H         1 PIP         0.0267
    131 H65         5.7528   10.5583    6.6597 H         1 PIP         0.0267
    132 H66         3.7210    8.7776    8.0490 H         1 PIP         0.0285
    133 H67         4.1887   10.4663    8.4442 H         1 PIP         0.0285
    134 H68         5.7719    9.7499    9.8189 H         1 PIP         0.0522
    135 H69         5.2045    8.0694    9.5350 H         1 PIP         0.0522
@<TRIPOS>BOND
     1    1    2 2  
     2    1    3 1  
     3    1    4 am 
     4    4    5 1  
     5    5    6 1  
     6    5    8 1  
     7    6    7 2  
     8    6   15 am 
     9    8    9 1  
    10    9   10 1  
    11   10   11 1  
    12   11   12 ar 
    13   12   13 ar 
    14   12   14 ar 
    15   15   16 1  
    16   16   17 1  
    17   16   19 1  
    18   17   18 2  
    19   17   22 am 
    20   19   20 1  
    21   19   21 1  
    22   22   23 1  
    23   22   28 1  
    24   23   24 1  
    25   23   26 1  
    26   24   25 2  
    27   24   29 am 
    28   26   27 1  
    29   27   28 1  
    30   29   30 1  
    31   30   31 1  
    32   30   33 1  
    33   31   32 1  
    34   32   35 1  
    35   33   34 2  
    36   33   39 am 
    37   35   36 ar 
    38   35   37 ar 
    39   35   38 ar 
    40   39   40 1  
    41   40   41 1  
    42   40   43 1  
    43   41   42 2  
    44   41   47 am 
    45   43   44 1  
    46   44   45 1  
    47   44   46 1  
    48   47   48 1  
    49   47   53 1  
    50   48   49 1  
    51   48   51 1  
    52   49   50 2  
    53   49   54 am 
    54   51   52 1  
    55   52   53 1  
    56   54   55 1  
    57   55   56 1  
    58   55   58 1  
    59   56   57 2  
    60   56   61 am 
    61   58   59 1  
    62   58   60 1  
    63   61   62 1  
    64   61   66 1  
    65   62   63 1  
    66   63   64 1  
    67   64   65 1  
    68   65   66 1  
    69    3   67 1  
    70    3   68 1  
    71    3   69 1  
    72    4   70 1  
    73    5   71 1  
    74    8   72 1  
    75    8   73 1  
    76    9   74 1  
    77    9   75 1  
    78   10   76 1  
    79   10   77 1  
    80   11   78 1  
    81   13   79 1  
    82   13   80 1  
    83   14   81 1  
    84   14   82 1  
    85   15   83 1  
    86   16   84 1  
    87   19   85 1  
    88   20   86 1  
    89   21   87 1  
    90   21   88 1  
    91   21   89 1  
    92   23   90 1  
    93   26   91 1  
    94   26   92 1  
    95   27   93 1  
    96   27   94 1  
    97   28   95 1  
    98   28   96 1  
    99   29   97 1  
   100   30   98 1  
   101   31   99 1  
   102   31  100 1  
   103   39  101 1  
   104   40  102 1  
   105   43  103 1  
   106   43  104 1  
   107   44  105 1  
   108   45  106 1  
   109   45  107 1  
   110   45  108 1  
   111   46  109 1  
   112   46  110 1  
   113   46  111 1  
   114   48  112 1  
   115   51  113 1  
   116   51  114 1  
   117   52  115 1  
   118   52  116 1  
   119   53  117 1  
   120   53  118 1  
   121   54  119 1  
   122   55  120 1  
   123   58  121 1  
   124   59  122 1  
   125   60  123 1  
   126   60  124 1  
   127   60  125 1  
   128   62  126 1  
   129   62  127 1  
   130   63  128 1  
   131   63  129 1  
   132   64  130 1  
   133   64  131 1  
   134   65  132 1  
   135   65  133 1  
   136   66  134 1  
   137   66  135 1  
@<TRIPOS>SUBSTRUCTURE
     1 ACE         1

