4y5i_ligand
  -I-interpret- 

136138  0  0  0  0  0  0  0  0999 V2000
   23.4760    4.9260   18.4650 C   0  0  0  0  0
   24.0590    5.9210   18.8410 O   0  0  0  0  0
   22.9890    3.8690   19.4940 C   0  0  0  0  0
   23.2330    4.7330   17.0500 N   0  0  0  0  0
   23.6950    5.7250   16.1350 C   0  0  0  0  0
   22.8510    6.9570   16.2320 C   0  0  0  0  0
   21.8930    7.0290   16.9900 O   0  0  0  0  0
   23.5970    5.2060   14.6930 C   0  0  0  0  0
   24.4760    3.9830   14.4360 C   0  0  0  0  0
   23.6520    2.8250   13.8250 C   0  0  0  0  0
   24.4930    1.6700   13.6100 N   0  0  0  0  0
   24.6550    0.6840   14.6880 C   0  0  0  0  0
   25.4020   -0.3530   14.5050 N   0  0  0  0  0
   23.9810    0.8760   15.9420 N   0  0  0  0  0
   23.2000    8.0970   15.3790 N   0  0  0  0  0
   22.4120    9.2840   15.4280 C   0  0  0  0  0
   21.0600    8.9810   14.8480 C   0  0  0  0  0
   20.9520    8.3480   13.8230 O   0  0  0  0  0
   23.0460   10.3000   14.5070 C   0  0  0  0  0
   24.3640   10.5890   14.9490 O   0  0  0  0  0
   22.2350   11.5700   14.5140 C   0  0  0  0  0
   19.8590    9.4760   15.4860 N   0  0  0  0  0
   18.5370    9.2190   14.9690 C   0  0  0  0  0
   18.2670    9.9380   13.6920 C   0  0  0  0  0
   18.5870   11.0980   13.4510 O   0  0  0  0  0
   17.5730    9.6660   16.0010 C   0  0  0  0  0
   18.3640   10.2290   17.1430 C   0  0  0  0  0
   19.7930   10.2390   16.7210 C   0  0  0  0  0
   17.5580    9.1990   12.6520 N   0  0  0  0  0
   17.2110    9.7960   11.4230 C   0  0  0  0  0
   17.3840    8.8150   10.2700 C   0  0  0  0  0
   16.5860    7.6780   10.5660 O   0  0  0  0  0
   15.7230   10.2210   11.5330 C   0  0  0  0  0
   15.0800   10.0850   12.5740 O   0  0  0  0  0
   16.7830    6.3560    9.6660 P   0  0  0  0  0
   16.4460    6.7320    8.2450 O   0  0  0  0  0
   15.8350    5.3130   10.2110 O   0  0  0  0  0
   18.2330    5.9400    9.7850 O   0  0  0  0  0
   15.0680   10.7820   10.3860 N   0  0  0  0  0
   13.6770   11.2080   10.4490 C   0  0  0  0  0
   12.8230   10.0110   10.8450 C   0  0  0  0  0
   12.8560    8.9610   10.2640 O   0  0  0  0  0
   13.3190   11.7450    9.1130 C   0  0  0  0  0
   11.9200   12.4460    9.0250 C   0  0  0  0  0
   11.8970   13.7550    9.7560 C   0  0  0  0  0
   11.5710   12.6470    7.5590 C   0  0  0  0  0
   11.9570   10.1300   12.0160 N   0  0  0  0  0
   11.1450    9.0390   12.5120 C   0  0  0  0  0
    9.7760    8.9080   11.8460 C   0  0  0  0  0
    9.0560    7.9680   12.1350 O   0  0  0  0  0
   10.9910    9.3840   13.9850 C   0  0  0  0  0
   10.9500   10.8790   14.0080 C   0  0  0  0  0
   11.8320   11.2980   12.8530 C   0  0  0  0  0
    9.3650    9.9190   10.9220 N   0  0  0  0  0
    8.0700    9.8630   10.3180 C   0  0  0  0  0
    8.1180    9.0810    9.0410 C   0  0  0  0  0
    9.1780    8.8090    8.5130 O   0  0  0  0  0
    7.6560   11.3010   10.0870 C   0  0  0  0  0
    8.6430   11.9440    9.2770 O   0  0  0  0  0
    7.5360   12.0530   11.3900 C   0  0  0  0  0
    6.8580    8.6570    8.4350 N   0  0  0  0  0
    6.8820    7.9280    7.2190 C   0  0  0  0  0
    5.9000    8.4740    6.1860 C   0  0  0  0  0
    5.1000    9.6730    6.6730 C   0  0  0  0  0
    4.5550    9.4940    8.0830 C   0  0  0  0  0
    5.5970    8.9780    9.0550 C   0  0  0  0  0
   23.8449    3.4787   20.0447 H   0  0  0  0  0
   22.2903    4.3351   20.1887 H   0  0  0  0  0
   22.4914    3.0542   18.9681 H   0  0  0  0  0
   22.7415    3.9045   16.7147 H   0  0  0  0  0
   24.7303    5.9536   16.3882 H   0  0  0  0  0
   23.9353    6.0025   14.0303 H   0  0  0  0  0
   22.5621    4.9136   14.5156 H   0  0  0  0  0
   24.8967    3.6497   15.3847 H   0  0  0  0  0
   25.2630    4.2597   13.7345 H   0  0  0  0  0
   23.2394    3.1476   12.8691 H   0  0  0  0  0
   22.8496    2.5578   14.5126 H   0  0  0  0  0
   24.9701    1.5400   12.7179 H   0  0  0  0  0
   25.8788   -0.4872   13.6133 H   0  0  0  0  0
   24.0920    0.1921   16.6906 H   0  0  0  0  0
   23.3915    1.6962   16.0838 H   0  0  0  0  0
   24.0034    8.0411   14.7530 H   0  0  0  0  0
   22.3400    9.6445   16.4541 H   0  0  0  0  0
   23.0783    9.8920   13.4968 H   0  0  0  0  0
   24.7630   11.2347   14.3613 H   0  0  0  0  0
   21.2225   11.3549   14.1725 H   0  0  0  0  0
   22.2006   11.9720   15.5266 H   0  0  0  0  0
   22.6974   12.2985   13.8480 H   0  0  0  0  0
   18.4437    8.1553   14.7500 H   0  0  0  0  0
   16.9600    8.8299   16.3376 H   0  0  0  0  0
   16.9014   10.4216   15.5934 H   0  0  0  0  0
   18.2311    9.6234   18.0395 H   0  0  0  0  0
   18.0267   11.2367   17.3857 H   0  0  0  0  0
   20.1506   11.2578   16.5719 H   0  0  0  0  0
   20.4312    9.7998   17.4877 H   0  0  0  0  0
   17.3069    8.2246   12.8189 H   0  0  0  0  0
   17.8569   10.6508   11.2226 H   0  0  0  0  0
   18.4308    8.5321   10.1592 H   0  0  0  0  0
   17.0734    9.2687    9.3288 H   0  0  0  0  0
   16.0804    5.1000   11.1143 H   0  0  0  0  0
   18.4238    5.7057   10.6962 H   0  0  0  0  0
   15.5851   10.8840    9.5127 H   0  0  0  0  0
   13.5104   11.9874   11.1925 H   0  0  0  0  0
   13.2843   10.8933    8.4336 H   0  0  0  0  0
   14.0636   12.5037    8.8721 H   0  0  0  0  0
   11.1790   11.8077    9.5062 H   0  0  0  0  0
   12.1269   13.5863   10.8080 H   0  0  0  0  0
   12.6403   14.4245    9.3232 H   0  0  0  0  0
   10.9071   14.2024    9.6663 H   0  0  0  0  0
   12.3304   13.2714    7.0884 H   0  0  0  0  0
   11.5342   11.6789    7.0595 H   0  0  0  0  0
   10.5991   13.1343    7.4817 H   0  0  0  0  0
   11.6142    8.0767   12.3075 H   0  0  0  0  0
   11.8061    8.9851   14.5888 H   0  0  0  0  0
   10.0954    8.9408   14.4203 H   0  0  0  0  0
   11.3000   11.2834   14.9578 H   0  0  0  0  0
    9.9345   11.2621   13.9074 H   0  0  0  0  0
   11.4000   12.1358   12.3056 H   0  0  0  0  0
   12.8052   11.6449   13.2005 H   0  0  0  0  0
    9.9990   10.6843   10.6925 H   0  0  0  0  0
    7.3455    9.3537   10.9535 H   0  0  0  0  0
    6.6842   11.3028    9.5932 H   0  0  0  0  0
    8.3867   12.8568    9.1265 H   0  0  0  0  0
    6.7859   11.5721   12.0178 H   0  0  0  0  0
    8.4984   12.0465   11.9018 H   0  0  0  0  0
    7.2374   13.0817   11.1882 H   0  0  0  0  0
    6.5981    6.8990    7.4398 H   0  0  0  0  0
    7.8857    8.0066    6.8012 H   0  0  0  0  0
    5.1893    7.6788    5.9610 H   0  0  0  0  0
    6.4825    8.8002    5.3244 H   0  0  0  0  0
    4.2497    9.7984    6.0026 H   0  0  0  0  0
    5.7674   10.5348    6.6827 H   0  0  0  0  0
    3.7488    8.7618    8.0385 H   0  0  0  0  0
    4.2216   10.4691    8.4380 H   0  0  0  0  0
    5.7831    9.7674    9.7832 H   0  0  0  0  0
    5.2067    8.0602    9.4948 H   0  0  0  0  0
  1  2  2  0  0  0
  1  3  1  0  0  0
  1  4  1  0  0  0
  4  5  1  0  0  0
  5  6  1  0  0  0
  5  8  1  0  0  0
  6  7  2  0  0  0
  6 15  1  0  0  0
  8  9  1  0  0  0
  9 10  1  0  0  0
 10 11  1  0  0  0
 11 12  1  0  0  0
 12 13  2  0  0  0
 12 14  1  0  0  0
 15 16  1  0  0  0
 16 17  1  0  0  0
 16 19  1  0  0  0
 17 18  2  0  0  0
 17 22  1  0  0  0
 19 20  1  0  0  0
 19 21  1  0  0  0
 22 23  1  0  0  0
 22 28  1  0  0  0
 23 24  1  0  0  0
 23 26  1  0  0  0
 24 25  2  0  0  0
 24 29  1  0  0  0
 26 27  1  0  0  0
 27 28  1  0  0  0
 29 30  1  0  0  0
 30 31  1  0  0  0
 30 33  1  0  0  0
 31 32  1  0  0  0
 32 35  1  0  0  0
 33 34  2  0  0  0
 33 39  1  0  0  0
 35 36  2  0  0  0
 35 37  1  0  0  0
 35 38  1  0  0  0
 39 40  1  0  0  0
 40 41  1  0  0  0
 40 43  1  0  0  0
 41 42  2  0  0  0
 41 47  1  0  0  0
 43 44  1  0  0  0
 44 45  1  0  0  0
 44 46  1  0  0  0
 47 48  1  0  0  0
 47 53  1  0  0  0
 48 49  1  0  0  0
 48 51  1  0  0  0
 49 50  2  0  0  0
 49 54  1  0  0  0
 51 52  1  0  0  0
 52 53  1  0  0  0
 54 55  1  0  0  0
 55 56  1  0  0  0
 55 58  1  0  0  0
 56 57  2  0  0  0
 56 61  1  0  0  0
 58 59  1  0  0  0
 58 60  1  0  0  0
 61 62  1  0  0  0
 61 66  1  0  0  0
 62 63  1  0  0  0
 63 64  1  0  0  0
 64 65  1  0  0  0
 65 66  1  0  0  0
  3 67  1  0  0  0
  3 68  1  0  0  0
  3 69  1  0  0  0
  4 70  1  0  0  0
  5 71  1  0  0  0
  8 72  1  0  0  0
  8 73  1  0  0  0
  9 74  1  0  0  0
  9 75  1  0  0  0
 10 76  1  0  0  0
 10 77  1  0  0  0
 11 78  1  0  0  0
 13 79  1  0  0  0
 14 80  1  0  0  0
 14 81  1  0  0  0
 15 82  1  0  0  0
 16 83  1  0  0  0
 19 84  1  0  0  0
 20 85  1  0  0  0
 21 86  1  0  0  0
 21 87  1  0  0  0
 21 88  1  0  0  0
 23 89  1  0  0  0
 26 90  1  0  0  0
 26 91  1  0  0  0
 27 92  1  0  0  0
 27 93  1  0  0  0
 28 94  1  0  0  0
 28 95  1  0  0  0
 29 96  1  0  0  0
 30 97  1  0  0  0
 31 98  1  0  0  0
 31 99  1  0  0  0
 37100  1  0  0  0
 38101  1  0  0  0
 39102  1  0  0  0
 40103  1  0  0  0
 43104  1  0  0  0
 43105  1  0  0  0
 44106  1  0  0  0
 45107  1  0  0  0
 45108  1  0  0  0
 45109  1  0  0  0
 46110  1  0  0  0
 46111  1  0  0  0
 46112  1  0  0  0
 48113  1  0  0  0
 51114  1  0  0  0
 51115  1  0  0  0
 52116  1  0  0  0
 52117  1  0  0  0
 53118  1  0  0  0
 53119  1  0  0  0
 54120  1  0  0  0
 55121  1  0  0  0
 58122  1  0  0  0
 59123  1  0  0  0
 60124  1  0  0  0
 60125  1  0  0  0
 60126  1  0  0  0
 62127  1  0  0  0
 62128  1  0  0  0
 63129  1  0  0  0
 63130  1  0  0  0
 64131  1  0  0  0
 64132  1  0  0  0
 65133  1  0  0  0
 65134  1  0  0  0
 66135  1  0  0  0
 66136  1  0  0  0
M  END
$$$$
