3qio_ligand
  -I-interpret- 

 31 33  0  0  0  0  0  0  0  0999 V2000
  -11.1250  -10.5270   -9.8370 C   0  0  0  0  0
  -12.3510  -10.8620  -10.3310 C   0  0  0  0  0
  -13.2510   -9.8450  -10.7070 C   0  0  0  0  0
  -12.8600   -8.4810  -10.5520 C   0  0  0  0  0
  -11.5860   -8.1530  -10.0300 C   0  0  0  0  0
  -10.7150   -9.1220   -9.6550 C   0  0  0  0  0
  -11.1880   -6.7010   -9.8760 C   0  0  0  0  0
  -13.8050   -7.4290  -10.9440 N   0  0  0  0  0
  -12.1100   -5.6940  -10.2690 N   0  3  0  0  0
  -10.0770   -6.3880   -9.4720 O   0  0  0  0  0
  -13.4280   -6.0350  -10.7910 C   0  0  0  0  0
  -14.1930   -5.1490  -11.1010 O   0  0  0  0  0
  -11.7820   -4.4550  -10.1100 O   0  0  0  0  0
  -10.0320  -11.7930   -9.3280 S   0  0  0  0  0
   -8.8350  -11.9700  -10.6000 C   0  0  0  0  0
   -9.4270  -11.4460   -8.0650 O   0  0  0  0  0
  -10.7680  -13.0090   -9.0710 O   0  0  0  0  0
   -7.5730  -11.4910  -10.3840 C   0  0  0  0  0
   -6.5870  -11.6310  -11.3810 C   0  0  0  0  0
   -6.9090  -12.2890  -12.6120 C   0  0  0  0  0
   -8.2090  -12.7950  -12.8320 C   0  0  0  0  0
   -9.1700  -12.6620  -11.8650 C   0  0  0  0  0
  -12.6331  -11.9098  -10.4344 H   0  0  0  0  0
  -14.2319  -10.0964  -11.1105 H   0  0  0  0  0
   -9.7423   -8.8706   -9.2323 H   0  0  0  0  0
  -14.7201   -7.6752  -11.3213 H   0  0  0  0  0
   -7.3296  -11.0011   -9.4412 H   0  0  0  0  0
   -5.5830  -11.2400  -11.2161 H   0  0  0  0  0
   -6.1465  -12.3997  -13.3830 H   0  0  0  0  0
   -8.4479  -13.2919  -13.7723 H   0  0  0  0  0
  -10.1713  -13.0617  -12.0254 H   0  0  0  0  0
  1  2  4  0  0  0
  1  6  4  0  0  0
  1 14  1  0  0  0
  2  3  4  0  0  0
  3  4  4  0  0  0
  4  5  4  0  0  0
  4  8  1  0  0  0
  5  6  4  0  0  0
  5  7  1  0  0  0
  7  9  1  0  0  0
  7 10  2  0  0  0
  8 11  1  0  0  0
  9 11  1  0  0  0
  9 13  2  0  0  0
 11 12  2  0  0  0
 14 15  1  0  0  0
 14 16  2  0  0  0
 14 17  2  0  0  0
 15 18  4  0  0  0
 15 22  4  0  0  0
 18 19  4  0  0  0
 19 20  4  0  0  0
 20 21  4  0  0  0
 21 22  4  0  0  0
  2 23  1  0  0  0
  3 24  1  0  0  0
  6 25  1  0  0  0
  8 26  1  0  0  0
 18 27  1  0  0  0
 19 28  1  0  0  0
 20 29  1  0  0  0
 21 30  1  0  0  0
 22 31  1  0  0  0
M  END
$$$$
