2iw6_ligand
  -I-interpret- 

 61 63  0  0  0  0  0  0  0  0999 V2000
    3.8680   41.7760   50.5570 C   0  0  0  0  0
    9.7210   44.7760   50.4540 C   0  0  0  0  0
    7.7540   43.6700   49.8940 C   0  0  0  0  0
    7.0570   44.5980   50.6990 C   0  0  0  0  0
    7.7420   45.6250   51.3840 C   0  0  0  0  0
    3.1920   45.8110   53.5440 C   0  0  0  0  0
    3.4340   46.4780   52.3480 C   0  0  0  0  0
    4.7430   46.7270   51.9120 C   0  0  0  0  0
    5.8380   46.2910   52.6650 C   0  0  0  0  0
    4.2640   45.3640   54.3110 C   0  0  0  0  0
    8.6430   47.6550   53.8110 C   0  0  0  0  0
    7.7880   47.8100   52.5830 C   0  0  0  0  0
    5.5600   45.6020   53.8670 C   0  0  0  0  0
    5.8680   42.1470   49.2930 C   0  0  0  0  0
    9.0810   45.6700   51.2260 N   0  0  0  0  0
    9.0860   43.8040   49.7900 N   0  0  0  0  0
    7.1150   46.5450   52.1970 N   0  0  0  0  0
    9.3490   47.5520   54.7690 N   0  0  0  0  0
    7.1490   42.6070   49.1720 N   0  0  0  0  0
    5.1740   42.2530   50.4950 C   0  0  0  0  0
    3.2290   41.1960   49.4550 C   0  0  0  0  0
    3.9350   41.0890   48.2510 C   0  0  0  0  0
    5.2570   41.5680   48.1950 C   0  0  0  0  0
    1.9320   40.7440   49.6220 O   0  0  0  0  0
    1.1290   40.2120   48.5620 C   0  0  0  0  0
   -0.4020   40.1960   48.8010 C   0  0  0  0  0
   -0.9060   40.6490   50.1900 C   0  0  0  0  0
   -2.4040   40.5940   50.2230 N   0  3  0  0  0
   -3.1750   41.7460   50.6990 C   0  0  0  0  0
   -3.1620   39.3690   49.9530 C   0  0  0  0  0
   -1.0280   40.9790   47.7660 O   0  0  0  0  0
    6.8360   44.9780   54.9250 Cl  0  0  0  0  0
    2.2770   46.9500   51.5190 C   0  0  0  0  0
    3.3232   41.8570   51.4976 H   0  0  0  0  0
   10.8051   44.8458   50.3649 H   0  0  0  0  0
    5.9738   44.5201   50.7928 H   0  0  0  0  0
    2.1690   45.6393   53.8788 H   0  0  0  0  0
    4.9087   47.2648   50.9785 H   0  0  0  0  0
    4.0898   44.8343   55.2476 H   0  0  0  0  0
    8.4341   48.1127   51.7589 H   0  0  0  0  0
    7.0167   48.5488   52.8008 H   0  0  0  0  0
    7.7369   42.1337   48.4859 H   0  0  0  0  0
    5.6442   42.7008   51.3705 H   0  0  0  0  0
    3.4691   40.6426   47.3725 H   0  0  0  0  0
    5.8142   41.4806   47.2622 H   0  0  0  0  0
    1.4290   39.1703   48.4478 H   0  0  0  0  0
    1.2948   40.8601   47.7014 H   0  0  0  0  0
   -0.6846   39.1438   48.7684 H   0  0  0  0  0
   -0.5765   41.6705   50.3798 H   0  0  0  0  0
   -0.5020   39.9870   50.9559 H   0  0  0  0  0
   -2.0499   40.6993   49.2722 H   0  0  0  0  0
   -2.8985   41.9656   51.7302 H   0  0  0  0  0
   -2.9587   42.6106   50.0715 H   0  0  0  0  0
   -4.2391   41.5155   50.6480 H   0  0  0  0  0
   -2.9362   39.0181   48.9460 H   0  0  0  0  0
   -2.8829   38.6035   50.6770 H   0  0  0  0  0
   -4.2286   39.5776   50.0358 H   0  0  0  0  0
   -1.9789   40.9804   47.8982 H   0  0  0  0  0
    1.6650   46.0951   51.2315 H   0  0  0  0  0
    1.6763   47.6493   52.1006 H   0  0  0  0  0
    2.6517   47.4475   50.6244 H   0  0  0  0  0
 20  1  4  0  0  0
  1 21  4  0  0  0
  2 15  4  0  0  0
 16  2  4  0  0  0
  3  4  4  0  0  0
  3 16  4  0  0  0
 19  3  1  0  0  0
  4  5  4  0  0  0
  5 15  4  0  0  0
  5 17  1  0  0  0
  7  6  4  0  0  0
 10  6  4  0  0  0
  8  7  4  0  0  0
  7 33  1  0  0  0
  9  8  4  0  0  0
  9 13  4  0  0  0
 17  9  1  0  0  0
 13 10  4  0  0  0
 12 11  1  0  0  0
 11 18  3  0  0  0
 17 12  1  0  0  0
 13 32  1  0  0  0
 14 19  1  0  0  0
 14 20  4  0  0  0
 14 23  4  0  0  0
 21 22  4  0  0  0
 21 24  1  0  0  0
 22 23  4  0  0  0
 24 25  1  0  0  0
 25 26  1  0  0  0
 26 27  1  0  0  0
 26 31  1  0  0  0
 27 28  1  0  0  0
 28 29  1  0  0  0
 28 30  1  0  0  0
  1 34  1  0  0  0
  2 35  1  0  0  0
  4 36  1  0  0  0
  6 37  1  0  0  0
  8 38  1  0  0  0
 10 39  1  0  0  0
 12 40  1  0  0  0
 12 41  1  0  0  0
 19 42  1  0  0  0
 20 43  1  0  0  0
 22 44  1  0  0  0
 23 45  1  0  0  0
 25 46  1  0  0  0
 25 47  1  0  0  0
 26 48  1  0  0  0
 27 49  1  0  0  0
 27 50  1  0  0  0
 28 51  1  0  0  0
 29 52  1  0  0  0
 29 53  1  0  0  0
 29 54  1  0  0  0
 30 55  1  0  0  0
 30 56  1  0  0  0
 30 57  1  0  0  0
 31 58  1  0  0  0
 33 59  1  0  0  0
 33 60  1  0  0  0
 33 61  1  0  0  0
M  END
$$$$
