5oq8_ligand
  -I-interpret- 

 57 60  0  0  0  0  0  0  0  0999 V2000
    1.2770   -4.5730   19.3420 C   0  0  0  0  0
    2.2450   -4.9610   18.4740 C   0  0  0  0  0
    1.9490   -5.7690   17.4010 C   0  0  0  0  0
    0.6760   -6.2870   17.2190 C   0  0  0  0  0
   -0.3010   -5.9230   18.1120 C   0  0  0  0  0
    0.0180   -5.0620   19.1800 C   0  0  0  0  0
    2.9880   -6.0730   16.5880 O   0  0  0  0  0
    2.6800   -6.9370   15.4720 C   0  0  0  0  0
    4.0310   -7.2090   14.7480 C   0  0  0  0  0
   -0.9270   -4.7120   20.1330 N   0  0  0  0  0
    3.6230   -4.4510   18.6540 C   0  0  0  0  0
    4.6140   -4.9930   17.9320 N   0  0  0  0  0
    3.8300   -3.5600   19.4690 O   0  0  0  0  0
    5.8850   -4.4760   17.7490 C   0  0  0  0  0
    6.3510   -3.3980   18.4180 C   0  0  0  0  0
    7.6200   -2.9570   18.1750 C   0  0  0  0  0
    8.3740   -3.5980   17.2130 C   0  0  0  0  0
    7.8910   -4.6330   16.5630 N   0  0  0  0  0
    6.6790   -5.1030   16.8120 C   0  0  0  0  0
    4.4680   -6.3640   13.7220 C   0  0  0  0  0
    5.6950   -6.5680   13.1220 C   0  0  0  0  0
    6.5020   -7.6400   13.4980 C   0  0  0  0  0
    6.0590   -8.4770   14.5050 C   0  0  0  0  0
    4.8390   -8.2690   15.1410 C   0  0  0  0  0
   -0.3700   -4.3150   21.4480 C   0  0  0  0  0
   -1.4010   -3.6730   22.3300 C   0  0  0  0  0
   -2.6480   -4.4540   22.2340 N   0  3  0  0  0
   -3.2230   -4.4720   20.8660 C   0  0  0  0  0
   -2.2960   -5.2550   19.9770 C   0  0  0  0  0
   -3.6560   -3.8320   23.1010 C   0  0  0  0  0
    1.5040   -3.8823   20.1541 H   0  0  0  0  0
    0.4575   -6.9627   16.3921 H   0  0  0  0  0
   -1.3177   -6.2981   17.9952 H   0  0  0  0  0
    1.9609   -6.4693   14.7995 H   0  0  0  0  0
    2.2208   -7.8662   15.8093 H   0  0  0  0  0
    4.4102   -5.8788   17.4692 H   0  0  0  0  0
    5.7199   -2.8858   19.1443 H   0  0  0  0  0
    8.0303   -2.1138   18.7307 H   0  0  0  0  0
    9.3799   -3.2423   16.9902 H   0  0  0  0  0
    6.3108   -5.9801   16.2798 H   0  0  0  0  0
    3.8356   -5.5390   13.3940 H   0  0  0  0  0
    6.0360   -5.8829   12.3458 H   0  0  0  0  0
    7.4605   -7.8145   13.0093 H   0  0  0  0  0
    6.6801   -9.3199   14.8080 H   0  0  0  0  0
    4.5188   -8.9339   15.9432 H   0  0  0  0  0
    0.4261   -3.5910   21.2745 H   0  0  0  0  0
   -0.0078   -5.2133   21.9480 H   0  0  0  0  0
   -1.5785   -2.6464   22.0095 H   0  0  0  0  0
   -1.0503   -3.6560   23.3619 H   0  0  0  0  0
   -2.4160   -5.4098   22.5042 H   0  0  0  0  0
   -3.3307   -3.4541   20.4913 H   0  0  0  0  0
   -4.2093   -4.9357   20.8801 H   0  0  0  0  0
   -2.3130   -6.3084   20.2567 H   0  0  0  0  0
   -2.6148   -5.1687   18.9383 H   0  0  0  0  0
   -3.2966   -3.8295   24.1300 H   0  0  0  0  0
   -3.8323   -2.8073   22.7738 H   0  0  0  0  0
   -4.5850   -4.3990   23.0407 H   0  0  0  0  0
  1  2  4  0  0  0
  1  6  4  0  0  0
  2  3  4  0  0  0
  2 11  1  0  0  0
  3  4  4  0  0  0
  3  7  1  0  0  0
  4  5  4  0  0  0
  5  6  4  0  0  0
  6 10  1  0  0  0
  7  8  1  0  0  0
  8  9  1  0  0  0
  9 20  4  0  0  0
  9 24  4  0  0  0
 10 25  1  0  0  0
 10 29  1  0  0  0
 11 12  1  0  0  0
 11 13  2  0  0  0
 12 14  1  0  0  0
 14 15  4  0  0  0
 14 19  4  0  0  0
 15 16  4  0  0  0
 16 17  4  0  0  0
 17 18  4  0  0  0
 18 19  4  0  0  0
 20 21  4  0  0  0
 21 22  4  0  0  0
 22 23  4  0  0  0
 23 24  4  0  0  0
 25 26  1  0  0  0
 26 27  1  0  0  0
 27 28  1  0  0  0
 27 30  1  0  0  0
 28 29  1  0  0  0
  1 31  1  0  0  0
  4 32  1  0  0  0
  5 33  1  0  0  0
  8 34  1  0  0  0
  8 35  1  0  0  0
 12 36  1  0  0  0
 15 37  1  0  0  0
 16 38  1  0  0  0
 17 39  1  0  0  0
 19 40  1  0  0  0
 20 41  1  0  0  0
 21 42  1  0  0  0
 22 43  1  0  0  0
 23 44  1  0  0  0
 24 45  1  0  0  0
 25 46  1  0  0  0
 25 47  1  0  0  0
 26 48  1  0  0  0
 26 49  1  0  0  0
 27 50  1  0  0  0
 28 51  1  0  0  0
 28 52  1  0  0  0
 29 53  1  0  0  0
 29 54  1  0  0  0
 30 55  1  0  0  0
 30 56  1  0  0  0
 30 57  1  0  0  0
M  END
$$$$
