1xh9_ligand
  -I-interpret- 

 69 72  0  0  0  0  0  0  0  0999 V2000
   10.0720   39.6130    9.4250 O   0  0  0  0  0
   10.1020   40.8510    9.2840 C   0  0  0  0  0
   10.2490   41.4880    7.9680 C   0  0  0  0  0
   10.0960   40.7380    6.8000 C   0  0  0  0  0
   10.2090   41.3170    5.5390 C   0  0  0  0  0
   10.4740   42.6110    5.4030 N   0  0  0  0  0
   10.6380   43.3550    6.5060 C   0  0  0  0  0
   10.5300   42.8480    7.7990 C   0  0  0  0  0
    9.9370   41.6510   10.4070 N   0  0  0  0  0
    9.3990   41.1270   11.6700 C   0  0  0  0  0
    7.9570   41.6440   11.8140 C   0  0  0  0  0
    7.3140   41.0610   13.0440 N   0  3  0  0  0
    7.5170   41.9130   14.2990 C   0  0  0  0  0
    8.9340   41.8200   14.8670 C   0  0  0  0  0
    9.9800   42.4120   13.9090 C   0  0  0  0  0
   10.4410   41.4570   12.7840 C   0  0  0  0  0
   10.9590   40.1770   13.3160 N   0  0  0  0  0
   12.1220   40.1060   14.0600 C   0  0  0  0  0
   12.8560   41.0850   14.1060 O   0  0  0  0  0
   12.4330   38.8970   14.8490 C   0  0  0  0  0
   13.7470   38.6670   15.3180 C   0  0  0  0  0
   14.0360   37.5560   16.0970 C   0  0  0  0  0
   11.4330   37.9930   15.1920 C   0  0  0  0  0
   11.7310   36.8840   15.9670 C   0  0  0  0  0
   13.0190   36.6430   16.4290 C   0  0  0  0  0
   13.3100   35.5040   17.2950 C   0  0  0  0  0
   14.2690   35.6380   18.0900 O   0  0  0  0  0
   12.5680   34.2790   17.3660 C   0  0  0  0  0
   12.4150   33.4450   16.2240 C   0  0  0  0  0
   12.9030   33.7670   15.0670 O   0  0  0  0  0
   11.6880   32.2340   16.3820 C   0  0  0  0  0
   11.1520   31.8950   17.6050 C   0  0  0  0  0
   12.0210   33.9220   18.6160 C   0  0  0  0  0
   11.3170   32.7300   18.7380 C   0  0  0  0  0
   10.7360   32.3640   19.9810 N   0  0  0  0  0
   10.6010   30.9260   20.2820 C   0  0  0  0  0
    9.5650   33.1730   20.3690 C   0  0  0  0  0
    9.8826   39.6719    6.8776 H   0  0  0  0  0
   10.0781   40.6992    4.6506 H   0  0  0  0  0
   10.8682   44.4135    6.3846 H   0  0  0  0  0
   10.6620   43.4990    8.6632 H   0  0  0  0  0
   10.1981   42.6356   10.3533 H   0  0  0  0  0
    9.2834   40.0449   11.7324 H   0  0  0  0  0
    7.3827   41.3461   10.9368 H   0  0  0  0  0
    7.9754   42.7302   11.9026 H   0  0  0  0  0
    7.7464   40.1533   13.2157 H   0  0  0  0  0
    6.3106   41.0058   12.8692 H   0  0  0  0  0
    6.8304   41.5463   15.0620 H   0  0  0  0  0
    7.3383   42.9528   14.0250 H   0  0  0  0  0
    9.1706   40.7671   15.0207 H   0  0  0  0  0
    8.9655   42.3867   15.7975 H   0  0  0  0  0
   10.8609   42.6459   14.5069 H   0  0  0  0  0
    9.5159   43.2713   13.4249 H   0  0  0  0  0
   11.2271   42.0426   12.3073 H   0  0  0  0  0
   10.4409   39.3188   13.1276 H   0  0  0  0  0
   14.5409   39.3697   15.0649 H   0  0  0  0  0
   15.0530   37.3904   16.4524 H   0  0  0  0  0
   10.4113   38.1577   14.8498 H   0  0  0  0  0
   10.9355   36.1833   16.2205 H   0  0  0  0  0
   12.6948   33.0792   14.4305 H   0  0  0  0  0
   11.5535   31.5686   15.5292 H   0  0  0  0  0
   10.5899   30.9662   17.7031 H   0  0  0  0  0
   12.1493   34.5754   19.4790 H   0  0  0  0  0
    9.9747   30.4548   19.5245 H   0  0  0  0  0
   11.5871   30.4616   20.2802 H   0  0  0  0  0
   10.1418   30.8030   21.2629 H   0  0  0  0  0
    9.8590   34.2194   20.4509 H   0  0  0  0  0
    8.7875   33.0709   19.6119 H   0  0  0  0  0
    9.1864   32.8243   21.3298 H   0  0  0  0  0
  1  2  2  0  0  0
  2  3  1  0  0  0
  2  9  1  0  0  0
  3  4  4  0  0  0
  3  8  4  0  0  0
  4  5  4  0  0  0
  5  6  4  0  0  0
  6  7  4  0  0  0
  7  8  4  0  0  0
  9 10  1  0  0  0
 10 11  1  0  0  0
 10 16  1  0  0  0
 11 12  1  0  0  0
 12 13  1  0  0  0
 13 14  1  0  0  0
 14 15  1  0  0  0
 15 16  1  0  0  0
 16 17  1  0  0  0
 17 18  1  0  0  0
 18 19  2  0  0  0
 18 20  1  0  0  0
 20 21  4  0  0  0
 20 23  4  0  0  0
 21 22  4  0  0  0
 22 25  4  0  0  0
 23 24  4  0  0  0
 24 25  4  0  0  0
 25 26  1  0  0  0
 26 27  2  0  0  0
 26 28  1  0  0  0
 28 29  4  0  0  0
 28 33  4  0  0  0
 29 30  1  0  0  0
 29 31  4  0  0  0
 31 32  4  0  0  0
 32 34  4  0  0  0
 33 34  4  0  0  0
 34 35  1  0  0  0
 35 36  1  0  0  0
 35 37  1  0  0  0
  4 38  1  0  0  0
  5 39  1  0  0  0
  7 40  1  0  0  0
  8 41  1  0  0  0
  9 42  1  0  0  0
 10 43  1  0  0  0
 11 44  1  0  0  0
 11 45  1  0  0  0
 12 46  1  0  0  0
 12 47  1  0  0  0
 13 48  1  0  0  0
 13 49  1  0  0  0
 14 50  1  0  0  0
 14 51  1  0  0  0
 15 52  1  0  0  0
 15 53  1  0  0  0
 16 54  1  0  0  0
 17 55  1  0  0  0
 21 56  1  0  0  0
 22 57  1  0  0  0
 23 58  1  0  0  0
 24 59  1  0  0  0
 30 60  1  0  0  0
 31 61  1  0  0  0
 32 62  1  0  0  0
 33 63  1  0  0  0
 36 64  1  0  0  0
 36 65  1  0  0  0
 36 66  1  0  0  0
 37 67  1  0  0  0
 37 68  1  0  0  0
 37 69  1  0  0  0
M  END
$$$$
