5kcx_ligand
  -I-interpret- 

 50 53  0  0  0  0  0  0  0  0999 V2000
   25.2540   42.0810   -6.5610 C   0  0  0  0  0
   24.6070   42.4710   -7.8800 C   0  0  0  0  0
   24.0040   43.8080   -7.7960 N   0  3  0  0  0
   23.4010   44.1570   -9.0910 C   0  0  0  0  0
   22.9670   43.8140   -6.7550 C   0  0  0  0  0
   23.5570   43.4710   -5.3970 C   0  0  0  0  0
   24.2870   42.1840   -5.4450 N   0  0  0  0  0
   24.0900   41.2000   -4.5570 C   0  0  0  0  0
   23.6850   41.5020   -3.2620 C   0  0  0  0  0
   23.4810   40.4810   -2.3410 C   0  0  0  0  0
   24.2900   39.8760   -4.9310 C   0  0  0  0  0
   24.0850   38.8550   -4.0110 C   0  0  0  0  0
   23.6810   39.1580   -2.7160 C   0  0  0  0  0
   23.4630   38.0710   -1.7350 C   0  0  0  0  0
   23.7460   38.1450   -0.4410 C   0  0  0  0  0
   23.4080   36.9730    0.0930 C   0  0  0  0  0
   23.4850   36.5230    1.3430 C   0  0  0  0  0
   24.1130   37.5380    2.5880 Cl  0  0  0  0  0
   23.0580   35.2370    1.6440 C   0  0  0  0  0
   22.5580   34.4490    0.6180 C   0  0  0  0  0
   22.0860   33.0530    0.8970 C   0  0  0  0  0
   21.9460   32.6510    2.0510 O   0  0  0  0  0
   21.8410   32.3160   -0.1820 N   0  0  0  0  0
   22.5010   34.9450   -0.6250 N   0  0  0  0  0
   22.9220   36.1940   -0.8800 C   0  0  0  0  0
   22.9570   36.8790   -2.0200 N   0  0  0  0  0
   22.5150   36.4030   -3.3500 C   0  0  0  0  0
   26.0862   42.7574   -6.3662 H   0  0  0  0  0
   25.5978   41.0491   -6.6317 H   0  0  0  0  0
   23.8246   41.7486   -8.1126 H   0  0  0  0  0
   25.3729   42.4810   -8.6555 H   0  0  0  0  0
   24.7244   44.4910   -7.5617 H   0  0  0  0  0
   22.6309   43.4270   -9.3403 H   0  0  0  0  0
   22.9553   45.1497   -9.0271 H   0  0  0  0  0
   24.1713   44.1521   -9.8621 H   0  0  0  0  0
   22.2135   43.0680   -7.0076 H   0  0  0  0  0
   22.5281   44.8104   -6.7042 H   0  0  0  0  0
   22.7452   43.3856   -4.6747 H   0  0  0  0  0
   24.2545   44.2580   -5.1101 H   0  0  0  0  0
   23.5273   42.5399   -2.9686 H   0  0  0  0  0
   23.1644   40.7180   -1.3253 H   0  0  0  0  0
   24.6077   39.6388   -5.9463 H   0  0  0  0  0
   24.2409   37.8170   -4.3047 H   0  0  0  0  0
   24.1727   38.9999    0.0836 H   0  0  0  0  0
   23.1144   34.8552    2.6634 H   0  0  0  0  0
   21.5159   31.3546   -0.0799 H   0  0  0  0  0
   21.9781   32.7119   -1.1120 H   0  0  0  0  0
   21.7180   37.0485   -3.7191 H   0  0  0  0  0
   23.3564   36.4303   -4.0423 H   0  0  0  0  0
   22.1462   35.3809   -3.2645 H   0  0  0  0  0
  1  2  1  0  0  0
  1  7  1  0  0  0
  2  3  1  0  0  0
  3  4  1  0  0  0
  3  5  1  0  0  0
  5  6  1  0  0  0
  6  7  1  0  0  0
  7  8  1  0  0  0
  8  9  4  0  0  0
  8 11  4  0  0  0
  9 10  4  0  0  0
 10 13  4  0  0  0
 11 12  4  0  0  0
 12 13  4  0  0  0
 13 14  1  0  0  0
 14 15  4  0  0  0
 14 26  4  0  0  0
 15 16  4  0  0  0
 16 17  4  0  0  0
 16 25  4  0  0  0
 17 18  1  0  0  0
 17 19  4  0  0  0
 19 20  4  0  0  0
 20 21  1  0  0  0
 20 24  4  0  0  0
 21 22  2  0  0  0
 21 23  1  0  0  0
 24 25  4  0  0  0
 25 26  4  0  0  0
 26 27  1  0  0  0
  1 28  1  0  0  0
  1 29  1  0  0  0
  2 30  1  0  0  0
  2 31  1  0  0  0
  3 32  1  0  0  0
  4 33  1  0  0  0
  4 34  1  0  0  0
  4 35  1  0  0  0
  5 36  1  0  0  0
  5 37  1  0  0  0
  6 38  1  0  0  0
  6 39  1  0  0  0
  9 40  1  0  0  0
 10 41  1  0  0  0
 11 42  1  0  0  0
 12 43  1  0  0  0
 15 44  1  0  0  0
 19 45  1  0  0  0
 23 46  1  0  0  0
 23 47  1  0  0  0
 27 48  1  0  0  0
 27 49  1  0  0  0
 27 50  1  0  0  0
M  END
$$$$
