3rjc_ligand
  -I-interpret- 

 34 36  0  0  0  0  0  0  0  0999 V2000
  114.0100   49.0010  -44.7830 F   0  0  0  0  0
  118.3270   46.1870  -49.8130 N   0  0  0  0  0
  119.4320   45.4120  -50.0910 C   0  0  0  0  0
  119.9130   45.3890  -51.3240 N   0  0  0  0  0
  119.9790   44.6580  -49.0250 C   0  0  0  0  0
  121.1320   43.7530  -49.1220 C   0  0  0  0  0
  121.6050   42.9450  -47.9310 C   0  0  0  0  0
  120.6640   42.1670  -47.1220 C   0  0  0  0  0
  121.1120   41.3910  -46.0040 C   0  0  0  0  0
  122.5130   41.3730  -45.6730 C   0  0  0  0  0
  123.4600   42.1330  -46.4620 C   0  0  0  0  0
  123.0100   42.9180  -47.5900 C   0  0  0  0  0
  121.7370   43.6010  -50.2120 O   0  0  0  0  0
  119.0150   45.0010  -47.6040 S   0  0  0  0  0
  117.9920   46.0660  -48.5620 C   0  0  0  0  0
  116.8920   46.7440  -48.0830 N   0  0  0  0  0
  116.2540   46.8220  -46.8120 C   0  0  0  0  0
  115.4060   47.9440  -46.4370 C   0  0  0  0  0
  114.7900   47.9490  -45.1120 C   0  0  0  0  0
  114.9870   46.8850  -44.1570 C   0  0  0  0  0
  115.8310   45.7620  -44.5380 C   0  0  0  0  0
  116.4580   45.7260  -45.8500 C   0  0  0  0  0
  119.4662   45.9411  -52.0561 H   0  0  0  0  0
  120.7304   44.8192  -51.5420 H   0  0  0  0  0
  119.6038   42.1786  -47.3750 H   0  0  0  0  0
  120.3989   40.8197  -45.4097 H   0  0  0  0  0
  122.8625   40.7846  -44.8246 H   0  0  0  0  0
  124.5188   42.1132  -46.2040 H   0  0  0  0  0
  123.7273   43.4873  -48.1811 H   0  0  0  0  0
  116.4348   47.3147  -48.7941 H   0  0  0  0  0
  115.2336   48.7657  -47.1321 H   0  0  0  0  0
  114.5155   46.9215  -43.1749 H   0  0  0  0  0
  115.9940   44.9438  -43.8365 H   0  0  0  0  0
  117.0859   44.8782  -46.1241 H   0  0  0  0  0
 19  1  1  0  0  0
  2  3  4  0  0  0
 15  2  4  0  0  0
  3  4  1  0  0  0
  5  3  4  0  0  0
  5  6  1  0  0  0
 14  5  4  0  0  0
  6  7  1  0  0  0
  6 13  2  0  0  0
  7  8  4  0  0  0
  7 12  4  0  0  0
  8  9  4  0  0  0
  9 10  4  0  0  0
 11 10  4  0  0  0
 12 11  4  0  0  0
 15 14  4  0  0  0
 16 15  1  0  0  0
 17 16  1  0  0  0
 18 17  4  0  0  0
 17 22  4  0  0  0
 18 19  4  0  0  0
 19 20  4  0  0  0
 20 21  4  0  0  0
 21 22  4  0  0  0
  4 23  1  0  0  0
  4 24  1  0  0  0
  8 25  1  0  0  0
  9 26  1  0  0  0
 10 27  1  0  0  0
 11 28  1  0  0  0
 12 29  1  0  0  0
 16 30  1  0  0  0
 18 31  1  0  0  0
 20 32  1  0  0  0
 21 33  1  0  0  0
 22 34  1  0  0  0
M  END
$$$$
