5owc_ligand
  -I-interpret- 

 43 45  0  0  0  0  0  0  0  0999 V2000
    2.4150   -3.1900    0.3210 C   0  0  0  0  0
    2.2780   -3.9760   -0.7820 C   0  0  0  0  0
    1.0220   -4.1660   -1.3560 C   0  0  0  0  0
   -0.1490   -1.3300    2.0560 C   0  0  0  0  0
    1.1640   -1.6750    1.9870 C   0  0  0  0  0
   -0.7370   -0.4460    3.0780 C   0  0  0  0  0
   -2.2310   -1.8210    0.7830 C   0  0  0  0  0
   -0.1720   -5.6630   -2.8070 C   0  0  0  0  0
   -3.1400   -2.8650    0.5850 C   0  0  0  0  0
   -4.4700   -2.5670    0.2920 C   0  0  0  0  0
   -4.9010   -1.2470    0.1840 C   0  0  0  0  0
   -3.9980   -0.2010    0.3770 C   0  0  0  0  0
   -4.4270    1.2430    0.2680 C   0  0  0  0  0
   -6.3300    1.6610    2.4370 O   0  0  0  0  0
   -0.1110   -3.5390   -0.8280 C   0  0  0  0  0
    1.3030   -2.5480    0.8800 C   0  0  0  0  0
    0.0240   -2.7230    0.3060 C   0  0  0  0  0
   -0.8620   -1.9910    1.0550 N   0  0  0  0  0
   -0.1400    0.7290    3.3570 N   0  0  0  0  0
   -1.7700   -0.7880    3.6750 O   0  0  0  0  0
    0.9890   -4.9490   -2.4690 O   0  0  0  0  0
   -0.5240   -6.3630   -1.6570 F   0  0  0  0  0
   -1.1590   -4.7650   -3.2290 F   0  0  0  0  0
    0.1390   -6.5710   -3.8200 F   0  0  0  0  0
   -2.6740   -0.5000    0.6500 C   0  0  0  0  0
   -4.1580    2.0500    1.5540 C   0  0  0  0  0
   -5.1410    1.6850    2.6490 C   0  0  0  0  0
   -4.7200    1.3840    3.8810 O   0  0  0  0  0
    3.3983   -3.0593    0.7728 H   0  0  0  0  0
    3.1531   -4.4582   -1.2176 H   0  0  0  0  0
    1.9583   -1.3433    2.6557 H   0  0  0  0  0
   -2.8118   -3.9018    0.6590 H   0  0  0  0  0
   -5.1827   -3.3786    0.1454 H   0  0  0  0  0
   -5.9432   -1.0312   -0.0512 H   0  0  0  0  0
   -5.5015    1.2573    0.0856 H   0  0  0  0  0
   -3.8522    1.7003   -0.5374 H   0  0  0  0  0
   -1.0871   -3.6822   -1.2915 H   0  0  0  0  0
   -0.5366    1.3472    4.0648 H   0  0  0  0  0
    0.7086    1.0004    2.8605 H   0  0  0  0  0
   -1.9584    0.3142    0.7643 H   0  0  0  0  0
   -4.2686    3.1105    1.3277 H   0  0  0  0  0
   -3.1505    1.8224    1.9021 H   0  0  0  0  0
   -3.7622    1.4404    3.9133 H   0  0  0  0  0
  1  2  4  0  0  0
 16  1  4  0  0  0
  3  2  4  0  0  0
 15  3  4  0  0  0
  3 21  1  0  0  0
  4  5  4  0  0  0
  4  6  1  0  0  0
 18  4  4  0  0  0
 16  5  4  0  0  0
  6 19  1  0  0  0
  6 20  2  0  0  0
  7  9  4  0  0  0
  7 18  1  0  0  0
 25  7  4  0  0  0
 21  8  1  0  0  0
  8 22  1  0  0  0
  8 23  1  0  0  0
  8 24  1  0  0  0
 10  9  4  0  0  0
 11 10  4  0  0  0
 12 11  4  0  0  0
 13 12  1  0  0  0
 12 25  4  0  0  0
 26 13  1  0  0  0
 27 14  2  0  0  0
 17 15  4  0  0  0
 17 16  4  0  0  0
 18 17  4  0  0  0
 26 27  1  0  0  0
 27 28  1  0  0  0
  1 29  1  0  0  0
  2 30  1  0  0  0
  5 31  1  0  0  0
  9 32  1  0  0  0
 10 33  1  0  0  0
 11 34  1  0  0  0
 13 35  1  0  0  0
 13 36  1  0  0  0
 15 37  1  0  0  0
 19 38  1  0  0  0
 19 39  1  0  0  0
 25 40  1  0  0  0
 26 41  1  0  0  0
 26 42  1  0  0  0
 28 43  1  0  0  0
M  END
$$$$
