3i5r_ligand
  -I-interpret- 

154157  0  0  0  0  0  0  0  0999 V2000
   -7.4700   31.2800   18.0240 N   0  3  0  0  0
   -6.6630   30.2320   17.4030 C   0  0  0  0  0
   -6.0300   29.3170   18.4530 C   0  0  0  0  0
   -5.6010   29.7690   19.5160 O   0  0  0  0  0
   -5.5700   30.8450   16.5260 C   0  0  0  0  0
   -6.0570   31.9420   15.5940 C   0  0  0  0  0
   -4.9970   33.0280   15.4210 C   0  0  0  0  0
   -3.7520   32.5110   14.7100 C   0  0  0  0  0
   -3.9440   32.4110   13.2400 N   0  3  0  0  0
   -5.9870   28.0240   18.1510 N   0  0  0  0  0
   -5.2820   27.0640   18.9840 C   0  0  0  0  0
   -3.8100   27.4450   19.0810 C   0  0  0  0  0
   -3.1680   27.6960   18.0680 O   0  0  0  0  0
   -5.4080   25.6730   18.3720 C   0  0  0  0  0
   -4.6670   24.5960   19.1250 C   0  0  0  0  0
   -4.8180   23.2740   18.4060 C   0  0  0  0  0
   -4.0690   22.2140   19.0770 N   0  0  0  0  0
   -3.8710   21.0100   18.5570 C   0  0  0  0  0
   -4.3640   20.7200   17.3540 N   0  0  0  0  0
   -3.1860   20.0940   19.2340 N   0  0  0  0  0
   -3.2710   27.5080   20.3090 N   0  0  0  0  0
   -1.8660   27.8710   20.4830 C   0  0  0  0  0
   -0.9360   26.8650   19.8110 C   0  0  0  0  0
   -1.2080   25.6700   19.8200 O   0  0  0  0  0
   -1.6790   27.8230   22.0090 C   0  0  0  0  0
   -2.8550   27.0350   22.5170 C   0  0  0  0  0
   -3.9650   27.4110   21.6020 C   0  0  0  0  0
    0.1560   27.3550   19.2420 N   0  0  0  0  0
    1.1680   26.4710   18.6660 C   0  0  0  0  0
    2.0740   25.9610   19.7610 C   0  0  0  0  0
    2.3770   26.6970   20.7070 O   0  0  0  0  0
    2.0320   27.2450   17.6990 C   0  0  0  0  0
    1.3390   27.5760   16.3830 C   0  0  0  0  0
    2.0890   28.6720   15.6640 C   0  0  0  0  0
    1.2680   26.3170   15.5430 C   0  0  0  0  0
    2.5420   24.7130   19.6320 N   0  0  0  0  0
    3.5360   24.2550   20.5990 C   0  0  0  0  0
    4.8800   24.8860   20.2450 C   0  0  0  0  0
    5.1050   25.2260   19.0900 O   0  0  0  0  0
    3.5530   22.7470   20.3590 C   0  0  0  0  0
    3.3550   22.6480   18.8860 C   0  0  0  0  0
    2.2580   23.6760   18.6210 C   0  0  0  0  0
    5.7570   25.0770   21.2380 N   0  0  0  0  0
    7.1130   25.5110   20.9230 C   0  0  0  0  0
    7.8280   24.4230   20.1210 C   0  0  0  0  0
    7.4410   23.2390   20.1790 O   0  0  0  0  0
    7.7610   25.6530   22.3070 C   0  0  0  0  0
    6.9630   24.7050   23.1650 C   0  0  0  0  0
    5.5620   24.9110   22.6870 C   0  0  0  0  0
    8.8370   24.8230   19.3530 N   0  0  0  0  0
    9.6830   23.8470   18.6810 C   0  0  0  0  0
   10.3790   22.9730   19.7130 C   0  0  0  0  0
   10.7020   23.4340   20.8130 O   0  0  0  0  0
   10.7250   24.5350   17.7990 C   0  0  0  0  0
   10.2160   25.3210   16.5980 C   0  0  0  0  0
   11.4180   25.9200   15.8670 C   0  0  0  0  0
    9.3590   24.4640   15.6780 C   0  0  0  0  0
   10.6040   21.6970   19.3710 N   0  0  0  0  0
   11.2830   20.7940   20.3060 C   0  0  0  0  0
   12.7700   21.1010   20.3310 C   0  0  0  0  0
   13.2490   21.8560   19.4760 O   0  0  0  0  0
   11.0500   19.4100   19.6870 C   0  0  0  0  0
   10.8400   19.6960   18.2300 C   0  0  0  0  0
   10.0460   20.9670   18.2230 C   0  0  0  0  0
   13.4740   20.4990   21.2850 N   0  0  0  0  0
   14.8960   20.7430   21.5130 C   0  0  0  0  0
   15.0840   21.9400   22.4380 C   0  0  0  0  0
   15.9190   21.9120   23.3360 O   0  0  0  0  0
   15.6520   20.9480   20.1950 C   0  0  0  0  0
   17.0010   21.3250   20.4220 O   0  0  0  0  0
   14.4030   22.9510   22.3000 O   0  0  0  0  0
   -8.1922   30.8527   18.6039 H   0  0  0  0  0
   -6.8721   31.8697   18.6030 H   0  0  0  0  0
   -7.9070   31.8466   17.2971 H   0  0  0  0  0
   -7.3280   29.6319   16.7820 H   0  0  0  0  0
   -5.1749   30.0448   15.9002 H   0  0  0  0  0
   -4.8369   31.2952   17.1954 H   0  0  0  0  0
   -6.9513   32.3931   16.0239 H   0  0  0  0  0
   -6.2684   31.5028   14.6191 H   0  0  0  0  0
   -4.7021   33.3743   16.4116 H   0  0  0  0  0
   -5.4258   33.8265   14.8155 H   0  0  0  0  0
   -3.5339   31.5135   15.0916 H   0  0  0  0  0
   -2.9389   33.2121   14.8983 H   0  0  0  0  0
   -3.0877   32.0621   12.8094 H   0  0  0  0  0
   -4.7117   31.7694   13.0415 H   0  0  0  0  0
   -4.1640   33.3331   12.8635 H   0  0  0  0  0
   -6.4624   27.6955   17.3104 H   0  0  0  0  0
   -5.7189   27.0658   19.9826 H   0  0  0  0  0
   -4.9762   25.7214   17.3724 H   0  0  0  0  0
   -6.4653   25.4085   18.3901 H   0  0  0  0  0
   -5.0795   24.5094   20.1302 H   0  0  0  0  0
   -3.6103   24.8573   19.1820 H   0  0  0  0  0
   -4.4302   23.3843   17.3933 H   0  0  0  0  0
   -5.8734   23.0017   18.3999 H   0  0  0  0  0
   -3.6761   22.4111   19.9974 H   0  0  0  0  0
   -4.2159   19.7944   16.9517 H   0  0  0  0  0
   -4.8896   21.4235   16.8351 H   0  0  0  0  0
   -2.8109   20.3160   20.1562 H   0  0  0  0  0
   -1.6290   28.8373   20.0377 H   0  0  0  0  0
   -1.6418   28.8216   22.4443 H   0  0  0  0  0
   -0.7314   27.3615   22.2869 H   0  0  0  0  0
   -3.0843   27.2614   23.5583 H   0  0  0  0  0
   -2.6643   25.9618   22.5147 H   0  0  0  0  0
   -4.7862   26.6942   21.6000 H   0  0  0  0  0
   -4.4719   28.3315   21.8915 H   0  0  0  0  0
    0.2926   28.3651   19.2053 H   0  0  0  0  0
    0.6616   25.6486   18.1607 H   0  0  0  0  0
    2.8948   26.6218   17.4639 H   0  0  0  0  0
    2.2886   28.1901   18.1776 H   0  0  0  0  0
    0.3274   27.9366   16.5695 H   0  0  0  0  0
    2.1148   29.5639   16.2900 H   0  0  0  0  0
    3.1070   28.3403   15.4598 H   0  0  0  0  0
    1.5846   28.9001   14.7250 H   0  0  0  0  0
    2.2772   25.9531   15.3500 H   0  0  0  0  0
    0.7021   25.5553   16.0794 H   0  0  0  0  0
    0.7738   26.5400   14.5974 H   0  0  0  0  0
    3.3275   24.5123   21.6375 H   0  0  0  0  0
    2.7886   22.2172   20.9275 H   0  0  0  0  0
    4.4744   22.2729   20.6971 H   0  0  0  0  0
    3.0820   21.6438   18.5616 H   0  0  0  0  0
    4.2663   22.8457   18.3217 H   0  0  0  0  0
    2.2692   24.0595   17.6007 H   0  0  0  0  0
    1.2538   23.2607   18.7054 H   0  0  0  0  0
    7.1530   26.4254   20.3311 H   0  0  0  0  0
    7.7346   26.6773   22.6786 H   0  0  0  0  0
    8.8247   25.4151   22.2978 H   0  0  0  0  0
    7.0777   24.9036   24.2306 H   0  0  0  0  0
    7.2929   23.6706   23.0685 H   0  0  0  0  0
    4.8927   24.0894   22.9421 H   0  0  0  0  0
    5.0651   25.7599   23.1567 H   0  0  0  0  0
    9.0194   25.8195   19.2339 H   0  0  0  0  0
    9.0509   23.2290   18.0433 H   0  0  0  0  0
   11.3385   23.7333   17.3879 H   0  0  0  0  0
   11.2187   25.2646   18.4408 H   0  0  0  0  0
    9.5648   26.1247   16.9417 H   0  0  0  0  0
   11.9602   26.5812   16.5430 H   0  0  0  0  0
   12.0769   25.1175   15.5356 H   0  0  0  0  0
   11.0707   26.4868   15.0032 H   0  0  0  0  0
    9.9496   23.6246   15.3109 H   0  0  0  0  0
    8.4974   24.0895   16.2307 H   0  0  0  0  0
    9.0183   25.0661   14.8357 H   0  0  0  0  0
   10.9189   20.8783   21.3299 H   0  0  0  0  0
   10.1997   18.8949   20.1340 H   0  0  0  0  0
   11.8873   18.7337   19.8592 H   0  0  0  0  0
   10.3245   18.8831   17.7187 H   0  0  0  0  0
   11.7804   19.7924   17.6873 H   0  0  0  0  0
   10.1289   21.5172   17.2857 H   0  0  0  0  0
    8.9719   20.8001   18.3042 H   0  0  0  0  0
   12.9956   19.8313   21.8898 H   0  0  0  0  0
   15.3157   19.8593   21.9936 H   0  0  0  0  0
   15.1607   21.7441   19.6355 H   0  0  0  0  0
   15.6445   20.0081   19.6431 H   0  0  0  0  0
   17.4447   21.4450   19.5792 H   0  0  0  0  0
   13.7981   22.8300   21.5645 H   0  0  0  0  0
  1  2  1  0  0  0
  2  3  1  0  0  0
  2  5  1  0  0  0
  3  4  2  0  0  0
  3 10  1  0  0  0
  5  6  1  0  0  0
  6  7  1  0  0  0
  7  8  1  0  0  0
  8  9  1  0  0  0
 10 11  1  0  0  0
 11 12  1  0  0  0
 11 14  1  0  0  0
 12 13  2  0  0  0
 12 21  1  0  0  0
 14 15  1  0  0  0
 15 16  1  0  0  0
 16 17  1  0  0  0
 17 18  1  0  0  0
 18 19  1  0  0  0
 18 20  2  0  0  0
 21 22  1  0  0  0
 21 27  1  0  0  0
 22 23  1  0  0  0
 22 25  1  0  0  0
 23 24  2  0  0  0
 23 28  1  0  0  0
 25 26  1  0  0  0
 26 27  1  0  0  0
 28 29  1  0  0  0
 29 30  1  0  0  0
 29 32  1  0  0  0
 30 31  2  0  0  0
 30 36  1  0  0  0
 32 33  1  0  0  0
 33 34  1  0  0  0
 33 35  1  0  0  0
 36 37  1  0  0  0
 36 42  1  0  0  0
 37 38  1  0  0  0
 37 40  1  0  0  0
 38 39  2  0  0  0
 38 43  1  0  0  0
 40 41  1  0  0  0
 41 42  1  0  0  0
 43 44  1  0  0  0
 43 49  1  0  0  0
 44 45  1  0  0  0
 44 47  1  0  0  0
 45 46  2  0  0  0
 45 50  1  0  0  0
 47 48  1  0  0  0
 48 49  1  0  0  0
 50 51  1  0  0  0
 51 52  1  0  0  0
 51 54  1  0  0  0
 52 53  2  0  0  0
 52 58  1  0  0  0
 54 55  1  0  0  0
 55 56  1  0  0  0
 55 57  1  0  0  0
 58 59  1  0  0  0
 58 64  1  0  0  0
 59 60  1  0  0  0
 59 62  1  0  0  0
 60 61  2  0  0  0
 60 65  1  0  0  0
 62 63  1  0  0  0
 63 64  1  0  0  0
 65 66  1  0  0  0
 66 67  1  0  0  0
 66 69  1  0  0  0
 67 68  2  0  0  0
 67 71  1  0  0  0
 69 70  1  0  0  0
  1 72  1  0  0  0
  1 73  1  0  0  0
  1 74  1  0  0  0
  2 75  1  0  0  0
  5 76  1  0  0  0
  5 77  1  0  0  0
  6 78  1  0  0  0
  6 79  1  0  0  0
  7 80  1  0  0  0
  7 81  1  0  0  0
  8 82  1  0  0  0
  8 83  1  0  0  0
  9 84  1  0  0  0
  9 85  1  0  0  0
  9 86  1  0  0  0
 10 87  1  0  0  0
 11 88  1  0  0  0
 14 89  1  0  0  0
 14 90  1  0  0  0
 15 91  1  0  0  0
 15 92  1  0  0  0
 16 93  1  0  0  0
 16 94  1  0  0  0
 17 95  1  0  0  0
 19 96  1  0  0  0
 19 97  1  0  0  0
 20 98  1  0  0  0
 22 99  1  0  0  0
 25100  1  0  0  0
 25101  1  0  0  0
 26102  1  0  0  0
 26103  1  0  0  0
 27104  1  0  0  0
 27105  1  0  0  0
 28106  1  0  0  0
 29107  1  0  0  0
 32108  1  0  0  0
 32109  1  0  0  0
 33110  1  0  0  0
 34111  1  0  0  0
 34112  1  0  0  0
 34113  1  0  0  0
 35114  1  0  0  0
 35115  1  0  0  0
 35116  1  0  0  0
 37117  1  0  0  0
 40118  1  0  0  0
 40119  1  0  0  0
 41120  1  0  0  0
 41121  1  0  0  0
 42122  1  0  0  0
 42123  1  0  0  0
 44124  1  0  0  0
 47125  1  0  0  0
 47126  1  0  0  0
 48127  1  0  0  0
 48128  1  0  0  0
 49129  1  0  0  0
 49130  1  0  0  0
 50131  1  0  0  0
 51132  1  0  0  0
 54133  1  0  0  0
 54134  1  0  0  0
 55135  1  0  0  0
 56136  1  0  0  0
 56137  1  0  0  0
 56138  1  0  0  0
 57139  1  0  0  0
 57140  1  0  0  0
 57141  1  0  0  0
 59142  1  0  0  0
 62143  1  0  0  0
 62144  1  0  0  0
 63145  1  0  0  0
 63146  1  0  0  0
 64147  1  0  0  0
 64148  1  0  0  0
 65149  1  0  0  0
 66150  1  0  0  0
 69151  1  0  0  0
 69152  1  0  0  0
 70153  1  0  0  0
 71154  1  0  0  0
M  END
$$$$
