### 
### Created by X-TOOL on Mon Sep 10 21:13:03 2018
### 

@<TRIPOS>MOLECULE
3i5r_ligand
  154   157     1     0     0
SMALL
GAST_HUCK


@<TRIPOS>ATOM
      1 N          -7.4700   31.2800   18.0240 N.4       1 LYS         0.2379
      2 CA         -6.6630   30.2320   17.4030 C.3       1 LYS         0.0650
      3 C          -6.0300   29.3170   18.4530 C.2       1 LYS         0.2267
      4 O          -5.6010   29.7690   19.5160 O.2       1 LYS        -0.3907
      5 CB         -5.5700   30.8450   16.5260 C.3       1 LYS         0.0080
      6 CG         -6.0570   31.9420   15.5940 C.3       1 LYS        -0.0410
      7 CD         -4.9970   33.0280   15.4210 C.3       1 LYS        -0.0123
      8 CE         -3.7520   32.5110   14.7100 C.3       1 LYS        -0.0354
      9 NZ         -3.9440   32.4110   13.2400 N.4       1 LYS         0.2185
     10 N          -5.9870   28.0240   18.1510 N.am      1 ARG        -0.2610
     11 CA         -5.2820   27.0640   18.9840 C.3       1 ARG         0.1314
     12 C          -3.8100   27.4450   19.0810 C.2       1 ARG         0.2064
     13 O          -3.1680   27.6960   18.0680 O.2       1 ARG        -0.3942
     14 CB         -5.4080   25.6730   18.3720 C.3       1 ARG        -0.0092
     15 CG         -4.6670   24.5960   19.1250 C.3       1 ARG        -0.0156
     16 CD         -4.8180   23.2740   18.4060 C.3       1 ARG         0.0627
     17 NE         -4.0690   22.2140   19.0770 N.pl3     1 ARG        -0.2723
     18 CZ         -3.8710   21.0100   18.5570 C.cat     1 ARG         0.2882
     19 NH1        -4.3640   20.7200   17.3540 N.pl3     1 ARG        -0.2849
     20 NH2        -3.1860   20.0940   19.2340 N.pl3     1 ARG        -0.2849
     21 N          -3.2710   27.5080   20.3090 N.am      1 PRO        -0.2498
     22 CA         -1.8660   27.8710   20.4830 C.3       1 PRO         0.1338
     23 C          -0.9360   26.8650   19.8110 C.2       1 PRO         0.2041
     24 O          -1.2080   25.6700   19.8200 O.2       1 PRO        -0.3944
     25 CB         -1.6790   27.8230   22.0090 C.3       1 PRO        -0.0104
     26 CG         -2.8550   27.0350   22.5170 C.3       1 PRO        -0.0281
     27 CD         -3.9650   27.4110   21.6020 C.3       1 PRO         0.0369
     28 N           0.1560   27.3550   19.2420 N.am      1 LEU        -0.2637
     29 CA          1.1680   26.4710   18.6660 C.3       1 LEU         0.1314
     30 C           2.0740   25.9610   19.7610 C.2       1 LEU         0.2064
     31 O           2.3770   26.6970   20.7070 O.2       1 LEU        -0.3942
     32 CB          2.0320   27.2450   17.6990 C.3       1 LEU        -0.0101
     33 CG          1.3390   27.5760   16.3830 C.3       1 LEU        -0.0425
     34 CD1         2.0890   28.6720   15.6640 C.3       1 LEU        -0.0625
     35 CD2         1.2680   26.3170   15.5430 C.3       1 LEU        -0.0625
     36 N           2.5420   24.7130   19.6320 N.am      1 PRO        -0.2498
     37 CA          3.5360   24.2550   20.5990 C.3       1 PRO         0.1340
     38 C           4.8800   24.8860   20.2450 C.2       1 PRO         0.2066
     39 O           5.1050   25.2260   19.0900 O.2       1 PRO        -0.3942
     40 CB          3.5530   22.7470   20.3590 C.3       1 PRO        -0.0104
     41 CG          3.3550   22.6480   18.8860 C.3       1 PRO        -0.0281
     42 CD          2.2580   23.6760   18.6210 C.3       1 PRO         0.0369
     43 N           5.7570   25.0770   21.2380 N.am      1 PRO        -0.2498
     44 CA          7.1130   25.5110   20.9230 C.3       1 PRO         0.1338
     45 C           7.8280   24.4230   20.1210 C.2       1 PRO         0.2041
     46 O           7.4410   23.2390   20.1790 O.2       1 PRO        -0.3944
     47 CB          7.7610   25.6530   22.3070 C.3       1 PRO        -0.0104
     48 CG          6.9630   24.7050   23.1650 C.3       1 PRO        -0.0281
     49 CD          5.5620   24.9110   22.6870 C.3       1 PRO         0.0369
     50 N           8.8370   24.8230   19.3530 N.am      1 LEU        -0.2637
     51 CA          9.6830   23.8470   18.6810 C.3       1 LEU         0.1314
     52 C          10.3790   22.9730   19.7130 C.2       1 LEU         0.2064
     53 O          10.7020   23.4340   20.8130 O.2       1 LEU        -0.3942
     54 CB         10.7250   24.5350   17.7990 C.3       1 LEU        -0.0101
     55 CG         10.2160   25.3210   16.5980 C.3       1 LEU        -0.0425
     56 CD1        11.4180   25.9200   15.8670 C.3       1 LEU        -0.0625
     57 CD2         9.3590   24.4640   15.6780 C.3       1 LEU        -0.0625
     58 N          10.6040   21.6970   19.3710 N.am      1 PRO        -0.2498
     59 CA         11.2830   20.7940   20.3060 C.3       1 PRO         0.1337
     60 C          12.7700   21.1010   20.3310 C.2       1 PRO         0.2036
     61 O          13.2490   21.8560   19.4760 O.2       1 PRO        -0.3944
     62 CB         11.0500   19.4100   19.6870 C.3       1 PRO        -0.0104
     63 CG         10.8400   19.6960   18.2300 C.3       1 PRO        -0.0281
     64 CD         10.0460   20.9670   18.2230 C.3       1 PRO         0.0369
     65 N          13.4740   20.4990   21.2850 N.am      1 SER        -0.2672
     66 CA         14.8960   20.7430   21.5130 C.3       1 SER         0.1173
     67 C          15.0840   21.9400   22.4380 C.2       1 SER         0.0623
     68 O          15.9190   21.9120   23.3360 O.co2     1 SER        -0.5665
     69 CB         15.6520   20.9480   20.1950 C.3       1 SER         0.0789
     70 OG         17.0010   21.3250   20.4220 O.3       1 SER        -0.3910
     71 OXT        14.4030   22.9510   22.3000 O.co2     1 SER        -0.5665
     72 H1         -7.8718   31.8638   17.3072 H         1 LYS         0.2015
     73 H2         -6.8874   31.8403   18.6262 H         1 LYS         0.2015
     74 H3         -8.2076   30.8589   18.5669 H         1 LYS         0.2015
     75 H4         -7.3219   29.6237   16.7659 H         1 LYS         0.1098
     76 H5         -5.1296   30.0439   15.9143 H         1 LYS         0.0346
     77 H6         -4.7982   31.2701   17.1844 H         1 LYS         0.0346
     78 H7         -6.9677   32.3929   16.0150 H         1 LYS         0.0270
     79 H8         -6.2854   31.5034   14.6115 H         1 LYS         0.0270
     80 H9         -4.7078   33.4019   16.4143 H         1 LYS         0.0317
     81 H10        -5.4261   33.8506   14.8302 H         1 LYS         0.0317
     82 H11        -3.5082   31.5133   15.1037 H         1 LYS         0.0813
     83 H12        -2.9177   33.1989   14.9119 H         1 LYS         0.0813
     84 H13        -3.0983   32.0662   12.8134 H         1 LYS         0.1994
     85 H14        -4.1614   33.3218   12.8668 H         1 LYS         0.1994
     86 H15        -4.7025   31.7771   13.0425 H         1 LYS         0.1994
     87 H16        -6.4531   27.7020   17.3269 H         1 ARG         0.1884
     88 H17        -5.7244   27.0616   19.9911 H         1 ARG         0.0800
     89 H18        -5.0129   25.7105   17.3461 H         1 ARG         0.0313
     90 H19        -6.4741   25.4035   18.3448 H         1 ARG         0.0313
     91 H20        -5.0810   24.5091   20.1404 H         1 ARG         0.0301
     92 H21        -3.6008   24.8596   19.1850 H         1 ARG         0.0301
     93 H22        -4.4432   23.3811   17.3774 H         1 ARG         0.0689
     94 H23        -5.8829   22.9994   18.3815 H         1 ARG         0.0689
     95 H24        -3.6723   22.4130   20.0065 H         1 ARG         0.2642
     96 H25        -4.2124   19.7862   16.9467 H         1 ARG         0.2615
     97 H26        -4.8968   21.4296   16.8310 H         1 ARG         0.2615
     98 H27        -2.8051   20.3190   20.1642 H         1 ARG         0.2615
     99 H28        -3.0361   19.1591   18.8285 H         1 ARG         0.2615
    100 H29        -1.6679   28.8781   20.0875 H         1 PRO         0.0802
    101 H30        -1.6817   28.8386   22.4316 H         1 PRO         0.0313
    102 H31        -0.7353   27.3206   22.2679 H         1 PRO         0.0313
    103 H32        -3.0928   27.3130   23.5544 H         1 PRO         0.0287
    104 H33        -2.6538   25.9549   22.4638 H         1 PRO         0.0287
    105 H34        -4.7456   26.6363   21.5802 H         1 PRO         0.0524
    106 H35        -4.4120   28.3740   21.8896 H         1 PRO         0.0524
    107 H36         0.2899   28.3453   19.2061 H         1 LEU         0.1883
    108 H37         0.6793   25.6304   18.1517 H         1 LEU         0.0800
    109 H38         2.9275   26.6456   17.4780 H         1 LEU         0.0315
    110 H39         2.3314   28.1880   18.1798 H         1 LEU         0.0315
    111 H40         0.3169   27.9257   16.5902 H         1 LEU         0.0298
    112 H41         1.5809   28.9031   14.7162 H         1 LEU         0.0232
    113 H42         3.1166   28.3385   15.4573 H         1 LEU         0.0232
    114 H43         2.1157   29.5728   16.2948 H         1 LEU         0.0232
    115 H44         0.7171   25.5398   16.0930 H         1 LEU         0.0232
    116 H45         2.2866   25.9617   15.3280 H         1 LEU         0.0232
    117 H46         0.7487   26.5353   14.5982 H         1 LEU         0.0232
    118 H47         3.2557   24.4996   21.6342 H         1 PRO         0.0802
    119 H48         2.7368   22.2494   20.9033 H         1 PRO         0.0313
    120 H49         4.5156   22.3082   20.6602 H         1 PRO         0.0313
    121 H50         3.0291   21.6379   18.5972 H         1 PRO         0.0287
    122 H51         4.2773   22.9046   18.3443 H         1 PRO         0.0287
    123 H52         2.3325   24.0832   17.6019 H         1 PRO         0.0524
    124 H53         1.2595   23.2390   18.7692 H         1 PRO         0.0524
    125 H54         7.1197   26.4621   20.3705 H         1 PRO         0.0802
    126 H55         7.6762   26.6853   22.6773 H         1 PRO         0.0313
    127 H56         8.8208   25.3599   22.2774 H         1 PRO         0.0313
    128 H57         7.0582   24.9616   24.2304 H         1 PRO         0.0287
    129 H58         7.2846   23.6648   23.0081 H         1 PRO         0.0287
    130 H59         4.9313   24.0374   22.9083 H         1 PRO         0.0524
    131 H60         5.1142   25.8098   23.1360 H         1 PRO         0.0524
    132 H61         9.0159   25.7999   19.2363 H         1 LEU         0.1883
    133 H62         9.0492   23.2114   18.0451 H         1 LEU         0.0800
    134 H63        11.4032   23.7561   17.4204 H         1 LEU         0.0315
    135 H64        11.2877   25.2332   18.4361 H         1 LEU         0.0315
    136 H65         9.5881   26.1461   16.9654 H         1 LEU         0.0298
    137 H66        11.0688   26.4924   14.9949 H         1 LEU         0.0232
    138 H67        12.0838   25.1111   15.5319 H         1 LEU         0.0232
    139 H68        11.9660   26.5876   16.5482 H         1 LEU         0.0232
    140 H69         8.5091   24.0552   16.2442 H         1 LEU         0.0232
    141 H70         9.9644   23.6375   15.2776 H         1 LEU         0.0232
    142 H71         8.9839   25.0798   14.8473 H         1 LEU         0.0232
    143 H72        10.8599   20.8636   21.3190 H         1 PRO         0.0802
    144 H73        10.1613   18.9308   20.1236 H         1 PRO         0.0313
    145 H74        11.9264   18.7622   19.8361 H         1 PRO         0.0313
    146 H75        10.2792   18.8816   17.7481 H         1 PRO         0.0287
    147 H76        11.8025   19.8330   17.7153 H         1 PRO         0.0287
    148 H77        10.1960   21.5242   17.2865 H         1 PRO         0.0524
    149 H78         8.9735   20.7665   18.3626 H         1 PRO         0.0524
    150 H79        13.0050   19.8444   21.8779 H         1 SER         0.1876
    151 H80        15.3176   19.8567   22.0097 H         1 SER         0.0749
    152 H81        15.1527   21.7387   19.6158 H         1 SER         0.0599
    153 H82        15.6350   20.0084   19.6234 H         1 SER         0.0599
    154 H83        17.4401   21.4438   19.5880 H         1 SER         0.2096
@<TRIPOS>BOND
     1    1    2 1  
     2    2    3 1  
     3    2    5 1  
     4    3    4 2  
     5    3   10 am 
     6    5    6 1  
     7    6    7 1  
     8    7    8 1  
     9    8    9 1  
    10   10   11 1  
    11   11   12 1  
    12   11   14 1  
    13   12   13 2  
    14   12   21 am 
    15   14   15 1  
    16   15   16 1  
    17   16   17 1  
    18   17   18 ar 
    19   18   19 ar 
    20   18   20 ar 
    21   21   22 1  
    22   21   27 1  
    23   22   23 1  
    24   22   25 1  
    25   23   24 2  
    26   23   28 am 
    27   25   26 1  
    28   26   27 1  
    29   28   29 1  
    30   29   30 1  
    31   29   32 1  
    32   30   31 2  
    33   30   36 am 
    34   32   33 1  
    35   33   34 1  
    36   33   35 1  
    37   36   37 1  
    38   36   42 1  
    39   37   38 1  
    40   37   40 1  
    41   38   39 2  
    42   38   43 am 
    43   40   41 1  
    44   41   42 1  
    45   43   44 1  
    46   43   49 1  
    47   44   45 1  
    48   44   47 1  
    49   45   46 2  
    50   45   50 am 
    51   47   48 1  
    52   48   49 1  
    53   50   51 1  
    54   51   52 1  
    55   51   54 1  
    56   52   53 2  
    57   52   58 am 
    58   54   55 1  
    59   55   56 1  
    60   55   57 1  
    61   58   59 1  
    62   58   64 1  
    63   59   60 1  
    64   59   62 1  
    65   60   61 2  
    66   60   65 am 
    67   62   63 1  
    68   63   64 1  
    69   65   66 1  
    70   66   67 1  
    71   66   69 1  
    72   67   68 ar 
    73   67   71 ar 
    74   69   70 1  
    75    1   72 1  
    76    1   73 1  
    77    1   74 1  
    78    2   75 1  
    79    5   76 1  
    80    5   77 1  
    81    6   78 1  
    82    6   79 1  
    83    7   80 1  
    84    7   81 1  
    85    8   82 1  
    86    8   83 1  
    87    9   84 1  
    88    9   85 1  
    89    9   86 1  
    90   10   87 1  
    91   11   88 1  
    92   14   89 1  
    93   14   90 1  
    94   15   91 1  
    95   15   92 1  
    96   16   93 1  
    97   16   94 1  
    98   17   95 1  
    99   19   96 1  
   100   19   97 1  
   101   20   98 1  
   102   20   99 1  
   103   22  100 1  
   104   25  101 1  
   105   25  102 1  
   106   26  103 1  
   107   26  104 1  
   108   27  105 1  
   109   27  106 1  
   110   28  107 1  
   111   29  108 1  
   112   32  109 1  
   113   32  110 1  
   114   33  111 1  
   115   34  112 1  
   116   34  113 1  
   117   34  114 1  
   118   35  115 1  
   119   35  116 1  
   120   35  117 1  
   121   37  118 1  
   122   40  119 1  
   123   40  120 1  
   124   41  121 1  
   125   41  122 1  
   126   42  123 1  
   127   42  124 1  
   128   44  125 1  
   129   47  126 1  
   130   47  127 1  
   131   48  128 1  
   132   48  129 1  
   133   49  130 1  
   134   49  131 1  
   135   50  132 1  
   136   51  133 1  
   137   54  134 1  
   138   54  135 1  
   139   55  136 1  
   140   56  137 1  
   141   56  138 1  
   142   56  139 1  
   143   57  140 1  
   144   57  141 1  
   145   57  142 1  
   146   59  143 1  
   147   62  144 1  
   148   62  145 1  
   149   63  146 1  
   150   63  147 1  
   151   64  148 1  
   152   64  149 1  
   153   65  150 1  
   154   66  151 1  
   155   69  152 1  
   156   69  153 1  
   157   70  154 1  
@<TRIPOS>SUBSTRUCTURE
     1 LYS         1

