6ps0_ligand
  -I-interpret- 

 44 46  0  0  0  0  0  0  0  0999 V2000
    3.3330    6.0330   48.5390 O   0  0  0  0  0
    3.2180    4.9350   49.3910 C   0  0  0  0  0
    3.1260    5.3190   50.8730 C   0  0  0  0  0
    2.4510    6.5950   51.0610 N   0  3  0  0  0
    2.1620    6.8440   52.4650 C   0  0  0  0  0
    2.9090    8.0990   52.9160 C   0  0  0  0  0
    0.6650    7.0880   52.6550 C   0  0  0  0  0
    2.0330    4.0840   48.9670 C   0  0  0  0  0
    2.5620    2.8430   48.5980 O   0  0  0  0  0
    1.6290    1.8050   48.4340 C   0  0  0  0  0
    0.9820    1.6450   47.2080 C   0  0  0  0  0
    0.1050    0.5830   46.9990 C   0  0  0  0  0
   -0.1210   -0.3380   48.0190 C   0  0  0  0  0
    0.5450   -0.2020   49.2560 C   0  0  0  0  0
    1.4220    0.8480   49.4680 C   0  0  0  0  0
    0.5040   -0.9730   50.3930 N   0  0  0  0  0
    1.3480   -0.4220   51.3240 C   0  0  0  0  0
    1.9290    0.7020   50.7590 C   0  0  0  0  0
    1.6450   -0.8020   52.6520 C   0  0  0  0  0
    2.5430   -0.0370   53.3920 C   0  0  0  0  0
    3.1360    1.0980   52.8290 C   0  0  0  0  0
    2.8480    1.4680   51.5150 C   0  0  0  0  0
    4.0823    6.5690   48.8090 H   0  0  0  0  0
    4.1367    4.3558   49.2985 H   0  0  0  0  0
    4.1384    5.4060   51.2675 H   0  0  0  0  0
    2.5536    4.5495   51.3910 H   0  0  0  0  0
    1.5692    6.5724   50.5488 H   0  0  0  0  0
    3.0625    7.3371   50.7206 H   0  0  0  0  0
    2.4743    5.9781   53.0487 H   0  0  0  0  0
    2.5870    8.9482   52.3133 H   0  0  0  0  0
    2.6899    8.2931   53.9660 H   0  0  0  0  0
    3.9809    7.9475   52.7892 H   0  0  0  0  0
    0.4616    7.2891   53.7068 H   0  0  0  0  0
    0.3586    7.9443   52.0542 H   0  0  0  0  0
    0.1111    6.2040   52.3390 H   0  0  0  0  0
    1.4922    4.5443   48.1401 H   0  0  0  0  0
    1.3114    3.9804   49.7773 H   0  0  0  0  0
    1.1649    2.3590   46.4049 H   0  0  0  0  0
   -0.4025    0.4732   46.0406 H   0  0  0  0  0
   -0.8133   -1.1651   47.8618 H   0  0  0  0  0
    1.1772   -1.6828   53.0917 H   0  0  0  0  0
    2.7851   -0.3241   54.4153 H   0  0  0  0  0
    3.8277    1.6974   53.4209 H   0  0  0  0  0
    3.3278    2.3415   51.0735 H   0  0  0  0  0
  1  2  1  0  0  0
  2  3  1  0  0  0
  2  8  1  0  0  0
  3  4  1  0  0  0
  4  5  1  0  0  0
  5  6  1  0  0  0
  5  7  1  0  0  0
  8  9  1  0  0  0
  9 10  1  0  0  0
 10 11  4  0  0  0
 10 15  4  0  0  0
 11 12  4  0  0  0
 12 13  4  0  0  0
 13 14  4  0  0  0
 14 15  4  0  0  0
 14 16  4  0  0  0
 15 18  4  0  0  0
 16 17  4  0  0  0
 17 18  4  0  0  0
 17 19  4  0  0  0
 18 22  4  0  0  0
 19 20  4  0  0  0
 20 21  4  0  0  0
 21 22  4  0  0  0
  1 23  1  0  0  0
  2 24  1  0  0  0
  3 25  1  0  0  0
  3 26  1  0  0  0
  4 27  1  0  0  0
  4 28  1  0  0  0
  5 29  1  0  0  0
  6 30  1  0  0  0
  6 31  1  0  0  0
  6 32  1  0  0  0
  7 33  1  0  0  0
  7 34  1  0  0  0
  7 35  1  0  0  0
  8 36  1  0  0  0
  8 37  1  0  0  0
 11 38  1  0  0  0
 12 39  1  0  0  0
 13 40  1  0  0  0
 19 41  1  0  0  0
 20 42  1  0  0  0
 21 43  1  0  0  0
 22 44  1  0  0  0
M  END
$$$$
