3axz_ligand
  -I-interpret- 

 32 34  0  0  0  0  0  0  0  0999 V2000
   44.3170    6.4750   11.1420 O   0  0  0  0  0
   43.0150    6.0440   11.5470 C   0  0  0  0  0
   42.9610    4.5150   11.5440 C   0  0  0  0  0
   43.3390    4.0240   10.2440 O   0  0  0  0  0
   43.9540    3.9250   12.5490 C   0  0  0  0  0
   43.5070    2.6620   13.0490 O   0  0  0  0  0
   45.1890    3.7470   11.6700 C   0  0  0  0  0
   46.1090    2.7990   12.2170 O   0  0  0  0  0
   44.5480    3.2550   10.3730 C   0  0  0  0  0
   45.4730    3.4530    9.2340 N   0  0  0  0  0
   45.8520    4.6280    8.7350 C   0  0  0  0  0
   46.7220    4.4330    7.7450 N   0  0  0  0  0
   46.8990    3.1220    7.6100 C   0  0  0  0  0
   47.6720    2.3300    6.7700 C   0  0  0  0  0
   48.4640    2.8800    5.8540 N   0  0  0  0  0
   47.6140    0.9980    6.9010 N   0  0  0  0  0
   46.8360    0.4360    7.8110 C   0  0  0  0  0
   46.0900    1.1580    8.6270 N   0  0  0  0  0
   46.0980    2.4960    8.5550 C   0  0  0  0  0
   44.3503    7.4344   11.1441 H   0  0  0  0  0
   42.2704    6.4355   10.8539 H   0  0  0  0  0
   42.8057    6.4133   12.5509 H   0  0  0  0  0
   41.9445    4.2217   11.8064 H   0  0  0  0  0
   44.1065    4.5416   13.4348 H   0  0  0  0  0
   42.7310    2.7932   13.5987 H   0  0  0  0  0
   45.7948    4.6460   11.5564 H   0  0  0  0  0
   46.4848    3.1504   13.0275 H   0  0  0  0  0
   44.3282    2.1874   10.3840 H   0  0  0  0  0
   45.5038    5.6004    9.0832 H   0  0  0  0  0
   48.5091    3.8948    5.7619 H   0  0  0  0  0
   49.0263    2.2870    5.2436 H   0  0  0  0  0
   46.8099   -0.6509    7.8894 H   0  0  0  0  0
  1  2  1  0  0  0
  2  3  1  0  0  0
  3  4  1  0  0  0
  3  5  1  0  0  0
  4  9  1  0  0  0
  5  6  1  0  0  0
  5  7  1  0  0  0
  7  8  1  0  0  0
  7  9  1  0  0  0
  9 10  1  0  0  0
 10 11  4  0  0  0
 10 19  4  0  0  0
 11 12  4  0  0  0
 12 13  4  0  0  0
 13 14  4  0  0  0
 13 19  4  0  0  0
 14 15  1  0  0  0
 14 16  4  0  0  0
 16 17  4  0  0  0
 17 18  4  0  0  0
 18 19  4  0  0  0
  1 20  1  0  0  0
  2 21  1  0  0  0
  2 22  1  0  0  0
  3 23  1  0  0  0
  5 24  1  0  0  0
  6 25  1  0  0  0
  7 26  1  0  0  0
  8 27  1  0  0  0
  9 28  1  0  0  0
 11 29  1  0  0  0
 15 30  1  0  0  0
 15 31  1  0  0  0
 17 32  1  0  0  0
M  END
$$$$
