1m7i_ligand
  -I-interpret- 

113117  0  0  0  0  0  0  0  0999 V2000
  -11.6960   26.4010   35.0970 C   0  0  0  0  0
  -12.9110   26.2810   36.0230 C   0  0  0  0  0
  -13.5590   27.5360   36.1750 O   0  0  0  0  0
  -12.4680   25.7220   37.3960 C   0  0  0  0  0
  -13.5640   25.6660   38.2990 O   0  0  0  0  0
  -11.3090   26.5600   37.9840 C   0  0  0  0  0
  -10.8190   25.9690   39.1810 O   0  0  0  0  0
  -10.1640   26.7080   36.9710 C   0  0  0  0  0
  -10.6780   27.2300   35.7160 O   0  0  0  0  0
   -9.1070   27.6510   37.5420 C   0  0  0  0  0
   -9.3250   23.7430   34.2760 C   0  0  0  0  0
  -10.1510   24.9670   33.8760 C   0  0  0  0  0
  -11.2260   25.0750   34.8210 O   0  0  0  0  0
  -10.7410   24.7690   32.4690 C   0  0  0  0  0
  -11.5770   25.8610   32.1180 O   0  0  0  0  0
  -11.5290   23.4530   32.3840 C   0  0  0  0  0
  -11.9700   23.2290   31.0510 O   0  0  0  0  0
  -10.6780   22.2700   32.8760 C   0  0  0  0  0
  -10.1580   22.5590   34.1960 O   0  0  0  0  0
  -11.5180   20.9920   32.9270 C   0  0  0  0  0
   -5.3990   21.0560   33.9300 C   0  0  0  0  0
   -6.6270   21.7320   33.3170 C   0  0  0  0  0
   -6.3570   22.1440   31.9870 O   0  0  0  0  0
   -7.0500   22.9310   34.1590 C   0  0  0  0  0
   -8.1120   23.6510   33.4960 O   0  0  0  0  0
   -5.8660   23.8780   34.4160 C   0  0  0  0  0
   -6.2500   24.8850   35.3310 O   0  0  0  0  0
   -4.6560   23.1220   34.9620 C   0  0  0  0  0
   -4.3370   22.0220   34.0900 O   0  0  0  0  0
   -3.4630   24.0650   35.0560 C   0  0  0  0  0
   -6.3780   16.6640   34.7130 C   0  0  0  0  0
   -6.6850   18.1640   34.6340 C   0  0  0  0  0
   -5.4620   18.9640   35.1300 C   0  0  0  0  0
   -5.0020   18.4860   36.5190 C   0  0  0  0  0
   -4.8150   16.9580   36.5300 C   0  0  0  0  0
   -4.4790   16.4250   37.9220 C   0  0  0  0  0
   -8.1530   19.1010   32.9470 C   0  0  0  0  0
   -8.3820   19.4050   31.4800 C   0  0  0  0  0
   -6.9990   18.5080   33.2560 N   0  0  0  0  0
   -5.7400   20.3790   35.1590 O   0  0  0  0  0
   -3.7890   19.1340   36.8700 O   0  0  0  0  0
   -6.0070   16.3100   36.0500 O   0  0  0  0  0
   -4.6180   15.0100   37.9480 O   0  0  0  0  0
   -8.9910   19.4060   33.7920 O   0  0  0  0  0
   -6.2610   13.7550   34.4460 C   0  0  0  0  0
   -5.7520   12.6740   33.6410 O   0  0  0  0  0
   -5.1210   11.6370   34.3910 C   0  0  0  0  0
   -7.5110   15.9000   34.2660 O   0  0  0  0  0
   -7.1900   14.6560   33.6050 C   0  0  0  0  0
   -8.4800   13.9110   33.2550 C   0  0  0  0  0
   -9.3910   14.8100   32.6360 O   0  0  0  0  0
   -9.1350   13.3000   34.5090 C   0  0  0  0  0
  -10.2390   12.4860   34.1330 O   0  0  0  0  0
   -8.1160   12.4750   35.3260 C   0  0  0  0  0
   -6.9520   13.2820   35.6200 O   0  0  0  0  0
   -8.7080   11.9210   36.6200 C   0  0  0  0  0
  -11.9609   26.8854   34.1572 H   0  0  0  0  0
  -13.6265   25.5915   35.5750 H   0  0  0  0  0
  -13.8250   27.8640   35.3129 H   0  0  0  0  0
  -12.1054   24.7052   37.2451 H   0  0  0  0  0
  -14.2691   25.1416   37.9125 H   0  0  0  0  0
  -11.7010   27.5512   38.2119 H   0  0  0  0  0
  -11.5386   25.8791   39.8100 H   0  0  0  0  0
   -9.7133   25.7335   36.7831 H   0  0  0  0  0
   -8.2856   27.7467   36.8319 H   0  0  0  0  0
   -9.5525   28.6301   37.7182 H   0  0  0  0  0
   -8.7312   27.2469   38.4820 H   0  0  0  0  0
   -8.9930   23.8398   35.3097 H   0  0  0  0  0
   -9.5294   25.8624   33.8704 H   0  0  0  0  0
   -9.9120   24.7212   31.7629 H   0  0  0  0  0
  -11.9347   25.7189   31.2385 H   0  0  0  0  0
  -12.4012   23.5338   33.0327 H   0  0  0  0  0
  -12.4604   22.4046   31.0116 H   0  0  0  0  0
   -9.8517   22.1215   32.1808 H   0  0  0  0  0
  -12.3550   21.1359   33.6103 H   0  0  0  0  0
  -11.8960   20.7671   31.9297 H   0  0  0  0  0
  -10.8993   20.1658   33.2773 H   0  0  0  0  0
   -5.0333   20.2831   33.2540 H   0  0  0  0  0
   -7.4423   21.0087   33.2998 H   0  0  0  0  0
   -7.1372   22.5653   31.6191 H   0  0  0  0  0
   -7.4050   22.5576   35.1195 H   0  0  0  0  0
   -5.5828   24.3302   33.4655 H   0  0  0  0  0
   -5.5077   25.4732   35.4879 H   0  0  0  0  0
   -4.8900   22.7370   35.9545 H   0  0  0  0  0
   -3.2302   24.4543   34.0649 H   0  0  0  0  0
   -3.7062   24.8910   35.7243 H   0  0  0  0  0
   -2.6021   23.5219   35.4458 H   0  0  0  0  0
   -5.5392   16.4342   34.0559 H   0  0  0  0  0
   -7.5389   18.4097   35.2654 H   0  0  0  0  0
   -4.6532   18.7847   34.4217 H   0  0  0  0  0
   -5.7678   18.7409   37.2516 H   0  0  0  0  0
   -3.9743   16.7351   35.8730 H   0  0  0  0  0
   -5.1613   16.8656   38.6489 H   0  0  0  0  0
   -3.4504   16.6887   38.1682 H   0  0  0  0  0
   -9.2839   18.8953   31.1411 H   0  0  0  0  0
   -8.4992   20.4805   31.3471 H   0  0  0  0  0
   -7.5270   19.0571   30.9004 H   0  0  0  0  0
   -6.3290   18.2933   32.5175 H   0  0  0  0  0
   -3.5059   18.8331   37.7365 H   0  0  0  0  0
   -4.4050   14.6847   38.8257 H   0  0  0  0  0
   -5.4046   14.3369   34.7867 H   0  0  0  0  0
   -4.2777   12.0515   34.9434 H   0  0  0  0  0
   -5.8388   11.2074   35.0898 H   0  0  0  0  0
   -4.7662   10.8628   33.7108 H   0  0  0  0  0
   -6.6446   14.9028   32.6941 H   0  0  0  0  0
   -8.2296   13.0987   32.5727 H   0  0  0  0  0
  -10.2004   14.3428   32.4163 H   0  0  0  0  0
   -9.4892   14.1153   35.1398 H   0  0  0  0  0
  -10.6405   12.1099   34.9198 H   0  0  0  0  0
   -7.8313   11.6194   34.7137 H   0  0  0  0  0
   -9.0478   12.7466   37.2453 H   0  0  0  0  0
   -9.5510   11.2717   36.3836 H   0  0  0  0  0
   -7.9463   11.3506   37.1515 H   0  0  0  0  0
  1  2  1  0  0  0
  1  9  1  0  0  0
  2  3  1  0  0  0
  2  4  1  0  0  0
  4  5  1  0  0  0
  4  6  1  0  0  0
  6  7  1  0  0  0
  8  6  1  0  0  0
  9  8  1  0  0  0
  8 10  1  0  0  0
 11 12  1  0  0  0
 11 19  1  0  0  0
 12 13  1  0  0  0
 12 14  1  0  0  0
 13  1  1  0  0  0
 14 15  1  0  0  0
 14 16  1  0  0  0
 16 17  1  0  0  0
 18 16  1  0  0  0
 19 18  1  0  0  0
 18 20  1  0  0  0
 21 22  1  0  0  0
 21 29  1  0  0  0
 22 23  1  0  0  0
 22 24  1  0  0  0
 24 25  1  0  0  0
 24 26  1  0  0  0
 25 11  1  0  0  0
 26 27  1  0  0  0
 28 26  1  0  0  0
 29 28  1  0  0  0
 28 30  1  0  0  0
 31 32  1  0  0  0
 31 42  1  0  0  0
 32 33  1  0  0  0
 32 39  1  0  0  0
 33 34  1  0  0  0
 33 40  1  0  0  0
 35 34  1  0  0  0
 34 41  1  0  0  0
 35 36  1  0  0  0
 42 35  1  0  0  0
 36 43  1  0  0  0
 37 38  1  0  0  0
 39 37  1  0  0  0
 37 44  2  0  0  0
 40 21  1  0  0  0
 45 46  1  0  0  0
 49 45  1  0  0  0
 45 55  1  0  0  0
 46 47  1  0  0  0
 49 50  1  0  0  0
 50 51  1  0  0  0
 50 52  1  0  0  0
 52 53  1  0  0  0
 52 54  1  0  0  0
 55 54  1  0  0  0
 54 56  1  0  0  0
 48 49  1  0  0  0
 48 31  1  0  0  0
  1 57  1  0  0  0
  2 58  1  0  0  0
  3 59  1  0  0  0
  4 60  1  0  0  0
  5 61  1  0  0  0
  6 62  1  0  0  0
  7 63  1  0  0  0
  8 64  1  0  0  0
 10 65  1  0  0  0
 10 66  1  0  0  0
 10 67  1  0  0  0
 11 68  1  0  0  0
 12 69  1  0  0  0
 14 70  1  0  0  0
 15 71  1  0  0  0
 16 72  1  0  0  0
 17 73  1  0  0  0
 18 74  1  0  0  0
 20 75  1  0  0  0
 20 76  1  0  0  0
 20 77  1  0  0  0
 21 78  1  0  0  0
 22 79  1  0  0  0
 23 80  1  0  0  0
 24 81  1  0  0  0
 26 82  1  0  0  0
 27 83  1  0  0  0
 28 84  1  0  0  0
 30 85  1  0  0  0
 30 86  1  0  0  0
 30 87  1  0  0  0
 31 88  1  0  0  0
 32 89  1  0  0  0
 33 90  1  0  0  0
 34 91  1  0  0  0
 35 92  1  0  0  0
 36 93  1  0  0  0
 36 94  1  0  0  0
 38 95  1  0  0  0
 38 96  1  0  0  0
 38 97  1  0  0  0
 39 98  1  0  0  0
 41 99  1  0  0  0
 43100  1  0  0  0
 45101  1  0  0  0
 47102  1  0  0  0
 47103  1  0  0  0
 47104  1  0  0  0
 49105  1  0  0  0
 50106  1  0  0  0
 51107  1  0  0  0
 52108  1  0  0  0
 53109  1  0  0  0
 54110  1  0  0  0
 56111  1  0  0  0
 56112  1  0  0  0
 56113  1  0  0  0
M  END
$$$$
