3zqe_ligand
  -I-interpret- 

 68 71  0  0  0  0  0  0  0  0999 V2000
   -0.7890   22.7230   14.8810 C   0  0  0  0  0
   -1.0180   21.2760   14.4390 C   0  0  0  0  0
   -0.0460   20.3530   15.1770 C   0  0  0  0  0
    1.4140   20.7310   14.9120 C   0  0  0  0  0
    1.6310   22.1960   15.2960 C   0  0  0  0  0
    0.6540   23.1170   14.5620 C   0  0  0  0  0
   -0.3280   18.9080   14.7610 C   0  0  0  0  0
   -0.0040   18.7190   13.2770 C   0  0  0  0  0
    1.4590   19.0780   13.0140 C   0  0  0  0  0
    1.7600   20.5180   13.4350 C   0  0  0  0  0
    1.7850   18.9300   11.5270 C   0  0  0  0  0
    3.2760   19.1630   11.2940 C   0  0  0  0  0
    3.6100   20.6030   11.6970 C   0  0  0  0  0
    3.2320   20.8510   13.1610 C   0  0  0  0  0
    1.6300   17.5170   10.9680 C   0  0  0  0  0
    2.3980   17.6280    9.6470 C   0  0  0  0  0
    3.2780   18.8760    9.7910 C   0  0  0  0  0
    2.3220   19.8510   15.7750 C   0  0  0  0  0
    4.6510   18.6590    9.1450 C   0  0  0  0  0
    2.9060   21.5170   10.8550 O   0  0  0  0  0
   -1.6900   23.5770   14.1700 O   0  0  0  0  0
    4.1090   18.1500   12.0810 C   0  0  0  0  0
    4.4380   18.2250    7.6940 C   0  0  0  0  0
    5.7000   17.6830    7.0140 C   0  0  0  0  0
    6.6230   18.7850    6.4860 C   0  0  0  0  0
    7.7480   18.8860    7.0080 O   0  0  0  0  0
    6.1860   19.4800    5.5370 O   0  0  0  0  0
    5.4990   19.9320    9.2190 C   0  0  0  0  0
   -0.9657   22.8211   15.9521 H   0  0  0  0  0
   -0.8496   21.1947   13.3652 H   0  0  0  0  0
   -2.0420   20.9841   14.6723 H   0  0  0  0  0
   -0.2010   20.4623   16.2504 H   0  0  0  0  0
    2.6468   22.4791   15.0201 H   0  0  0  0  0
    1.4657   22.3006   16.3683 H   0  0  0  0  0
    0.8221   24.1442   14.8856 H   0  0  0  0  0
    0.8183   23.0266   13.4883 H   0  0  0  0  0
   -1.3815   18.6849   14.9297 H   0  0  0  0  0
    0.2939   18.2362   15.3527 H   0  0  0  0  0
   -0.6462   19.3694   12.6831 H   0  0  0  0  0
   -0.1739   17.6781   13.0016 H   0  0  0  0  0
    2.0718   18.3950   13.6024 H   0  0  0  0  0
    1.1398   21.1934   12.8456 H   0  0  0  0  0
    1.0973   19.6321   11.0556 H   0  0  0  0  0
    4.6828   20.7577   11.5817 H   0  0  0  0  0
    3.8505   20.2084   13.7876 H   0  0  0  0  0
    3.3906   21.9067   13.3812 H   0  0  0  0  0
    0.5923   17.2065   10.8458 H   0  0  0  0  0
    2.0106   16.7402   11.6312 H   0  0  0  0  0
    1.7214   17.7113    8.7965 H   0  0  0  0  0
    2.9956   16.7368    9.4554 H   0  0  0  0  0
    2.9116   19.7531    9.2575 H   0  0  0  0  0
    2.1696   18.8046   15.5106 H   0  0  0  0  0
    3.3628   20.1234   15.6000 H   0  0  0  0  0
    2.0779   20.0006   16.8267 H   0  0  0  0  0
    5.1933   17.8826    9.6847 H   0  0  0  0  0
    3.1194   22.4169   11.1125 H   0  0  0  0  0
   -2.5942   23.3263   14.3730 H   0  0  0  0  0
    3.8967   18.2553   13.1449 H   0  0  0  0  0
    3.8538   17.1413   11.7564 H   0  0  0  0  0
    5.1681   18.3341   11.9006 H   0  0  0  0  0
    4.1231   19.1066    7.1357 H   0  0  0  0  0
    3.7036   17.4196    7.7018 H   0  0  0  0  0
    5.3832   17.0817    6.1618 H   0  0  0  0  0
    6.2574   17.1144    7.7584 H   0  0  0  0  0
    5.2923   19.2020    5.3233 H   0  0  0  0  0
    4.9879   20.7385    8.6933 H   0  0  0  0  0
    5.6430   20.2109   10.2628 H   0  0  0  0  0
    6.4675   19.7494    8.7534 H   0  0  0  0  0
  1  2  1  0  0  0
  1  6  1  0  0  0
  1 21  1  0  0  0
  2  3  1  0  0  0
  3  4  1  0  0  0
  3  7  1  0  0  0
  4  5  1  0  0  0
  4 10  1  0  0  0
  4 18  1  0  0  0
  5  6  1  0  0  0
  7  8  1  0  0  0
  8  9  1  0  0  0
  9 10  1  0  0  0
  9 11  1  0  0  0
 10 14  1  0  0  0
 11 12  1  0  0  0
 11 15  1  0  0  0
 12 13  1  0  0  0
 12 17  1  0  0  0
 12 22  1  0  0  0
 13 14  1  0  0  0
 13 20  1  0  0  0
 15 16  1  0  0  0
 16 17  1  0  0  0
 17 19  1  0  0  0
 19 23  1  0  0  0
 19 28  1  0  0  0
 23 24  1  0  0  0
 24 25  1  0  0  0
 25 26  2  0  0  0
 25 27  1  0  0  0
  1 29  1  0  0  0
  2 30  1  0  0  0
  2 31  1  0  0  0
  3 32  1  0  0  0
  5 33  1  0  0  0
  5 34  1  0  0  0
  6 35  1  0  0  0
  6 36  1  0  0  0
  7 37  1  0  0  0
  7 38  1  0  0  0
  8 39  1  0  0  0
  8 40  1  0  0  0
  9 41  1  0  0  0
 10 42  1  0  0  0
 11 43  1  0  0  0
 13 44  1  0  0  0
 14 45  1  0  0  0
 14 46  1  0  0  0
 15 47  1  0  0  0
 15 48  1  0  0  0
 16 49  1  0  0  0
 16 50  1  0  0  0
 17 51  1  0  0  0
 18 52  1  0  0  0
 18 53  1  0  0  0
 18 54  1  0  0  0
 19 55  1  0  0  0
 20 56  1  0  0  0
 21 57  1  0  0  0
 22 58  1  0  0  0
 22 59  1  0  0  0
 22 60  1  0  0  0
 23 61  1  0  0  0
 23 62  1  0  0  0
 24 63  1  0  0  0
 24 64  1  0  0  0
 27 65  1  0  0  0
 28 66  1  0  0  0
 28 67  1  0  0  0
 28 68  1  0  0  0
M  END
$$$$
