6v1c_ligand
  -I-interpret- 

 51 52  0  0  0  0  0  0  0  0999 V2000
   14.7450   -2.3600   -9.2180 C   0  0  0  0  0
   13.5370   -1.5210   -9.4990 C   0  0  0  0  0
   12.5500   -1.9710  -10.0740 O   0  0  0  0  0
   13.5950   -0.2530   -9.0860 N   0  0  0  0  0
   12.4820    0.6680   -9.2420 C   0  0  0  0  0
   12.8410    1.8060  -10.1950 C   0  0  0  0  0
   13.2160    1.2740  -11.4670 O   0  0  0  0  0
   11.6270    2.6980  -10.3400 C   0  0  0  0  0
   11.9190    3.8000  -11.1860 O   0  0  0  0  0
   11.2220    3.2190   -8.9660 C   0  0  0  0  0
    9.9660    4.0560   -9.0000 C   0  0  0  0  0
    8.8340    3.2930   -9.3710 O   0  0  0  0  0
   10.9430    2.1220   -8.0830 O   0  0  0  0  0
   12.0200    1.2280   -7.8920 C   0  0  0  0  0
   13.0930    1.8710   -7.2160 O   0  0  0  0  0
   12.8760    2.1350   -5.8160 C   0  0  0  0  0
   13.3560    3.5280   -5.4350 C   0  0  0  0  0
   12.7790    4.5360   -6.2650 O   0  0  0  0  0
   14.8700    3.5780   -5.5460 C   0  0  0  0  0
   15.3650    4.8520   -5.1420 O   0  0  0  0  0
   15.4850    2.4820   -4.6960 C   0  0  0  0  0
   16.8430    2.5360   -4.8520 O   0  0  0  0  0
   15.0080    1.2180   -5.1480 O   0  0  0  0  0
   13.5910    1.0830   -4.9790 C   0  0  0  0  0
   13.2470   -0.3440   -5.3280 C   0  0  0  0  0
   13.8530   -1.2380   -4.4020 O   0  0  0  0  0
   14.4613   -3.2043   -8.5897 H   0  0  0  0  0
   15.1573   -2.7273  -10.1578 H   0  0  0  0  0
   15.4927   -1.7571   -8.7027 H   0  0  0  0  0
   14.4517    0.0816   -8.6449 H   0  0  0  0  0
   11.6545    0.1042   -9.6726 H   0  0  0  0  0
   13.6812    2.3787   -9.8024 H   0  0  0  0  0
   13.9862    0.7105  -11.3625 H   0  0  0  0  0
   10.8145    2.1192  -10.7793 H   0  0  0  0  0
   12.1748    3.4773  -12.0532 H   0  0  0  0  0
   12.0603    3.8269   -8.6256 H   0  0  0  0  0
   10.1020    4.8469   -9.7377 H   0  0  0  0  0
    9.7954    4.4573   -8.0010 H   0  0  0  0  0
    8.0580    3.8581   -9.3813 H   0  0  0  0  0
   11.6819    0.3994   -7.2697 H   0  0  0  0  0
   11.8049    2.0878   -5.6197 H   0  0  0  0  0
   13.0421    3.7276   -4.4104 H   0  0  0  0  0
   13.1052    5.3973   -5.9942 H   0  0  0  0  0
   15.1475    3.4204   -6.5882 H   0  0  0  0  0
   16.3218    4.8617   -5.2198 H   0  0  0  0  0
   15.2180    2.6146   -3.6476 H   0  0  0  0  0
   17.2525    1.8489   -4.3211 H   0  0  0  0  0
   13.2601    1.2658   -3.9567 H   0  0  0  0  0
   13.6162   -0.5645   -6.3296 H   0  0  0  0  0
   12.1650   -0.4694   -5.2880 H   0  0  0  0  0
   13.6262   -2.1411   -4.6356 H   0  0  0  0  0
  1  2  1  0  0  0
  2  3  2  0  0  0
  2  4  1  0  0  0
  4  5  1  0  0  0
  5  6  1  0  0  0
  5 14  1  0  0  0
  6  7  1  0  0  0
  6  8  1  0  0  0
  8  9  1  0  0  0
  8 10  1  0  0  0
 10 11  1  0  0  0
 10 13  1  0  0  0
 11 12  1  0  0  0
 13 14  1  0  0  0
 14 15  1  0  0  0
 15 16  1  0  0  0
 16 17  1  0  0  0
 16 24  1  0  0  0
 17 18  1  0  0  0
 17 19  1  0  0  0
 19 20  1  0  0  0
 19 21  1  0  0  0
 21 22  1  0  0  0
 21 23  1  0  0  0
 23 24  1  0  0  0
 24 25  1  0  0  0
 25 26  1  0  0  0
  1 27  1  0  0  0
  1 28  1  0  0  0
  1 29  1  0  0  0
  4 30  1  0  0  0
  5 31  1  0  0  0
  6 32  1  0  0  0
  7 33  1  0  0  0
  8 34  1  0  0  0
  9 35  1  0  0  0
 10 36  1  0  0  0
 11 37  1  0  0  0
 11 38  1  0  0  0
 12 39  1  0  0  0
 14 40  1  0  0  0
 16 41  1  0  0  0
 17 42  1  0  0  0
 18 43  1  0  0  0
 19 44  1  0  0  0
 20 45  1  0  0  0
 21 46  1  0  0  0
 22 47  1  0  0  0
 24 48  1  0  0  0
 25 49  1  0  0  0
 25 50  1  0  0  0
 26 51  1  0  0  0
M  END
$$$$
