5zuj_ligand
  -I-interpret- 

169169  0  0  0  0  0  0  0  0999 V2000
    1.5920   10.5770  -22.4710 N   0  3  0  0  0
    2.3790    9.5590  -23.1550 C   0  0  0  0  0
    3.8740    9.8790  -23.0520 C   0  0  0  0  0
    4.5820    9.9530  -24.0610 O   0  0  0  0  0
    1.9510    9.4320  -24.6240 C   0  0  0  0  0
    2.4760   10.4900  -25.4100 O   0  0  0  0  0
    4.3280   10.1010  -21.8180 N   0  0  0  0  0
    5.7440   10.1270  -21.4620 C   0  0  0  0  0
    5.8460    9.5700  -20.0510 C   0  0  0  0  0
    5.0680    9.9720  -19.1830 O   0  0  0  0  0
    6.3290   11.5410  -21.5310 C   0  0  0  0  0
    7.8470   11.5600  -21.5700 C   0  0  0  0  0
    8.4510   12.8860  -21.1110 C   0  0  0  0  0
    9.6610   12.9790  -20.9150 O   0  0  0  0  0
    7.6140   13.9130  -20.9370 N   0  0  0  0  0
    6.7770    8.6350  -19.8250 N   0  0  0  0  0
    6.8180    7.9270  -18.5400 C   0  0  0  0  0
    7.7480    8.6250  -17.5540 C   0  0  0  0  0
    8.8330    9.0830  -17.9380 O   0  0  0  0  0
    7.2880    6.4910  -18.7190 C   0  0  0  0  0
    6.2760    5.6770  -19.2880 O   0  0  0  0  0
    7.3220    8.7060  -16.2960 N   0  0  0  0  0
    8.2030    9.1950  -15.2310 C   0  0  0  0  0
    9.2320    8.1540  -14.8150 C   0  0  0  0  0
    9.0830    6.9580  -15.0550 O   0  0  0  0  0
    7.2290    9.4730  -14.0890 C   0  0  0  0  0
    6.1540    8.4670  -14.3100 C   0  0  0  0  0
    5.9620    8.4510  -15.7970 C   0  0  0  0  0
   10.2620    8.6310  -14.1200 N   0  0  0  0  0
   11.4540    7.8440  -13.8460 C   0  0  0  0  0
   11.9710    8.1240  -12.4450 C   0  0  0  0  0
   11.9300    9.2620  -11.9790 O   0  0  0  0  0
   12.5250    8.1550  -14.9070 C   0  0  0  0  0
   12.2200    7.4080  -16.0790 O   0  0  0  0  0
   13.9540    7.8500  -14.4610 C   0  0  0  0  0
   12.4340    7.0750  -11.7760 N   0  0  0  0  0
   13.2050    7.2430  -10.5610 C   0  0  0  0  0
   14.5770    7.7920  -10.9170 C   0  0  0  0  0
   15.2300    7.2990  -11.8370 O   0  0  0  0  0
   13.3440    5.9080   -9.8350 C   0  0  0  0  0
   12.3170    5.6750   -8.7510 C   0  0  0  0  0
   12.8620    4.8780   -7.5710 C   0  0  0  0  0
   13.6250    3.9010   -7.7790 O   0  0  0  0  0
   12.5220    5.2380   -6.4250 O   0  0  0  0  0
   15.0270    8.8000  -10.1810 N   0  0  0  0  0
   16.3010    9.4540  -10.4510 C   0  0  0  0  0
   16.9730    9.7460   -9.1230 C   0  0  0  0  0
   16.4330   10.5050   -8.3160 O   0  0  0  0  0
   16.0910   10.7500  -11.2390 C   0  0  0  0  0
   17.3960   11.3940  -11.6740 C   0  0  0  0  0
   18.1410   11.9660  -10.8260 O   0  0  0  0  0
   17.6800   11.3250  -12.8870 O   0  0  0  0  0
   18.1360    9.1490   -8.8880 N   0  0  0  0  0
   18.8850    9.4380   -7.6750 C   0  0  0  0  0
   19.6290   10.7510   -7.8670 C   0  0  0  0  0
   20.4060   10.8940   -8.8110 O   0  0  0  0  0
   19.8470    8.2990   -7.3360 C   0  0  0  0  0
   20.3840    8.4010   -5.9150 C   0  0  0  0  0
   21.0460    9.4120   -5.6050 O   0  0  0  0  0
   20.1390    7.4920   -5.0930 O   0  0  0  0  0
   19.3890   11.7150   -6.9790 N   0  0  0  0  0
   20.0420   13.0150   -7.0930 C   0  0  0  0  0
   21.5390   12.9610   -6.8290 C   0  0  0  0  0
   22.2350   13.9220   -7.1640 O   0  0  0  0  0
   19.4010   14.0120   -6.1340 C   0  0  0  0  0
   19.7550   13.7980   -4.6700 C   0  0  0  0  0
   18.9740   14.7270   -3.7520 C   0  0  0  0  0
   18.9680   14.4960   -2.5250 O   0  0  0  0  0
   18.3690   15.6980   -4.2510 O   0  0  0  0  0
   22.0470   11.8780   -6.2400 N   0  0  0  0  0
   23.4710   11.7280   -5.9660 C   0  0  0  0  0
   24.2430   11.0800   -7.1050 C   0  0  0  0  0
   25.4790   11.0880   -7.0740 O   0  0  0  0  0
   23.6810   10.9010   -4.7050 C   0  0  0  0  0
   23.0590   11.5360   -3.5100 C   0  0  0  0  0
   23.0980   12.7570   -3.3560 O   0  0  0  0  0
   22.4490   10.7240   -2.6620 N   0  0  0  0  0
   23.5590   10.5060   -8.0940 N   0  0  0  0  0
   24.2210   10.0490   -9.3140 C   0  0  0  0  0
   24.4490   11.2330  -10.2560 C   0  0  0  0  0
   23.8750   11.3290  -11.3400 O   0  0  0  0  0
   23.4000    8.9580   -9.9840 C   0  0  0  0  0
   22.9450    7.8760   -9.0320 C   0  0  0  0  0
   23.8380    6.6560   -9.0690 C   0  0  0  0  0
   23.5080    5.7020   -9.8090 O   0  0  0  0  0
   24.8680    6.6490   -8.3550 O   0  0  0  0  0
   25.3030   12.1520   -9.8010 N   0  0  0  0  0
   25.6190   13.3830  -10.5310 C   0  0  0  0  0
   27.1160   13.4730  -10.8370 C   0  0  0  0  0
   27.5750   13.0300  -11.8940 O   0  0  0  0  0
   25.1700   14.6150   -9.7330 C   0  0  0  0  0
   27.8980   13.9910  -10.0340 O   0  0  0  0  0
    1.8942   10.6425  -21.4990 H   0  0  0  0  0
    1.7278   11.4767  -22.9319 H   0  0  0  0  0
    0.6050   10.3218  -22.5050 H   0  0  0  0  0
    2.1969    8.6014  -22.6671 H   0  0  0  0  0
    0.8628    9.4724  -24.6720 H   0  0  0  0  0
    2.3320    8.4886  -25.0150 H   0  0  0  0  0
    2.1914   10.3824  -26.3205 H   0  0  0  0  0
    3.6449   10.2624  -21.0780 H   0  0  0  0  0
    6.3202    9.5306  -22.1694 H   0  0  0  0  0
    6.0153   12.0722  -20.6324 H   0  0  0  0  0
    5.9694   12.0024  -22.4507 H   0  0  0  0  0
    8.1504   11.4023  -22.6050 H   0  0  0  0  0
    8.2022   10.7852  -20.8905 H   0  0  0  0  0
    7.9729   14.8171  -20.6302 H   0  0  0  0  0
    6.6162   13.7928  -21.1110 H   0  0  0  0  0
    7.4607    8.4137  -20.5488 H   0  0  0  0  0
    5.8021    7.9311  -18.1450 H   0  0  0  0  0
    7.5435    6.0878  -17.7391 H   0  0  0  0  0
    8.1472    6.4912  -19.3898 H   0  0  0  0  0
    6.6055    4.7807  -19.3865 H   0  0  0  0  0
    8.7874   10.0626  -15.5374 H   0  0  0  0  0
    6.8554   10.4970  -14.0935 H   0  0  0  0  0
    7.6941    9.3841  -13.1072 H   0  0  0  0  0
    5.2365    8.7236  -13.7804 H   0  0  0  0  0
    6.4240    7.4855  -13.9204 H   0  0  0  0  0
    5.5411    7.5146  -16.1633 H   0  0  0  0  0
    5.2355    9.1868  -16.1419 H   0  0  0  0  0
   10.2135    9.5862  -13.7655 H   0  0  0  0  0
   11.2065    6.7837  -13.8968 H   0  0  0  0  0
   12.4957    9.2292  -15.0896 H   0  0  0  0  0
   12.8787    7.5896  -16.7533 H   0  0  0  0  0
   14.1931    8.4452  -13.5797 H   0  0  0  0  0
   14.0396    6.7905  -14.2196 H   0  0  0  0  0
   14.6453    8.0974  -15.2666 H   0  0  0  0  0
   12.2437    6.1350  -12.1232 H   0  0  0  0  0
   12.6932    7.9413   -9.8988 H   0  0  0  0  0
   14.3220    5.9066   -9.3538 H   0  0  0  0  0
   13.2060    5.1239  -10.5794 H   0  0  0  0  0
   11.4990    5.1021   -9.1877 H   0  0  0  0  0
   12.0047    6.6497   -8.3760 H   0  0  0  0  0
   13.7580    3.7958   -8.7239 H   0  0  0  0  0
   14.4613    9.1288   -9.3985 H   0  0  0  0  0
   16.9301    8.8008  -11.0557 H   0  0  0  0  0
   15.5719   11.4547  -10.5894 H   0  0  0  0  0
   15.5241   10.5057  -12.1374 H   0  0  0  0  0
   17.7391   11.9054   -9.9563 H   0  0  0  0  0
   18.5073    8.4818   -9.5643 H   0  0  0  0  0
   18.1978    9.5298   -6.8339 H   0  0  0  0  0
   20.6922    8.3543   -8.0220 H   0  0  0  0  0
   19.3031    7.3586   -7.4256 H   0  0  0  0  0
   19.6208    6.8064   -5.5208 H   0  0  0  0  0
   18.7411   11.5422   -6.2104 H   0  0  0  0  0
   19.9056   13.3346   -8.1261 H   0  0  0  0  0
   18.3215   13.8896   -6.2219 H   0  0  0  0  0
   19.7686   15.0005   -6.4094 H   0  0  0  0  0
   20.8171   14.0071   -4.5424 H   0  0  0  0  0
   19.5059   12.7702   -4.4062 H   0  0  0  0  0
   19.4885   13.7095   -2.3460 H   0  0  0  0  0
   21.4143   11.1247   -5.9705 H   0  0  0  0  0
   23.8577   12.7392   -5.8392 H   0  0  0  0  0
   24.7532   10.8178   -4.5270 H   0  0  0  0  0
   23.2144    9.9274   -4.8548 H   0  0  0  0  0
   21.9838   11.1036   -1.8374 H   0  0  0  0  0
   22.4439    9.7184   -2.8328 H   0  0  0  0  0
   22.5511   10.3829   -7.9974 H   0  0  0  0  0
   25.1920    9.6242   -9.0593 H   0  0  0  0  0
   24.0324    8.4875  -10.7368 H   0  0  0  0  0
   22.5074    9.4270  -10.3979 H   0  0  0  0  0
   21.9428    7.5673   -9.3292 H   0  0  0  0  0
   22.9755    8.2836   -8.0215 H   0  0  0  0  0
   24.9266    7.4764   -7.8718 H   0  0  0  0  0
   25.7575   11.9900   -8.9023 H   0  0  0  0  0
   25.0762   13.3582  -11.4759 H   0  0  0  0  0
   24.0935   14.5675   -9.5690 H   0  0  0  0  0
   25.6848   14.6315   -8.7724 H   0  0  0  0  0
   25.4141   15.5178  -10.2930 H   0  0  0  0  0
   27.4112   14.2900   -9.2625 H   0  0  0  0  0
  1  2  1  0  0  0
  2  3  1  0  0  0
  2  5  1  0  0  0
  3  4  2  0  0  0
  3  7  1  0  0  0
  5  6  1  0  0  0
  7  8  1  0  0  0
  8  9  1  0  0  0
  8 11  1  0  0  0
  9 10  2  0  0  0
  9 16  1  0  0  0
 11 12  1  0  0  0
 12 13  1  0  0  0
 13 14  2  0  0  0
 13 15  1  0  0  0
 16 17  1  0  0  0
 17 18  1  0  0  0
 17 20  1  0  0  0
 18 19  2  0  0  0
 18 22  1  0  0  0
 20 21  1  0  0  0
 22 23  1  0  0  0
 22 28  1  0  0  0
 23 24  1  0  0  0
 23 26  1  0  0  0
 24 25  2  0  0  0
 24 29  1  0  0  0
 26 27  1  0  0  0
 27 28  1  0  0  0
 29 30  1  0  0  0
 30 31  1  0  0  0
 30 33  1  0  0  0
 31 32  2  0  0  0
 31 36  1  0  0  0
 33 34  1  0  0  0
 33 35  1  0  0  0
 36 37  1  0  0  0
 37 38  1  0  0  0
 37 40  1  0  0  0
 38 39  2  0  0  0
 38 45  1  0  0  0
 40 41  1  0  0  0
 41 42  1  0  0  0
 42 43  1  0  0  0
 42 44  2  0  0  0
 45 46  1  0  0  0
 46 47  1  0  0  0
 46 49  1  0  0  0
 47 48  2  0  0  0
 47 53  1  0  0  0
 49 50  1  0  0  0
 50 51  1  0  0  0
 50 52  2  0  0  0
 53 54  1  0  0  0
 54 55  1  0  0  0
 54 57  1  0  0  0
 55 56  2  0  0  0
 55 61  1  0  0  0
 57 58  1  0  0  0
 58 59  2  0  0  0
 58 60  1  0  0  0
 61 62  1  0  0  0
 62 63  1  0  0  0
 62 65  1  0  0  0
 63 64  2  0  0  0
 63 70  1  0  0  0
 65 66  1  0  0  0
 66 67  1  0  0  0
 67 68  1  0  0  0
 67 69  2  0  0  0
 70 71  1  0  0  0
 71 72  1  0  0  0
 71 74  1  0  0  0
 72 73  2  0  0  0
 72 78  1  0  0  0
 74 75  1  0  0  0
 75 76  2  0  0  0
 75 77  1  0  0  0
 78 79  1  0  0  0
 79 80  1  0  0  0
 79 82  1  0  0  0
 80 81  2  0  0  0
 80 87  1  0  0  0
 82 83  1  0  0  0
 83 84  1  0  0  0
 84 85  2  0  0  0
 84 86  1  0  0  0
 87 88  1  0  0  0
 88 89  1  0  0  0
 88 91  1  0  0  0
 89 90  2  0  0  0
 89 92  1  0  0  0
  1 93  1  0  0  0
  1 94  1  0  0  0
  1 95  1  0  0  0
  2 96  1  0  0  0
  5 97  1  0  0  0
  5 98  1  0  0  0
  6 99  1  0  0  0
  7100  1  0  0  0
  8101  1  0  0  0
 11102  1  0  0  0
 11103  1  0  0  0
 12104  1  0  0  0
 12105  1  0  0  0
 15106  1  0  0  0
 15107  1  0  0  0
 16108  1  0  0  0
 17109  1  0  0  0
 20110  1  0  0  0
 20111  1  0  0  0
 21112  1  0  0  0
 23113  1  0  0  0
 26114  1  0  0  0
 26115  1  0  0  0
 27116  1  0  0  0
 27117  1  0  0  0
 28118  1  0  0  0
 28119  1  0  0  0
 29120  1  0  0  0
 30121  1  0  0  0
 33122  1  0  0  0
 34123  1  0  0  0
 35124  1  0  0  0
 35125  1  0  0  0
 35126  1  0  0  0
 36127  1  0  0  0
 37128  1  0  0  0
 40129  1  0  0  0
 40130  1  0  0  0
 41131  1  0  0  0
 41132  1  0  0  0
 43133  1  0  0  0
 45134  1  0  0  0
 46135  1  0  0  0
 49136  1  0  0  0
 49137  1  0  0  0
 51138  1  0  0  0
 53139  1  0  0  0
 54140  1  0  0  0
 57141  1  0  0  0
 57142  1  0  0  0
 60143  1  0  0  0
 61144  1  0  0  0
 62145  1  0  0  0
 65146  1  0  0  0
 65147  1  0  0  0
 66148  1  0  0  0
 66149  1  0  0  0
 68150  1  0  0  0
 70151  1  0  0  0
 71152  1  0  0  0
 74153  1  0  0  0
 74154  1  0  0  0
 77155  1  0  0  0
 77156  1  0  0  0
 78157  1  0  0  0
 79158  1  0  0  0
 82159  1  0  0  0
 82160  1  0  0  0
 83161  1  0  0  0
 83162  1  0  0  0
 86163  1  0  0  0
 87164  1  0  0  0
 88165  1  0  0  0
 91166  1  0  0  0
 91167  1  0  0  0
 91168  1  0  0  0
 92169  1  0  0  0
M  END
$$$$
