### 
### Created by X-TOOL on Wed Jan  1 15:39:37 2020
### 

@<TRIPOS>MOLECULE
5zuj_ligand
  163   163     1     0     0
SMALL
GAST_HUCK


@<TRIPOS>ATOM
      1 N           1.5920   10.5770  -22.4710 N.4       1 SER         0.2396
      2 CA          2.3790    9.5590  -23.1550 C.3       1 SER         0.0885
      3 C           3.8740    9.8790  -23.0520 C.2       1 SER         0.2290
      4 O           4.5820    9.9530  -24.0610 O.2       1 SER        -0.3906
      5 CB          1.9510    9.4320  -24.6240 C.3       1 SER         0.1041
      6 OG          2.4760   10.4900  -25.4100 O.3       1 SER        -0.3870
      7 N           4.3280   10.1010  -21.8180 N.am      1 GLN        -0.2608
      8 CA          5.7440   10.1270  -21.4620 C.3       1 GLN         0.1331
      9 C           5.8460    9.5700  -20.0510 C.2       1 GLN         0.2041
     10 O           5.0680    9.9720  -19.1830 O.2       1 GLN        -0.3944
     11 CB          6.3290   11.5410  -21.5310 C.3       1 GLN         0.0045
     12 CG          7.8470   11.5600  -21.5700 C.3       1 GLN         0.0412
     13 CD          8.4510   12.8860  -21.1110 C.2       1 GLN         0.1737
     14 OE1         9.6610   12.9790  -20.9150 O.2       1 GLN        -0.3973
     15 NE2         7.6140   13.9130  -20.9370 N.am      1 GLN        -0.3009
     16 N           6.7770    8.6350  -19.8250 N.am      1 SER        -0.2616
     17 CA          6.8180    7.9270  -18.5400 C.3       1 SER         0.1541
     18 C           7.7480    8.6250  -17.5540 C.2       1 SER         0.2087
     19 O           8.8330    9.0830  -17.9380 O.2       1 SER        -0.3941
     20 CB          7.2880    6.4910  -18.7190 C.3       1 SER         0.0843
     21 OG          6.2760    5.6770  -19.2880 O.3       1 SER        -0.3903
     22 N           7.3220    8.7060  -16.2960 N.am      1 PRO        -0.2498
     23 CA          8.2030    9.1950  -15.2310 C.3       1 PRO         0.1338
     24 C           9.2320    8.1540  -14.8150 C.2       1 PRO         0.2042
     25 O           9.0830    6.9580  -15.0550 O.2       1 PRO        -0.3944
     26 CB          7.2290    9.4730  -14.0890 C.3       1 PRO        -0.0104
     27 CG          6.1540    8.4670  -14.3100 C.3       1 PRO        -0.0281
     28 CD          5.9620    8.4510  -15.7970 C.3       1 PRO         0.0369
     29 N          10.2620    8.6310  -14.1200 N.am      1 THR        -0.2613
     30 CA         11.4540    7.8440  -13.8460 C.3       1 THR         0.1565
     31 C          11.9710    8.1240  -12.4450 C.2       1 THR         0.2065
     32 O          11.9300    9.2620  -11.9790 O.2       1 THR        -0.3943
     33 CB         12.5250    8.1550  -14.9070 C.3       1 THR         0.0924
     34 OG1        12.2200    7.4080  -16.0790 O.3       1 THR        -0.3874
     35 CG2        13.9540    7.8500  -14.4610 C.3       1 THR        -0.0346
     36 N          12.4340    7.0750  -11.7760 N.am      1 GLU        -0.2635
     37 CA         13.2050    7.2430  -10.5610 C.3       1 GLU         0.1325
     38 C          14.5770    7.7920  -10.9170 C.2       1 GLU         0.2041
     39 O          15.2300    7.2990  -11.8370 O.2       1 GLU        -0.3944
     40 CB         13.3440    5.9080   -9.8350 C.3       1 GLU        -0.0008
     41 CG         12.3170    5.6750   -8.7510 C.3       1 GLU         0.0044
     42 CD         12.8620    4.8780   -7.5710 C.2       1 GLU         0.0350
     43 OE1        13.6250    3.9010   -7.7790 O.co2     1 GLU        -0.5690
     44 OE2        12.5220    5.2380   -6.4250 O.co2     1 GLU        -0.5690
     45 N          15.0270    8.8000  -10.1810 N.am      1 ASP        -0.2622
     46 CA         16.3010    9.4540  -10.4510 C.3       1 ASP         0.1423
     47 C          16.9730    9.7460   -9.1230 C.2       1 ASP         0.2057
     48 O          16.4330   10.5050   -8.3160 O.2       1 ASP        -0.3943
     49 CB         16.0910   10.7500  -11.2390 C.3       1 ASP         0.0406
     50 CG         17.3960   11.3940  -11.6740 C.2       1 ASP         0.0393
     51 OD1        18.1410   11.9660  -10.8260 O.co2     1 ASP        -0.5688
     52 OD2        17.6800   11.3250  -12.8870 O.co2     1 ASP        -0.5688
     53 N          18.1360    9.1490   -8.8880 N.am      1 ASP        -0.2621
     54 CA         18.8850    9.4380   -7.6750 C.3       1 ASP         0.1423
     55 C          19.6290   10.7510   -7.8670 C.2       1 ASP         0.2056
     56 O          20.4060   10.8940   -8.8110 O.2       1 ASP        -0.3943
     57 CB         19.8470    8.2990   -7.3360 C.3       1 ASP         0.0406
     58 CG         20.3840    8.4010   -5.9150 C.2       1 ASP         0.0393
     59 OD1        21.0460    9.4120   -5.6050 O.co2     1 ASP        -0.5688
     60 OD2        20.1390    7.4920   -5.0930 O.co2     1 ASP        -0.5688
     61 N          19.3890   11.7150   -6.9790 N.am      1 GLU        -0.2635
     62 CA         20.0420   13.0150   -7.0930 C.3       1 GLU         0.1325
     63 C          21.5390   12.9610   -6.8290 C.2       1 GLU         0.2041
     64 O          22.2350   13.9220   -7.1640 O.2       1 GLU        -0.3944
     65 CB         19.4010   14.0120   -6.1340 C.3       1 GLU        -0.0008
     66 CG         19.7550   13.7980   -4.6700 C.3       1 GLU         0.0044
     67 CD         18.9740   14.7270   -3.7520 C.2       1 GLU         0.0350
     68 OE1        18.9680   14.4960   -2.5250 O.co2     1 GLU        -0.5690
     69 OE2        18.3690   15.6980   -4.2510 O.co2     1 GLU        -0.5690
     70 N          22.0470   11.8780   -6.2400 N.am      1 ASN        -0.2616
     71 CA         23.4710   11.7280   -5.9660 C.3       1 ASN         0.1476
     72 C          24.2430   11.0800   -7.1050 C.2       1 ASN         0.2063
     73 O          25.4790   11.0880   -7.0740 O.2       1 ASN        -0.3942
     74 CB         23.6810   10.9010   -4.7050 C.3       1 ASN         0.0773
     75 CG         23.0590   11.5360   -3.5100 C.2       1 ASN         0.1780
     76 OD1        23.0980   12.7570   -3.3560 O.2       1 ASN        -0.3970
     77 ND2        22.4490   10.7240   -2.6620 N.am      1 ASN        -0.3007
     78 N          23.5590   10.5060   -8.0940 N.am      1 GLU        -0.2635
     79 CA         24.2210   10.0490   -9.3140 C.3       1 GLU         0.1324
     80 C          24.4490   11.2330  -10.2560 C.2       1 GLU         0.2034
     81 O          23.8750   11.3290  -11.3400 O.2       1 GLU        -0.3944
     82 CB         23.4000    8.9580   -9.9840 C.3       1 GLU        -0.0008
     83 CG         22.9450    7.8760   -9.0320 C.3       1 GLU         0.0044
     84 CD         23.8380    6.6560   -9.0690 C.2       1 GLU         0.0350
     85 OE1        23.5080    5.7020   -9.8090 O.co2     1 GLU        -0.5690
     86 OE2        24.8680    6.6490   -8.3550 O.co2     1 GLU        -0.5690
     87 N          25.3030   12.1520   -9.8010 N.am      1 SER        -0.2698
     88 CA         25.6190   13.3830  -10.5310 C.3       1 SER         0.0916
     89 C          27.1160   13.4730  -10.8370 C.2       1 SER         0.0598
     90 O          27.5750   13.0300  -11.8940 O.co2     1 SER        -0.5666
     91 CB         25.1700   14.6150   -9.7330 C.3       1 SER        -0.0300
     92 OXT        27.8980   13.9910  -10.0340 O.co2     1 SER        -0.5666
     93 H1          0.6124   10.3523  -22.5479 H         1 SER         0.2016
     94 H2          1.7647   11.4756  -22.8938 H         1 SER         0.2016
     95 H3          1.8544   10.6073  -21.4982 H         1 SER         0.2016
     96 H4          2.1980    8.5935  -22.6599 H         1 SER         0.1122
     97 H5          0.8527    9.4557  -24.6800 H         1 SER         0.0640
     98 H6          2.3179    8.4745  -25.0221 H         1 SER         0.0640
     99 H7          3.4250   10.4723  -25.3695 H         1 SER         0.2099
    100 H8          3.6583   10.2593  -21.0925 H         1 GLN         0.1885
    101 H9          6.3055    9.4827  -22.1545 H         1 GLN         0.0801
    102 H10         5.9952   12.1009  -20.6450 H         1 GLN         0.0337
    103 H11         5.9500   12.0321  -22.4394 H         1 GLN         0.0337
    104 H12         8.1713   11.3688  -22.6035 H         1 GLN         0.0504
    105 H13         8.2223   10.7607  -20.9141 H         1 GLN         0.0504
    106 H14         7.9660   14.7997  -20.6373 H         1 GLN         0.1814
    107 H15         6.6356   13.7949  -21.1065 H         1 GLN         0.1814
    108 H16         7.4473    8.4180  -20.5346 H         1 SER         0.1884
    109 H17         5.8014    7.9166  -18.1200 H         1 SER         0.0823
    110 H18         7.5652    6.0811  -17.7366 H         1 SER         0.0606
    111 H19         8.1665    6.4829  -19.3809 H         1 SER         0.0606
    112 H20         5.5153    5.6752  -18.7189 H         1 SER         0.2097
    113 H21         8.7212   10.1137  -15.5431 H         1 PRO         0.0802
    114 H22         6.8306   10.4965  -14.1500 H         1 PRO         0.0313
    115 H23         7.7131    9.3255  -13.1123 H         1 PRO         0.0313
    116 H24         5.2270    8.7689  -13.8006 H         1 PRO         0.0287
    117 H25         6.4662    7.4768  -13.9467 H         1 PRO         0.0287
    118 H26         5.5895    7.4742  -16.1392 H         1 PRO         0.0524
    119 H27         5.2666    9.2411  -16.1166 H         1 PRO         0.0524
    120 H28        10.2144    9.5675  -13.7725 H         1 THR         0.1884
    121 H29        11.1948    6.7770  -13.9120 H         1 THR         0.0826
    122 H30        12.4691    9.2280  -15.1429 H         1 THR         0.0639
    123 H31        12.8719    7.5877  -16.7463 H         1 THR         0.2101
    124 H32        14.6527    8.0993  -15.2732 H         1 THR         0.0257
    125 H33        14.0418    6.7810  -14.2171 H         1 THR         0.0257
    126 H34        14.1965    8.4501  -13.5716 H         1 THR         0.0257
    127 H35        12.2475    6.1534  -12.1164 H         1 GLU         0.1883
    128 H36        12.6897    7.9566   -9.9013 H         1 GLU         0.0801
    129 H37        14.3429    5.8686   -9.3762 H         1 GLU         0.0330
    130 H38        13.2493    5.1016  -10.5772 H         1 GLU         0.0330
    131 H39        11.4697    5.1233   -9.1844 H         1 GLU         0.0433
    132 H40        11.9690    6.6514   -8.3829 H         1 GLU         0.0433
    133 H41        14.4724    9.1224   -9.4139 H         1 ASP         0.1884
    134 H42        16.9379    8.7788  -11.0413 H         1 ASP         0.0819
    135 H43        15.5425   11.4618  -10.6046 H         1 ASP         0.0478
    136 H44        15.4953   10.5233  -12.1355 H         1 ASP         0.0478
    137 H45        18.5000    8.4949   -9.5510 H         1 ASP         0.1884
    138 H46        18.1776    9.5511   -6.8403 H         1 ASP         0.0819
    139 H47        20.6938    8.3304   -8.0374 H         1 ASP         0.0478
    140 H48        19.3153    7.3423   -7.4455 H         1 ASP         0.0478
    141 H49        18.7538   11.5456   -6.2254 H         1 GLU         0.1883
    142 H50        19.8930   13.3748   -8.1218 H         1 GLU         0.0801
    143 H51        18.3087   13.9347   -6.2379 H         1 GLU         0.0330
    144 H52        19.7261   15.0227   -6.4216 H         1 GLU         0.0330
    145 H53        20.8302   13.9858   -4.5337 H         1 GLU         0.0433
    146 H54        19.5273   12.7567   -4.3983 H         1 GLU         0.0433
    147 H55        21.4267   11.1395   -5.9758 H         1 ASN         0.1885
    148 H56        23.8873   12.7328   -5.8013 H         1 ASN         0.0826
    149 H57        24.7611   10.7925   -4.5274 H         1 ASN         0.0551
    150 H58        23.2322    9.9077   -4.8531 H         1 ASN         0.0551
    151 H59        22.0131   11.0937   -1.8415 H         1 ASN         0.1814
    152 H60        22.4239    9.7406   -2.8416 H         1 ASN         0.1814
    153 H61        22.5708   10.3853   -7.9993 H         1 GLU         0.1883
    154 H62        25.2004    9.6270   -9.0442 H         1 GLU         0.0801
    155 H63        24.0131    8.4943  -10.7708 H         1 GLU         0.0330
    156 H64        22.5104    9.4200  -10.4369 H         1 GLU         0.0330
    157 H65        21.9234    7.5732   -9.3050 H         1 GLU         0.0433
    158 H66        22.9462    8.2826   -8.0099 H         1 GLU         0.0433
    159 H67        25.7486   11.9932   -8.9200 H         1 SER         0.1875
    160 H68        25.0711   13.3678  -11.4847 H         1 SER         0.0723
    161 H69        25.4158   15.5268  -10.2971 H         1 SER         0.0270
    162 H70        25.6889   14.6328   -8.7632 H         1 SER         0.0270
    163 H71        24.0836   14.5683   -9.5669 H         1 SER         0.0270
@<TRIPOS>BOND
     1    1    2 1  
     2    2    3 1  
     3    2    5 1  
     4    3    4 2  
     5    3    7 am 
     6    5    6 1  
     7    7    8 1  
     8    8    9 1  
     9    8   11 1  
    10    9   10 2  
    11    9   16 am 
    12   11   12 1  
    13   12   13 1  
    14   13   14 2  
    15   13   15 am 
    16   16   17 1  
    17   17   18 1  
    18   17   20 1  
    19   18   19 2  
    20   18   22 am 
    21   20   21 1  
    22   22   23 1  
    23   22   28 1  
    24   23   24 1  
    25   23   26 1  
    26   24   25 2  
    27   24   29 am 
    28   26   27 1  
    29   27   28 1  
    30   29   30 1  
    31   30   31 1  
    32   30   33 1  
    33   31   32 2  
    34   31   36 am 
    35   33   34 1  
    36   33   35 1  
    37   36   37 1  
    38   37   38 1  
    39   37   40 1  
    40   38   39 2  
    41   38   45 am 
    42   40   41 1  
    43   41   42 1  
    44   42   43 ar 
    45   42   44 ar 
    46   45   46 1  
    47   46   47 1  
    48   46   49 1  
    49   47   48 2  
    50   47   53 am 
    51   49   50 1  
    52   50   51 ar 
    53   50   52 ar 
    54   53   54 1  
    55   54   55 1  
    56   54   57 1  
    57   55   56 2  
    58   55   61 am 
    59   57   58 1  
    60   58   59 ar 
    61   58   60 ar 
    62   61   62 1  
    63   62   63 1  
    64   62   65 1  
    65   63   64 2  
    66   63   70 am 
    67   65   66 1  
    68   66   67 1  
    69   67   68 ar 
    70   67   69 ar 
    71   70   71 1  
    72   71   72 1  
    73   71   74 1  
    74   72   73 2  
    75   72   78 am 
    76   74   75 1  
    77   75   76 2  
    78   75   77 am 
    79   78   79 1  
    80   79   80 1  
    81   79   82 1  
    82   80   81 2  
    83   80   87 am 
    84   82   83 1  
    85   83   84 1  
    86   84   85 ar 
    87   84   86 ar 
    88   87   88 1  
    89   88   89 1  
    90   88   91 1  
    91   89   90 ar 
    92   89   92 ar 
    93    1   93 1  
    94    1   94 1  
    95    1   95 1  
    96    2   96 1  
    97    5   97 1  
    98    5   98 1  
    99    6   99 1  
   100    7  100 1  
   101    8  101 1  
   102   11  102 1  
   103   11  103 1  
   104   12  104 1  
   105   12  105 1  
   106   15  106 1  
   107   15  107 1  
   108   16  108 1  
   109   17  109 1  
   110   20  110 1  
   111   20  111 1  
   112   21  112 1  
   113   23  113 1  
   114   26  114 1  
   115   26  115 1  
   116   27  116 1  
   117   27  117 1  
   118   28  118 1  
   119   28  119 1  
   120   29  120 1  
   121   30  121 1  
   122   33  122 1  
   123   34  123 1  
   124   35  124 1  
   125   35  125 1  
   126   35  126 1  
   127   36  127 1  
   128   37  128 1  
   129   40  129 1  
   130   40  130 1  
   131   41  131 1  
   132   41  132 1  
   133   45  133 1  
   134   46  134 1  
   135   49  135 1  
   136   49  136 1  
   137   53  137 1  
   138   54  138 1  
   139   57  139 1  
   140   57  140 1  
   141   61  141 1  
   142   62  142 1  
   143   65  143 1  
   144   65  144 1  
   145   66  145 1  
   146   66  146 1  
   147   70  147 1  
   148   71  148 1  
   149   74  149 1  
   150   74  150 1  
   151   77  151 1  
   152   77  152 1  
   153   78  153 1  
   154   79  154 1  
   155   82  155 1  
   156   82  156 1  
   157   83  157 1  
   158   83  158 1  
   159   87  159 1  
   160   88  160 1  
   161   91  161 1  
   162   91  162 1  
   163   91  163 1  
@<TRIPOS>SUBSTRUCTURE
     1 SER         1

