### 
### Created by X-TOOL on Mon Sep 10 21:12:51 2018
### 

@<TRIPOS>MOLECULE
1ppx_ligand
   36    38     1     0     0
SMALL
GAST_HUCK


@<TRIPOS>ATOM
      1 O3P        -8.5000   -3.9720   -7.0250 O.co2     1 8OG        -0.5537
      2 P          -7.9180   -5.0660   -5.9970 P.3       1 8OG         0.2008
      3 O1P        -6.5520   -5.4370   -6.4290 O.co2     1 8OG        -0.5537
      4 O2P        -8.9340   -6.1300   -5.8350 O.co2     1 8OG        -0.5537
      5 O5         -7.8150   -4.2240   -4.6290 O.3       1 8OG        -0.2734
      6 C5         -6.9920   -4.6780   -3.5510 C.3       1 8OG         0.1071
      7 C4         -7.6710   -5.7800   -2.7340 C.3       1 8OG         0.1155
      8 O4         -8.9150   -5.5010   -2.0830 O.3       1 8OG        -0.3405
      9 C3         -8.0000   -7.0280   -3.5550 C.3       1 8OG         0.0888
     10 O3         -7.2520   -8.1620   -3.1070 O.3       1 8OG        -0.3890
     11 C2         -9.5080   -7.2650   -3.4280 C.3       1 8OG         0.0297
     12 C1        -10.0990   -6.1740   -2.5290 C.3       1 8OG         0.1711
     13 N9        -11.3400   -5.5210   -3.0030 N.am      1 8OG        -0.1800
     14 C8        -11.4120   -4.9220   -4.2330 C.2       1 8OG         0.3009
     15 N7        -12.6900   -4.4330   -4.3020 N.am      1 8OG        -0.2392
     16 C5        -13.3930   -4.7140   -3.1610 C.2       1 8OG         0.1376
     17 C6        -14.6490   -4.4680   -2.7250 C.2       1 8OG         0.2169
     18 O6        -15.4470   -3.8260   -3.4930 O.2       1 8OG        -0.4208
     19 N1        -15.1140   -4.8820   -1.4820 N.am      1 8OG        -0.1896
     20 C2        -14.2440   -5.5670   -0.6760 C.2       1 8OG         0.2257
     21 N2        -14.6960   -5.9660    0.5210 N.pl3     1 8OG        -0.2848
     22 N3        -12.9260   -5.8730   -1.0330 N.2       1 8OG        -0.2899
     23 C4        -12.5460   -5.4080   -2.3210 C.2       1 8OG         0.1142
     24 O8        -10.4910   -4.8330   -5.1170 O.2       1 8OG        -0.4065
     25 H1         -6.7746   -3.8276   -2.8880 H         1 8OG         0.0639
     26 H2         -6.0512   -5.0710   -3.9639 H         1 8OG         0.0639
     27 H3         -6.9455   -6.0538   -1.9539 H         1 8OG         0.0649
     28 H4         -7.7502   -6.8434   -4.6102 H         1 8OG         0.0622
     29 H5         -7.4785   -8.9183   -3.6355 H         1 8OG         0.2099
     30 H6         -9.6917   -8.2533   -2.9813 H         1 8OG         0.0343
     31 H7         -9.9756   -7.2194   -4.4226 H         1 8OG         0.0343
     32 H8        -10.4625   -6.6923   -1.6294 H         1 8OG         0.0946
     33 H9        -13.0618   -3.9347   -5.0853 H         1 8OG         0.2143
     34 H10       -16.0494   -4.6868   -1.1872 H         1 8OG         0.2492
     35 H11       -14.0755   -6.4842    1.1592 H         1 8OG         0.1875
     36 H12       -15.6639   -5.7545    0.8027 H         1 8OG         0.1875
@<TRIPOS>BOND
     1    1    2 ar 
     2    2    3 ar 
     3    2    4 ar 
     4    2    5 1  
     5    5    6 1  
     6    6    7 1  
     7    6   25 1  
     8    6   26 1  
     9    7    8 1  
    10    7    9 1  
    11    7   27 1  
    12    8   12 1  
    13    9   10 1  
    14    9   11 1  
    15    9   28 1  
    16   10   29 1  
    17   11   12 1  
    18   11   30 1  
    19   11   31 1  
    20   12   13 1  
    21   12   32 1  
    22   13   14 am 
    23   13   23 am 
    24   14   15 am 
    25   14   24 2  
    26   15   16 am 
    27   15   33 1  
    28   16   17 1  
    29   16   23 2  
    30   17   18 2  
    31   17   19 am 
    32   19   20 am 
    33   19   34 1  
    34   20   21 1  
    35   20   22 2  
    36   21   35 1  
    37   21   36 1  
    38   22   23 1  
@<TRIPOS>SUBSTRUCTURE
     1 8OG         1

