1ppx_ligand
  -I-interpret- 

 38 40  0  0  0  0  0  0  0  0999 V2000
   -8.5000   -3.9720   -7.0250 O   0  0  0  0  0
   -7.9180   -5.0660   -5.9970 P   0  0  0  0  0
   -6.5520   -5.4370   -6.4290 O   0  0  0  0  0
   -8.9340   -6.1300   -5.8350 O   0  0  0  0  0
   -7.8150   -4.2240   -4.6290 O   0  0  0  0  0
   -6.9920   -4.6780   -3.5510 C   0  0  0  0  0
   -7.6710   -5.7800   -2.7340 C   0  0  0  0  0
   -8.9150   -5.5010   -2.0830 O   0  0  0  0  0
   -8.0000   -7.0280   -3.5550 C   0  0  0  0  0
   -7.2520   -8.1620   -3.1070 O   0  0  0  0  0
   -9.5080   -7.2650   -3.4280 C   0  0  0  0  0
  -10.0990   -6.1740   -2.5290 C   0  0  0  0  0
  -11.3400   -5.5210   -3.0030 N   0  0  0  0  0
  -11.4120   -4.9220   -4.2330 C   0  0  0  0  0
  -12.6900   -4.4330   -4.3020 N   0  0  0  0  0
  -13.3930   -4.7140   -3.1610 C   0  0  0  0  0
  -14.6490   -4.4680   -2.7250 C   0  0  0  0  0
  -15.4470   -3.8260   -3.4930 O   0  0  0  0  0
  -15.1140   -4.8820   -1.4820 N   0  0  0  0  0
  -14.2440   -5.5670   -0.6760 C   0  0  0  0  0
  -14.6960   -5.9660    0.5210 N   0  0  0  0  0
  -12.9260   -5.8730   -1.0330 N   0  0  0  0  0
  -12.5460   -5.4080   -2.3210 C   0  0  0  0  0
  -10.4910   -4.8330   -5.1170 O   0  0  0  0  0
   -9.3870   -3.7220   -6.7562 H   0  0  0  0  0
   -9.7638   -5.7383   -5.5528 H   0  0  0  0  0
   -6.8007   -3.8329   -2.8897 H   0  0  0  0  0
   -6.0726   -5.0843   -3.9725 H   0  0  0  0  0
   -6.8900   -5.9007   -1.9833 H   0  0  0  0  0
   -7.7241   -6.8807   -4.5992 H   0  0  0  0  0
   -7.4809   -8.9262   -3.6410 H   0  0  0  0  0
   -9.6945   -8.2467   -2.9926 H   0  0  0  0  0
   -9.9742   -7.2281   -4.4126 H   0  0  0  0  0
  -10.6562   -6.4705   -1.6403 H   0  0  0  0  0
  -13.0692   -3.9248   -5.1009 H   0  0  0  0  0
  -16.0681   -4.6829   -1.1813 H   0  0  0  0  0
  -14.0826   -6.4821    1.1516 H   0  0  0  0  0
  -15.6534   -5.7536    0.8013 H   0  0  0  0  0
  1  2  1  0  0  0
  2  3  2  0  0  0
  2  4  1  0  0  0
  2  5  1  0  0  0
  5  6  1  0  0  0
  6  7  1  0  0  0
  7  8  1  0  0  0
  7  9  1  0  0  0
  8 12  1  0  0  0
  9 10  1  0  0  0
  9 11  1  0  0  0
 11 12  1  0  0  0
 12 13  1  0  0  0
 13 14  1  0  0  0
 13 23  1  0  0  0
 14 15  1  0  0  0
 14 24  2  0  0  0
 15 16  1  0  0  0
 16 17  1  0  0  0
 16 23  2  0  0  0
 17 18  2  0  0  0
 17 19  1  0  0  0
 19 20  1  0  0  0
 20 21  1  0  0  0
 20 22  2  0  0  0
 22 23  1  0  0  0
  1 25  1  0  0  0
  4 26  1  0  0  0
  6 27  1  0  0  0
  6 28  1  0  0  0
  7 29  1  0  0  0
  9 30  1  0  0  0
 10 31  1  0  0  0
 11 32  1  0  0  0
 11 33  1  0  0  0
 12 34  1  0  0  0
 15 35  1  0  0  0
 19 36  1  0  0  0
 21 37  1  0  0  0
 21 38  1  0  0  0
M  END
$$$$
