4qls_ligand
  -I-interpret- 

 93 95  0  0  0  0  0  0  0  0999 V2000
    7.7580 -136.0950   19.5040 C   0  0  0  0  0
    7.2800 -136.9750   18.7910 O   0  0  0  0  0
    6.9900 -134.8510   19.9560 C   0  0  0  0  0
    5.6430 -134.7360   19.4340 N   0  3  0  0  0
    3.2230 -134.6790   18.2430 O   0  0  0  0  0
    5.5630 -134.3850   18.0110 C   0  0  0  0  0
    4.6750 -135.7910   19.7980 C   0  0  0  0  0
    4.2420 -133.7260   17.7820 C   0  0  0  0  0
    3.3630 -135.1030   19.6370 C   0  0  0  0  0
    9.0010 -136.0990   20.0120 N   0  0  0  0  0
    9.9800 -137.1560   19.7720 C   0  0  0  0  0
   10.8560 -137.2810   21.0230 C   0  0  0  0  0
   10.8710 -136.7640   18.5970 C   0  0  0  0  0
   11.4300 -135.6680   18.5870 O   0  0  0  0  0
   11.0210 -137.6980   17.6470 N   0  0  0  0  0
   11.8900 -137.4750   16.4790 C   0  0  0  0  0
   12.9500 -138.5640   16.4130 C   0  0  0  0  0
   13.8800 -138.3260   17.4530 C   0  0  0  0  0
   15.1320 -137.7620   17.1870 C   0  0  0  0  0
   16.0450 -137.5360   18.2180 C   0  0  0  0  0
   15.7310 -137.8790   19.5350 C   0  0  0  0  0
   16.6570 -137.6300   20.5200 O   0  0  0  0  0
   16.7870 -138.5560   21.6210 C   0  0  0  0  0
   14.4790 -138.4390   19.8040 C   0  0  0  0  0
   13.5720 -138.6680   18.7720 C   0  0  0  0  0
   11.0260 -137.4970   15.2100 C   0  0  0  0  0
    9.8830 -137.9470   15.2400 O   0  0  0  0  0
   11.6110 -136.9780   14.1170 N   0  0  0  0  0
   10.9260 -136.9050   12.8190 C   0  0  0  0  0
   10.8740 -135.4700   12.3180 C   0  0  0  0  0
   10.0620 -134.5070   13.2210 C   0  0  0  0  0
    9.9500 -133.2560   12.4220 C   0  0  0  0  0
    9.3590 -132.1810   13.3160 C   0  0  0  0  0
    7.9350 -132.5290   13.6810 C   0  0  0  0  0
    7.8690 -133.9150   14.3370 C   0  0  0  0  0
    8.6360 -134.9850   13.5270 C   0  0  0  0  0
   11.7000 -137.6960   11.7300 C   0  0  0  0  0
   13.0900 -137.3260   11.8020 O   0  0  0  0  0
   11.5630 -139.2930   11.7480 C   0  0  0  0  0
   10.1340 -139.7050   12.1990 C   0  0  0  0  0
   12.4730 -139.7880   12.8960 C   0  0  0  0  0
   13.5330 -140.5300   12.2770 O   0  0  0  0  0
    7.5444 -133.9885   19.5860 H   0  0  0  0  0
    6.9017 -134.9138   21.0406 H   0  0  0  0  0
    5.3219 -133.9260   19.9642 H   0  0  0  0  0
    5.6544 -135.2784   17.3933 H   0  0  0  0  0
    6.3760 -133.7118   17.7391 H   0  0  0  0  0
    4.8297 -136.1806   20.8042 H   0  0  0  0  0
    4.7658 -136.6830   19.1782 H   0  0  0  0  0
    4.1734 -132.7838   18.3257 H   0  0  0  0  0
    4.1026 -133.4804   16.7292 H   0  0  0  0  0
    2.5533 -135.7838   19.8999 H   0  0  0  0  0
    3.3172 -134.2347   20.2944 H   0  0  0  0  0
    9.2788 -135.3150   20.6023 H   0  0  0  0  0
    9.4729 -138.0954   19.5519 H   0  0  0  0  0
   11.3615 -136.3330   21.2073 H   0  0  0  0  0
   10.2305 -137.5331   21.8793 H   0  0  0  0  0
   11.5970 -138.0654   20.8692 H   0  0  0  0  0
   10.5219 -138.5832   17.7351 H   0  0  0  0  0
   12.3892 -136.5097   16.5631 H   0  0  0  0  0
   13.4515 -138.5458   15.4454 H   0  0  0  0  0
   12.4918 -139.5458   16.5324 H   0  0  0  0  0
   15.3974 -137.4962   16.1637 H   0  0  0  0  0
   17.0126 -137.0874   17.9932 H   0  0  0  0  0
   15.8378 -138.6218   22.1528 H   0  0  0  0  0
   17.0587 -139.5393   21.2370 H   0  0  0  0  0
   17.5623 -138.2033   22.3011 H   0  0  0  0  0
   14.2106 -138.6982   20.8281 H   0  0  0  0  0
   12.6066 -139.1212   18.9971 H   0  0  0  0  0
   12.5641 -136.6222   14.1911 H   0  0  0  0  0
    9.9292 -137.3168   12.9770 H   0  0  0  0  0
   10.3824 -135.4879   11.3453 H   0  0  0  0  0
   11.8994 -135.1008   12.2966 H   0  0  0  0  0
   10.5646 -134.4103   14.1834 H   0  0  0  0  0
    9.3102 -133.4187   11.5546 H   0  0  0  0  0
   10.9322 -132.9492   12.0623 H   0  0  0  0  0
    9.3681 -131.2300   12.7835 H   0  0  0  0  0
    9.9530 -132.1090   14.2271 H   0  0  0  0  0
    7.3301 -132.5382   12.7743 H   0  0  0  0  0
    7.5593 -131.7866   14.3852 H   0  0  0  0  0
    6.8224 -134.2154   14.3879 H   0  0  0  0  0
    8.3278 -133.8444   15.3232 H   0  0  0  0  0
    8.6880 -135.9029   14.1126 H   0  0  0  0  0
    8.1121 -135.1611   12.5875 H   0  0  0  0  0
   11.2295 -137.4122   10.7886 H   0  0  0  0  0
   13.5832 -137.8074   11.1337 H   0  0  0  0  0
   11.8003 -139.6902   10.7611 H   0  0  0  0  0
    9.9452 -139.3191   13.2008 H   0  0  0  0  0
    9.4021 -139.2916   11.5051 H   0  0  0  0  0
   10.0560 -140.7922   12.2064 H   0  0  0  0  0
   11.9166 -140.4096   13.5975 H   0  0  0  0  0
   12.8654 -138.9514   13.4742 H   0  0  0  0  0
   14.1285 -140.8602   12.9537 H   0  0  0  0  0
  1  2  2  0  0  0
  3  1  1  0  0  0
  1 10  1  0  0  0
  4  3  1  0  0  0
  6  4  1  0  0  0
  4  7  1  0  0  0
  8  5  1  0  0  0
  5  9  1  0  0  0
  6  8  1  0  0  0
  7  9  1  0  0  0
 10 11  1  0  0  0
 11 12  1  0  0  0
 11 13  1  0  0  0
 13 14  2  0  0  0
 13 15  1  0  0  0
 15 16  1  0  0  0
 16 17  1  0  0  0
 16 26  1  0  0  0
 17 18  1  0  0  0
 18 19  4  0  0  0
 18 25  4  0  0  0
 19 20  4  0  0  0
 20 21  4  0  0  0
 21 22  1  0  0  0
 21 24  4  0  0  0
 22 23  1  0  0  0
 24 25  4  0  0  0
 26 27  2  0  0  0
 26 28  1  0  0  0
 28 29  1  0  0  0
 29 30  1  0  0  0
 29 37  1  0  0  0
 30 31  1  0  0  0
 31 32  1  0  0  0
 31 36  1  0  0  0
 32 33  1  0  0  0
 33 34  1  0  0  0
 34 35  1  0  0  0
 35 36  1  0  0  0
 37 38  1  0  0  0
 37 39  1  0  0  0
 39 40  1  0  0  0
 39 41  1  0  0  0
 41 42  1  0  0  0
  3 43  1  0  0  0
  3 44  1  0  0  0
  4 45  1  0  0  0
  6 46  1  0  0  0
  6 47  1  0  0  0
  7 48  1  0  0  0
  7 49  1  0  0  0
  8 50  1  0  0  0
  8 51  1  0  0  0
  9 52  1  0  0  0
  9 53  1  0  0  0
 10 54  1  0  0  0
 11 55  1  0  0  0
 12 56  1  0  0  0
 12 57  1  0  0  0
 12 58  1  0  0  0
 15 59  1  0  0  0
 16 60  1  0  0  0
 17 61  1  0  0  0
 17 62  1  0  0  0
 19 63  1  0  0  0
 20 64  1  0  0  0
 23 65  1  0  0  0
 23 66  1  0  0  0
 23 67  1  0  0  0
 24 68  1  0  0  0
 25 69  1  0  0  0
 28 70  1  0  0  0
 29 71  1  0  0  0
 30 72  1  0  0  0
 30 73  1  0  0  0
 31 74  1  0  0  0
 32 75  1  0  0  0
 32 76  1  0  0  0
 33 77  1  0  0  0
 33 78  1  0  0  0
 34 79  1  0  0  0
 34 80  1  0  0  0
 35 81  1  0  0  0
 35 82  1  0  0  0
 36 83  1  0  0  0
 36 84  1  0  0  0
 37 85  1  0  0  0
 38 86  1  0  0  0
 39 87  1  0  0  0
 40 88  1  0  0  0
 40 89  1  0  0  0
 40 90  1  0  0  0
 41 91  1  0  0  0
 41 92  1  0  0  0
 42 93  1  0  0  0
M  END
$$$$
