6qff_ligand
  -I-interpret- 

 51 54  0  0  0  0  0  0  0  0999 V2000
  -20.7150    0.1930  -19.1950 C   0  0  0  0  0
  -18.5880    0.2510  -18.8950 C   0  0  0  0  0
  -18.4850   -0.8140  -16.5510 C   0  0  0  0  0
  -16.4720   -1.4460  -15.3590 C   0  0  0  0  0
  -19.2290   -1.1180  -15.4100 C   0  0  0  0  0
  -22.1000    2.8770  -21.2630 C   0  0  0  0  0
  -22.2220    4.0730  -21.9640 C   0  0  0  0  0
  -22.2180    5.3680  -19.9010 C   0  0  0  0  0
  -23.4140    4.0060  -18.1440 C   0  0  0  0  0
  -25.7850    3.8850  -18.1630 C   0  0  0  0  0
  -22.9720    6.3840  -23.7370 N   0  0  0  0  0
  -22.3300    5.2890  -24.2090 C   0  0  0  0  0
  -21.8740    5.3420  -25.4220 N   0  0  0  0  0
  -22.2270    4.0890  -23.3710 C   0  0  0  0  0
  -22.1520    2.8570  -24.0360 C   0  0  0  0  0
  -22.0740    1.6620  -23.3410 C   0  0  0  0  0
  -22.0550    1.6590  -21.9530 C   0  0  0  0  0
  -21.9990    0.4540  -21.2720 N   0  0  0  0  0
  -22.0710    0.3120  -19.8170 C   0  0  0  0  0
  -20.4950   -0.3630  -17.9820 N   0  0  0  0  0
  -19.1430   -0.2950  -17.7630 C   0  0  0  0  0
  -19.5850    0.5330  -19.7990 N   0  0  0  0  0
  -17.0940   -0.9680  -16.5070 C   0  0  0  0  0
  -17.2220   -1.7650  -14.2440 C   0  0  0  0  0
  -18.5980   -1.5990  -14.2670 C   0  0  0  0  0
  -22.2890    5.3010  -21.3400 O   0  0  0  0  0
  -23.4680    4.8260  -19.2660 C   0  0  0  0  0
  -24.5850    3.5310  -17.5790 C   0  0  0  0  0
  -25.8740    4.6890  -19.2350 N   0  0  0  0  0
  -24.7240    5.1300  -19.7650 C   0  0  0  0  0
  -17.5247    0.4321  -19.0518 H   0  0  0  0  0
  -15.3892   -1.5693  -15.3390 H   0  0  0  0  0
  -20.3099   -0.9779  -15.4143 H   0  0  0  0  0
  -22.0393    2.8882  -20.1747 H   0  0  0  0  0
  -22.1045    6.4116  -19.6077 H   0  0  0  0  0
  -21.3714    4.7680  -19.5673 H   0  0  0  0  0
  -22.4508    3.7377  -17.7101 H   0  0  0  0  0
  -26.7061    3.4923  -17.7324 H   0  0  0  0  0
  -23.0808    7.2066  -24.3302 H   0  0  0  0  0
  -23.3468    6.3861  -22.7883 H   0  0  0  0  0
  -22.0055    6.1857  -25.9799 H   0  0  0  0  0
  -22.1552    2.8395  -25.1259 H   0  0  0  0  0
  -22.0273    0.7193  -23.8863 H   0  0  0  0  0
  -21.9003   -0.3972  -21.8254 H   0  0  0  0  0
  -22.5538    1.2014  -19.4121 H   0  0  0  0  0
  -22.6294   -0.5965  -19.5913 H   0  0  0  0  0
  -16.4938   -0.7111  -17.3799 H   0  0  0  0  0
  -16.7329   -2.1465  -13.3477 H   0  0  0  0  0
  -19.1888   -1.8466  -13.3851 H   0  0  0  0  0
  -24.5604    2.8935  -16.6952 H   0  0  0  0  0
  -24.7812    5.7694  -20.6459 H   0  0  0  0  0
 19  1  1  0  0  0
  1 20  4  0  0  0
  1 22  4  0  0  0
  2 21  4  0  0  0
 22  2  4  0  0  0
  3  5  4  0  0  0
 21  3  1  0  0  0
  3 23  4  0  0  0
 23  4  4  0  0  0
  4 24  4  0  0  0
  5 25  4  0  0  0
  6  7  4  0  0  0
 17  6  4  0  0  0
  7 14  4  0  0  0
  7 26  1  0  0  0
 26  8  1  0  0  0
  8 27  1  0  0  0
 27  9  4  0  0  0
  9 28  4  0  0  0
 28 10  4  0  0  0
 10 29  4  0  0  0
 12 11  1  0  0  0
 12 13  2  0  0  0
 14 12  1  0  0  0
 15 14  4  0  0  0
 16 15  4  0  0  0
 17 16  4  0  0  0
 18 17  1  0  0  0
 18 19  1  0  0  0
 20 21  4  0  0  0
 24 25  4  0  0  0
 27 30  4  0  0  0
 29 30  4  0  0  0
  2 31  1  0  0  0
  4 32  1  0  0  0
  5 33  1  0  0  0
  6 34  1  0  0  0
  8 35  1  0  0  0
  8 36  1  0  0  0
  9 37  1  0  0  0
 10 38  1  0  0  0
 11 39  1  0  0  0
 11 40  1  0  0  0
 13 41  1  0  0  0
 15 42  1  0  0  0
 16 43  1  0  0  0
 18 44  1  0  0  0
 19 45  1  0  0  0
 19 46  1  0  0  0
 23 47  1  0  0  0
 24 48  1  0  0  0
 25 49  1  0  0  0
 28 50  1  0  0  0
 30 51  1  0  0  0
M  END
$$$$
