4dj7_ligand
  -I-interpret- 

 88 90  0  0  0  0  0  0  0  0999 V2000
   56.7560  -19.8760   85.2120 C   0  0  0  0  0
   56.4630  -20.0570   86.6880 C   0  0  0  0  0
   57.7060  -19.4430   87.3420 C   0  0  0  0  0
   57.8280  -18.0120   86.8180 C   0  0  0  0  0
   56.6230  -17.2300   87.3210 C   0  0  0  0  0
   55.4440  -17.8800   86.6040 C   0  0  0  0  0
   54.1520  -17.0820   86.7270 C   0  0  0  0  0
   52.9380  -17.7810   86.1200 C   0  0  0  0  0
   51.7520  -16.8270   86.0490 C   0  0  0  0  0
   56.1850  -14.8650   87.7850 C   0  0  0  0  0
   55.5080  -15.3010   89.0520 C   0  0  0  0  0
   56.7210  -15.8150   87.0170 N   0  0  0  0  0
   55.9670  -19.1710   84.5350 O   0  0  0  0  0
   57.8260  -20.3570   84.7430 O   0  0  0  0  0
   59.0860  -17.4010   87.1040 O   0  0  0  0  0
   55.3270  -19.2380   87.0470 O   0  0  0  0  0
   53.8850  -16.7930   88.0950 O   0  0  0  0  0
   53.2450  -18.2490   84.8050 O   0  0  0  0  0
   50.5800  -17.5850   85.7600 O   0  0  0  0  0
   56.2490  -13.6820   87.4950 O   0  0  0  0  0
   54.5870  -27.7960   91.4350 C   0  0  0  0  0
   54.1530  -26.9420   92.6190 C   0  0  0  0  0
   54.6220  -25.5000   92.4210 C   0  0  0  0  0
   55.6520  -25.3380   91.2910 C   0  0  0  0  0
   56.6060  -26.5330   91.1340 C   0  0  0  0  0
   57.8530  -26.3930   92.0130 C   0  0  0  0  0
   52.0940  -26.9820   93.9570 C   0  0  0  0  0
   50.5940  -27.0370   93.9380 C   0  0  0  0  0
   52.7070  -27.0000   92.7720 N   0  0  0  0  0
   54.1000  -29.1120   91.6000 O   0  0  0  0  0
   55.1680  -25.0180   93.6310 O   0  0  0  0  0
   55.0400  -25.0340   90.0450 O   0  0  0  0  0
   56.0000  -27.7990   91.3660 O   0  0  0  0  0
   58.1800  -25.0250   92.1750 O   0  0  0  0  0
   52.6960  -26.9140   95.0260 O   0  0  0  0  0
   54.9650  -23.6040   89.8270 C   0  0  0  0  0
   55.7380  -23.1910   88.5650 C   0  0  0  0  0
   55.5590  -21.7070   88.2190 C   0  0  0  0  0
   54.0780  -21.3470   88.2910 C   0  0  0  0  0
   53.5360  -21.7590   89.6500 C   0  0  0  0  0
   52.1060  -21.2740   89.8660 C   0  0  0  0  0
   57.1110  -23.4990   88.6970 O   0  0  0  0  0
   56.0670  -21.4420   86.9180 O   0  0  0  0  0
   53.3900  -22.0780   87.3020 O   0  0  0  0  0
   53.6220  -23.1650   89.7350 O   0  0  0  0  0
   51.3690  -22.2350   90.5920 O   0  0  0  0  0
   58.5965  -20.0209   87.0947 H   0  0  0  0  0
   57.6124  -19.4488   88.4280 H   0  0  0  0  0
   57.8158  -18.0192   85.7281 H   0  0  0  0  0
   56.5302  -17.2682   88.4064 H   0  0  0  0  0
   55.6394  -17.8830   85.5317 H   0  0  0  0  0
   54.3106  -16.1655   86.1588 H   0  0  0  0  0
   52.6789  -18.6271   86.7565 H   0  0  0  0  0
   51.9174  -16.0845   85.2683 H   0  0  0  0  0
   51.6345  -16.3074   86.9999 H   0  0  0  0  0
   56.0137  -14.8507   89.9062 H   0  0  0  0  0
   54.4663  -14.9807   89.0346 H   0  0  0  0  0
   55.5542  -16.3871   89.1319 H   0  0  0  0  0
   57.2239  -15.5329   86.1756 H   0  0  0  0  0
   58.2755  -20.8604   85.4258 H   0  0  0  0  0
   59.7932  -17.9500   86.7576 H   0  0  0  0  0
   54.6453  -16.3531   88.4823 H   0  0  0  0  0
   52.4749  -18.6861   84.4342 H   0  0  0  0  0
   49.8232  -16.9963   85.7121 H   0  0  0  0  0
   54.1826  -27.3876   90.5089 H   0  0  0  0  0
   54.6094  -27.3307   93.5293 H   0  0  0  0  0
   53.7466  -24.9206   92.1276 H   0  0  0  0  0
   56.2612  -24.4889   91.6007 H   0  0  0  0  0
   56.8972  -26.5066   90.0840 H   0  0  0  0  0
   58.6875  -26.9072   91.5362 H   0  0  0  0  0
   57.6540  -26.8324   92.9905 H   0  0  0  0  0
   50.2570  -27.9173   94.4854 H   0  0  0  0  0
   50.1928  -26.1393   94.4085 H   0  0  0  0  0
   50.2468  -27.0942   92.9063 H   0  0  0  0  0
   52.1330  -27.0573   91.9308 H   0  0  0  0  0
   54.3741  -29.6494   90.8532 H   0  0  0  0  0
   55.4633  -24.1127   93.5093 H   0  0  0  0  0
   58.9618  -24.9472   92.7266 H   0  0  0  0  0
   55.4268  -23.1249   90.6903 H   0  0  0  0  0
   55.3171  -23.7660   87.7402 H   0  0  0  0  0
   56.1125  -21.0997   88.9351 H   0  0  0  0  0
   53.9466  -20.2756   88.1395 H   0  0  0  0  0
   54.1283  -21.2950   90.4386 H   0  0  0  0  0
   51.6319  -21.1187   88.8969 H   0  0  0  0  0
   52.1271  -20.3409   90.4291 H   0  0  0  0  0
   57.5754  -23.2337   87.8998 H   0  0  0  0  0
   52.4557  -21.8603   87.3367 H   0  0  0  0  0
   50.4720  -21.9181   90.7211 H   0  0  0  0  0
  2  1  1  0  0  0
  1 13  2  0  0  0
  1 14  1  0  0  0
  2  3  1  0  0  0
  2 16  1  0  0  0
 43  2  1  0  0  0
  3  4  1  0  0  0
  4  5  1  0  0  0
  4 15  1  0  0  0
  6  5  1  0  0  0
  5 12  1  0  0  0
  6  7  1  0  0  0
 16  6  1  0  0  0
  7  8  1  0  0  0
  7 17  1  0  0  0
  8  9  1  0  0  0
  8 18  1  0  0  0
  9 19  1  0  0  0
 10 11  1  0  0  0
 12 10  1  0  0  0
 10 20  2  0  0  0
 22 21  1  0  0  0
 21 30  1  0  0  0
 33 21  1  0  0  0
 23 22  1  0  0  0
 22 29  1  0  0  0
 24 23  1  0  0  0
 23 31  1  0  0  0
 24 25  1  0  0  0
 32 24  1  0  0  0
 25 26  1  0  0  0
 25 33  1  0  0  0
 26 34  1  0  0  0
 27 28  1  0  0  0
 29 27  1  0  0  0
 27 35  2  0  0  0
 36 32  1  0  0  0
 37 36  1  0  0  0
 36 45  1  0  0  0
 38 37  1  0  0  0
 37 42  1  0  0  0
 38 39  1  0  0  0
 38 43  1  0  0  0
 39 40  1  0  0  0
 39 44  1  0  0  0
 40 41  1  0  0  0
 40 45  1  0  0  0
 41 46  1  0  0  0
  3 47  1  0  0  0
  3 48  1  0  0  0
  4 49  1  0  0  0
  5 50  1  0  0  0
  6 51  1  0  0  0
  7 52  1  0  0  0
  8 53  1  0  0  0
  9 54  1  0  0  0
  9 55  1  0  0  0
 11 56  1  0  0  0
 11 57  1  0  0  0
 11 58  1  0  0  0
 12 59  1  0  0  0
 14 60  1  0  0  0
 15 61  1  0  0  0
 17 62  1  0  0  0
 18 63  1  0  0  0
 19 64  1  0  0  0
 21 65  1  0  0  0
 22 66  1  0  0  0
 23 67  1  0  0  0
 24 68  1  0  0  0
 25 69  1  0  0  0
 26 70  1  0  0  0
 26 71  1  0  0  0
 28 72  1  0  0  0
 28 73  1  0  0  0
 28 74  1  0  0  0
 29 75  1  0  0  0
 30 76  1  0  0  0
 31 77  1  0  0  0
 34 78  1  0  0  0
 36 79  1  0  0  0
 37 80  1  0  0  0
 38 81  1  0  0  0
 39 82  1  0  0  0
 40 83  1  0  0  0
 41 84  1  0  0  0
 41 85  1  0  0  0
 42 86  1  0  0  0
 44 87  1  0  0  0
 46 88  1  0  0  0
M  END
$$$$
