5w8i_ligand
  -I-interpret- 

 29 31  0  0  0  0  0  0  0  0999 V2000
   45.6810   22.6650   48.6200 C   0  0  0  0  0
   44.4440   23.0920   49.0350 C   0  0  0  0  0
   43.2900   22.3450   48.8010 C   0  0  0  0  0
   43.4010   21.1300   48.1400 C   0  0  0  0  0
   44.6480   20.6550   47.7220 C   0  0  0  0  0
   40.1240   19.6800   47.6760 C   0  0  0  0  0
   40.8940   20.7900   47.9470 C   0  0  0  0  0
   40.6010   17.3680   47.2850 C   0  0  0  0  0
   36.9980   15.8010   46.5120 O   0  0  0  0  0
   46.7340   23.4820   48.8740 F   0  0  0  0  0
   45.7990   21.4230   47.9650 C   0  0  0  0  0
   44.3730   24.2570   49.6720 F   0  0  0  0  0
   42.1920   20.3310   47.9260 C   0  0  0  0  0
   42.2280   19.0160   47.6990 N   0  0  0  0  0
   40.9360   18.6390   47.5540 N   0  0  0  0  0
   38.6650   19.6580   47.6300 O   0  0  0  0  0
   41.7700   16.0880   47.2180 S   0  0  0  0  0
   40.4630   14.9920   46.8270 C   0  0  0  0  0
   39.2550   15.6490   46.7700 C   0  0  0  0  0
   39.3660   16.9810   47.0300 N   0  0  0  0  0
   37.9500   15.0260   46.4830 C   0  0  0  0  0
   37.8030   13.7800   46.2430 O   0  0  0  0  0
   42.3174   22.7093   49.1317 H   0  0  0  0  0
   44.7265   19.6954   47.2111 H   0  0  0  0  0
   40.5512   21.8072   48.1363 H   0  0  0  0  0
   46.7771   21.0604   47.6489 H   0  0  0  0  0
   38.3659   18.7698   47.4221 H   0  0  0  0  0
   40.5896   13.9238   46.6508 H   0  0  0  0  0
   38.6600   13.3479   46.2644 H   0  0  0  0  0
  2  1  4  0  0  0
  1 10  1  0  0  0
 11  1  4  0  0  0
  3  2  4  0  0  0
  2 12  1  0  0  0
  4  3  4  0  0  0
  4  5  4  0  0  0
 13  4  1  0  0  0
  5 11  4  0  0  0
  6  7  4  0  0  0
 15  6  4  0  0  0
  6 16  1  0  0  0
 13  7  4  0  0  0
  8 15  1  0  0  0
  8 17  4  0  0  0
 20  8  4  0  0  0
 21  9  2  0  0  0
 14 13  4  0  0  0
 15 14  4  0  0  0
 18 17  4  0  0  0
 19 18  4  0  0  0
 19 20  4  0  0  0
 19 21  1  0  0  0
 21 22  1  0  0  0
  3 23  1  0  0  0
  5 24  1  0  0  0
  7 25  1  0  0  0
 11 26  1  0  0  0
 16 27  1  0  0  0
 18 28  1  0  0  0
 22 29  1  0  0  0
M  END
$$$$
