### 
### Created by X-TOOL on Mon Aug  2 16:11:35 2021
### 

@<TRIPOS>MOLECULE
6r4v_ligand
   39    38     1     0     0
SMALL
GAST_HUCK


@<TRIPOS>ATOM
      1 P1         93.7600   35.7580   22.1770 P.3       1 BFQ         0.1101
      2 O2         94.6310   36.5860   23.0920 O.co2     1 BFQ        -0.5594
      3 O3         93.5130   34.4040   22.8010 O.co2     1 BFQ        -0.5594
      4 O5         92.4450   36.4730   21.9660 O.co2     1 BFQ        -0.5594
      5 C7         94.6130   35.4780   20.5420 C.3       1 BFQ         0.2095
      6 P8         95.3640   37.0370   19.8470 P.3       1 BFQ         0.1101
      7 O9         94.3510   37.7530   18.9850 O.co2     1 BFQ        -0.5594
      8 O10        96.5420   36.6330   18.9880 O.co2     1 BFQ        -0.5594
      9 O12        95.8390   37.9350   20.9660 O.co2     1 BFQ        -0.5594
     10 O14        93.6600   34.9950   19.6290 O.3       1 BFQ        -0.3593
     11 C16        95.7240   34.4400   20.7220 C.3       1 BFQ         0.0479
     12 C19        95.6990   33.5060   19.5140 C.3       1 BFQ        -0.0267
     13 N22        96.8870   32.6740   19.4120 N.4       1 BFQ         0.2332
     14 C23        98.0030   33.2140   20.1630 C.3       1 BFQ        -0.0322
     15 C26        99.2900   32.4750   19.8070 C.3       1 BFQ        -0.0125
     16 C29       100.4550   33.4160   20.0770 C.3       1 BFQ        -0.0485
     17 C32       101.7970   32.7030   19.9630 C.3       1 BFQ        -0.0557
     18 C35       102.6700   33.1250   21.1450 C.3       1 BFQ        -0.0653
     19 C39        97.2450   32.6040   18.0100 C.3       1 BFQ        -0.0431
     20 H1         92.9647   35.6348   19.5305 H         1 BFQ         0.2133
     21 H2         95.5506   33.8637   21.6428 H         1 BFQ         0.0375
     22 H3         96.6996   34.9445   20.7834 H         1 BFQ         0.0375
     23 H4         95.6190   34.1154   18.6018 H         1 BFQ         0.0816
     24 H5         94.8190   32.8512   19.5958 H         1 BFQ         0.0816
     25 H6         96.6770   31.7510   19.7585 H         1 BFQ         0.2030
     26 H7         97.8051   33.0998   21.2390 H         1 BFQ         0.0814
     27 H8         98.1193   34.2811   19.9227 H         1 BFQ         0.0814
     28 H9         99.2769   32.1907   18.7445 H         1 BFQ         0.0317
     29 H10        99.3869   31.5717   20.4272 H         1 BFQ         0.0317
     30 H11       100.3543   33.8248   21.0932 H         1 BFQ         0.0267
     31 H12       100.4254   34.2379   19.3465 H         1 BFQ         0.0267
     32 H13       102.2880   32.9841   19.0197 H         1 BFQ         0.0263
     33 H14       101.6423   31.6142   19.9857 H         1 BFQ         0.0263
     34 H15       103.6448   32.6195   21.0797 H         1 BFQ         0.0230
     35 H16       102.1739   32.8446   22.0858 H         1 BFQ         0.0230
     36 H17       102.8196   34.2145   21.1198 H         1 BFQ         0.0230
     37 H18        96.4007   32.1946   17.4360 H         1 BFQ         0.0777
     38 H19        98.1222   31.9516   17.8876 H         1 BFQ         0.0777
     39 H20        97.4839   33.6126   17.6417 H         1 BFQ         0.0777
@<TRIPOS>BOND
     1    1    2 ar 
     2    1    3 ar 
     3    1    4 ar 
     4    1    5 1  
     5    5    6 1  
     6    5   10 1  
     7    5   11 1  
     8    6    7 ar 
     9    6    8 ar 
    10    6    9 ar 
    11   11   12 1  
    12   12   13 1  
    13   13   14 1  
    14   13   19 1  
    15   14   15 1  
    16   15   16 1  
    17   16   17 1  
    18   17   18 1  
    19   10   20 1  
    20   11   21 1  
    21   11   22 1  
    22   12   23 1  
    23   12   24 1  
    24   13   25 1  
    25   14   26 1  
    26   14   27 1  
    27   15   28 1  
    28   15   29 1  
    29   16   30 1  
    30   16   31 1  
    31   17   32 1  
    32   17   33 1  
    33   18   34 1  
    34   18   35 1  
    35   18   36 1  
    36   19   37 1  
    37   19   38 1  
    38   19   39 1  
@<TRIPOS>SUBSTRUCTURE
     1 BFQ         1

