6r4v_ligand
  -I-interpret- 

 43 42  0  0  0  0  0  0  0  0999 V2000
   93.7600   35.7580   22.1770 P   0  0  0  0  0
   94.6310   36.5860   23.0920 O   0  0  0  0  0
   93.5130   34.4040   22.8010 O   0  0  0  0  0
   92.4450   36.4730   21.9660 O   0  0  0  0  0
   94.6130   35.4780   20.5420 C   0  0  0  0  0
   95.3640   37.0370   19.8470 P   0  0  0  0  0
   94.3510   37.7530   18.9850 O   0  0  0  0  0
   96.5420   36.6330   18.9880 O   0  0  0  0  0
   95.8390   37.9350   20.9660 O   0  0  0  0  0
   93.6600   34.9950   19.6290 O   0  0  0  0  0
   95.7240   34.4400   20.7220 C   0  0  0  0  0
   95.6990   33.5060   19.5140 C   0  0  0  0  0
   96.8870   32.6740   19.4120 N   0  3  0  0  0
   98.0030   33.2140   20.1630 C   0  0  0  0  0
   99.2900   32.4750   19.8070 C   0  0  0  0  0
  100.4550   33.4160   20.0770 C   0  0  0  0  0
  101.7970   32.7030   19.9630 C   0  0  0  0  0
  102.6700   33.1250   21.1450 C   0  0  0  0  0
   97.2450   32.6040   18.0100 C   0  0  0  0  0
   92.9593   33.8801   22.2174 H   0  0  0  0  0
   91.8876   35.9504   21.3848 H   0  0  0  0  0
   97.1902   36.1771   19.5298 H   0  0  0  0  0
   96.4810   37.4639   21.5022 H   0  0  0  0  0
   92.9649   35.6479   19.5183 H   0  0  0  0  0
   95.5642   33.8731   21.6392 H   0  0  0  0  0
   96.6926   34.9345   20.7952 H   0  0  0  0  0
   95.6498   34.1246   18.6179 H   0  0  0  0  0
   94.8397   32.8445   19.6244 H   0  0  0  0  0
   96.6818   31.7539   19.8015 H   0  0  0  0  0
   97.8065   33.0925   21.2282 H   0  0  0  0  0
   98.1195   34.2694   19.9168 H   0  0  0  0  0
   99.2784   32.1775   18.7585 H   0  0  0  0  0
   99.3863   31.5707   20.4079 H   0  0  0  0  0
  100.3566   33.8004   21.0922 H   0  0  0  0  0
  100.4280   34.2156   19.3367 H   0  0  0  0  0
  102.2836   32.9718   19.0254 H   0  0  0  0  0
  101.6479   31.6233   19.9763 H   0  0  0  0  0
  102.8174   34.2047   21.1189 H   0  0  0  0  0
  102.1773   32.8467   22.0766 H   0  0  0  0  0
  103.6355   32.6235   21.0792 H   0  0  0  0  0
   96.4208   32.1656   17.4473 H   0  0  0  0  0
   97.4474   33.6082   17.6374 H   0  0  0  0  0
   98.1352   31.9858   17.8941 H   0  0  0  0  0
  1  2  2  0  0  0
  1  3  1  0  0  0
  1  4  1  0  0  0
  1  5  1  0  0  0
  5  6  1  0  0  0
  5 10  1  0  0  0
  5 11  1  0  0  0
  6  7  2  0  0  0
  6  8  1  0  0  0
  6  9  1  0  0  0
 11 12  1  0  0  0
 12 13  1  0  0  0
 13 14  1  0  0  0
 13 19  1  0  0  0
 14 15  1  0  0  0
 15 16  1  0  0  0
 16 17  1  0  0  0
 17 18  1  0  0  0
  3 20  1  0  0  0
  4 21  1  0  0  0
  8 22  1  0  0  0
  9 23  1  0  0  0
 10 24  1  0  0  0
 11 25  1  0  0  0
 11 26  1  0  0  0
 12 27  1  0  0  0
 12 28  1  0  0  0
 13 29  1  0  0  0
 14 30  1  0  0  0
 14 31  1  0  0  0
 15 32  1  0  0  0
 15 33  1  0  0  0
 16 34  1  0  0  0
 16 35  1  0  0  0
 17 36  1  0  0  0
 17 37  1  0  0  0
 18 38  1  0  0  0
 18 39  1  0  0  0
 18 40  1  0  0  0
 19 41  1  0  0  0
 19 42  1  0  0  0
 19 43  1  0  0  0
M  END
$$$$
