2bdl_ligand
  -I-interpret- 

 80 82  0  0  0  0  0  0  0  0999 V2000
   73.6880   93.3360  163.1710 C   0  0  0  0  0
   74.8140   94.2470  162.7650 C   0  0  0  0  0
   75.4970   94.7630  164.0060 C   0  0  0  0  0
   76.9670   94.4400  163.9220 C   0  0  0  0  0
   77.7540   95.2610  164.9210 C   0  0  0  0  0
   77.8600   96.5960  164.3880 N   0  0  0  0  0
   77.3860   97.6910  165.0670 C   0  0  0  0  0
   76.7810   97.6850  166.1280 O   0  0  0  0  0
   77.7080   98.8080  164.3680 O   0  0  0  0  0
   77.2310  100.0130  164.9500 C   0  0  0  0  0
   75.8370  100.2550  164.4240 C   0  0  0  0  0
   76.0300  101.1070  163.2860 N   0  0  0  0  0
   77.3380  101.7040  163.2270 C   0  0  0  0  0
   78.0740  101.1610  164.4330 C   0  0  0  0  0
   78.2030  102.2490  165.4760 C   0  0  0  0  0
   79.4580  100.6890  164.0530 C   0  0  0  0  0
   74.9900  101.4140  162.4370 C   0  0  0  0  0
   73.8350  101.0580  162.6400 O   0  0  0  0  0
   75.3870  102.1560  161.3500 N   0  0  0  0  0
   74.7040  102.0470  160.1560 C   0  0  0  0  0
   74.6450  100.9520  159.2600 C   0  0  0  0  0
   75.3000   99.6420  159.3680 C   0  0  0  0  0
   73.8750  101.2310  158.2020 N   0  0  0  0  0
   73.4180  102.5330  158.4030 O   0  0  0  0  0
   73.9200  103.0140  159.5740 C   0  0  0  0  0
   73.5430  104.3850  159.9520 C   0  0  0  0  0
   79.1750   94.7640  164.9490 C   0  0  0  0  0
   80.0290   95.1870  163.9000 O   0  0  0  0  0
   79.2640   93.2730  165.1390 C   0  0  0  0  0
   78.8120   92.7640  166.1540 O   0  0  0  0  0
   79.8630   92.6270  164.0760 N   0  0  0  0  0
   80.0080   91.1840  164.0450 C   0  0  0  0  0
   80.8940   90.7620  162.8960 C   0  0  0  0  0
   78.7020   90.4690  163.9270 C   0  0  0  0  0
   78.5010   89.2980  164.6270 C   0  0  0  0  0
   77.3040   88.6240  164.5300 C   0  0  0  0  0
   76.2970   89.1200  163.7330 C   0  0  0  0  0
   76.4930   90.2870  163.0320 C   0  0  0  0  0
   77.6910   90.9590  163.1270 C   0  0  0  0  0
   74.0875   92.5009  163.7465 H   0  0  0  0  0
   72.9751   93.8911  163.7807 H   0  0  0  0  0
   73.1884   92.9582  162.2790 H   0  0  0  0  0
   74.4210   95.0829  162.1863 H   0  0  0  0  0
   75.5291   93.6981  162.1522 H   0  0  0  0  0
   75.0651   94.2909  164.8885 H   0  0  0  0  0
   75.3597   95.8417  164.0815 H   0  0  0  0  0
   77.3218   94.6726  162.9179 H   0  0  0  0  0
   77.1085   93.3827  164.1460 H   0  0  0  0  0
   77.2734   95.2091  165.8980 H   0  0  0  0  0
   78.3008   96.7314  163.4782 H   0  0  0  0  0
   77.2620   99.9440  166.0374 H   0  0  0  0  0
   75.1895  100.7112  165.1728 H   0  0  0  0  0
   75.3312   99.3262  164.1600 H   0  0  0  0  0
   77.2853  102.7926  163.2435 H   0  0  0  0  0
   77.8515  101.4586  162.2973 H   0  0  0  0  0
   77.2125  102.6272  165.7291 H   0  0  0  0  0
   78.6763  101.8404  166.3688 H   0  0  0  0  0
   78.8127  103.0606  165.0790 H   0  0  0  0  0
   79.9477  100.2616  164.9280 H   0  0  0  0  0
   79.3808   99.9322  163.2723 H   0  0  0  0  0
   80.0405  101.5339  163.6855 H   0  0  0  0  0
   76.1854  102.7863  161.4260 H   0  0  0  0  0
   76.3806   99.7795  159.4058 H   0  0  0  0  0
   74.9640   99.1430  160.2770 H   0  0  0  0  0
   75.0399   99.0346  158.5011 H   0  0  0  0  0
   73.0197  104.3661  160.9080 H   0  0  0  0  0
   74.4412  104.9962  160.0401 H   0  0  0  0  0
   72.8898  104.8048  159.1870 H   0  0  0  0  0
   79.5685   95.2686  165.8314 H   0  0  0  0  0
   79.9579   96.1386  163.7950 H   0  0  0  0  0
   80.2125   93.1785  163.2924 H   0  0  0  0  0
   80.4599   90.9082  164.9978 H   0  0  0  0  0
   80.4509   91.0929  161.9567 H   0  0  0  0  0
   81.8790   91.2137  163.0135 H   0  0  0  0  0
   80.9889   89.6761  162.8919 H   0  0  0  0  0
   79.2948   88.9033  165.2612 H   0  0  0  0  0
   77.1538   87.6976  165.0844 H   0  0  0  0  0
   75.3477   88.5897  163.6578 H   0  0  0  0  0
   75.6976   90.6810  162.3994 H   0  0  0  0  0
   77.8411   91.8823  162.5675 H   0  0  0  0  0
  1  2  1  0  0  0
  2  3  1  0  0  0
  3  4  1  0  0  0
  4  5  1  0  0  0
  5  6  1  0  0  0
  5 27  1  0  0  0
  6  7  1  0  0  0
  7  8  2  0  0  0
  7  9  1  0  0  0
  9 10  1  0  0  0
 10 11  1  0  0  0
 10 14  1  0  0  0
 11 12  1  0  0  0
 12 13  1  0  0  0
 12 17  1  0  0  0
 13 14  1  0  0  0
 14 15  1  0  0  0
 14 16  1  0  0  0
 17 18  2  0  0  0
 17 19  1  0  0  0
 19 20  1  0  0  0
 20 21  4  0  0  0
 20 25  4  0  0  0
 21 22  1  0  0  0
 21 23  4  0  0  0
 23 24  4  0  0  0
 24 25  4  0  0  0
 25 26  1  0  0  0
 27 28  1  0  0  0
 27 29  1  0  0  0
 29 30  2  0  0  0
 29 31  1  0  0  0
 31 32  1  0  0  0
 32 33  1  0  0  0
 32 34  1  0  0  0
 34 35  4  0  0  0
 34 39  4  0  0  0
 35 36  4  0  0  0
 36 37  4  0  0  0
 37 38  4  0  0  0
 38 39  4  0  0  0
  1 40  1  0  0  0
  1 41  1  0  0  0
  1 42  1  0  0  0
  2 43  1  0  0  0
  2 44  1  0  0  0
  3 45  1  0  0  0
  3 46  1  0  0  0
  4 47  1  0  0  0
  4 48  1  0  0  0
  5 49  1  0  0  0
  6 50  1  0  0  0
 10 51  1  0  0  0
 11 52  1  0  0  0
 11 53  1  0  0  0
 13 54  1  0  0  0
 13 55  1  0  0  0
 15 56  1  0  0  0
 15 57  1  0  0  0
 15 58  1  0  0  0
 16 59  1  0  0  0
 16 60  1  0  0  0
 16 61  1  0  0  0
 19 62  1  0  0  0
 22 63  1  0  0  0
 22 64  1  0  0  0
 22 65  1  0  0  0
 26 66  1  0  0  0
 26 67  1  0  0  0
 26 68  1  0  0  0
 27 69  1  0  0  0
 28 70  1  0  0  0
 31 71  1  0  0  0
 32 72  1  0  0  0
 33 73  1  0  0  0
 33 74  1  0  0  0
 33 75  1  0  0  0
 35 76  1  0  0  0
 36 77  1  0  0  0
 37 78  1  0  0  0
 38 79  1  0  0  0
 39 80  1  0  0  0
M  END
$$$$
