4avj_ligand
  -I-interpret- 

 50 52  0  0  0  0  0  0  0  0999 V2000
  -72.5050  -13.5670  -20.0440 O   0  0  0  0  0
  -71.5710  -14.4940  -19.9570 C   0  0  0  0  0
  -70.4220  -14.5020  -20.9250 C   0  0  0  0  0
  -69.9440  -13.4350  -21.6360 N   0  0  0  0  0
  -68.8620  -13.8810  -22.4120 N   0  0  0  0  0
  -69.6350  -15.6320  -21.2530 C   0  0  0  0  0
  -68.6950  -15.2300  -22.1600 N   0  0  0  0  0
  -67.6890  -16.0760  -22.7630 C   0  0  0  0  0
  -67.6980  -17.5580  -22.4730 C   0  0  0  0  0
  -66.3710  -18.1870  -22.4430 C   0  0  0  0  0
  -65.2910  -17.5630  -23.0820 C   0  0  0  0  0
  -64.0030  -18.0960  -23.1030 C   0  0  0  0  0
  -63.8110  -19.3190  -22.4350 C   0  0  0  0  0
  -64.9380  -19.9700  -21.7900 C   0  0  0  0  0
  -66.1820  -19.4330  -21.7810 C   0  0  0  0  0
  -62.6360  -19.9880  -22.3500 O   0  0  0  0  0
  -61.3190  -19.4260  -22.5670 C   0  0  0  0  0
  -60.5200  -20.4710  -21.8420 C   0  0  0  0  0
  -59.1730  -20.4540  -22.3360 O   0  0  0  0  0
  -60.6420  -20.2560  -20.3590 C   0  0  0  0  0
  -59.9390  -21.2960  -19.7070 O   0  0  0  0  0
  -60.2420  -18.9650  -19.9730 C   0  0  0  0  0
  -60.3270  -18.8360  -18.5870 O   0  0  0  0  0
  -61.1320  -17.9450  -20.6250 C   0  0  0  0  0
  -61.1120  -18.1420  -22.1010 O   0  0  0  0  0
  -60.6620  -16.5640  -20.3580 C   0  0  0  0  0
  -59.3680  -16.2860  -20.7740 O   0  0  0  0  0
  -73.1589  -13.7076  -19.3553 H   0  0  0  0  0
  -72.0973  -15.4281  -20.1534 H   0  0  0  0  0
  -71.1064  -14.3202  -18.9864 H   0  0  0  0  0
  -69.7566  -16.6393  -20.8547 H   0  0  0  0  0
  -66.7438  -15.7185  -22.3544 H   0  0  0  0  0
  -67.8694  -16.0015  -23.8354 H   0  0  0  0  0
  -68.2565  -18.0350  -23.2784 H   0  0  0  0  0
  -68.1307  -17.6839  -21.4805 H   0  0  0  0  0
  -65.4668  -16.6136  -23.5878 H   0  0  0  0  0
  -63.1837  -17.5892  -23.6128 H   0  0  0  0  0
  -64.7768  -20.9272  -21.2942 H   0  0  0  0  0
  -67.0101  -19.9380  -21.2837 H   0  0  0  0  0
  -61.0729  -19.2591  -23.6157 H   0  0  0  0  0
  -60.9039  -21.4737  -22.0299 H   0  0  0  0  0
  -58.6564  -21.1200  -21.8765 H   0  0  0  0  0
  -61.6876  -20.3048  -20.0550 H   0  0  0  0  0
  -60.0041  -21.1778  -18.7565 H   0  0  0  0  0
  -59.2107  -18.8032  -20.2867 H   0  0  0  0  0
  -60.0524  -17.9523  -18.3316 H   0  0  0  0  0
  -62.1337  -18.0754  -20.2155 H   0  0  0  0  0
  -60.6762  -16.4337  -19.2759 H   0  0  0  0  0
  -61.3190  -15.8977  -20.9170 H   0  0  0  0  0
  -59.1532  -15.3750  -20.5606 H   0  0  0  0  0
  1  2  1  0  0  0
  2  3  1  0  0  0
  3  4  4  0  0  0
  3  6  4  0  0  0
  4  5  4  0  0  0
  5  7  4  0  0  0
  6  7  4  0  0  0
  7  8  1  0  0  0
  8  9  1  0  0  0
  9 10  1  0  0  0
 10 11  4  0  0  0
 10 15  4  0  0  0
 11 12  4  0  0  0
 12 13  4  0  0  0
 13 14  4  0  0  0
 13 16  1  0  0  0
 14 15  4  0  0  0
 16 17  1  0  0  0
 17 18  1  0  0  0
 17 25  1  0  0  0
 18 19  1  0  0  0
 18 20  1  0  0  0
 20 21  1  0  0  0
 20 22  1  0  0  0
 22 23  1  0  0  0
 22 24  1  0  0  0
 24 25  1  0  0  0
 24 26  1  0  0  0
 26 27  1  0  0  0
  1 28  1  0  0  0
  2 29  1  0  0  0
  2 30  1  0  0  0
  6 31  1  0  0  0
  8 32  1  0  0  0
  8 33  1  0  0  0
  9 34  1  0  0  0
  9 35  1  0  0  0
 11 36  1  0  0  0
 12 37  1  0  0  0
 14 38  1  0  0  0
 15 39  1  0  0  0
 17 40  1  0  0  0
 18 41  1  0  0  0
 19 42  1  0  0  0
 20 43  1  0  0  0
 21 44  1  0  0  0
 22 45  1  0  0  0
 23 46  1  0  0  0
 24 47  1  0  0  0
 26 48  1  0  0  0
 26 49  1  0  0  0
 27 50  1  0  0  0
M  END
$$$$
