4fsl_ligand
  -I-interpret- 

 56 58  0  0  0  0  0  0  0  0999 V2000
   -4.7720   17.7340   28.8060 C   0  0  0  0  0
   -3.1750   16.8450   30.6260 C   0  0  0  0  0
   -3.8700   17.0690   27.7530 C   0  0  0  0  0
   -2.2580   16.1780   29.6150 C   0  0  0  0  0
   -3.2260   11.4000   34.9980 C   0  0  0  0  0
   -5.0910   11.2340   33.2520 C   0  0  0  0  0
   -4.4200   17.6590   30.2920 C   0  0  0  0  0
   -5.9540   17.9050   32.6240 C   0  0  0  0  0
   -4.6440   11.7990   34.5930 C   0  0  0  0  0
   -2.3080   10.4630   34.2200 C   0  0  0  0  0
   -2.7880    9.8610   32.8960 C   0  0  0  0  0
   -2.6080   16.2830   28.1320 C   0  0  0  0  0
   -4.1820   10.3030   32.4710 C   0  0  0  0  0
   -5.3350   18.2810   31.3230 C   0  0  0  0  0
   -6.8100   18.9730   33.2510 C   0  0  0  0  0
   -5.8540   16.6390   33.4100 C   0  0  0  0  0
   -0.9820    9.4770   31.0730 C   0  0  0  0  0
   -5.2710   15.3170   35.5230 C   0  0  0  0  0
   -0.9390   10.1680   34.8270 C   0  0  0  0  0
   -7.6180   19.0020   34.5450 C   0  0  0  0  0
   -0.0050    8.7230   30.1700 C   0  0  0  0  0
   -0.4290   15.0020   27.5800 C   0  0  0  0  0
   -5.7020   12.7190   35.1310 C   0  0  0  0  0
   -5.7330   19.6700   30.9710 N   0  0  0  0  0
   -5.3640   16.5790   34.7980 N   0  0  0  0  0
   -4.8280   15.1340   36.9220 N   0  0  0  0  0
   -1.9100    8.9770   32.1110 N   0  0  0  0  0
   -5.7160   14.1370   34.7630 N   0  0  0  0  0
   -6.2250   15.4950   32.6400 O   0  0  0  0  0
   -0.9920   10.8940   30.8660 O   0  0  0  0  0
   -1.6830   15.6230   27.2690 O   0  0  0  0  0
   -6.7140   20.3290   32.1050 S   0  0  0  0  0
   -5.0270    9.7940   31.0020 Cl  0  0  0  0  0
   -5.6707   18.2638   28.4901 H   0  0  0  0  0
   -2.9212   16.7319   31.6800 H   0  0  0  0  0
   -4.1366   17.1592   26.7000 H   0  0  0  0  0
   -1.3699   15.6365   29.9408 H   0  0  0  0  0
   -2.8362   11.8220   35.9243 H   0  0  0  0  0
   -6.0690   11.4995   32.8507 H   0  0  0  0  0
   -0.3828   11.0991   34.9354 H   0  0  0  0  0
   -1.0688    9.7048   35.8051 H   0  0  0  0  0
   -0.3912    9.4901   34.1724 H   0  0  0  0  0
   -8.3714   18.2148   34.5191 H   0  0  0  0  0
   -6.9511   18.8407   35.3920 H   0  0  0  0  0
   -8.1066   19.9712   34.6451 H   0  0  0  0  0
   -0.2703    8.8944   29.1268 H   0  0  0  0  0
    1.0077    9.0824   30.3525 H   0  0  0  0  0
   -0.0585    7.6566   30.3894 H   0  0  0  0  0
    0.2448   15.7426   28.0107 H   0  0  0  0  0
   -0.5916   14.1968   28.2964 H   0  0  0  0  0
    0.0099   14.5961   26.6686 H   0  0  0  0  0
   -5.5297   12.7239   36.2073 H   0  0  0  0  0
   -6.6318   12.3268   34.7190 H   0  0  0  0  0
   -4.5488   15.9420   37.4784 H   0  0  0  0  0
   -1.9432    7.9736   32.2913 H   0  0  0  0  0
   -6.0924   14.3380   33.8366 H   0  0  0  0  0
  1  3  4  0  0  0
  7  1  4  0  0  0
  2  4  4  0  0  0
  7  2  4  0  0  0
  3 12  4  0  0  0
  4 12  4  0  0  0
  9  5  4  0  0  0
  5 10  4  0  0  0
  9  6  4  0  0  0
  6 13  4  0  0  0
 14  7  1  0  0  0
  8 14  4  0  0  0
  8 15  4  0  0  0
 16  8  1  0  0  0
 23  9  1  0  0  0
 10 11  4  0  0  0
 10 19  1  0  0  0
 13 11  4  0  0  0
 11 27  1  0  0  0
 12 31  1  0  0  0
 13 33  1  0  0  0
 14 24  4  0  0  0
 15 20  1  0  0  0
 15 32  4  0  0  0
 25 16  1  0  0  0
 16 29  2  0  0  0
 17 21  1  0  0  0
 27 17  1  0  0  0
 17 30  2  0  0  0
 18 25  4  0  0  0
 18 26  2  0  0  0
 28 18  1  0  0  0
 31 22  1  0  0  0
 23 28  1  0  0  0
 24 32  4  0  0  0
  1 34  1  0  0  0
  2 35  1  0  0  0
  3 36  1  0  0  0
  4 37  1  0  0  0
  5 38  1  0  0  0
  6 39  1  0  0  0
 19 40  1  0  0  0
 19 41  1  0  0  0
 19 42  1  0  0  0
 20 43  1  0  0  0
 20 44  1  0  0  0
 20 45  1  0  0  0
 21 46  1  0  0  0
 21 47  1  0  0  0
 21 48  1  0  0  0
 22 49  1  0  0  0
 22 50  1  0  0  0
 22 51  1  0  0  0
 23 52  1  0  0  0
 23 53  1  0  0  0
 26 54  1  0  0  0
 27 55  1  0  0  0
 28 56  1  0  0  0
M  END
$$$$
