4mrd_ligand
  -I-interpret- 

 96 99  0  0  0  0  0  0  0  0999 V2000
   10.3020  -11.9610    8.0710 C   0  0  0  0  0
   10.5090  -10.6100    7.4070 C   0  0  0  0  0
   10.5840  -10.7530    5.8860 C   0  0  0  0  0
   11.5810  -11.8260    5.4490 C   0  0  0  0  0
   11.4370  -13.0980    6.2880 C   0  0  0  0  0
   12.6030  -14.0080    5.9880 C   0  0  0  0  0
    9.4140   -9.7830    7.7820 O   0  0  0  0  0
   10.9360   -9.5120    5.2520 O   0  0  0  0  0
   11.3330  -12.1290    4.0640 O   0  0  0  0  0
   11.3820  -12.8180    7.6970 O   0  0  0  0  0
   13.6370  -13.8810    6.6980 O   0  0  0  0  0
   10.2840  -11.7000    9.4840 O   0  0  0  0  0
   12.4850  -14.8550    5.0540 O   0  0  0  0  0
    8.7330  -13.4200   12.4220 C   0  0  0  0  0
    8.9440  -12.3410   11.3710 C   0  0  0  0  0
    9.9850  -12.7880   10.3500 C   0  0  0  0  0
   11.2700  -13.2490   11.0350 C   0  0  0  0  0
   10.9530  -14.2250   12.1780 C   0  0  0  0  0
   12.2280  -14.6650   12.9100 C   0  0  0  0  0
    6.8810  -11.2870   10.5840 C   0  0  0  0  0
    5.6890  -11.4800    9.6980 C   0  0  0  0  0
    7.7190  -12.3170   10.6020 N   0  0  0  0  0
   12.0950  -13.8710   10.0350 O   0  0  0  0  0
    9.9880  -13.6500   13.0760 O   0  0  0  0  0
   12.0430  -14.6200   14.3310 O   0  0  0  0  0
    7.0510  -10.2640   11.2210 O   0  0  0  0  0
    5.1530  -14.5370   16.2930 C   0  0  0  0  0
    6.6660  -14.5940   16.5750 C   0  0  0  0  0
    7.5020  -13.8180   15.5660 C   0  0  0  0  0
    7.0930  -14.0250   14.1050 C   0  0  0  0  0
    5.5580  -13.9700   13.9570 C   0  0  0  0  0
    5.1160  -14.4150   12.5910 C   0  0  0  0  0
    6.9860  -14.0710   17.8680 O   0  0  0  0  0
    8.8900  -14.1190   15.7650 O   0  0  0  0  0
    7.7130  -12.9830   13.3210 O   0  0  0  0  0
    4.8650  -14.7860   14.9090 O   0  0  0  0  0
    5.4710  -15.5370   12.1600 O   0  0  0  0  0
    4.5290  -15.6200   17.0010 O   0  0  0  0  0
    4.3940  -13.6280   11.9360 O   0  0  0  0  0
    1.6570  -16.0710   19.3140 C   0  0  0  0  0
    3.0490  -16.3010   18.7350 C   0  0  0  0  0
    3.2000  -15.4250   17.4890 C   0  0  0  0  0
    2.1660  -15.8770   16.4490 C   0  0  0  0  0
    0.7550  -16.0650   17.0190 C   0  0  0  0  0
    0.0030  -17.0350   16.1170 C   0  0  0  0  0
    5.0810  -16.4900   20.1950 C   0  0  0  0  0
    5.8600  -15.7410   21.2300 C   0  0  0  0  0
    4.0080  -15.8250   19.7390 N   0  0  0  0  0
    2.0920  -14.9430   15.3600 O   0  0  0  0  0
    0.6880  -16.5490   18.3790 O   0  0  0  0  0
   -1.3680  -17.0210   16.5090 O   0  0  0  0  0
    5.4220  -17.6080   19.8300 O   0  0  0  0  0
    9.3778  -12.4556    7.7721 H   0  0  0  0  0
   11.4518  -10.1686    7.7302 H   0  0  0  0  0
    9.5847  -11.0533    5.5709 H   0  0  0  0  0
   12.5947  -11.4513    5.5905 H   0  0  0  0  0
   10.4953  -13.5787    6.0230 H   0  0  0  0  0
    9.3851   -9.7065    8.7385 H   0  0  0  0  0
   10.3157   -8.8300    5.5196 H   0  0  0  0  0
   11.4242  -11.3290    3.5413 H   0  0  0  0  0
   11.6164  -14.7698    4.6541 H   0  0  0  0  0
    8.4023  -14.3630   11.9867 H   0  0  0  0  0
    9.2310  -11.4070   11.8542 H   0  0  0  0  0
    9.5761  -13.6262    9.7857 H   0  0  0  0  0
   11.7941  -12.4017   11.4772 H   0  0  0  0  0
   10.5127  -15.1249   11.7484 H   0  0  0  0  0
   13.0386  -13.9880   12.6403 H   0  0  0  0  0
   12.4637  -15.6887   12.6193 H   0  0  0  0  0
    4.7794  -11.4091   10.2943 H   0  0  0  0  0
    5.6813  -10.7084    8.9282 H   0  0  0  0  0
    5.7418  -12.4625    9.2289 H   0  0  0  0  0
    7.4858  -13.1372   10.0422 H   0  0  0  0  0
   12.9127  -14.1718   10.4382 H   0  0  0  0  0
   12.8517  -14.8987   14.7668 H   0  0  0  0  0
    4.7974  -13.5498   16.5880 H   0  0  0  0  0
    6.9099  -15.6542   16.5077 H   0  0  0  0  0
    7.3143  -12.7610   15.7550 H   0  0  0  0  0
    7.4206  -15.0053   13.7587 H   0  0  0  0  0
    5.3061  -12.9236   14.1292 H   0  0  0  0  0
    7.9344  -14.1230   18.0072 H   0  0  0  0  0
    9.4168  -13.6297   15.1288 H   0  0  0  0  0
    6.0170  -15.9732   12.8182 H   0  0  0  0  0
    1.5027  -15.0075   19.4965 H   0  0  0  0  0
    1.5556  -16.6054   20.2586 H   0  0  0  0  0
    3.2099  -17.3497   18.4851 H   0  0  0  0  0
    3.0343  -14.3695   17.7048 H   0  0  0  0  0
    2.5183  -16.8492   16.1044 H   0  0  0  0  0
    0.3098  -15.0704   17.0457 H   0  0  0  0  0
    0.4144  -18.0396   16.2152 H   0  0  0  0  0
    0.1014  -16.7353   15.0736 H   0  0  0  0  0
    5.8759  -16.3147   22.1567 H   0  0  0  0  0
    6.8801  -15.5906   20.8768 H   0  0  0  0  0
    5.3894  -14.7740   21.4079 H   0  0  0  0  0
    3.8427  -14.8970   20.1288 H   0  0  0  0  0
    1.4403  -15.2461   14.7236 H   0  0  0  0  0
   -1.8647  -17.6264   15.9536 H   0  0  0  0  0
  1  2  1  0  0  0
  1 10  1  0  0  0
 12  1  1  0  0  0
  2  3  1  0  0  0
  2  7  1  0  0  0
  3  4  1  0  0  0
  3  8  1  0  0  0
  5  4  1  0  0  0
  4  9  1  0  0  0
  5  6  1  0  0  0
 10  5  1  0  0  0
  6 11  2  0  0  0
  6 13  1  0  0  0
 16 12  1  0  0  0
 14 15  1  0  0  0
 14 24  1  0  0  0
 35 14  1  0  0  0
 15 16  1  0  0  0
 15 22  1  0  0  0
 16 17  1  0  0  0
 18 17  1  0  0  0
 17 23  1  0  0  0
 18 19  1  0  0  0
 24 18  1  0  0  0
 19 25  1  0  0  0
 20 21  1  0  0  0
 22 20  1  0  0  0
 20 26  2  0  0  0
 27 28  1  0  0  0
 27 36  1  0  0  0
 38 27  1  0  0  0
 28 29  1  0  0  0
 28 33  1  0  0  0
 29 30  1  0  0  0
 29 34  1  0  0  0
 31 30  1  0  0  0
 30 35  1  0  0  0
 31 32  1  0  0  0
 36 31  1  0  0  0
 32 37  1  0  0  0
 32 39  2  0  0  0
 42 38  1  0  0  0
 41 40  1  0  0  0
 40 50  1  0  0  0
 41 42  1  0  0  0
 48 41  1  0  0  0
 42 43  1  0  0  0
 43 44  1  0  0  0
 43 49  1  0  0  0
 44 45  1  0  0  0
 50 44  1  0  0  0
 45 51  1  0  0  0
 46 47  1  0  0  0
 46 48  1  0  0  0
 46 52  2  0  0  0
  1 53  1  0  0  0
  2 54  1  0  0  0
  3 55  1  0  0  0
  4 56  1  0  0  0
  5 57  1  0  0  0
  7 58  1  0  0  0
  8 59  1  0  0  0
  9 60  1  0  0  0
 13 61  1  0  0  0
 14 62  1  0  0  0
 15 63  1  0  0  0
 16 64  1  0  0  0
 17 65  1  0  0  0
 18 66  1  0  0  0
 19 67  1  0  0  0
 19 68  1  0  0  0
 21 69  1  0  0  0
 21 70  1  0  0  0
 21 71  1  0  0  0
 22 72  1  0  0  0
 23 73  1  0  0  0
 25 74  1  0  0  0
 27 75  1  0  0  0
 28 76  1  0  0  0
 29 77  1  0  0  0
 30 78  1  0  0  0
 31 79  1  0  0  0
 33 80  1  0  0  0
 34 81  1  0  0  0
 37 82  1  0  0  0
 40 83  1  0  0  0
 40 84  1  0  0  0
 41 85  1  0  0  0
 42 86  1  0  0  0
 43 87  1  0  0  0
 44 88  1  0  0  0
 45 89  1  0  0  0
 45 90  1  0  0  0
 47 91  1  0  0  0
 47 92  1  0  0  0
 47 93  1  0  0  0
 48 94  1  0  0  0
 49 95  1  0  0  0
 51 96  1  0  0  0
M  END
$$$$
