6fmp_ligand
  -I-interpret- 

110110  0  0  0  0  0  0  0  0999 V2000
    4.4310   -3.5080  -24.6380 C   0  0  0  0  0
    5.2980   -3.8470  -25.3160 O   0  0  0  0  0
    3.1420   -4.2760  -24.6170 C   0  0  0  0  0
    4.5840   -2.3750  -23.8070 N   0  0  0  0  0
    5.7750   -1.5920  -23.7870 C   0  0  0  0  0
    7.0390   -2.3940  -23.8450 C   0  0  0  0  0
    7.9460   -1.8310  -24.2490 O   0  0  0  0  0
    5.7380   -0.8070  -22.5080 C   0  0  0  0  0
    7.0360   -0.1630  -22.1560 C   0  0  0  0  0
    8.0390   -0.8100  -21.9140 O   0  0  0  0  0
    7.1060    1.0470  -22.0850 O   0  0  0  0  0
    7.2290   -3.7460  -23.4340 N   0  0  0  0  0
    8.5600   -4.3010  -23.5680 C   0  0  0  0  0
    8.6840   -4.9230  -24.9280 C   0  0  0  0  0
    9.7130   -5.0330  -25.4170 O   0  0  0  0  0
    8.8540   -5.3680  -22.5210 C   0  0  0  0  0
    9.6670   -4.8730  -21.3170 C   0  0  0  0  0
   11.1610   -4.6380  -21.5130 C   0  0  0  0  0
   11.5910   -3.5330  -21.8810 O   0  0  0  0  0
   11.9910   -5.5370  -21.2900 O   0  0  0  0  0
    7.5190   -5.3850  -25.6000 N   0  0  0  0  0
    7.6110   -5.9700  -26.8840 C   0  0  0  0  0
    7.5510   -4.7520  -27.7530 C   0  0  0  0  0
    8.3010   -4.6560  -28.6010 O   0  0  0  0  0
    6.4200   -6.8970  -27.1160 C   0  0  0  0  0
    6.6840   -8.3970  -27.1930 C   0  0  0  0  0
    5.4950   -9.3150  -26.9450 C   0  0  0  0  0
    5.1120  -10.2140  -27.7360 O   0  0  0  0  0
    4.8770   -9.1910  -25.8930 O   0  0  0  0  0
    6.6400   -3.6660  -27.5690 N   0  0  0  0  0
    6.7100   -2.5640  -28.5010 C   0  0  0  0  0
    7.2390   -1.2900  -27.9520 C   0  0  0  0  0
    7.3580   -0.4800  -28.7160 O   0  0  0  0  0
    5.3390   -2.1550  -28.9690 C   0  0  0  0  0
    4.6330   -1.5330  -27.9790 O   0  0  0  0  0
    4.5270   -3.3570  -29.3160 C   0  0  0  0  0
    7.5230   -1.0100  -26.5860 N   0  0  0  0  0
    7.9830    0.3000  -26.2170 C   0  0  0  0  0
    6.8930    1.3440  -26.1490 C   0  0  0  0  0
    7.1050    2.4130  -25.8160 O   0  0  0  0  0
    5.5590    1.0330  -26.5120 N   0  0  0  0  0
    4.5700    2.0430  -26.4420 C   0  0  0  0  0
    4.1710    2.2730  -25.0270 C   0  0  0  0  0
    4.4600    1.5530  -24.1830 O   0  0  0  0  0
    3.3280    1.5630  -27.1550 C   0  0  0  0  0
    3.5350    1.4630  -28.6440 C   0  0  0  0  0
    2.2770    1.4530  -29.4510 C   0  0  0  0  0
    2.2910    1.2010  -30.6420 O   0  0  0  0  0
    1.2090    1.6820  -28.9350 O   0  0  0  0  0
    3.3860    3.4270  -24.7760 N   0  0  0  0  0
    2.8730    3.8510  -23.5220 C   0  0  0  0  0
    1.3930    3.9210  -23.7920 C   0  0  0  0  0
    0.5860    3.1070  -23.3300 O   0  0  0  0  0
    3.3030    5.2800  -23.3210 C   0  0  0  0  0
    4.7290    5.5770  -22.8960 C   0  0  0  0  0
    5.5650    4.6230  -22.4610 C   0  0  0  0  0
    5.1850    6.8580  -22.9460 C   0  0  0  0  0
    6.8320    4.9860  -22.0900 C   0  0  0  0  0
    6.4350    7.2200  -22.5860 C   0  0  0  0  0
    7.2700    6.2710  -22.1500 C   0  0  0  0  0
    0.9440    4.7950  -24.5390 O   0  0  0  0  0
    2.7064   -4.2796  -25.6162 H   0  0  0  0  0
    3.3362   -5.3007  -24.3002 H   0  0  0  0  0
    2.4504   -3.8036  -23.9194 H   0  0  0  0  0
    3.8114   -2.1070  -23.1973 H   0  0  0  0  0
    5.7933   -0.9654  -24.6787 H   0  0  0  0  0
    5.4946   -1.5046  -21.7066 H   0  0  0  0  0
    5.0057   -0.0102  -22.6380 H   0  0  0  0  0
    7.8450   -1.7456  -22.0065 H   0  0  0  0  0
    6.4584   -4.3001  -23.0606 H   0  0  0  0  0
    9.2738   -3.4893  -23.4276 H   0  0  0  0  0
    9.4478   -6.1398  -23.0107 H   0  0  0  0  0
    7.8932   -5.7111  -22.1373 H   0  0  0  0  0
    9.5933   -5.6651  -20.5718 H   0  0  0  0  0
    9.2503   -3.8973  -21.0670 H   0  0  0  0  0
   11.5318   -6.3339  -21.0150 H   0  0  0  0  0
    6.6077   -5.2934  -25.1512 H   0  0  0  0  0
    8.4922   -6.5873  -27.0590 H   0  0  0  0  0
    6.0263   -6.6223  -28.0946 H   0  0  0  0  0
    5.7748   -6.7613  -26.2480 H   0  0  0  0  0
    7.4021   -8.6161  -26.4028 H   0  0  0  0  0
    7.0059   -8.5928  -28.2158 H   0  0  0  0  0
    5.6706  -10.2110  -28.5167 H   0  0  0  0  0
    5.9634   -3.6688  -26.8057 H   0  0  0  0  0
    7.3692   -2.9654  -29.2706 H   0  0  0  0  0
    5.4988   -1.4946  -29.8213 H   0  0  0  0  0
    3.7667   -1.2869  -28.3115 H   0  0  0  0  0
    5.0234   -3.9117  -30.1122 H   0  0  0  0  0
    4.4271   -3.9927  -28.4363 H   0  0  0  0  0
    3.5392   -3.0419  -29.6522 H   0  0  0  0  0
    7.4012   -1.7321  -25.8760 H   0  0  0  0  0
    8.6877    0.6209  -26.9842 H   0  0  0  0  0
    8.4137    0.2199  -25.2189 H   0  0  0  0  0
    5.3143    0.0920  -26.8202 H   0  0  0  0  0
    4.9758    2.9516  -26.8869 H   0  0  0  0  0
    2.5294    2.2813  -26.9694 H   0  0  0  0  0
    3.0805    0.5707  -26.7779 H   0  0  0  0  0
    4.0391    0.5148  -28.8310 H   0  0  0  0  0
    4.0981    2.3461  -28.9457 H   0  0  0  0  0
    3.1946    1.0399  -30.9232 H   0  0  0  0  0
    3.1670    4.0140  -25.5809 H   0  0  0  0  0
    3.1757    3.2227  -22.6843 H   0  0  0  0  0
    1.0499    2.4817  -22.7684 H   0  0  0  0  0
    2.6874    5.6414  -22.4973 H   0  0  0  0  0
    3.2055    5.7397  -24.3045 H   0  0  0  0  0
    5.2435    3.5831  -22.4041 H   0  0  0  0  0
    4.5042    7.6341  -23.2957 H   0  0  0  0  0
    7.5151    4.2152  -21.7331 H   0  0  0  0  0
    6.7554    8.2599  -22.6492 H   0  0  0  0  0
    8.2861    6.5241  -21.8474 H   0  0  0  0  0
  1  2  2  0  0  0
  1  3  1  0  0  0
  1  4  1  0  0  0
  4  5  1  0  0  0
  5  6  1  0  0  0
  5  8  1  0  0  0
  6  7  2  0  0  0
  6 12  1  0  0  0
  8  9  1  0  0  0
  9 10  1  0  0  0
  9 11  2  0  0  0
 12 13  1  0  0  0
 13 14  1  0  0  0
 13 16  1  0  0  0
 14 15  2  0  0  0
 14 21  1  0  0  0
 16 17  1  0  0  0
 17 18  1  0  0  0
 18 19  2  0  0  0
 18 20  1  0  0  0
 21 22  1  0  0  0
 22 23  1  0  0  0
 22 25  1  0  0  0
 23 24  2  0  0  0
 23 30  1  0  0  0
 25 26  1  0  0  0
 26 27  1  0  0  0
 27 28  1  0  0  0
 27 29  2  0  0  0
 30 31  1  0  0  0
 31 32  1  0  0  0
 31 34  1  0  0  0
 32 33  2  0  0  0
 32 37  1  0  0  0
 34 35  1  0  0  0
 34 36  1  0  0  0
 37 38  1  0  0  0
 38 39  1  0  0  0
 39 40  2  0  0  0
 39 41  1  0  0  0
 41 42  1  0  0  0
 42 43  1  0  0  0
 42 45  1  0  0  0
 43 44  2  0  0  0
 43 50  1  0  0  0
 45 46  1  0  0  0
 46 47  1  0  0  0
 47 48  1  0  0  0
 47 49  2  0  0  0
 50 51  1  0  0  0
 51 52  1  0  0  0
 51 54  1  0  0  0
 52 53  1  0  0  0
 52 61  2  0  0  0
 54 55  1  0  0  0
 55 56  4  0  0  0
 55 57  4  0  0  0
 56 58  4  0  0  0
 57 59  4  0  0  0
 58 60  4  0  0  0
 59 60  4  0  0  0
  3 62  1  0  0  0
  3 63  1  0  0  0
  3 64  1  0  0  0
  4 65  1  0  0  0
  5 66  1  0  0  0
  8 67  1  0  0  0
  8 68  1  0  0  0
 10 69  1  0  0  0
 12 70  1  0  0  0
 13 71  1  0  0  0
 16 72  1  0  0  0
 16 73  1  0  0  0
 17 74  1  0  0  0
 17 75  1  0  0  0
 20 76  1  0  0  0
 21 77  1  0  0  0
 22 78  1  0  0  0
 25 79  1  0  0  0
 25 80  1  0  0  0
 26 81  1  0  0  0
 26 82  1  0  0  0
 28 83  1  0  0  0
 30 84  1  0  0  0
 31 85  1  0  0  0
 34 86  1  0  0  0
 35 87  1  0  0  0
 36 88  1  0  0  0
 36 89  1  0  0  0
 36 90  1  0  0  0
 37 91  1  0  0  0
 38 92  1  0  0  0
 38 93  1  0  0  0
 41 94  1  0  0  0
 42 95  1  0  0  0
 45 96  1  0  0  0
 45 97  1  0  0  0
 46 98  1  0  0  0
 46 99  1  0  0  0
 48100  1  0  0  0
 50101  1  0  0  0
 51102  1  0  0  0
 53103  1  0  0  0
 54104  1  0  0  0
 54105  1  0  0  0
 56106  1  0  0  0
 57107  1  0  0  0
 58108  1  0  0  0
 59109  1  0  0  0
 60110  1  0  0  0
M  END
$$$$
