### 
### Created by X-TOOL on Wed Jan  1 15:39:36 2020
### 

@<TRIPOS>MOLECULE
6fmp_ligand
  105   105     1     0     0
SMALL
GAST_HUCK


@<TRIPOS>ATOM
      1 C           4.4310   -3.5080  -24.6380 C.2       1 ACY         0.1752
      2 O           5.2980   -3.8470  -25.3160 O.2       1 ACY        -0.3972
      3 CH3         3.1420   -4.2760  -24.6170 C.3       1 ACY         0.0258
      4 N           4.5840   -2.3750  -23.8070 N.am      1 ASP        -0.2643
      5 CA          5.7750   -1.5920  -23.7870 C.3       1 ASP         0.1422
      6 C           7.0390   -2.3940  -23.8450 C.2       1 ASP         0.2056
      7 O           7.9460   -1.8310  -24.2490 O.2       1 ASP        -0.3943
      8 CB          5.7380   -0.8070  -22.5080 C.3       1 ASP         0.0406
      9 CG          7.0360   -0.1630  -22.1560 C.2       1 ASP         0.0393
     10 OD1         8.0390   -0.8100  -21.9140 O.co2     1 ASP        -0.5688
     11 OD2         7.1060    1.0470  -22.0850 O.co2     1 ASP        -0.5688
     12 N           7.2290   -3.7460  -23.4340 N.am      1 GLU        -0.2635
     13 CA          8.5600   -4.3010  -23.5680 C.3       1 GLU         0.1325
     14 C           8.6840   -4.9230  -24.9280 C.2       1 GLU         0.2040
     15 O           9.7130   -5.0330  -25.4170 O.2       1 GLU        -0.3944
     16 CB          8.8540   -5.3680  -22.5210 C.3       1 GLU        -0.0008
     17 CG          9.6670   -4.8730  -21.3170 C.3       1 GLU         0.0044
     18 CD         11.1610   -4.6380  -21.5130 C.2       1 GLU         0.0350
     19 OE1        11.5910   -3.5330  -21.8810 O.co2     1 GLU        -0.5690
     20 OE2        11.9910   -5.5370  -21.2900 O.co2     1 GLU        -0.5690
     21 N           7.5190   -5.3850  -25.6000 N.am      1 GLU        -0.2636
     22 CA          7.6110   -5.9700  -26.8840 C.3       1 GLU         0.1325
     23 C           7.5510   -4.7520  -27.7530 C.2       1 GLU         0.2041
     24 O           8.3010   -4.6560  -28.6010 O.2       1 GLU        -0.3944
     25 CB          6.4200   -6.8970  -27.1160 C.3       1 GLU        -0.0008
     26 CG          6.6840   -8.3970  -27.1930 C.3       1 GLU         0.0044
     27 CD          5.4950   -9.3150  -26.9450 C.2       1 GLU         0.0350
     28 OE1         5.1120  -10.2140  -27.7360 O.co2     1 GLU        -0.5690
     29 OE2         4.8770   -9.1910  -25.8930 O.co2     1 GLU        -0.5690
     30 N           6.6400   -3.6660  -27.5690 N.am      1 THR        -0.2613
     31 CA          6.7100   -2.5640  -28.5010 C.3       1 THR         0.1565
     32 C           7.2390   -1.2900  -27.9520 C.2       1 THR         0.2063
     33 O           7.3580   -0.4800  -28.7160 O.2       1 THR        -0.3943
     34 CB          5.3390   -2.1550  -28.9690 C.3       1 THR         0.0924
     35 OG1         4.6330   -1.5330  -27.9790 O.3       1 THR        -0.3874
     36 CG2         4.5270   -3.3570  -29.3160 C.3       1 THR        -0.0346
     37 N           7.5230   -1.0100  -26.5860 N.am      1 GLY        -0.2663
     38 CA          7.9830    0.3000  -26.2170 C.3       1 GLY         0.1201
     39 C           6.8930    1.3440  -26.1490 C.2       1 GLY         0.2007
     40 O           7.1050    2.4130  -25.8160 O.2       1 GLY        -0.3947
     41 N           5.5590    1.0330  -26.5120 N.am      1 GLU        -0.2639
     42 CA          4.5700    2.0430  -26.4420 C.3       1 GLU         0.1324
     43 C           4.1710    2.2730  -25.0270 C.2       1 GLU         0.2036
     44 O           4.4600    1.5530  -24.1830 O.2       1 GLU        -0.3944
     45 CB          3.3280    1.5630  -27.1550 C.3       1 GLU        -0.0008
     46 CG          3.5350    1.4630  -28.6440 C.3       1 GLU         0.0044
     47 CD          2.2770    1.4530  -29.4510 C.2       1 GLU         0.0350
     48 OE1         2.2910    1.2010  -30.6420 O.co2     1 GLU        -0.5690
     49 OE2         1.2090    1.6820  -28.9350 O.co2     1 GLU        -0.5690
     50 N           3.3860    3.4270  -24.7760 N.am      1 PHE        -0.2677
     51 CA          2.8730    3.8510  -23.5220 C.3       1 PHE         0.1039
     52 C           1.3930    3.9210  -23.7920 C.2       1 PHE         0.0621
     53 O           0.5860    3.1070  -23.3300 O.co2     1 PHE        -0.5664
     54 CB          3.3030    5.2800  -23.3210 C.3       1 PHE         0.0159
     55 CG          4.7290    5.5770  -22.8960 C.ar      1 PHE        -0.0392
     56 CD1         5.5650    4.6230  -22.4610 C.ar      1 PHE        -0.0602
     57 CD2         5.1850    6.8580  -22.9460 C.ar      1 PHE        -0.0602
     58 CE1         6.8320    4.9860  -22.0900 C.ar      1 PHE        -0.0686
     59 CE2         6.4350    7.2200  -22.5860 C.ar      1 PHE        -0.0686
     60 CZ          7.2700    6.2710  -22.1500 C.ar      1 PHE        -0.0687
     61 OXT         0.9440    4.7950  -24.5390 O.co2     1 PHE        -0.5664
     62 H1          2.4431   -3.8002  -23.9133 H         1 ACY         0.0467
     63 H2          3.3366   -5.3104  -24.2974 H         1 ACY         0.0467
     64 H3          2.7013   -4.2804  -25.6248 H         1 ACY         0.0467
     65 H4          3.8266   -2.1122  -23.2093 H         1 ASP         0.1884
     66 H5          5.7636   -0.9055  -24.6464 H         1 ASP         0.0819
     67 H6          5.4570   -1.4884  -21.6915 H         1 ASP         0.0478
     68 H7          4.9764   -0.0195  -22.6070 H         1 ASP         0.0478
     69 H8          6.4735   -4.2893  -23.0679 H         1 GLU         0.1883
     70 H9          9.2952   -3.4893  -23.4644 H         1 GLU         0.0801
     71 H10         9.4176   -6.1787  -23.0058 H         1 GLU         0.0330
     72 H11         7.8949   -5.7588  -22.1503 H         1 GLU         0.0330
     73 H12         9.5550   -5.6195  -20.5169 H         1 GLU         0.0433
     74 H13         9.2251   -3.9192  -20.9931 H         1 GLU         0.0433
     75 H14         6.6255   -5.2952  -25.1600 H         1 GLU         0.1883
     76 H15         8.5513   -6.5238  -27.0226 H         1 GLU         0.0801
     77 H16         5.9531   -6.5980  -28.0660 H         1 GLU         0.0330
     78 H17         5.7114   -6.7317  -26.2911 H         1 GLU         0.0330
     79 H18         7.4532   -8.6387  -26.4448 H         1 GLU         0.0433
     80 H19         7.0698   -8.6162  -28.1995 H         1 GLU         0.0433
     81 H20         5.9767   -3.6688  -26.8206 H         1 THR         0.1884
     82 H21         7.3284   -2.8832  -29.3529 H         1 THR         0.0826
     83 H22         5.4382   -1.4917  -29.8409 H         1 THR         0.0639
     84 H23         5.0996   -0.7538  -27.7005 H         1 THR         0.2101
     85 H24         3.5298   -3.0403  -29.6555 H         1 THR         0.0257
     86 H25         4.4254   -3.9995  -28.4289 H         1 THR         0.0257
     87 H26         5.0269   -3.9177  -30.1196 H         1 THR         0.0257
     88 H27         7.4036   -1.7180  -25.8899 H         1 GLY         0.1881
     89 H28         8.7267    0.6260  -26.9590 H         1 GLY         0.0763
     90 H29         8.4579    0.2325  -25.2271 H         1 GLY         0.0763
     91 H30         5.3191    0.1104  -26.8142 H         1 GLU         0.1883
     92 H31         4.9470    2.9722  -26.8941 H         1 GLU         0.0801
     93 H32         2.5091    2.2703  -26.9571 H         1 GLU         0.0330
     94 H33         3.0569    0.5702  -26.7667 H         1 GLU         0.0330
     95 H34         4.0826    0.5319  -28.8519 H         1 GLU         0.0433
     96 H35         4.1404    2.3238  -28.9642 H         1 GLU         0.0433
     97 H36         3.1713    4.0025  -25.5651 H         1 PHE         0.1877
     98 H37         3.1492    3.1936  -22.6844 H         1 PHE         0.0749
     99 H38         2.6438    5.7075  -22.5511 H         1 PHE         0.0467
    100 H39         3.1382    5.8013  -24.2755 H         1 PHE         0.0467
    101 H40         5.2452    3.5888  -22.4044 H         1 PHE         0.0557
    102 H41         4.5080    7.6299  -23.2937 H         1 PHE         0.0557
    103 H42         7.5113    4.2195  -21.7350 H         1 PHE         0.0599
    104 H43         6.7537    8.2542  -22.6489 H         1 PHE         0.0599
    105 H44         8.2805    6.5228  -21.8491 H         1 PHE         0.0559
@<TRIPOS>BOND
     1    1    2 2  
     2    1    3 1  
     3    1    4 am 
     4    4    5 1  
     5    5    6 1  
     6    5    8 1  
     7    6    7 2  
     8    6   12 am 
     9    8    9 1  
    10    9   10 ar 
    11    9   11 ar 
    12   12   13 1  
    13   13   14 1  
    14   13   16 1  
    15   14   15 2  
    16   14   21 am 
    17   16   17 1  
    18   17   18 1  
    19   18   19 ar 
    20   18   20 ar 
    21   21   22 1  
    22   22   23 1  
    23   22   25 1  
    24   23   24 2  
    25   23   30 am 
    26   25   26 1  
    27   26   27 1  
    28   27   28 ar 
    29   27   29 ar 
    30   30   31 1  
    31   31   32 1  
    32   31   34 1  
    33   32   33 2  
    34   32   37 am 
    35   34   35 1  
    36   34   36 1  
    37   37   38 1  
    38   38   39 1  
    39   39   40 2  
    40   39   41 am 
    41   41   42 1  
    42   42   43 1  
    43   42   45 1  
    44   43   44 2  
    45   43   50 am 
    46   45   46 1  
    47   46   47 1  
    48   47   48 ar 
    49   47   49 ar 
    50   50   51 1  
    51   51   52 1  
    52   51   54 1  
    53   52   53 ar 
    54   52   61 ar 
    55   54   55 1  
    56   55   56 ar 
    57   55   57 ar 
    58   56   58 ar 
    59   57   59 ar 
    60   58   60 ar 
    61   59   60 ar 
    62    3   62 1  
    63    3   63 1  
    64    3   64 1  
    65    4   65 1  
    66    5   66 1  
    67    8   67 1  
    68    8   68 1  
    69   12   69 1  
    70   13   70 1  
    71   16   71 1  
    72   16   72 1  
    73   17   73 1  
    74   17   74 1  
    75   21   75 1  
    76   22   76 1  
    77   25   77 1  
    78   25   78 1  
    79   26   79 1  
    80   26   80 1  
    81   30   81 1  
    82   31   82 1  
    83   34   83 1  
    84   35   84 1  
    85   36   85 1  
    86   36   86 1  
    87   36   87 1  
    88   37   88 1  
    89   38   89 1  
    90   38   90 1  
    91   41   91 1  
    92   42   92 1  
    93   45   93 1  
    94   45   94 1  
    95   46   95 1  
    96   46   96 1  
    97   50   97 1  
    98   51   98 1  
    99   54   99 1  
   100   54  100 1  
   101   56  101 1  
   102   57  102 1  
   103   58  103 1  
   104   59  104 1  
   105   60  105 1  
@<TRIPOS>SUBSTRUCTURE
     1 ACY         1

