5etv_ligand
  -I-interpret- 

 30 32  0  0  0  0  0  0  0  0999 V2000
   -7.5290   40.7020   23.1380 C   0  0  0  0  0
   -7.1340   38.9440   21.5770 C   0  0  0  0  0
   -6.4190   40.2890   23.8480 C   0  0  0  0  0
   -6.0310   38.5280   22.2980 C   0  0  0  0  0
   -7.8930   40.0330   21.9880 C   0  0  0  0  0
  -13.3570   39.5020   20.3350 C   0  0  0  0  0
   -5.6700   39.2160   23.4430 C   0  0  0  0  0
  -12.8100   38.4220   20.9780 C   0  0  0  0  0
  -14.2580   39.2640   19.2320 C   0  0  0  0  0
  -13.7950   36.9010   19.7290 C   0  0  0  0  0
  -12.0870   40.2710   21.8520 C   0  0  0  0  0
   -9.0880   40.4460   21.2150 C   0  0  0  0  0
   -9.9340   41.6670   21.5760 C   0  0  0  0  0
  -12.9980   37.1220   20.7340 N   0  0  0  0  0
  -12.0010   38.9210   21.9720 N   0  0  0  0  0
  -14.3990   37.9160   19.0040 N   0  0  0  0  0
  -12.8900   40.6690   20.8970 N   0  0  0  0  0
  -14.1240   35.6330   19.3010 N   0  0  0  0  0
   -9.4110   39.7550   20.2650 O   0  0  0  0  0
  -14.8340   40.1020   18.5670 O   0  0  0  0  0
  -11.1940   41.3700   22.8780 S   0  0  0  0  0
   -4.1660   38.7390   24.5080 Br  0  0  0  0  0
   -8.1151   41.5531   23.4849 H   0  0  0  0  0
   -7.4136   38.4084   20.6698 H   0  0  0  0  0
   -6.1325   40.8287   24.7506 H   0  0  0  0  0
   -5.4509   37.6662   21.9680 H   0  0  0  0  0
  -10.4725   41.9577   20.6740 H   0  0  0  0  0
   -9.2507   42.4232   21.9625 H   0  0  0  0  0
  -12.5616   36.3787   21.2795 H   0  0  0  0  0
  -14.7614   35.5096   18.5143 H   0  0  0  0  0
  1  3  4  0  0  0
  5  1  4  0  0  0
  2  4  4  0  0  0
  5  2  4  0  0  0
  3  7  4  0  0  0
  4  7  4  0  0  0
 12  5  1  0  0  0
  6  8  4  0  0  0
  6  9  1  0  0  0
 17  6  4  0  0  0
  7 22  1  0  0  0
  8 14  1  0  0  0
 15  8  4  0  0  0
  9 16  1  0  0  0
  9 20  2  0  0  0
 14 10  1  0  0  0
 16 10  4  0  0  0
 10 18  2  0  0  0
 11 15  4  0  0  0
 11 17  4  0  0  0
 21 11  1  0  0  0
 13 12  1  0  0  0
 12 19  2  0  0  0
 13 21  1  0  0  0
  1 23  1  0  0  0
  2 24  1  0  0  0
  3 25  1  0  0  0
  4 26  1  0  0  0
 13 27  1  0  0  0
 13 28  1  0  0  0
 14 29  1  0  0  0
 18 30  1  0  0  0
M  END
$$$$
