5cqu_ligand
  -I-interpret- 

 41 43  0  0  0  0  0  0  0  0999 V2000
    4.7400   -9.1450   -7.6670 N   0  3  0  0  0
    4.1620   -8.1890   -8.4900 C   0  0  0  0  0
    4.9920   -7.6380   -9.6010 C   0  0  0  0  0
    4.7600   -6.2210  -10.0100 C   0  0  0  0  0
    5.0650   -5.0940   -8.9530 C   0  0  0  0  0
    4.9340   -3.7420   -9.3590 N   0  0  0  0  0
    5.3110   -3.2020  -10.5710 C   0  0  0  0  0
    4.9700   -1.7550  -10.5080 C   0  0  0  0  0
    5.1810   -0.6510  -11.6170 C   0  0  0  0  0
    4.2390   -0.6260  -12.7510 C   0  0  0  0  0
    4.5450   -1.5690  -13.8990 N   0  0  0  0  0
    4.6330   -1.2250  -15.1080 N   0  0  0  0  0
    4.9280   -2.3690  -15.8690 C   0  0  0  0  0
    5.1520   -2.6320  -17.3120 C   0  0  0  0  0
    5.0500   -1.2400  -18.5230 Br  0  0  0  0  0
    5.4290   -3.9050  -17.7320 C   0  0  0  0  0
    5.7310   -4.3020  -19.6320 Br  0  0  0  0  0
    5.5040   -4.9560  -16.8130 C   0  0  0  0  0
    5.8970   -6.7330  -17.4360 Br  0  0  0  0  0
    5.2790   -4.6980  -15.3500 C   0  0  0  0  0
    5.3830   -6.1830  -14.0460 Br  0  0  0  0  0
    5.0060   -3.4510  -14.9280 C   0  0  0  0  0
    4.7580   -2.8860  -13.7300 N   0  0  0  0  0
    4.4020   -1.5960   -9.2030 N   0  0  0  0  0
    4.3980   -2.7250   -8.5850 N   0  0  0  0  0
    4.0669   -9.4320   -6.9564 H   0  0  0  0  0
    5.0117   -9.9537   -8.2260 H   0  0  0  0  0
    5.5648   -8.7495   -7.2157 H   0  0  0  0  0
    3.9414   -7.3408   -7.8420 H   0  0  0  0  0
    3.3223   -8.6887   -8.9730 H   0  0  0  0  0
    4.7400   -8.2373  -10.4759 H   0  0  0  0  0
    6.0196   -7.6708   -9.2390 H   0  0  0  0  0
    3.6918   -6.1477  -10.2142 H   0  0  0  0  0
    5.4477   -6.0397  -10.8360 H   0  0  0  0  0
    6.1174   -5.2168   -8.6973 H   0  0  0  0  0
    4.3244   -5.2307   -8.1650 H   0  0  0  0  0
    5.7677   -3.7300  -11.4081 H   0  0  0  0  0
    6.1570   -0.8612  -12.0544 H   0  0  0  0  0
    5.0471    0.3029  -11.1068 H   0  0  0  0  0
    4.2878    0.3815  -13.1642 H   0  0  0  0  0
    3.2740   -0.9373  -12.3512 H   0  0  0  0  0
  1  2  1  0  0  0
  2  3  1  0  0  0
  3  4  1  0  0  0
  4  5  1  0  0  0
  5  6  1  0  0  0
  6  7  4  0  0  0
  6 25  4  0  0  0
  7  8  4  0  0  0
  8  9  1  0  0  0
  8 24  4  0  0  0
  9 10  1  0  0  0
 10 11  1  0  0  0
 11 12  4  0  0  0
 11 23  4  0  0  0
 12 13  4  0  0  0
 13 14  4  0  0  0
 13 22  4  0  0  0
 14 15  1  0  0  0
 14 16  4  0  0  0
 16 17  1  0  0  0
 16 18  4  0  0  0
 18 19  1  0  0  0
 18 20  4  0  0  0
 20 21  1  0  0  0
 20 22  4  0  0  0
 22 23  4  0  0  0
 24 25  4  0  0  0
  1 26  1  0  0  0
  1 27  1  0  0  0
  1 28  1  0  0  0
  2 29  1  0  0  0
  2 30  1  0  0  0
  3 31  1  0  0  0
  3 32  1  0  0  0
  4 33  1  0  0  0
  4 34  1  0  0  0
  5 35  1  0  0  0
  5 36  1  0  0  0
  7 37  1  0  0  0
  9 38  1  0  0  0
  9 39  1  0  0  0
 10 40  1  0  0  0
 10 41  1  0  0  0
M  END
$$$$
