6afe_ligand
  -I-interpret- 

 21 22  0  0  0  0  0  0  0  0999 V2000
  -33.4750   24.1190  -26.5490 F   0  0  0  0  0
  -33.8130   25.3220  -26.3190 C   0  0  0  0  0
  -34.4060   25.3300  -25.2650 F   0  0  0  0  0
  -34.6470   25.6770  -27.2520 F   0  0  0  0  0
  -32.6920   26.2170  -26.2220 C   0  0  0  0  0
  -32.4770   27.1930  -27.1950 C   0  0  0  0  0
  -31.4090   28.0540  -27.1220 C   0  0  0  0  0
  -30.5850   27.9640  -26.0260 C   0  0  0  0  0
  -30.8050   27.0060  -25.1130 C   0  0  0  0  0
  -31.8610   26.1620  -25.2030 C   0  0  0  0  0
  -31.8150   25.3020  -24.1510 N   0  0  0  0  0
  -30.7510   25.5730  -23.4340 C   0  0  0  0  0
  -30.3960   24.9150  -22.4650 O   0  0  0  0  0
  -30.1260   26.7150  -23.9140 C   0  0  0  0  0
  -28.6910   26.6970  -23.9860 O   0  0  0  0  0
  -33.1713   27.2743  -28.0313 H   0  0  0  0  0
  -31.2212   28.7851  -27.9083 H   0  0  0  0  0
  -29.7598   28.6649  -25.8995 H   0  0  0  0  0
  -32.4950   24.5681  -23.9525 H   0  0  0  0  0
  -30.2116   27.5294  -23.1946 H   0  0  0  0  0
  -28.3309   26.4901  -23.1205 H   0  0  0  0  0
  1  2  1  0  0  0
  2  3  1  0  0  0
  2  4  1  0  0  0
  2  5  1  0  0  0
  5  6  4  0  0  0
  5 10  4  0  0  0
  6  7  4  0  0  0
  7  8  4  0  0  0
  8  9  4  0  0  0
  9 10  4  0  0  0
  9 14  1  0  0  0
 10 11  1  0  0  0
 11 12  1  0  0  0
 12 13  2  0  0  0
 12 14  1  0  0  0
 14 15  1  0  0  0
  6 16  1  0  0  0
  7 17  1  0  0  0
  8 18  1  0  0  0
 11 19  1  0  0  0
 14 20  1  0  0  0
 15 21  1  0  0  0
M  END
$$$$
