5aqu_ligand
  -I-interpret- 

 41 43  0  0  0  0  0  0  0  0999 V2000
  -20.6030  -16.0020   24.8600 O   0  0  0  0  0
  -20.5650  -16.0830   26.2790 C   0  0  0  0  0
  -19.8010  -17.3150   26.7660 C   0  0  0  0  0
  -19.7930  -18.3440   25.7860 O   0  0  0  0  0
  -20.4350  -17.7820   28.0820 C   0  0  0  0  0
  -19.4320  -17.7850   29.2150 C   0  0  0  0  0
  -18.3230  -18.6190   28.9180 O   0  0  0  0  0
  -21.5950  -16.8030   28.2810 C   0  0  0  0  0
  -21.9520  -16.2440   26.9020 C   0  0  0  0  0
  -22.6470  -14.9760   26.9510 N   0  0  0  0  0
  -23.8820  -14.8210   26.4050 C   0  0  0  0  0
  -24.5420  -13.5460   26.4420 C   0  0  0  0  0
  -24.0270  -12.3480   26.9970 C   0  0  0  0  0
  -22.7870  -12.4690   27.5570 O   0  0  0  0  0
  -22.1280  -11.2950   28.0310 C   0  0  0  0  0
  -24.7500  -11.1730   26.9510 C   0  0  0  0  0
  -26.0020  -11.1470   26.3570 C   0  0  0  0  0
  -26.5450  -12.2670   25.8100 C   0  0  0  0  0
  -25.8320  -13.4830   25.8390 C   0  0  0  0  0
  -26.4030  -14.5880   25.2640 N   0  0  0  0  0
  -25.6850  -15.6870   25.3080 C   0  0  0  0  0
  -24.4750  -15.8710   25.8370 N   0  0  0  0  0
  -19.7099  -15.9021   24.5223 H   0  0  0  0  0
  -20.0897  -15.1484   26.5768 H   0  0  0  0  0
  -18.7559  -17.0581   26.9387 H   0  0  0  0  0
  -19.3897  -18.0135   24.9799 H   0  0  0  0  0
  -20.7841  -18.8143   28.0594 H   0  0  0  0  0
  -19.9219  -18.1646   30.1117 H   0  0  0  0  0
  -19.0715  -16.7670   29.3626 H   0  0  0  0  0
  -17.7050  -18.6014   29.6524 H   0  0  0  0  0
  -21.3089  -15.9997   28.9600 H   0  0  0  0  0
  -22.4527  -17.3074   28.7260 H   0  0  0  0  0
  -22.6399  -16.8864   26.3522 H   0  0  0  0  0
  -22.1998  -14.1800   27.4058 H   0  0  0  0  0
  -21.9902  -10.5983   27.2041 H   0  0  0  0  0
  -22.7355  -10.8264   28.8052 H   0  0  0  0  0
  -21.1568  -11.5669   28.4444 H   0  0  0  0  0
  -24.3349  -10.2626   27.3833 H   0  0  0  0  0
  -26.5613  -10.2119   26.3279 H   0  0  0  0  0
  -27.5318  -12.2248   25.3489 H   0  0  0  0  0
  -26.1391  -16.5662   24.8509 H   0  0  0  0  0
  1  2  1  0  0  0
  2  3  1  0  0  0
  2  9  1  0  0  0
  3  4  1  0  0  0
  3  5  1  0  0  0
  5  6  1  0  0  0
  5  8  1  0  0  0
  6  7  1  0  0  0
  8  9  1  0  0  0
  9 10  1  0  0  0
 10 11  1  0  0  0
 11 12  4  0  0  0
 11 22  4  0  0  0
 12 13  4  0  0  0
 12 19  4  0  0  0
 13 14  1  0  0  0
 13 16  4  0  0  0
 14 15  1  0  0  0
 16 17  4  0  0  0
 17 18  4  0  0  0
 18 19  4  0  0  0
 19 20  4  0  0  0
 20 21  4  0  0  0
 21 22  4  0  0  0
  1 23  1  0  0  0
  2 24  1  0  0  0
  3 25  1  0  0  0
  4 26  1  0  0  0
  5 27  1  0  0  0
  6 28  1  0  0  0
  6 29  1  0  0  0
  7 30  1  0  0  0
  8 31  1  0  0  0
  8 32  1  0  0  0
  9 33  1  0  0  0
 10 34  1  0  0  0
 15 35  1  0  0  0
 15 36  1  0  0  0
 15 37  1  0  0  0
 16 38  1  0  0  0
 17 39  1  0  0  0
 18 40  1  0  0  0
 21 41  1  0  0  0
M  END
$$$$
