1hvi_ligand
  -I-interpret- 

116119  0  0  0  0  0  0  0  0999 V2000
    3.4840    3.3320   10.7440 C   0  0  0  0  0
    3.3360    4.0240   11.7300 O   0  0  0  0  0
    3.9860    3.8340    9.5980 N   0  0  0  0  0
    4.1860    3.0150    8.3970 C   0  0  0  0  0
    4.3660    5.2480    9.5330 C   0  0  0  0  0
    5.8600    5.4890    9.5740 C   0  0  0  0  0
    6.5950    5.5550    8.3900 C   0  0  0  0  0
    6.4040    5.6810   10.7780 N   0  0  0  0  0
    7.9510    5.8620    8.4900 C   0  0  0  0  0
    7.7020    5.9660   10.8620 C   0  0  0  0  0
    8.5250    6.0770    9.7510 C   0  0  0  0  0
    3.1650    2.0470   10.7480 N   0  0  0  0  0
    2.7860    1.2980   11.9600 C   0  0  0  0  0
    3.9320    0.3780   12.3800 C   0  0  0  0  0
    4.0280   -0.7680   11.9740 O   0  0  0  0  0
    1.4690    0.5260   11.7400 C   0  0  0  0  0
    1.0410   -0.2680   12.9880 C   0  0  0  0  0
    0.3340    1.4570   11.2930 C   0  0  0  0  0
    4.8470    0.9370   13.1830 N   0  0  0  0  0
    6.1390    0.2940   13.5540 C   0  0  0  0  0
    7.2770    1.2140   13.0810 C   0  0  0  0  0
    7.5800    1.1300   11.6220 C   0  0  0  0  0
    7.1840    2.1490   10.7610 C   0  0  0  0  0
    7.4540    2.0420    9.3930 C   0  0  0  0  0
    8.1290    0.9290    8.8970 C   0  0  0  0  0
    8.5340   -0.0800    9.7830 C   0  0  0  0  0
    8.2550    0.0170   11.1470 C   0  0  0  0  0
    6.2460    0.1640   15.0760 C   0  0  0  0  0
    7.4730   -0.4920   15.3580 O   0  0  0  0  0
    5.1290   -0.1720   17.2130 O   0  0  0  0  0
    5.0120   -0.4270   15.8130 C   0  0  0  0  0
    5.7540   -2.8020   16.2090 N   0  0  0  0  0
    4.7380   -1.9260   15.5940 C   0  0  0  0  0
    3.3490   -2.3270   16.1270 C   0  0  0  0  0
    3.0720   -3.8220   16.0900 C   0  0  0  0  0
    3.2530   -4.6130   17.2380 C   0  0  0  0  0
    3.0440   -6.0000   17.1780 C   0  0  0  0  0
    2.6440   -6.6190   15.9850 C   0  0  0  0  0
    2.4420   -5.8380   14.8450 C   0  0  0  0  0
    2.6580   -4.4490   14.8990 C   0  0  0  0  0
    6.9100   -5.9190   16.6840 N   0  0  0  0  0
    7.4180   -4.5880   16.4020 C   0  0  0  0  0
    6.4320   -3.7550   15.5590 C   0  0  0  0  0
    6.3130   -3.9440   14.3650 O   0  0  0  0  0
    8.8090   -4.6600   15.7320 C   0  0  0  0  0
    9.3660   -3.2530   15.4630 C   0  0  0  0  0
    9.8170   -5.4220   16.5890 C   0  0  0  0  0
    6.7680   -6.3930   17.9220 C   0  0  0  0  0
    7.1430   -5.7640   18.9010 O   0  0  0  0  0
    6.2260   -7.6350   18.0230 N   0  0  0  0  0
    5.7910   -8.3920   16.8390 C   0  0  0  0  0
    5.9940   -8.2530   19.3450 C   0  0  0  0  0
    4.6440   -7.8700   19.9060 C   0  0  0  0  0
    3.5550   -8.7340   19.7710 C   0  0  0  0  0
    4.5550   -6.6680   20.5110 N   0  0  0  0  0
    2.3170   -8.3440   20.2820 C   0  0  0  0  0
    3.3550   -6.2960   20.9830 C   0  0  0  0  0
    2.2110   -7.0980   20.9010 C   0  0  0  0  0
    3.6031    3.4298    7.5747 H   0  0  0  0  0
    5.2430    3.0147    8.1309 H   0  0  0  0  0
    3.8599    1.9942    8.5965 H   0  0  0  0  0
    3.9362    5.7379   10.4067 H   0  0  0  0  0
    4.0027    5.6362    8.5814 H   0  0  0  0  0
    6.1264    5.3733    7.4228 H   0  0  0  0  0
    8.5630    5.9347    7.5910 H   0  0  0  0  0
    8.1378    6.1191   11.8493 H   0  0  0  0  0
    9.5818    6.3230    9.8547 H   0  0  0  0  0
    3.1825    1.5455    9.8600 H   0  0  0  0  0
    2.6054    1.9996   12.7744 H   0  0  0  0  0
    1.6667   -0.1884   10.9408 H   0  0  0  0  0
    1.8175   -0.9896   13.2419 H   0  0  0  0  0
    0.8950    0.4189   13.8216 H   0  0  0  0  0
    0.1087   -0.7933   12.7808 H   0  0  0  0  0
    0.1648    2.2148   12.0580 H   0  0  0  0  0
    0.6100    1.9403   10.3558 H   0  0  0  0  0
   -0.5762    0.8749   11.1488 H   0  0  0  0  0
    4.6466    1.8614   13.5647 H   0  0  0  0  0
    6.1988   -0.6937   13.0968 H   0  0  0  0  0
    8.1775    0.9034   13.6108 H   0  0  0  0  0
    6.9617    2.2380   13.2815 H   0  0  0  0  0
    6.6663    3.0255   11.1506 H   0  0  0  0  0
    7.1353    2.8319    8.7128 H   0  0  0  0  0
    8.3403    0.8431    7.8311 H   0  0  0  0  0
    9.0719   -0.9484    9.4026 H   0  0  0  0  0
    8.5645   -0.7735   11.8307 H   0  0  0  0  0
    6.2455    1.1676   15.5014 H   0  0  0  0  0
    7.5714   -0.5897   16.3079 H   0  0  0  0  0
    4.3668   -0.5370   17.6684 H   0  0  0  0  0
    4.1570    0.0811   15.3671 H   0  0  0  0  0
    5.9537   -2.6716   17.2007 H   0  0  0  0  0
    4.7798   -2.0690   14.5142 H   0  0  0  0  0
    2.6090   -1.8478   15.4861 H   0  0  0  0  0
    3.3050   -2.0185   17.1715 H   0  0  0  0  0
    3.5561   -4.1486   18.1764 H   0  0  0  0  0
    3.1949   -6.6048   18.0722 H   0  0  0  0  0
    2.4924   -7.6978   15.9479 H   0  0  0  0  0
    2.1174   -6.3041   13.9147 H   0  0  0  0  0
    2.5022   -3.8476   14.0034 H   0  0  0  0  0
    6.6503   -6.5177   15.9001 H   0  0  0  0  0
    7.5266   -4.0743   17.3572 H   0  0  0  0  0
    8.6682   -5.1915   14.7908 H   0  0  0  0  0
    8.6868   -2.7151   14.8016 H   0  0  0  0  0
    9.4596   -2.7143   16.4059 H   0  0  0  0  0
   10.3452   -3.3353   14.9914 H   0  0  0  0  0
    9.9269   -4.9206   17.5506 H   0  0  0  0  0
    9.4613   -6.4401   16.7472 H   0  0  0  0  0
   10.7799   -5.4474   16.0789 H   0  0  0  0  0
    5.0192   -7.8298   16.3133 H   0  0  0  0  0
    6.6424   -8.5493   16.1769 H   0  0  0  0  0
    5.3901   -9.3559   17.1527 H   0  0  0  0  0
    6.7651   -7.9017   20.0306 H   0  0  0  0  0
    6.0254   -9.3365   19.2300 H   0  0  0  0  0
    3.6706   -9.6974   19.2744 H   0  0  0  0  0
    1.4500   -8.9994   20.1994 H   0  0  0  0  0
    3.2667   -5.3175   21.4552 H   0  0  0  0  0
    1.2601   -6.7575   21.3108 H   0  0  0  0  0
  1  2  2  0  0  0
  1  3  1  0  0  0
 12  1  1  0  0  0
  3  4  1  0  0  0
  3  5  1  0  0  0
  5  6  1  0  0  0
  6  7  4  0  0  0
  6  8  4  0  0  0
  7  9  4  0  0  0
  8 10  4  0  0  0
  9 11  4  0  0  0
 10 11  4  0  0  0
 13 12  1  0  0  0
 14 13  1  0  0  0
 13 16  1  0  0  0
 14 15  2  0  0  0
 19 14  1  0  0  0
 16 17  1  0  0  0
 16 18  1  0  0  0
 20 19  1  0  0  0
 20 21  1  0  0  0
 28 20  1  0  0  0
 21 22  1  0  0  0
 22 23  4  0  0  0
 22 27  4  0  0  0
 23 24  4  0  0  0
 24 25  4  0  0  0
 26 25  4  0  0  0
 27 26  4  0  0  0
 28 29  1  0  0  0
 31 28  1  0  0  0
 33 31  1  0  0  0
 33 34  1  0  0  0
 34 35  1  0  0  0
 35 36  4  0  0  0
 35 40  4  0  0  0
 36 37  4  0  0  0
 37 38  4  0  0  0
 39 38  4  0  0  0
 40 39  4  0  0  0
 42 41  1  0  0  0
 41 48  1  0  0  0
 43 42  1  0  0  0
 42 45  1  0  0  0
 43 44  2  0  0  0
 45 46  1  0  0  0
 45 47  1  0  0  0
 48 49  2  0  0  0
 48 50  1  0  0  0
 50 51  1  0  0  0
 50 52  1  0  0  0
 52 53  1  0  0  0
 53 54  4  0  0  0
 53 55  4  0  0  0
 54 56  4  0  0  0
 55 57  4  0  0  0
 56 58  4  0  0  0
 57 58  4  0  0  0
 32 43  1  0  0  0
 33 32  1  0  0  0
 31 30  1  0  0  0
  4 59  1  0  0  0
  4 60  1  0  0  0
  4 61  1  0  0  0
  5 62  1  0  0  0
  5 63  1  0  0  0
  7 64  1  0  0  0
  9 65  1  0  0  0
 10 66  1  0  0  0
 11 67  1  0  0  0
 12 68  1  0  0  0
 13 69  1  0  0  0
 16 70  1  0  0  0
 17 71  1  0  0  0
 17 72  1  0  0  0
 17 73  1  0  0  0
 18 74  1  0  0  0
 18 75  1  0  0  0
 18 76  1  0  0  0
 19 77  1  0  0  0
 20 78  1  0  0  0
 21 79  1  0  0  0
 21 80  1  0  0  0
 23 81  1  0  0  0
 24 82  1  0  0  0
 25 83  1  0  0  0
 26 84  1  0  0  0
 27 85  1  0  0  0
 28 86  1  0  0  0
 29 87  1  0  0  0
 30 88  1  0  0  0
 31 89  1  0  0  0
 32 90  1  0  0  0
 33 91  1  0  0  0
 34 92  1  0  0  0
 34 93  1  0  0  0
 36 94  1  0  0  0
 37 95  1  0  0  0
 38 96  1  0  0  0
 39 97  1  0  0  0
 40 98  1  0  0  0
 41 99  1  0  0  0
 42100  1  0  0  0
 45101  1  0  0  0
 46102  1  0  0  0
 46103  1  0  0  0
 46104  1  0  0  0
 47105  1  0  0  0
 47106  1  0  0  0
 47107  1  0  0  0
 51108  1  0  0  0
 51109  1  0  0  0
 51110  1  0  0  0
 52111  1  0  0  0
 52112  1  0  0  0
 54113  1  0  0  0
 56114  1  0  0  0
 57115  1  0  0  0
 58116  1  0  0  0
M  END
$$$$
