#	Name:			6jn5_ligand
#	Creating user name:	wangrx
#	Creation time:		Thu Aug  5 18:23:39 2021

#	Modifying user name:	wangrx
#	Modification time:	Thu Aug  5 18:24:02 2021

@<TRIPOS>MOLECULE
6jn5_ligand
   35    35     1     0     0
SMALL
GAST_HUCK


@<TRIPOS>ATOM
      1 C13       -74.3630    4.1330  122.2230 C.ar      1 BXU        -0.1745 
      2 C16       -73.4000    1.7910  121.1640 C.ar      1 BXU        -0.1500 
      3 C17       -73.0430    2.1510  122.4600 C.ar      1 BXU        -0.1745 
      4 C12       -73.5240    3.3310  122.9960 C.ar      1 BXU        -0.1168 
      5 C14       -74.7170    3.7780  120.9330 C.ar      1 BXU        -0.1500 
      6 C15       -74.2280    2.6070  120.4000 C.ar      1 BXU         0.0277 
      7 O4        -75.1970    1.8660  126.6670 O.2       1 BXU        -0.3966 
      8 C1        -73.2050    3.7840  124.4430 C.3       1 BXU         0.0866 
      9 N2        -73.6060    2.7620  125.3790 N.am      1 BXU        -0.2705 
     10 C3        -74.9580    2.7210  125.8910 C.2       1 BXU         0.1817 
     11 C5        -76.0470    3.7600  125.5740 C.3       1 BXU         0.0547 
     12 C6        -76.9650    3.5300  124.3680 C.3       1 BXU         0.0101 
     13 S7        -77.9690    5.0470  124.1510 S.3       1 BXU        -0.1756 
     14 C8        -76.9340    3.7480  126.7970 C.3       1 BXU        -0.0446 
     15 B9        -71.7150    4.2320  124.6280 B         1 BXU         3.0000 
     16 O10       -71.5470    5.4540  124.1550 O.3       1 BXU        -0.4105 
     17 O11       -70.9760    3.9980  125.7330 O.3       1 BXU        -0.4105 
     18 F18       -74.5940    2.2630  119.1330 F         1 BXU        -0.2121 
     19 H1        -74.7469    5.0560  122.6423 H         1 BXU        -0.0197 
     20 H2        -73.0282    0.8631  120.7446 H         1 BXU        -0.0160 
     21 H3        -72.3925    1.5108  123.0449 H         1 BXU        -0.0197 
     22 H4        -75.3718    4.4148  120.3492 H         1 BXU        -0.0160 
     23 H5        -73.7507    4.7135  124.6625 H         1 BXU         0.0741 
     24 H7        -72.9427    2.0753  125.6766 H         1 BXU         0.1882 
     25 H8        -75.5639    4.7403  125.4487 H         1 BXU         0.0543 
     26 H9        -77.6217    2.6673  124.5538 H         1 BXU         0.0401 
     27 H10       -76.3628    3.3450  123.4663 H         1 BXU         0.0401 
     28 H11       -78.5867    4.9299  123.3630 H         1 BXU         0.1018 
     29 H12       -76.3211    3.9098  127.6960 H         1 BXU         0.0257 
     30 H13       -77.4437    2.7760  126.8708 H         1 BXU         0.0257 
     31 H14       -77.6829    4.5495  126.7147 H         1 BXU         0.0257 
     32 H15       -70.6333    5.5818  123.9284 H         1 BXU         0.2052 
     33 H16       -70.6333    5.5818  123.9284 H         1 BXU         0.2052 
     34 H17       -71.2238    4.6120  126.4142 H         1 BXU         0.2052 
     35 H18       -71.2238    4.6120  126.4142 H         1 BXU         0.2052 
@<TRIPOS>BOND
     1    4    1 ar   
     2    1    5 ar   
     3    3    2 ar   
     4    2    6 ar   
     5    4    3 ar   
     6    8    4 1    
     7    5    6 ar   
     8    6   18 1    
     9   10    7 2    
    10    9    8 1    
    11    8   15 1    
    12    9   10 am   
    13   10   11 1    
    14   11   12 1    
    15   11   14 1    
    16   12   13 1    
    17   15   16 1    
    18   15   17 1    
    19    1   19 1    
    20    2   20 1    
    21    3   21 1    
    22    5   22 1    
    23    8   23 1    
    24    9   24 1    
    25   11   25 1    
    26   12   26 1    
    27   12   27 1    
    28   13   28 1    
    29   14   29 1    
    30   14   30 1    
    31   14   31 1    
    32   16   32 1    
    33   16   33 1    
    34   17   34 1    
    35   17   35 1    
@<TRIPOS>SUBSTRUCTURE
     1 BXU         1 PERM              0 ****  ****    0 ROOT 
