6jn5_ligand

Created by X-TOOL on Mon Aug  2 16:17:19 2021
 36 36  0  0  0  0  0  0  0  0999 V2000
  -74.3630    4.1330  122.2230  C 0  0  0  2  0  3
  -73.4000    1.7910  121.1640  C 0  0  0  2  0  3
  -73.0430    2.1510  122.4600  C 0  0  0  2  0  3
  -73.5240    3.3310  122.9960  C 0  0  0  1  0  3
  -74.7170    3.7780  120.9330  C 0  0  0  2  0  3
  -74.2280    2.6070  120.4000  C 0  0  0  1  0  3
  -75.1970    1.8660  126.6670  O 0  0  0  1  0  1
  -73.2050    3.7840  124.4430  C 0  0  0  3  0  5
  -73.6060    2.7620  125.3790  N 0  0  0  2  0  3
  -74.9580    2.7210  125.8910  C 0  0  0  1  0  3
  -76.0470    3.7600  125.5740  C 0  0  0  2  0  4
  -76.9650    3.5300  124.3680  C 0  0  0  3  0  4
  -77.9690    5.0470  124.1510  S 0  0  0  2  0  2
  -76.9340    3.7480  126.7970  C 0  0  0  4  0  4
  -71.7150    4.2320  124.6280  B 0  0  0  1  0  3
  -71.5470    5.4540  124.1550  O 0  0  0  3  0  3
  -70.9760    3.9980  125.7330  O 0  0  0  3  0  3
  -74.5940    2.2630  119.1330  F 0  0  0  1  0  1
  -74.7469    5.0560  122.6423  H 0  0  0  1  0  1
  -73.0282    0.8631  120.7446  H 0  0  0  1  0  1
  -72.3925    1.5108  123.0449  H 0  0  0  1  0  1
  -75.3718    4.4148  120.3492  H 0  0  0  1  0  1
  -73.7507    4.7135  124.6625  H 0  0  0  1  0  1
  -72.1238    3.9621  124.5391  H 0  0  0  1  0  1
  -72.9427    2.0753  125.6766  H 0  0  0  1  0  1
  -75.5639    4.7403  125.4487  H 0  0  0  1  0  1
  -77.6217    2.6673  124.5538  H 0  0  0  1  0  1
  -76.3628    3.3450  123.4663  H 0  0  0  1  0  1
  -78.5867    4.9299  123.3630  H 0  0  0  1  0  1
  -76.3211    3.9098  127.6960  H 0  0  0  1  0  1
  -77.4437    2.7760  126.8708  H 0  0  0  1  0  1
  -77.6829    4.5495  126.7147  H 0  0  0  1  0  1
  -70.6333    5.5818  123.9284  H 0  0  0  1  0  1
  -70.6333    5.5818  123.9284  H 0  0  0  1  0  1
  -71.2238    4.6120  126.4142  H 0  0  0  1  0  1
  -71.2238    4.6120  126.4142  H 0  0  0  1  0  1
  4  1  4  0  0  1
  1  5  4  0  0  1
  3  2  4  0  0  1
  2  6  4  0  0  1
  4  3  4  0  0  1
  8  4  1  0  0  2
  5  6  4  0  0  1
  6 18  1  0  0  2
 10  7  2  0  0  2
  9  8  1  0  0  2
  8 15  1  0  0  2
  9 10  1  0  0  2
 10 11  1  0  0  2
 11 12  1  0  0  2
 11 14  1  0  0  2
 12 13  1  0  0  2
 15 16  1  0  0  2
 15 17  1  0  0  2
  1 19  1  0  0  2
  2 20  1  0  0  2
  3 21  1  0  0  2
  5 22  1  0  0  2
  8 23  1  0  0  2
  8 24  1  0  0  2
  9 25  1  0  0  2
 11 26  1  0  0  2
 12 27  1  0  0  2
 12 28  1  0  0  2
 13 29  1  0  0  2
 14 30  1  0  0  2
 14 31  1  0  0  2
 14 32  1  0  0  2
 16 33  1  0  0  2
 16 34  1  0  0  2
 17 35  1  0  0  2
 17 36  1  0  0  2
M  END
> <MOLECULAR_FORMULA>
C11H18NO3SFB

> <MOLECULAR_WEIGHT>
274.0

> <NUM_HB_ATOMS>
5  

> <NUM_ROTOR>
5  

> <XLOGP2>
1.04 

$$$$
