4u6y_ligand
  -I-interpret- 

246248  0  0  0  0  0  0  0  0999 V2000
  -15.2470    1.0000    7.9130 N   0  3  0  0  0
  -16.3260    2.0200    7.7760 C   0  0  0  0  0
  -15.9900    3.1680    8.7450 C   0  0  0  0  0
  -15.9540    2.9860    9.9670 O   0  0  0  0  0
  -17.6260    1.3380    8.1840 C   0  0  0  0  0
  -18.8800    2.1520    7.9610 C   0  0  0  0  0
  -19.5500    2.1320    6.7310 C   0  0  0  0  0
  -19.4010    2.9290    9.0070 C   0  0  0  0  0
  -20.7210    2.8310    6.5700 C   0  0  0  0  0
  -20.6140    3.6160    8.8450 C   0  0  0  0  0
  -21.2590    3.5720    7.6110 C   0  0  0  0  0
  -15.7210    4.3370    8.1760 N   0  0  0  0  0
  -15.3020    5.4670    8.9830 C   0  0  0  0  0
  -16.4170    5.9760    9.8790 C   0  0  0  0  0
  -17.6030    5.9250    9.5700 O   0  0  0  0  0
  -14.8680    6.5960    8.0260 C   0  0  0  0  0
  -13.5560    6.4280    7.2730 C   0  0  0  0  0
  -13.4600    7.5160    6.1980 C   0  0  0  0  0
  -12.3720    6.5430    8.2340 C   0  0  0  0  0
  -16.0030    6.6130   10.9740 N   0  0  0  0  0
  -16.9350    7.3830   11.7900 C   0  0  0  0  0
  -17.2210    8.7450   11.1640 C   0  0  0  0  0
  -16.4990    9.2060   10.3040 O   0  0  0  0  0
  -16.2970    7.5880   13.1670 C   0  0  0  0  0
  -17.2690    8.0680   14.1860 C   0  0  0  0  0
  -18.4950    8.0830   13.9630 O   0  0  0  0  0
  -16.7420    8.4600   15.3490 N   0  0  0  0  0
  -18.3110    9.3580   11.5800 N   0  0  0  0  0
  -18.5260   10.7760   11.2450 C   0  0  0  0  0
  -17.7040   11.6800   12.1480 C   0  0  0  0  0
  -17.2660   11.2690   13.2250 O   0  0  0  0  0
  -20.0020   11.0970   11.3780 C   0  0  0  0  0
  -20.8770   10.0020   10.7000 C   0  0  0  0  0
  -21.1410   10.3100    9.2230 C   0  0  0  0  0
  -21.6760    9.0770    8.4860 C   0  0  0  0  0
  -22.2640    9.4050    7.1410 N   0  3  0  0  0
  -17.5270   12.9410   11.7660 N   0  0  0  0  0
  -16.8140   13.8900   12.6280 C   0  0  0  0  0
  -17.6210   14.2390   13.8870 C   0  0  0  0  0
  -18.8490   14.1620   13.8760 O   0  0  0  0  0
  -16.4700   15.1640   11.8530 C   0  0  0  0  0
  -17.5690   15.5770   10.8940 C   0  0  0  0  0
  -18.7550   15.5050   11.2800 O   0  0  0  0  0
  -17.2470   15.9730    9.7540 O   0  0  0  0  0
  -16.9360   14.6210   14.9670 N   0  0  0  0  0
  -17.6270   14.9880   16.2120 C   0  0  0  0  0
  -18.5790   16.1270   15.9110 C   0  0  0  0  0
  -18.1470   17.1130   15.3540 O   0  0  0  0  0
  -16.6290   15.4340   17.2840 C   0  0  0  0  0
  -15.6420   14.3400   17.6560 C   0  0  0  0  0
  -14.5620   14.9330   18.5520 C   0  0  0  0  0
  -16.4040   13.1950   18.3200 C   0  0  0  0  0
  -19.8560   15.9630   16.2480 N   0  0  0  0  0
  -20.8720   16.9530   15.9350 C   0  0  0  0  0
  -21.8210   17.1090   17.1200 C   0  0  0  0  0
  -22.2560   16.1020   17.7050 O   0  0  0  0  0
  -21.6810   16.5200   14.6970 C   0  0  0  0  0
  -22.6190   17.6120   14.1880 C   0  0  0  0  0
  -23.5540   17.1230   13.1000 C   0  0  0  0  0
  -23.1540   16.2070   12.3590 O   0  0  0  0  0
  -24.6900   17.6470   12.9940 O   0  0  0  0  0
  -22.1840   18.3580   17.4360 N   0  0  0  0  0
  -23.1280   18.6280   18.5130 C   0  0  0  0  0
  -24.0020   19.7810   18.0890 C   0  0  0  0  0
  -23.4810   20.8220   17.6890 O   0  0  0  0  0
  -22.4030   18.9930   19.8470 C   0  0  0  0  0
  -23.4260   19.4100   20.9320 C   0  0  0  0  0
  -21.5590   17.8270   20.3390 C   0  0  0  0  0
  -25.3230   19.5940   18.1600 N   0  0  0  0  0
  -26.2620   20.6650   17.8310 C   0  0  0  0  0
  -26.0320   21.2050   16.4130 C   0  0  0  0  0
  -26.0310   22.4100   16.1990 O   0  0  0  0  0
  -26.1480   21.7960   18.8690 C   0  0  0  0  0
  -26.6470   21.3750   20.2670 C   0  0  0  0  0
  -27.5160   20.4770   20.3460 O   0  0  0  0  0
  -26.1730   21.9400   21.2820 O   0  0  0  0  0
  -25.8150   20.3030   15.4590 N   0  0  0  0  0
  -25.6100   20.6750   14.0680 C   0  0  0  0  0
  -24.2320   21.2070   13.6860 C   0  0  0  0  0
  -23.9760   21.4930   12.5020 O   0  0  0  0  0
  -23.3360   21.3420   14.6650 N   0  0  0  0  0
  -22.0410   21.9740   14.4120 C   0  0  0  0  0
  -20.9190   21.0710   14.8210 C   0  0  0  0  0
  -20.9790   20.4240   15.8550 O   0  0  0  0  0
  -21.9560   23.3000   15.1360 C   0  0  0  0  0
  -22.9010   24.3130   14.5800 C   0  0  0  0  0
  -24.2680   24.2190   14.7400 N   0  0  0  0  0
  -22.6850   25.4010   13.7980 C   0  0  0  0  0
  -24.8530   25.2270   14.1130 C   0  0  0  0  0
  -23.9160   25.9550   13.5280 N   0  0  0  0  0
  -19.9040   21.0180   13.9760 N   0  0  0  0  0
  -18.7680   20.1470   14.2430 C   0  0  0  0  0
  -17.9030   20.6820   15.3800 C   0  0  0  0  0
  -17.8810   21.8860   15.6440 O   0  0  0  0  0
  -17.9640   19.9020   12.9520 C   0  0  0  0  0
  -18.7740   19.2410   11.8660 C   0  0  0  0  0
  -19.1160   17.8990   11.9650 C   0  0  0  0  0
  -19.2100   19.9620   10.7570 C   0  0  0  0  0
  -19.8730   17.2880   10.9740 C   0  0  0  0  0
  -19.9620   19.3620    9.7680 C   0  0  0  0  0
  -20.2980   18.0230    9.8730 C   0  0  0  0  0
  -17.2590   19.7700   16.1060 N   0  0  0  0  0
  -16.4730   20.1350   17.2680 C   0  0  0  0  0
  -15.0530   19.6370   17.0510 C   0  0  0  0  0
  -14.8390   18.4400   16.9830 O   0  0  0  0  0
  -17.0290   19.4650   18.5470 C   0  0  0  0  0
  -16.1620   19.8560   19.7460 C   0  0  0  0  0
  -18.4860   19.8710   18.7630 C   0  0  0  0  0
  -14.1000   20.5520   16.9180 N   0  0  0  0  0
  -12.7060   20.2170   16.6020 C   0  0  0  0  0
  -11.8390   20.4330   17.8560 C   0  0  0  0  0
  -12.3650   20.7710   18.9120 O   0  0  0  0  0
  -12.2190   21.0630   15.4000 C   0  0  0  0  0
  -12.2680   22.4530   15.7430 O   0  0  0  0  0
  -13.1630   20.8770   14.1920 C   0  0  0  0  0
  -10.5270   20.2270   17.7660 N   0  0  0  0  0
   -9.6820   20.4200   18.9450 C   0  0  0  0  0
   -9.6480   21.8310   19.4910 C   0  0  0  0  0
   -9.9990   22.8050   18.7850 O   0  0  0  0  0
   -8.2610   20.1050   18.5950 C   0  0  0  0  0
   -8.0290   18.6930   18.3470 C   0  0  0  0  0
   -6.2660   18.5990   17.9400 S   0  0  0  0  0
   -6.1770   16.8250   18.0420 C   0  0  0  0  0
   -9.2130   21.9820   20.6540 O   0  0  0  0  0
  -14.3533    1.4146    7.6488 H   0  0  0  0  0
  -15.2026    0.6817    8.8811 H   0  0  0  0  0
  -15.4496    0.2084    7.3025 H   0  0  0  0  0
  -16.4167    2.4148    6.7641 H   0  0  0  0  0
  -17.5593    1.1550    9.2565 H   0  0  0  0  0
  -17.7185    0.4461    7.5642 H   0  0  0  0  0
  -19.1404    1.5596    5.8987 H   0  0  0  0  0
  -18.8604    2.9994    9.9509 H   0  0  0  0  0
  -21.2352    2.8028    5.6093 H   0  0  0  0  0
  -21.0458    4.1767    9.6740 H   0  0  0  0  0
  -22.1888    4.1214    7.4636 H   0  0  0  0  0
  -15.8095    4.4411    7.1652 H   0  0  0  0  0
  -14.4842    5.1493    9.6298 H   0  0  0  0  0
  -14.7291    7.4735    8.6575 H   0  0  0  0  0
  -15.6398    6.6367    7.2574 H   0  0  0  0  0
  -13.5283    5.4422    6.8088 H   0  0  0  0  0
  -14.2977    7.4178    5.5076 H   0  0  0  0  0
  -13.4913    8.4971    6.6720 H   0  0  0  0  0
  -12.5230    7.4043    5.6525 H   0  0  0  0  0
  -12.3860    7.5234    8.7101 H   0  0  0  0  0
  -12.4471    5.7668    8.9956 H   0  0  0  0  0
  -11.4420    6.4205    7.6789 H   0  0  0  0  0
  -15.0210    6.5613   11.2451 H   0  0  0  0  0
  -17.8779    6.8416   11.8666 H   0  0  0  0  0
  -15.5186    8.3442   13.0654 H   0  0  0  0  0
  -15.9092    6.6260   13.5022 H   0  0  0  0  0
  -17.3498    8.7888   16.0993 H   0  0  0  0  0
  -15.7318    8.4305   15.4869 H   0  0  0  0  0
  -19.0035    8.8520   12.1322 H   0  0  0  0  0
  -18.2029   10.9521   10.2190 H   0  0  0  0  0
  -20.1968   12.0515   10.8890 H   0  0  0  0  0
  -20.2556   11.1398   12.4372 H   0  0  0  0  0
  -21.8361    9.9644   11.2166 H   0  0  0  0  0
  -20.3426    9.0539   10.7598 H   0  0  0  0  0
  -20.2029   10.6132    8.7580 H   0  0  0  0  0
  -21.8865   11.1028    9.1610 H   0  0  0  0  0
  -22.4671    8.6424    9.0970 H   0  0  0  0  0
  -20.8392    8.3972    8.3256 H   0  0  0  0  0
  -22.6015    8.5490    6.7009 H   0  0  0  0  0
  -23.0400   10.0562    7.2602 H   0  0  0  0  0
  -21.5479    9.8315    6.5530 H   0  0  0  0  0
  -17.8904   13.2516   10.8650 H   0  0  0  0  0
  -15.8917   13.4061   12.9494 H   0  0  0  0  0
  -15.5706   14.9690   11.2689 H   0  0  0  0  0
  -16.3341   15.9695   12.5747 H   0  0  0  0  0
  -18.7774   15.1781   12.1824 H   0  0  0  0  0
  -15.9174   14.6589   14.9281 H   0  0  0  0  0
  -18.1667   14.1196   16.5897 H   0  0  0  0  0
  -17.1932   15.6950   18.1794 H   0  0  0  0  0
  -16.0622   16.2752   16.8850 H   0  0  0  0  0
  -15.1447   13.9333   16.7755 H   0  0  0  0  0
  -14.0452   15.7299   18.0172 H   0  0  0  0  0
  -15.0216   15.3375   19.4538 H   0  0  0  0  0
  -13.8492   14.1544   18.8238 H   0  0  0  0  0
  -16.9028   13.5638   19.2163 H   0  0  0  0  0
  -17.1463   12.8029   17.6248 H   0  0  0  0  0
  -15.7048   12.4040   18.5912 H   0  0  0  0  0
  -20.1304   15.1141   16.7424 H   0  0  0  0  0
  -20.3783   17.9022   15.7270 H   0  0  0  0  0
  -22.2914   15.6629   14.9814 H   0  0  0  0  0
  -20.9732   16.2913   13.9002 H   0  0  0  0  0
  -22.0060   18.4094   13.7678 H   0  0  0  0  0
  -23.2291   17.9458   15.0273 H   0  0  0  0  0
  -24.7899   18.3294   13.6618 H   0  0  0  0  0
  -21.7908   19.1390   16.9108 H   0  0  0  0  0
  -23.7164   17.7290   18.6964 H   0  0  0  0  0
  -21.7436   19.8384   19.6505 H   0  0  0  0  0
  -23.9862   20.2788   20.5865 H   0  0  0  0  0
  -24.1125   18.5842   21.1188 H   0  0  0  0  0
  -22.8969   19.6595   21.8517 H   0  0  0  0  0
  -22.2008   16.9631   20.5119 H   0  0  0  0  0
  -20.8096   17.5798   19.5871 H   0  0  0  0  0
  -21.0640   18.1055   21.2693 H   0  0  0  0  0
  -25.6838   18.6850   18.4498 H   0  0  0  0  0
  -27.2707   20.2529   17.8597 H   0  0  0  0  0
  -26.7675   22.6258   18.5287 H   0  0  0  0  0
  -25.0952   22.0645   18.9566 H   0  0  0  0  0
  -25.5253   22.5941   21.0096 H   0  0  0  0  0
  -25.7916   19.3153   15.7124 H   0  0  0  0  0
  -26.3070   21.4901   13.8732 H   0  0  0  0  0
  -25.7439   19.7586   13.4932 H   0  0  0  0  0
  -23.5563   21.0007   15.6006 H   0  0  0  0  0
  -21.9489   22.1579   13.3416 H   0  0  0  0  0
  -20.9426   23.6840   15.0190 H   0  0  0  0  0
  -22.2181   23.1315   16.1805 H   0  0  0  0  0
  -21.7192   25.7670   13.4495 H   0  0  0  0  0
  -25.9247   25.4239   14.0836 H   0  0  0  0  0
  -19.9165   21.5906   13.1320 H   0  0  0  0  0
  -19.1454   19.1817   14.5804 H   0  0  0  0  0
  -17.1365   19.2368   13.1988 H   0  0  0  0  0
  -17.6369   20.8718   12.5769 H   0  0  0  0  0
  -18.7875   17.3200   12.8281 H   0  0  0  0  0
  -18.9529   21.0176   10.6690 H   0  0  0  0  0
  -20.1338   16.2331   11.0592 H   0  0  0  0  0
  -20.2911   19.9413    8.9053 H   0  0  0  0  0
  -20.8940   17.5464    9.0947 H   0  0  0  0  0
  -17.3205   18.7880   15.8371 H   0  0  0  0  0
  -16.5076   21.2172   17.3938 H   0  0  0  0  0
  -16.9975   18.3812   18.4355 H   0  0  0  0  0
  -15.1381   19.5229   19.5764 H   0  0  0  0  0
  -16.1778   20.9392   19.8663 H   0  0  0  0  0
  -16.5548   19.3834   20.6463 H   0  0  0  0  0
  -18.5480   20.9539   18.8704 H   0  0  0  0  0
  -19.0808   19.5550   17.9060 H   0  0  0  0  0
  -18.8650   19.3927   19.6661 H   0  0  0  0  0
  -14.3481   21.5337   17.0412 H   0  0  0  0  0
  -12.6236   19.1696   16.3119 H   0  0  0  0  0
  -11.2066   20.7429   15.1538 H   0  0  0  0  0
  -11.9659   22.9764   14.9971 H   0  0  0  0  0
  -13.1790   19.8260   13.9035 H   0  0  0  0  0
  -14.1688   21.1952   14.4661 H   0  0  0  0  0
  -12.8051   21.4790   13.3568 H   0  0  0  0  0
  -10.1130   19.9363   16.8803 H   0  0  0  0  0
  -10.1196   19.7650   19.6984 H   0  0  0  0  0
  -10.3015   22.4873   17.9311 H   0  0  0  0  0
   -7.6409   20.3965   19.4427 H   0  0  0  0  0
   -8.0206   20.6439   17.6786 H   0  0  0  0  0
   -8.6580   18.3069   17.5449 H   0  0  0  0  0
   -8.2865   18.0759   19.2078 H   0  0  0  0  0
   -6.4559   16.5056   19.0462 H   0  0  0  0  0
   -6.8616   16.3858   17.3164 H   0  0  0  0  0
   -5.1591   16.5005   17.8257 H   0  0  0  0  0
  1  2  1  0  0  0
  2  3  1  0  0  0
  2  5  1  0  0  0
  3  4  2  0  0  0
  3 12  1  0  0  0
  5  6  1  0  0  0
  6  7  4  0  0  0
  6  8  4  0  0  0
  7  9  4  0  0  0
  8 10  4  0  0  0
  9 11  4  0  0  0
 10 11  4  0  0  0
 12 13  1  0  0  0
 13 14  1  0  0  0
 13 16  1  0  0  0
 14 15  2  0  0  0
 14 20  1  0  0  0
 16 17  1  0  0  0
 17 18  1  0  0  0
 17 19  1  0  0  0
 20 21  1  0  0  0
 21 22  1  0  0  0
 21 24  1  0  0  0
 22 23  2  0  0  0
 22 28  1  0  0  0
 24 25  1  0  0  0
 25 26  2  0  0  0
 25 27  1  0  0  0
 28 29  1  0  0  0
 29 30  1  0  0  0
 29 32  1  0  0  0
 30 31  2  0  0  0
 30 37  1  0  0  0
 32 33  1  0  0  0
 33 34  1  0  0  0
 34 35  1  0  0  0
 35 36  1  0  0  0
 37 38  1  0  0  0
 38 39  1  0  0  0
 38 41  1  0  0  0
 39 40  2  0  0  0
 39 45  1  0  0  0
 41 42  1  0  0  0
 42 43  1  0  0  0
 42 44  2  0  0  0
 45 46  1  0  0  0
 46 47  1  0  0  0
 46 49  1  0  0  0
 47 48  2  0  0  0
 47 53  1  0  0  0
 49 50  1  0  0  0
 50 51  1  0  0  0
 50 52  1  0  0  0
 53 54  1  0  0  0
 54 55  1  0  0  0
 54 57  1  0  0  0
 55 56  2  0  0  0
 55 62  1  0  0  0
 57 58  1  0  0  0
 58 59  1  0  0  0
 59 60  2  0  0  0
 59 61  1  0  0  0
 62 63  1  0  0  0
 63 64  1  0  0  0
 63 66  1  0  0  0
 64 65  2  0  0  0
 64 69  1  0  0  0
 66 67  1  0  0  0
 66 68  1  0  0  0
 69 70  1  0  0  0
 70 71  1  0  0  0
 70 73  1  0  0  0
 71 72  2  0  0  0
 71 77  1  0  0  0
 73 74  1  0  0  0
 74 75  2  0  0  0
 74 76  1  0  0  0
 77 78  1  0  0  0
 78 79  1  0  0  0
 79 80  2  0  0  0
 79 81  1  0  0  0
 81 82  1  0  0  0
 82 83  1  0  0  0
 82 85  1  0  0  0
 83 84  2  0  0  0
 83 91  1  0  0  0
 85 86  1  0  0  0
 86 87  4  0  0  0
 86 88  4  0  0  0
 87 89  4  0  0  0
 88 90  4  0  0  0
 89 90  4  0  0  0
 91 92  1  0  0  0
 92 93  1  0  0  0
 92 95  1  0  0  0
 93 94  2  0  0  0
 93102  1  0  0  0
 95 96  1  0  0  0
 96 97  4  0  0  0
 96 98  4  0  0  0
 97 99  4  0  0  0
 98100  4  0  0  0
 99101  4  0  0  0
100101  4  0  0  0
102103  1  0  0  0
103104  1  0  0  0
103106  1  0  0  0
104105  2  0  0  0
104109  1  0  0  0
106107  1  0  0  0
106108  1  0  0  0
109110  1  0  0  0
110111  1  0  0  0
110113  1  0  0  0
111112  2  0  0  0
111116  1  0  0  0
113114  1  0  0  0
113115  1  0  0  0
116117  1  0  0  0
117118  1  0  0  0
117120  1  0  0  0
118119  1  0  0  0
118124  2  0  0  0
120121  1  0  0  0
121122  1  0  0  0
122123  1  0  0  0
  1125  1  0  0  0
  1126  1  0  0  0
  1127  1  0  0  0
  2128  1  0  0  0
  5129  1  0  0  0
  5130  1  0  0  0
  7131  1  0  0  0
  8132  1  0  0  0
  9133  1  0  0  0
 10134  1  0  0  0
 11135  1  0  0  0
 12136  1  0  0  0
 13137  1  0  0  0
 16138  1  0  0  0
 16139  1  0  0  0
 17140  1  0  0  0
 18141  1  0  0  0
 18142  1  0  0  0
 18143  1  0  0  0
 19144  1  0  0  0
 19145  1  0  0  0
 19146  1  0  0  0
 20147  1  0  0  0
 21148  1  0  0  0
 24149  1  0  0  0
 24150  1  0  0  0
 27151  1  0  0  0
 27152  1  0  0  0
 28153  1  0  0  0
 29154  1  0  0  0
 32155  1  0  0  0
 32156  1  0  0  0
 33157  1  0  0  0
 33158  1  0  0  0
 34159  1  0  0  0
 34160  1  0  0  0
 35161  1  0  0  0
 35162  1  0  0  0
 36163  1  0  0  0
 36164  1  0  0  0
 36165  1  0  0  0
 37166  1  0  0  0
 38167  1  0  0  0
 41168  1  0  0  0
 41169  1  0  0  0
 43170  1  0  0  0
 45171  1  0  0  0
 46172  1  0  0  0
 49173  1  0  0  0
 49174  1  0  0  0
 50175  1  0  0  0
 51176  1  0  0  0
 51177  1  0  0  0
 51178  1  0  0  0
 52179  1  0  0  0
 52180  1  0  0  0
 52181  1  0  0  0
 53182  1  0  0  0
 54183  1  0  0  0
 57184  1  0  0  0
 57185  1  0  0  0
 58186  1  0  0  0
 58187  1  0  0  0
 61188  1  0  0  0
 62189  1  0  0  0
 63190  1  0  0  0
 66191  1  0  0  0
 67192  1  0  0  0
 67193  1  0  0  0
 67194  1  0  0  0
 68195  1  0  0  0
 68196  1  0  0  0
 68197  1  0  0  0
 69198  1  0  0  0
 70199  1  0  0  0
 73200  1  0  0  0
 73201  1  0  0  0
 76202  1  0  0  0
 77203  1  0  0  0
 78204  1  0  0  0
 78205  1  0  0  0
 81206  1  0  0  0
 82207  1  0  0  0
 85208  1  0  0  0
 85209  1  0  0  0
 88210  1  0  0  0
 89211  1  0  0  0
 91212  1  0  0  0
 92213  1  0  0  0
 95214  1  0  0  0
 95215  1  0  0  0
 97216  1  0  0  0
 98217  1  0  0  0
 99218  1  0  0  0
100219  1  0  0  0
101220  1  0  0  0
102221  1  0  0  0
103222  1  0  0  0
106223  1  0  0  0
107224  1  0  0  0
107225  1  0  0  0
107226  1  0  0  0
108227  1  0  0  0
108228  1  0  0  0
108229  1  0  0  0
109230  1  0  0  0
110231  1  0  0  0
113232  1  0  0  0
114233  1  0  0  0
115234  1  0  0  0
115235  1  0  0  0
115236  1  0  0  0
116237  1  0  0  0
117238  1  0  0  0
119239  1  0  0  0
120240  1  0  0  0
120241  1  0  0  0
121242  1  0  0  0
121243  1  0  0  0
123244  1  0  0  0
123245  1  0  0  0
123246  1  0  0  0
M  END
$$$$
