### 
### Created by X-TOOL on Mon Sep 10 21:13:16 2018
### 

@<TRIPOS>MOLECULE
4u6y_ligand
  243   245     1     0     0
SMALL
GAST_HUCK


@<TRIPOS>ATOM
      1 N         -15.2470    1.0000    7.9130 N.4       1 PHE         0.2394
      2 CA        -16.3260    2.0200    7.7760 C.3       1 PHE         0.0744
      3 C         -15.9900    3.1680    8.7450 C.2       1 PHE         0.2288
      4 O         -15.9540    2.9860    9.9670 O.2       1 PHE        -0.3905
      5 CB        -17.6260    1.3380    8.1840 C.3       1 PHE         0.0416
      6 CG        -18.8800    2.1520    7.9610 C.ar      1 PHE        -0.0353
      7 CD1       -19.5500    2.1320    6.7310 C.ar      1 PHE        -0.0600
      8 CD2       -19.4010    2.9290    9.0070 C.ar      1 PHE        -0.0600
      9 CE1       -20.7210    2.8310    6.5700 C.ar      1 PHE        -0.0686
     10 CE2       -20.6140    3.6160    8.8450 C.ar      1 PHE        -0.0686
     11 CZ        -21.2590    3.5720    7.6110 C.ar      1 PHE        -0.0687
     12 N         -15.7210    4.3370    8.1760 N.am      1 LEU        -0.2609
     13 CA        -15.3020    5.4670    8.9830 C.3       1 LEU         0.1313
     14 C         -16.4170    5.9760    9.8790 C.2       1 LEU         0.2040
     15 O         -17.6030    5.9250    9.5700 O.2       1 LEU        -0.3944
     16 CB        -14.8680    6.5960    8.0260 C.3       1 LEU        -0.0101
     17 CG        -13.5560    6.4280    7.2730 C.3       1 LEU        -0.0425
     18 CD1       -13.4600    7.5160    6.1980 C.3       1 LEU        -0.0625
     19 CD2       -12.3720    6.5430    8.2340 C.3       1 LEU        -0.0625
     20 N         -16.0030    6.6130   10.9740 N.am      1 ASN        -0.2616
     21 CA        -16.9350    7.3830   11.7900 C.3       1 ASN         0.1476
     22 C         -17.2210    8.7450   11.1640 C.2       1 ASN         0.2063
     23 O         -16.4990    9.2060   10.3040 O.2       1 ASN        -0.3942
     24 CB        -16.2970    7.5880   13.1670 C.3       1 ASN         0.0773
     25 CG        -17.2690    8.0680   14.1860 C.2       1 ASN         0.1780
     26 OD1       -18.4950    8.0830   13.9630 O.2       1 ASN        -0.3970
     27 ND2       -16.7420    8.4600   15.3490 N.am      1 ASN        -0.3007
     28 N         -18.3110    9.3580   11.5800 N.am      1 LYS        -0.2636
     29 CA        -18.5260   10.7760   11.2450 C.3       1 LYS         0.1310
     30 C         -17.7040   11.6800   12.1480 C.2       1 LYS         0.2040
     31 O         -17.2660   11.2690   13.2250 O.2       1 LYS        -0.3944
     32 CB        -20.0020   11.0970   11.3780 C.3       1 LYS        -0.0122
     33 CG        -20.8770   10.0020   10.7000 C.3       1 LYS        -0.0440
     34 CD        -21.1410   10.3100    9.2230 C.3       1 LYS        -0.0124
     35 CE        -21.6760    9.0770    8.4860 C.3       1 LYS        -0.0354
     36 NZ        -22.2640    9.4050    7.1410 N.4       1 LYS         0.2185
     37 N         -17.5270   12.9410   11.7660 N.am      1 ASP        -0.2622
     38 CA        -16.8140   13.8900   12.6280 C.3       1 ASP         0.1423
     39 C         -17.6210   14.2390   13.8870 C.2       1 ASP         0.2056
     40 O         -18.8490   14.1620   13.8760 O.2       1 ASP        -0.3943
     41 CB        -16.4700   15.1640   11.8530 C.3       1 ASP         0.0406
     42 CG        -17.5690   15.5770   10.8940 C.2       1 ASP         0.0393
     43 OD1       -18.7550   15.5050   11.2800 O.co2     1 ASP        -0.5688
     44 OD2       -17.2470   15.9730    9.7540 O.co2     1 ASP        -0.5688
     45 N         -16.9360   14.6210   14.9670 N.am      1 LEU        -0.2636
     46 CA        -17.6270   14.9880   16.2120 C.3       1 LEU         0.1312
     47 C         -18.5790   16.1270   15.9110 C.2       1 LEU         0.2039
     48 O         -18.1470   17.1130   15.3540 O.2       1 LEU        -0.3944
     49 CB        -16.6290   15.4340   17.2840 C.3       1 LEU        -0.0101
     50 CG        -15.6420   14.3400   17.6560 C.3       1 LEU        -0.0425
     51 CD1       -14.5620   14.9330   18.5520 C.3       1 LEU        -0.0625
     52 CD2       -16.4040   13.1950   18.3200 C.3       1 LEU        -0.0625
     53 N         -19.8560   15.9630   16.2480 N.am      1 GLU        -0.2636
     54 CA        -20.8720   16.9530   15.9350 C.3       1 GLU         0.1325
     55 C         -21.8210   17.1090   17.1200 C.2       1 GLU         0.2040
     56 O         -22.2560   16.1020   17.7050 O.2       1 GLU        -0.3944
     57 CB        -21.6810   16.5200   14.6970 C.3       1 GLU        -0.0008
     58 CG        -22.6190   17.6120   14.1880 C.3       1 GLU         0.0044
     59 CD        -23.5540   17.1230   13.1000 C.2       1 GLU         0.0350
     60 OE1       -23.1540   16.2070   12.3590 O.co2     1 GLU        -0.5690
     61 OE2       -24.6900   17.6470   12.9940 O.co2     1 GLU        -0.5690
     62 N         -22.1840   18.3580   17.4360 N.am      1 VAL        -0.2635
     63 CA        -23.1280   18.6280   18.5130 C.3       1 VAL         0.1333
     64 C         -24.0020   19.7810   18.0890 C.2       1 VAL         0.2042
     65 O         -23.4810   20.8220   17.6890 O.2       1 VAL        -0.3944
     66 CB        -22.4030   18.9930   19.8470 C.3       1 VAL        -0.0063
     67 CG1       -23.4260   19.4100   20.9320 C.3       1 VAL        -0.0584
     68 CG2       -21.5590   17.8270   20.3390 C.3       1 VAL        -0.0584
     69 N         -25.3230   19.5940   18.1600 N.am      1 ASP        -0.2622
     70 CA        -26.2620   20.6650   17.8310 C.3       1 ASP         0.1423
     71 C         -26.0320   21.2050   16.4130 C.2       1 ASP         0.2054
     72 O         -26.0310   22.4100   16.1990 O.2       1 ASP        -0.3943
     73 CB        -26.1480   21.7960   18.8690 C.3       1 ASP         0.0406
     74 CG        -26.6470   21.3750   20.2670 C.2       1 ASP         0.0393
     75 OD1       -27.5160   20.4770   20.3460 O.co2     1 ASP        -0.5688
     76 OD2       -26.1730   21.9400   21.2820 O.co2     1 ASP        -0.5688
     77 N         -25.8150   20.3030   15.4590 N.am      1 GLY        -0.2663
     78 CA        -25.6100   20.6750   14.0680 C.3       1 GLY         0.1201
     79 C         -24.2320   21.2070   13.6860 C.2       1 GLY         0.2008
     80 O         -23.9760   21.4930   12.5020 O.2       1 GLY        -0.3947
     81 N         -23.3360   21.3420   14.6650 N.am      1 HIS        -0.2627
     82 CA        -22.0410   21.9740   14.4120 C.3       1 HIS         0.1369
     83 C         -20.9190   21.0710   14.8210 C.2       1 HIS         0.2055
     84 O         -20.9790   20.4240   15.8550 O.2       1 HIS        -0.3942
     85 CB        -21.9560   23.3000   15.1360 C.3       1 HIS         0.0145
     86 CG        -22.9010   24.3130   14.5800 C.2       1 HIS        -0.0027
     87 ND1       -24.2680   24.2190   14.7400 N.2       1 HIS        -0.3252
     88 CD2       -22.6850   25.4010   13.7980 C.2       1 HIS         0.0291
     89 CE1       -24.8530   25.2270   14.1130 C.2       1 HIS         0.0907
     90 NE2       -23.9160   25.9550   13.5280 N.pl3     1 HIS        -0.2752
     91 N         -19.9040   21.0180   13.9760 N.am      1 PHE        -0.2618
     92 CA        -18.7680   20.1470   14.2430 C.3       1 PHE         0.1404
     93 C         -17.9030   20.6820   15.3800 C.2       1 PHE         0.2060
     94 O         -17.8810   21.8860   15.6440 O.2       1 PHE        -0.3942
     95 CB        -17.9640   19.9020   12.9520 C.3       1 PHE         0.0214
     96 CG        -18.7740   19.2410   11.8660 C.ar      1 PHE        -0.0386
     97 CD1       -19.1160   17.8990   11.9650 C.ar      1 PHE        -0.0601
     98 CD2       -19.2100   19.9620   10.7570 C.ar      1 PHE        -0.0601
     99 CE1       -19.8730   17.2880   10.9740 C.ar      1 PHE        -0.0686
    100 CE2       -19.9620   19.3620    9.7680 C.ar      1 PHE        -0.0686
    101 CZ        -20.2980   18.0230    9.8730 C.ar      1 PHE        -0.0687
    102 N         -17.2590   19.7700   16.1060 N.am      1 VAL        -0.2633
    103 CA        -16.4730   20.1350   17.2680 C.3       1 VAL         0.1333
    104 C         -15.0530   19.6370   17.0510 C.2       1 VAL         0.2042
    105 O         -14.8390   18.4400   16.9830 O.2       1 VAL        -0.3944
    106 CB        -17.0290   19.4650   18.5470 C.3       1 VAL        -0.0063
    107 CG1       -16.1620   19.8560   19.7460 C.3       1 VAL        -0.0584
    108 CG2       -18.4860   19.8710   18.7630 C.3       1 VAL        -0.0584
    109 N         -14.1000   20.5520   16.9180 N.am      1 THR        -0.2613
    110 CA        -12.7060   20.2170   16.6020 C.3       1 THR         0.1564
    111 C         -11.8390   20.4330   17.8560 C.2       1 THR         0.2059
    112 O         -12.3650   20.7710   18.9120 O.2       1 THR        -0.3943
    113 CB        -12.2190   21.0630   15.4000 C.3       1 THR         0.0924
    114 OG1       -12.2680   22.4530   15.7430 O.3       1 THR        -0.3874
    115 CG2       -13.1630   20.8770   14.1920 C.3       1 THR        -0.0346
    116 N         -10.5270   20.2270   17.7660 N.am      1 MET        -0.2694
    117 CA         -9.6820   20.4200   18.9450 C.3       1 MET         0.0951
    118 C          -9.6480   21.8310   19.4910 C.2       1 MET         0.0601
    119 O          -9.9990   22.8050   18.7850 O.co2     1 MET        -0.5666
    120 CB         -8.2610   20.1050   18.5950 C.3       1 MET        -0.0089
    121 CG         -8.0290   18.6930   18.3470 C.3       1 MET        -0.0030
    122 SD         -6.2660   18.5990   17.9400 S.3       1 MET        -0.1639
    123 CE         -6.1770   16.8250   18.0420 C.3       1 MET        -0.0181
    124 OXT        -9.2130   21.9820   20.6540 O.co2     1 MET        -0.5666
    125 H         -15.4327    0.2288    7.2910 H         1 PHE         0.2017
    126 H         -15.2193    0.6658    8.8636 H         1 PHE         0.2017
    127 H         -14.3596    1.4158    7.6770 H         1 PHE         0.2017
    128 H         -16.3931    2.3944    6.7439 H         1 PHE         0.1122
    129 H         -17.5624    1.0986    9.2557 H         1 PHE         0.0507
    130 H         -17.7177    0.4072    7.6051 H         1 PHE         0.0507
    131 H         -19.1427    1.5627    5.9033 H         1 PHE         0.0557
    132 H         -18.8634    2.9990    9.9457 H         1 PHE         0.0557
    133 H         -21.2324    2.8030    5.6146 H         1 PHE         0.0599
    134 H         -21.0435    4.1737    9.6694 H         1 PHE         0.0599
    135 H         -22.1837    4.1184    7.4644 H         1 PHE         0.0559
    136 H         -15.8078    4.4390    7.1850 H         1 LEU         0.1885
    137 H         -14.4509    5.1651    9.6111 H         1 LEU         0.0800
    138 H         -14.7878    7.5173    8.6216 H         1 LEU         0.0315
    139 H         -15.6635    6.7127    7.2754 H         1 LEU         0.0315
    140 H         -13.5359    5.4380    6.7940 H         1 LEU         0.0298
    141 H         -12.5147    7.4043    5.6467 H         1 LEU         0.0232
    142 H         -13.4914    8.5067    6.6751 H         1 LEU         0.0232
    143 H         -14.3049    7.4179    5.5005 H         1 LEU         0.0232
    144 H         -12.4465    5.7599    9.0029 H         1 LEU         0.0232
    145 H         -12.3852    7.5319    8.7155 H         1 LEU         0.0232
    146 H         -11.4327    6.4198    7.6750 H         1 LEU         0.0232
    147 H         -15.0403    6.5624   11.2398 H         1 ASN         0.1885
    148 H         -17.8781    6.8265   11.8936 H         1 ASN         0.0826
    149 H         -15.4902    8.3298   13.0738 H         1 ASN         0.0551
    150 H         -15.8767    6.6297   13.5060 H         1 ASN         0.0551
    151 H         -17.3368    8.7946   16.0800 H         1 ASN         0.1814
    152 H         -15.7527    8.4189   15.4888 H         1 ASN         0.1814
    153 H         -18.9899    8.8619   12.1214 H         1 LYS         0.1883
    154 H         -18.2158   10.9458   10.2034 H         1 LYS         0.0800
    155 H         -20.2036   12.0660   10.8981 H         1 LYS         0.0312
    156 H         -20.2623   11.1551   12.4452 H         1 LYS         0.0312
    157 H         -21.8404    9.9405   11.2274 H         1 LYS         0.0269
    158 H         -20.3564    9.0358   10.7735 H         1 LYS         0.0269
    159 H         -20.2012   10.6308    8.7499 H         1 LYS         0.0317
    160 H         -21.8822   11.1197    9.1523 H         1 LYS         0.0317
    161 H         -22.4561    8.6098    9.1050 H         1 LYS         0.0813
    162 H         -20.8477    8.3675    8.3427 H         1 LYS         0.0813
    163 H         -22.5979    8.5597    6.7051 H         1 LYS         0.1994
    164 H         -21.5571    9.8265    6.5590 H         1 LYS         0.1994
    165 H         -23.0310   10.0485    7.2575 H         1 LYS         0.1994
    166 H         -17.8833   13.2455   10.8826 H         1 ASP         0.1884
    167 H         -15.8740   13.4165   12.9475 H         1 ASP         0.0819
    168 H         -15.5484   14.9890   11.2785 H         1 ASP         0.0478
    169 H         -16.3046   15.9800   12.5719 H         1 ASP         0.0478
    170 H         -15.9374   14.6582   14.9289 H         1 LEU         0.1883
    171 H         -18.1924   14.1208   16.5839 H         1 LEU         0.0800
    172 H         -17.1875   15.7258   18.1856 H         1 LEU         0.0315
    173 H         -16.0677   16.3003   16.9040 H         1 LEU         0.0315
    174 H         -15.1641   13.9565   16.7425 H         1 LEU         0.0298
    175 H         -13.8420   14.1481   18.8270 H         1 LEU         0.0232
    176 H         -15.0245   15.3416   19.4626 H         1 LEU         0.0232
    177 H         -14.0396   15.7374   18.0134 H         1 LEU         0.0232
    178 H         -17.1663   12.8109   17.6262 H         1 LEU         0.0232
    179 H         -16.8924   13.5615   19.2349 H         1 LEU         0.0232
    180 H         -15.7022   12.3879   18.5770 H         1 LEU         0.0232
    181 H         -20.1250   15.1307   16.7327 H         1 GLU         0.1883
    182 H         -20.3837   17.9170   15.7294 H         1 GLU         0.0801
    183 H         -22.2813   15.6370   14.9613 H         1 GLU         0.0330
    184 H         -20.9781   16.2581   13.8924 H         1 GLU         0.0330
    185 H         -22.0126   18.4368   13.7856 H         1 GLU         0.0433
    186 H         -23.2225   17.9782   15.0316 H         1 GLU         0.0433
    187 H         -21.7985   19.1237   16.9211 H         1 VAL         0.1883
    188 H         -23.7490   17.7354   18.6792 H         1 VAL         0.0802
    189 H         -21.7359   19.8461   19.6541 H         1 VAL         0.0343
    190 H         -22.8932   19.6620   21.8608 H         1 VAL         0.0234
    191 H         -24.1194   18.5774   21.1215 H         1 VAL         0.0234
    192 H         -23.9921   20.2868   20.5846 H         1 VAL         0.0234
    193 H         -20.8376   17.5417   19.5591 H         1 VAL         0.0234
    194 H         -22.2121   16.9712   20.5650 H         1 VAL         0.0234
    195 H         -21.0169   18.1248   21.2486 H         1 VAL         0.0234
    196 H         -25.6768   18.7029   18.4441 H         1 ASP         0.1884
    197 H         -27.2812   20.2538   17.8770 H         1 ASP         0.0819
    198 H         -26.7476   22.6514   18.5244 H         1 ASP         0.0478
    199 H         -25.0926   22.0960   18.9479 H         1 ASP         0.0478
    200 H         -25.7921   19.3346   15.7074 H         1 GLY         0.1881
    201 H         -26.3459   21.4545   13.8217 H         1 GLY         0.0763
    202 H         -25.8021   19.7824   13.4546 H         1 GLY         0.0763
    203 H         -23.5519   21.0074   15.5823 H         1 HIS         0.1884
    204 H         -21.9535   22.1634   13.3320 H         1 HIS         0.0817
    205 H         -20.9302   23.6868   15.0457 H         1 HIS         0.0420
    206 H         -22.1951   23.1390   16.1975 H         1 HIS         0.0420
    207 H         -21.7201   25.7667   13.4499 H         1 HIS         0.0729
    208 H         -25.9237   25.4237   14.0836 H         1 HIS         0.1199
    209 H         -24.0808   26.7997   12.9621 H         1 HIS         0.2361
    210 H         -19.9163   21.5793   13.1485 H         1 PHE         0.1885
    211 H         -19.1660   19.1751   14.5700 H         1 PHE         0.0823
    212 H         -17.1064   19.2560   13.1912 H         1 PHE         0.0474
    213 H         -17.6005   20.8702   12.5772 H         1 PHE         0.0474
    214 H         -18.7893   17.3232   12.8233 H         1 PHE         0.0557
    215 H         -18.9543   21.0118   10.6695 H         1 PHE         0.0557
    216 H         -20.1323   16.2389   11.0588 H         1 PHE         0.0599
    217 H         -20.2893   19.9381    8.9101 H         1 PHE         0.0599
    218 H         -20.8907   17.5490    9.0990 H         1 PHE         0.0559
    219 H         -17.3193   18.8073   15.8424 H         1 VAL         0.1883
    220 H         -16.4787   21.2281   17.3907 H         1 VAL         0.0802
    221 H         -16.9858   18.3728   18.4234 H         1 VAL         0.0343
    222 H         -16.5574   19.3796   20.6552 H         1 VAL         0.0234
    223 H         -16.1771   20.9490   19.8686 H         1 VAL         0.0234
    224 H         -15.1283   19.5203   19.5761 H         1 VAL         0.0234
    225 H         -19.0822   19.5773   17.8865 H         1 VAL         0.0234
    226 H         -18.5466   20.9608   18.8992 H         1 VAL         0.0234
    227 H         -18.8782   19.3671   19.6587 H         1 VAL         0.0234
    228 H         -14.3432   21.5144   17.0387 H         1 THR         0.1884
    229 H         -12.6506   19.1551   16.3203 H         1 THR         0.0826
    230 H         -11.1937   20.7689   15.1313 H         1 THR         0.0639
    231 H         -11.7060   22.6132   16.4920 H         1 THR         0.2101
    232 H         -12.8028   21.4841   13.3483 H         1 THR         0.0257
    233 H         -14.1785   21.1979   14.4674 H         1 THR         0.0257
    234 H         -13.1800   19.8167   13.8998 H         1 THR         0.0257
    235 H         -10.1211   19.9420   16.8976 H         1 MET         0.1875
    236 H         -10.0368   19.7408   19.7341 H         1 MET         0.0726
    237 H          -7.6175   20.4232   19.4285 H         1 MET         0.0313
    238 H          -7.9920   20.6673   17.6887 H         1 MET         0.0313
    239 H          -8.6432   18.3382   17.5062 H         1 MET         0.0378
    240 H          -8.2550   18.0969   19.2434 H         1 MET         0.0378
    241 H          -5.1502   16.4963   17.8239 H         1 MET         0.0340
    242 H          -6.8675   16.3805   17.3101 H         1 MET         0.0340
    243 H          -6.4582   16.5014   19.0550 H         1 MET         0.0340
@<TRIPOS>BOND
     1    1    2 1  
     2    2    3 1  
     3    2    5 1  
     4    3    4 2  
     5    3   12 am 
     6    5    6 1  
     7    6    7 ar 
     8    6    8 ar 
     9    7    9 ar 
    10    8   10 ar 
    11    9   11 ar 
    12   10   11 ar 
    13   12   13 1  
    14   13   14 1  
    15   13   16 1  
    16   14   15 2  
    17   14   20 am 
    18   16   17 1  
    19   17   18 1  
    20   17   19 1  
    21   20   21 1  
    22   21   22 1  
    23   21   24 1  
    24   22   23 2  
    25   22   28 am 
    26   24   25 1  
    27   25   26 2  
    28   25   27 am 
    29   28   29 1  
    30   29   30 1  
    31   29   32 1  
    32   30   31 2  
    33   30   37 am 
    34   32   33 1  
    35   33   34 1  
    36   34   35 1  
    37   35   36 1  
    38   37   38 1  
    39   38   39 1  
    40   38   41 1  
    41   39   40 2  
    42   39   45 am 
    43   41   42 1  
    44   42   43 ar 
    45   42   44 ar 
    46   45   46 1  
    47   46   47 1  
    48   46   49 1  
    49   47   48 2  
    50   47   53 am 
    51   49   50 1  
    52   50   51 1  
    53   50   52 1  
    54   53   54 1  
    55   54   55 1  
    56   54   57 1  
    57   55   56 2  
    58   55   62 am 
    59   57   58 1  
    60   58   59 1  
    61   59   60 ar 
    62   59   61 ar 
    63   62   63 1  
    64   63   64 1  
    65   63   66 1  
    66   64   65 2  
    67   64   69 am 
    68   66   67 1  
    69   66   68 1  
    70   69   70 1  
    71   70   71 1  
    72   70   73 1  
    73   71   72 2  
    74   71   77 am 
    75   73   74 1  
    76   74   75 ar 
    77   74   76 ar 
    78   77   78 1  
    79   78   79 1  
    80   79   80 2  
    81   79   81 am 
    82   81   82 1  
    83   82   83 1  
    84   82   85 1  
    85   83   84 2  
    86   83   91 am 
    87   85   86 1  
    88   86   87 1  
    89   86   88 2  
    90   87   89 2  
    91   88   90 1  
    92   89   90 1  
    93   91   92 1  
    94   92   93 1  
    95   92   95 1  
    96   93   94 2  
    97   93  102 am 
    98   95   96 1  
    99   96   97 ar 
   100   96   98 ar 
   101   97   99 ar 
   102   98  100 ar 
   103   99  101 ar 
   104  100  101 ar 
   105  102  103 1  
   106  103  104 1  
   107  103  106 1  
   108  104  105 2  
   109  104  109 am 
   110  106  107 1  
   111  106  108 1  
   112  109  110 1  
   113  110  111 1  
   114  110  113 1  
   115  111  112 2  
   116  111  116 am 
   117  113  114 1  
   118  113  115 1  
   119  116  117 1  
   120  117  118 1  
   121  117  120 1  
   122  118  119 ar 
   123  118  124 ar 
   124  120  121 1  
   125  121  122 1  
   126  122  123 1  
   127    1  125 1  
   128    1  126 1  
   129    1  127 1  
   130    2  128 1  
   131    5  129 1  
   132    5  130 1  
   133    7  131 1  
   134    8  132 1  
   135    9  133 1  
   136   10  134 1  
   137   11  135 1  
   138   12  136 1  
   139   13  137 1  
   140   16  138 1  
   141   16  139 1  
   142   17  140 1  
   143   18  141 1  
   144   18  142 1  
   145   18  143 1  
   146   19  144 1  
   147   19  145 1  
   148   19  146 1  
   149   20  147 1  
   150   21  148 1  
   151   24  149 1  
   152   24  150 1  
   153   27  151 1  
   154   27  152 1  
   155   28  153 1  
   156   29  154 1  
   157   32  155 1  
   158   32  156 1  
   159   33  157 1  
   160   33  158 1  
   161   34  159 1  
   162   34  160 1  
   163   35  161 1  
   164   35  162 1  
   165   36  163 1  
   166   36  164 1  
   167   36  165 1  
   168   37  166 1  
   169   38  167 1  
   170   41  168 1  
   171   41  169 1  
   172   45  170 1  
   173   46  171 1  
   174   49  172 1  
   175   49  173 1  
   176   50  174 1  
   177   51  175 1  
   178   51  176 1  
   179   51  177 1  
   180   52  178 1  
   181   52  179 1  
   182   52  180 1  
   183   53  181 1  
   184   54  182 1  
   185   57  183 1  
   186   57  184 1  
   187   58  185 1  
   188   58  186 1  
   189   62  187 1  
   190   63  188 1  
   191   66  189 1  
   192   67  190 1  
   193   67  191 1  
   194   67  192 1  
   195   68  193 1  
   196   68  194 1  
   197   68  195 1  
   198   69  196 1  
   199   70  197 1  
   200   73  198 1  
   201   73  199 1  
   202   77  200 1  
   203   78  201 1  
   204   78  202 1  
   205   81  203 1  
   206   82  204 1  
   207   85  205 1  
   208   85  206 1  
   209   88  207 1  
   210   89  208 1  
   211   90  209 1  
   212   91  210 1  
   213   92  211 1  
   214   95  212 1  
   215   95  213 1  
   216   97  214 1  
   217   98  215 1  
   218   99  216 1  
   219  100  217 1  
   220  101  218 1  
   221  102  219 1  
   222  103  220 1  
   223  106  221 1  
   224  107  222 1  
   225  107  223 1  
   226  107  224 1  
   227  108  225 1  
   228  108  226 1  
   229  108  227 1  
   230  109  228 1  
   231  110  229 1  
   232  113  230 1  
   233  114  231 1  
   234  115  232 1  
   235  115  233 1  
   236  115  234 1  
   237  116  235 1  
   238  117  236 1  
   239  120  237 1  
   240  120  238 1  
   241  121  239 1  
   242  121  240 1  
   243  123  241 1  
   244  123  242 1  
   245  123  243 1  
@<TRIPOS>SUBSTRUCTURE
     1 PHE         1

