4ifh_ligand
  -I-interpret- 

 58 61  0  0  0  0  0  0  0  0999 V2000
   99.9950   -4.3020   41.2400 C   0  0  0  0  0
   99.6360   -5.3280   40.3270 C   0  0  0  0  0
   99.2720   -6.6330   40.8170 C   0  0  0  0  0
   98.9110   -7.6590   39.8940 C   0  0  0  0  0
   98.9130   -7.3920   38.4990 C   0  0  0  0  0
   99.2710   -6.1120   38.0210 C   0  0  0  0  0
   99.6370   -5.0670   38.9520 C   0  0  0  0  0
  100.0020   -3.7620   38.4590 C   0  0  0  0  0
  100.3530   -2.7630   39.3450 C   0  0  0  0  0
  100.3510   -3.0270   40.7550 C   0  0  0  0  0
  100.7450   -1.9060   41.7630 C   0  0  0  0  0
  100.0970   -0.5440   41.4040 C   0  0  0  0  0
  101.1230    0.4430   40.9410 C   0  0  0  0  0
  102.4500    0.5880   41.7490 C   0  0  0  0  0
  102.6570    1.7360   42.5530 N   0  0  0  0  0
  103.8020    1.8540   43.2260 O   0  0  0  0  0
  103.3460   -0.2650   41.6800 O   0  0  0  0  0
   99.3720   -0.1090   42.5220 N   0  0  0  0  0
   98.2330   -0.7370   42.9880 C   0  0  0  0  0
   99.6480    0.9140   43.2870 N   0  0  0  0  0
   98.7310    1.0180   44.2660 N   0  0  0  0  0
   97.8130    0.0200   44.1440 C   0  0  0  0  0
   96.6240   -0.2250   45.0210 C   0  0  0  0  0
   95.7480   -1.2460   44.5220 N   0  0  0  0  0
   95.1320   -1.1340   43.2300 C   0  0  0  0  0
   95.3540   -0.1650   42.5260 O   0  0  0  0  0
   94.1670   -2.2600   42.7070 C   0  0  0  0  0
   94.2500   -2.7350   41.3740 C   0  0  0  0  0
   93.3720   -3.7440   40.9330 C   0  0  0  0  0
   92.4180   -4.2700   41.7990 C   0  0  0  0  0
   91.4480   -5.3780   41.3160 C   0  0  0  0  0
   92.3320   -3.7970   43.1180 C   0  0  0  0  0
   93.2160   -2.7890   43.5630 C   0  0  0  0  0
   99.9954   -4.4992   42.3120 H   0  0  0  0  0
   99.2724   -6.8354   41.8880 H   0  0  0  0  0
   98.6336   -8.6478   40.2593 H   0  0  0  0  0
   98.6374   -8.1773   37.7951 H   0  0  0  0  0
   99.2715   -5.9114   36.9496 H   0  0  0  0  0
  100.0008   -3.5643   37.3871 H   0  0  0  0  0
  100.6309   -1.7764   38.9741 H   0  0  0  0  0
  101.8279   -1.7859   41.7314 H   0  0  0  0  0
  100.3933   -2.1994   42.7521 H   0  0  0  0  0
   99.4121   -0.6505   40.5627 H   0  0  0  0  0
  100.6359    1.4146   41.0235 H   0  0  0  0  0
  101.4301    0.0887   39.9570 H   0  0  0  0  0
  101.9418    2.4605   42.6160 H   0  0  0  0  0
  103.7974    2.6762   43.7215 H   0  0  0  0  0
   97.7512   -1.6208   42.5698 H   0  0  0  0  0
   96.0538    0.7028   45.0679 H   0  0  0  0  0
   96.9943   -0.5555   45.9915 H   0  0  0  0  0
   95.5592   -2.0675   45.0964 H   0  0  0  0  0
   94.9919   -2.3201   40.6917 H   0  0  0  0  0
   93.4399   -4.1142   39.9100 H   0  0  0  0  0
   90.8608   -5.0046   40.4771 H   0  0  0  0  0
   92.0219   -6.2492   41.0002 H   0  0  0  0  0
   90.7815   -5.6567   42.1322 H   0  0  0  0  0
   91.5846   -4.2067   43.7974 H   0  0  0  0  0
   93.1489   -2.4249   44.5882 H   0  0  0  0  0
  1  2  4  0  0  0
  1 10  4  0  0  0
  2  3  4  0  0  0
  2  7  4  0  0  0
  3  4  4  0  0  0
  4  5  4  0  0  0
  5  6  4  0  0  0
  6  7  4  0  0  0
  7  8  4  0  0  0
  8  9  4  0  0  0
  9 10  4  0  0  0
 10 11  1  0  0  0
 11 12  1  0  0  0
 12 13  1  0  0  0
 12 18  1  0  0  0
 13 14  1  0  0  0
 14 15  1  0  0  0
 14 17  2  0  0  0
 15 16  1  0  0  0
 18 19  4  0  0  0
 18 20  4  0  0  0
 19 22  4  0  0  0
 20 21  4  0  0  0
 21 22  4  0  0  0
 22 23  1  0  0  0
 23 24  1  0  0  0
 24 25  1  0  0  0
 25 26  2  0  0  0
 25 27  1  0  0  0
 27 28  4  0  0  0
 27 33  4  0  0  0
 28 29  4  0  0  0
 29 30  4  0  0  0
 30 31  1  0  0  0
 30 32  4  0  0  0
 32 33  4  0  0  0
  1 34  1  0  0  0
  3 35  1  0  0  0
  4 36  1  0  0  0
  5 37  1  0  0  0
  6 38  1  0  0  0
  8 39  1  0  0  0
  9 40  1  0  0  0
 11 41  1  0  0  0
 11 42  1  0  0  0
 12 43  1  0  0  0
 13 44  1  0  0  0
 13 45  1  0  0  0
 15 46  1  0  0  0
 16 47  1  0  0  0
 19 48  1  0  0  0
 23 49  1  0  0  0
 23 50  1  0  0  0
 24 51  1  0  0  0
 28 52  1  0  0  0
 29 53  1  0  0  0
 31 54  1  0  0  0
 31 55  1  0  0  0
 31 56  1  0  0  0
 32 57  1  0  0  0
 33 58  1  0  0  0
M  END
$$$$
