5z7b_ligand
  -I-interpret- 

 20 20  0  0  0  0  0  0  0  0999 V2000
   36.7510   -3.5710   10.7760 C   0  0  0  0  0
   35.6020   -4.2780   11.1230 C   0  0  0  0  0
   37.2670   -2.5730   11.6210 C   0  0  0  0  0
   34.9500   -4.0250   12.3210 C   0  0  0  0  0
   36.6190   -2.2800   12.8360 C   0  0  0  0  0
   37.0740   -1.3220   13.7100 O   0  0  0  0  0
   35.4080   -3.0400   13.1910 C   0  0  0  0  0
   37.3940   -3.9060    9.4700 C   0  0  0  0  0
   38.3940   -0.7750   13.6090 C   0  0  0  0  0
   37.3710   -5.0470    9.0030 O   0  0  0  0  0
   38.0500   -2.8540    8.7370 O   0  0  0  0  0
   34.7240   -2.8070   14.3520 O   0  0  0  0  0
   35.2112   -5.0378   10.4462 H   0  0  0  0  0
   38.1666   -2.0274   11.3362 H   0  0  0  0  0
   34.0663   -4.6060   12.5847 H   0  0  0  0  0
   39.1266   -1.5749   13.7168 H   0  0  0  0  0
   38.5150   -0.2985   12.6362 H   0  0  0  0  0
   38.5413   -0.0369   14.3974 H   0  0  0  0  0
   37.9818   -2.0323    9.2287 H   0  0  0  0  0
   35.1580   -2.1050   14.8424 H   0  0  0  0  0
  1  2  4  0  0  0
  1  3  4  0  0  0
  1  8  1  0  0  0
  2  4  4  0  0  0
  3  5  4  0  0  0
  4  7  4  0  0  0
  5  6  1  0  0  0
  5  7  4  0  0  0
  6  9  1  0  0  0
  7 12  1  0  0  0
  8 10  2  0  0  0
  8 11  1  0  0  0
  2 13  1  0  0  0
  3 14  1  0  0  0
  4 15  1  0  0  0
  9 16  1  0  0  0
  9 17  1  0  0  0
  9 18  1  0  0  0
 11 19  1  0  0  0
 12 20  1  0  0  0
M  END
$$$$
