4axd_ligand
  -I-interpret- 

 48 50  0  0  0  0  0  0  0  0999 V2000
  -22.0810    0.1340  -25.2910 P   0  0  0  0  0
  -22.9750   -1.1740  -25.0720 O   0  0  0  0  0
  -22.8920    1.2880  -26.0730 O   0  0  0  0  0
  -20.8560   -0.2770  -26.0330 O   0  0  0  0  0
  -20.3660    0.1990  -22.7660 P   0  0  0  0  0
  -20.0660   -1.2330  -22.9660 O   0  0  0  0  0
  -18.9790    1.0110  -22.8290 O   0  0  0  0  0
  -21.5580    0.8740  -23.8230 N   0  0  0  0  0
  -21.6900    1.7300  -20.8000 P   0  0  0  0  0
  -22.9680    1.9250  -21.5760 O   0  0  0  0  0
  -20.6550    2.8250  -20.7300 O   0  0  0  0  0
  -20.9820    0.3680  -21.2890 O   0  0  0  0  0
  -22.0360    1.2980  -19.2950 O   0  0  0  0  0
  -22.9210    0.2210  -19.0370 C   0  0  0  0  0
  -23.9350    0.6410  -17.9800 C   0  0  0  0  0
  -23.2550    1.0140  -16.7870 O   0  0  0  0  0
  -24.7540    1.8630  -18.3720 C   0  0  0  0  0
  -25.9100    1.5020  -19.1410 O   0  0  0  0  0
  -25.0560    2.5330  -17.0430 C   0  0  0  0  0
  -26.2320    2.0190  -16.4280 O   0  0  0  0  0
  -23.8760    2.1350  -16.1670 C   0  0  0  0  0
  -22.9190    3.2610  -16.1100 N   0  0  0  0  0
  -21.9720    3.5660  -17.0180 C   0  0  0  0  0
  -21.2850    4.6590  -16.6340 N   0  0  0  0  0
  -21.7950    5.0710  -15.4640 C   0  0  0  0  0
  -21.5290    6.1610  -14.5030 C   0  0  0  0  0
  -20.5630    7.0790  -14.7180 N   0  0  0  0  0
  -22.2980    6.2140  -13.3930 N   0  0  0  0  0
  -23.2830    5.3240  -13.1600 C   0  0  0  0  0
  -23.5760    4.3040  -13.9850 N   0  0  0  0  0
  -22.8760    4.1430  -15.1280 C   0  0  0  0  0
  -23.7738   -0.9380  -24.5946 H   0  0  0  0  0
  -23.6725    1.5274  -25.5679 H   0  0  0  0  0
  -19.1512    1.9467  -22.7010 H   0  0  0  0  0
  -21.9781    1.7660  -23.5616 H   0  0  0  0  0
  -19.9129    2.5288  -20.1979 H   0  0  0  0  0
  -22.3542   -0.6375  -18.6767 H   0  0  0  0  0
  -23.4429   -0.0490  -19.9550 H   0  0  0  0  0
  -24.5942   -0.2183  -17.8572 H   0  0  0  0  0
  -24.2320    2.5488  -19.0393 H   0  0  0  0  0
  -26.4010    2.2946  -19.3698 H   0  0  0  0  0
  -25.2046    3.6046  -17.1763 H   0  0  0  0  0
  -26.3801    2.4720  -15.5946 H   0  0  0  0  0
  -24.1970    1.8899  -15.1546 H   0  0  0  0  0
  -21.7875    3.0066  -17.9351 H   0  0  0  0  0
  -19.9932    7.0315  -15.5626 H   0  0  0  0  0
  -20.4029    7.8202  -14.0358 H   0  0  0  0  0
  -23.8750    5.4377  -12.2519 H   0  0  0  0  0
  1  2  1  0  0  0
  1  3  1  0  0  0
  1  4  2  0  0  0
  8  1  1  0  0  0
  5  6  2  0  0  0
  5  7  1  0  0  0
  5  8  1  0  0  0
 12  5  1  0  0  0
  9 10  2  0  0  0
  9 11  1  0  0  0
  9 12  1  0  0  0
  9 13  1  0  0  0
 13 14  1  0  0  0
 14 15  1  0  0  0
 15 16  1  0  0  0
 15 17  1  0  0  0
 16 21  1  0  0  0
 17 18  1  0  0  0
 17 19  1  0  0  0
 19 20  1  0  0  0
 19 21  1  0  0  0
 21 22  1  0  0  0
 22 23  4  0  0  0
 22 31  4  0  0  0
 23 24  4  0  0  0
 24 25  4  0  0  0
 25 26  4  0  0  0
 25 31  4  0  0  0
 26 27  1  0  0  0
 26 28  4  0  0  0
 28 29  4  0  0  0
 29 30  4  0  0  0
 30 31  4  0  0  0
  2 32  1  0  0  0
  3 33  1  0  0  0
  7 34  1  0  0  0
  8 35  1  0  0  0
 11 36  1  0  0  0
 14 37  1  0  0  0
 14 38  1  0  0  0
 15 39  1  0  0  0
 17 40  1  0  0  0
 18 41  1  0  0  0
 19 42  1  0  0  0
 20 43  1  0  0  0
 21 44  1  0  0  0
 23 45  1  0  0  0
 27 46  1  0  0  0
 27 47  1  0  0  0
 29 48  1  0  0  0
M  END
$$$$
