1hqh_ligand
  -I-interpret- 

 23 22  0  0  0  0  0  0  0  0999 V2000
   39.5370   22.0430   -8.5130 N   0  3  0  0  0
   39.1960   22.0230   -9.9270 C   0  0  0  0  0
   40.2570   22.7020  -10.7920 C   0  0  0  0  0
   41.2790   23.2280  -10.4010 O   0  0  0  0  0
   37.8010   22.6840  -10.0910 C   0  0  0  0  0
   37.5870   24.1490   -9.6050 C   0  0  0  0  0
   36.5210   24.7740  -10.4350 N   0  0  0  0  0
   35.9520   26.0240  -10.3390 C   0  0  0  0  0
   36.3810   26.9340   -9.3140 N   0  0  0  0  0
   34.9900   26.4680  -11.1660 N   0  0  0  0  0
   35.8620   28.1180   -9.2130 O   0  0  0  0  0
   39.9310   22.6390  -12.0910 O   0  0  0  0  0
   40.4521   21.6129   -8.3791 H   0  0  0  0  0
   39.5623   23.0082   -8.1842 H   0  0  0  0  0
   38.8349   21.5219   -7.9878 H   0  0  0  0  0
   39.1608   20.9915  -10.2775 H   0  0  0  0  0
   37.1354   22.0853   -9.4692 H   0  0  0  0  0
   37.6368   22.7221  -11.1679 H   0  0  0  0  0
   38.5144   24.7127   -9.7062 H   0  0  0  0  0
   37.2905   24.1524   -8.5561 H   0  0  0  0  0
   36.1578   24.1887  -11.1873 H   0  0  0  0  0
   34.6064   27.4054  -11.0454 H   0  0  0  0  0
   39.0900   22.1860  -12.1871 H   0  0  0  0  0
  1  2  1  0  0  0
  2  3  1  0  0  0
  2  5  1  0  0  0
  3  4  2  0  0  0
  3 12  1  0  0  0
  5  6  1  0  0  0
  6  7  1  0  0  0
  7  8  1  0  0  0
  8  9  4  0  0  0
  8 10  2  0  0  0
  9 11  2  0  0  0
  1 13  1  0  0  0
  1 14  1  0  0  0
  1 15  1  0  0  0
  2 16  1  0  0  0
  5 17  1  0  0  0
  5 18  1  0  0  0
  6 19  1  0  0  0
  6 20  1  0  0  0
  7 21  1  0  0  0
 10 22  1  0  0  0
 12 23  1  0  0  0
M  END
$$$$
