4m7b_ligand
  -I-interpret- 

 35 37  0  0  0  0  0  0  0  0999 V2000
    4.0460   14.6180  -13.2230 C   0  0  0  0  0
    5.0300   13.5780  -13.5160 C   0  0  0  0  0
    5.5570   12.7870  -12.4800 C   0  0  0  0  0
    5.3980   13.3180  -14.7800 N   0  0  0  0  0
    6.2390   12.4050  -15.0480 N   0  0  0  0  0
    6.7450   12.0830  -16.2430 C   0  0  0  0  0
    7.6020   11.0620  -16.0260 N   0  0  0  0  0
    7.6150   10.7930  -14.7850 N   0  0  0  0  0
    6.7900   11.5950  -14.1140 C   0  0  0  0  0
    6.4810   11.7950  -12.8140 C   0  0  0  0  0
    6.9860   11.0120  -11.8530 N   0  0  0  0  0
    6.6470   11.1120  -10.4100 C   0  0  0  0  0
    7.4840   10.1650   -9.4850 C   0  0  0  0  0
    7.1510   10.3860   -8.1070 C   0  0  0  0  0
    7.9910   11.1730   -7.3170 C   0  0  0  0  0
    7.7210   11.4510   -5.9800 C   0  0  0  0  0
    6.5560   10.9900   -5.4230 C   0  0  0  0  0
    6.3490   11.2870   -4.1230 O   0  0  0  0  0
    5.6760   10.2120   -6.1710 C   0  0  0  0  0
    5.9630    9.9080   -7.5260 C   0  0  0  0  0
    3.1656   14.1653  -12.7668 H   0  0  0  0  0
    4.4803   15.3440  -12.5356 H   0  0  0  0  0
    3.7608   15.1177  -14.1488 H   0  0  0  0  0
    5.2528   12.9438  -11.4451 H   0  0  0  0  0
    6.5126   12.5505  -17.1998 H   0  0  0  0  0
    7.6534   10.2930  -12.1322 H   0  0  0  0  0
    5.6017   10.8216  -10.3050 H   0  0  0  0  0
    6.8611   12.1348  -10.1001 H   0  0  0  0  0
    8.5439   10.3733   -9.6311 H   0  0  0  0  0
    7.2596    9.1298   -9.7420 H   0  0  0  0  0
    8.8946   11.5864   -7.7651 H   0  0  0  0  0
    8.4272   12.0282   -5.3831 H   0  0  0  0  0
    5.5092   10.9169   -3.8412 H   0  0  0  0  0
    4.7619    9.8348   -5.7126 H   0  0  0  0  0
    5.2676    9.3080   -8.1131 H   0  0  0  0  0
  1  2  1  0  0  0
  2  3  4  0  0  0
  2  4  4  0  0  0
  3 10  4  0  0  0
  4  5  4  0  0  0
  5  6  4  0  0  0
  5  9  4  0  0  0
  6  7  4  0  0  0
  7  8  4  0  0  0
  8  9  4  0  0  0
  9 10  4  0  0  0
 10 11  1  0  0  0
 11 12  1  0  0  0
 12 13  1  0  0  0
 13 14  1  0  0  0
 14 15  4  0  0  0
 14 20  4  0  0  0
 15 16  4  0  0  0
 16 17  4  0  0  0
 17 18  1  0  0  0
 17 19  4  0  0  0
 19 20  4  0  0  0
  1 21  1  0  0  0
  1 22  1  0  0  0
  1 23  1  0  0  0
  3 24  1  0  0  0
  6 25  1  0  0  0
 11 26  1  0  0  0
 12 27  1  0  0  0
 12 28  1  0  0  0
 13 29  1  0  0  0
 13 30  1  0  0  0
 15 31  1  0  0  0
 16 32  1  0  0  0
 18 33  1  0  0  0
 19 34  1  0  0  0
 20 35  1  0  0  0
M  END
$$$$
