### 
### Created by X-TOOL on Mon Sep 10 21:13:34 2018
### 

@<TRIPOS>MOLECULE
5w1v_ligand
  155   155     1     0     0
SMALL
GAST_HUCK


@<TRIPOS>ATOM
      1 N          98.0080   64.8320  218.2970 N.4       1 VAL         0.2381
      2 CA         97.3810   65.4280  219.4740 C.3       1 VAL         0.0673
      3 C          98.4240   65.8860  220.4820 C.2       1 VAL         0.2270
      4 O          99.4140   65.1870  220.6910 O.2       1 VAL        -0.3907
      5 CB         96.3260   64.5100  220.1410 C.3       1 VAL         0.0139
      6 CG1        95.0620   64.4120  219.2970 C.3       1 VAL        -0.0553
      7 CG2        96.8950   63.1270  220.4500 C.3       1 VAL        -0.0553
      8 N          98.2000   67.0560  221.1160 N.am      1 MET        -0.2610
      9 CA         99.1000   67.5720  222.1430 C.3       1 MET         0.1318
     10 C          98.9650   66.7180  223.4030 C.2       1 MET         0.2039
     11 O          97.9200   66.0840  223.5970 O.2       1 MET        -0.3944
     12 CB         98.8270   69.0640  222.4350 C.3       1 MET        -0.0034
     13 CG         97.4890   69.3390  223.1100 C.3       1 MET        -0.0024
     14 SD         97.4790   70.8830  224.0560 S.3       1 MET        -0.1639
     15 CE         98.3240   70.3720  225.5170 C.3       1 MET        -0.0181
     16 N         100.0310   66.6710  224.2390 N.am      1 ALA        -0.2640
     17 CA        100.0660   65.8810  225.4820 C.3       1 ALA         0.1284
     18 C          98.8390   66.1380  226.3780 C.2       1 ALA         0.2061
     19 O          98.4480   67.2880  226.5700 O.2       1 ALA        -0.3942
     20 CB        101.3450   66.1620  226.2490 C.3       1 ALA        -0.0244
     21 N          98.1790   65.0770  226.8810 N.am      1 PRO        -0.2498
     22 CA         96.9690   65.2890  227.6930 C.3       1 PRO         0.1338
     23 C          97.2440   65.8420  229.0890 C.2       1 PRO         0.2041
     24 O          96.3660   66.4670  229.6810 O.2       1 PRO        -0.3944
     25 CB         96.3320   63.9070  227.7360 C.3       1 PRO        -0.0104
     26 CG         97.4710   62.9620  227.5790 C.3       1 PRO        -0.0281
     27 CD         98.4840   63.6400  226.7160 C.3       1 PRO         0.0369
     28 N          98.4630   65.6150  229.6100 N.am      1 ARG        -0.2637
     29 CA         98.9020   66.0910  230.9270 C.3       1 ARG         0.1311
     30 C         100.1350   67.0090  230.7780 C.2       1 ARG         0.2040
     31 O         100.7300   67.0670  229.6990 O.2       1 ARG        -0.3944
     32 CB         99.2370   64.8970  231.8370 C.3       1 ARG        -0.0092
     33 CG         98.9670   65.1500  233.3150 C.3       1 ARG        -0.0156
     34 CD         99.4790   64.0070  234.1770 C.3       1 ARG         0.0627
     35 NE         98.5670   63.7070  235.2800 N.pl3     1 ARG        -0.2723
     36 CZ         98.6400   64.2710  236.4800 C.cat     1 ARG         0.2882
     37 NH1        99.5780   65.1700  236.7440 N.pl3     1 ARG        -0.2849
     38 NH2        97.7690   63.9500  237.4210 N.pl3     1 ARG        -0.2849
     39 N         100.4930   67.7390  231.8530 N.am      1 THR        -0.2613
     40 CA        101.6600   68.6250  231.8940 C.3       1 THR         0.1565
     41 C         102.3060   68.5960  233.2940 C.2       1 THR         0.2065
     42 O         101.8310   67.8640  234.1650 O.2       1 THR        -0.3943
     43 CB        101.3100   70.0340  231.3740 C.3       1 THR         0.0924
     44 OG1       102.5190   70.7060  231.0330 O.3       1 THR        -0.3874
     45 CG2       100.4990   70.8640  232.3770 C.3       1 THR        -0.0346
     46 N         103.3880   69.3680  233.5050 N.am      1 LEU        -0.2636
     47 CA        104.0650   69.3920  234.8010 C.3       1 LEU         0.1312
     48 C         103.6220   70.5500  235.6840 C.2       1 LEU         0.2039
     49 O         103.6690   71.7030  235.2510 O.2       1 LEU        -0.3944
     50 CB        105.5920   69.4380  234.6270 C.3       1 LEU        -0.0101
     51 CG        106.2860   68.1900  234.1020 C.3       1 LEU        -0.0425
     52 CD1       107.7770   68.3280  234.2290 C.3       1 LEU        -0.0625
     53 CD2       105.8460   66.9590  234.8470 C.3       1 LEU        -0.0625
     54 N         103.2170   70.2520  236.9340 N.am      1 ILE        -0.2635
     55 CA        102.9040   71.2940  237.9130 C.3       1 ILE         0.1335
     56 C         104.2130   71.5810  238.6300 C.2       1 ILE         0.2036
     57 O         104.6050   70.8460  239.5480 O.2       1 ILE        -0.3944
     58 CB        101.7400   70.9250  238.8840 C.3       1 ILE        -0.0037
     59 CG1       100.4310   70.7250  238.1200 C.3       1 ILE        -0.0491
     60 CG2       101.5590   71.9850  239.9880 C.3       1 ILE        -0.0582
     61 CD1        99.9020   69.4100  238.2710 C.3       1 ILE        -0.0648
     62 N         104.9430   72.5820  238.1230 N.am      1 LEU        -0.2695
     63 CA        106.2440   72.9860  238.6450 C.3       1 LEU         0.0946
     64 C         106.1230   73.5720  240.0510 C.2       1 LEU         0.0601
     65 O         106.9910   73.2620  240.8970 O.co2     1 LEU        -0.5666
     66 CB        106.9040   73.9980  237.6980 C.3       1 LEU        -0.0156
     67 CG        107.0520   73.5570  236.2490 C.3       1 LEU        -0.0431
     68 CD1       107.1550   74.7500  235.3320 C.3       1 LEU        -0.0625
     69 CD2       108.2390   72.6290  236.0690 C.3       1 LEU        -0.0625
     70 OXT       105.1350   74.2980  240.3150 O.co2     1 LEU        -0.5666
     71 H1         98.6807   65.4765  217.9121 H         1 VAL         0.2015
     72 H2         97.3023   64.6305  217.6061 H         1 VAL         0.2015
     73 H3         98.4737   63.9778  218.5606 H         1 VAL         0.2015
     74 H4         96.8472   66.3254  219.1282 H         1 VAL         0.1101
     75 H5         96.0475   64.9723  221.0995 H         1 VAL         0.0376
     76 H6         94.3364   63.7546  219.7984 H         1 VAL         0.0236
     77 H7         95.3117   63.9967  218.3095 H         1 VAL         0.0236
     78 H8         94.6249   65.4138  219.1736 H         1 VAL         0.0236
     79 H9         97.8048   63.2326  221.0592 H         1 VAL         0.0236
     80 H10        97.1414   62.6133  219.5091 H         1 VAL         0.0236
     81 H11        96.1488   62.5389  221.0043 H         1 VAL         0.0236
     82 H12        97.3889   67.5883  220.8737 H         1 MET         0.1884
     83 H13       100.1327   67.4838  221.7746 H         1 MET         0.0800
     84 H14        98.8498   69.6110  221.4809 H         1 MET         0.0320
     85 H15        99.6266   69.4380  223.0913 H         1 MET         0.0320
     86 H16        97.2637   68.5074  223.7938 H         1 MET         0.0378
     87 H17        96.7107   69.3976  222.3349 H         1 MET         0.0378
     88 H18        98.4013   71.2212  226.2118 H         1 MET         0.0340
     89 H19        99.3326   70.0209  225.2535 H         1 MET         0.0340
     90 H20        97.7652   69.5552  225.9971 H         1 MET         0.0340
     91 H21       100.8418   67.2042  223.9977 H         1 ALA         0.1883
     92 H22       100.0602   64.8170  225.2029 H         1 ALA         0.0797
     93 H23       101.3567   65.5658  227.1733 H         1 ALA         0.0277
     94 H24       101.3935   67.2314  226.5019 H         1 ALA         0.0277
     95 H25       102.2118   65.8924  225.6278 H         1 ALA         0.0277
     96 H26        96.2998   65.9941  227.1783 H         1 PRO         0.0802
     97 H27        95.6113   63.7861  226.9138 H         1 PRO         0.0313
     98 H28        95.8225   63.7443  228.6972 H         1 PRO         0.0313
     99 H29        97.1280   62.0329  227.1004 H         1 PRO         0.0287
    100 H30        97.9070   62.7290  228.5617 H         1 PRO         0.0287
    101 H31        99.5048   63.4138  227.0577 H         1 PRO         0.0524
    102 H32        98.3726   63.3334  225.6655 H         1 PRO         0.0524
    103 H33        99.1133   65.0869  229.0638 H         1 ARG         0.1883
    104 H34        98.0850   66.6673  231.3856 H         1 ARG         0.0800
    105 H35       100.3040   64.6585  231.7161 H         1 ARG         0.0313
    106 H36        98.6305   64.0370  231.5168 H         1 ARG         0.0313
    107 H37        97.8828   65.2552  233.4677 H         1 ARG         0.0301
    108 H38        99.4718   66.0795  233.6169 H         1 ARG         0.0301
    109 H39       100.4593   64.2851  234.5914 H         1 ARG         0.0689
    110 H40        99.5871   63.1094  233.5504 H         1 ARG         0.0689
    111 H41        97.8217   63.0153  235.1160 H         1 ARG         0.2642
    112 H42        99.6282   65.6031  237.6772 H         1 ARG         0.2615
    113 H43       100.2565   65.4353  236.0159 H         1 ARG         0.2615
    114 H44        97.0357   63.2529  237.2279 H         1 ARG         0.2615
    115 H45        97.8236   64.3969  238.3474 H         1 ARG         0.2615
    116 H46        99.9267   67.6719  232.6745 H         1 THR         0.1884
    117 H47       102.4053   68.2142  231.1971 H         1 THR         0.0826
    118 H48       100.7022   69.9210  230.4642 H         1 THR         0.0639
    119 H49       102.3162   71.5764  230.7109 H         1 THR         0.2101
    120 H50       100.2841   71.8528  231.9456 H         1 THR         0.0257
    121 H51       101.0778   70.9865  233.3044 H         1 THR         0.0257
    122 H52        99.5535   70.3480  232.6003 H         1 THR         0.0257
    123 H53       103.7363   69.9370  232.7601 H         1 LEU         0.1883
    124 H54       103.8090   68.4577  235.3221 H         1 LEU         0.0800
    125 H55       106.0273   69.6654  235.6113 H         1 LEU         0.0315
    126 H56       105.8177   70.2569  233.9281 H         1 LEU         0.0315
    127 H57       106.0280   68.0701  233.0394 H         1 LEU         0.0298
    128 H58       108.2633   67.4188  233.8457 H         1 LEU         0.0232
    129 H59       108.0435   68.4681  235.2870 H         1 LEU         0.0232
    130 H60       108.1156   69.1980  233.6472 H         1 LEU         0.0232
    131 H61       104.7550   66.8484  234.7604 H         1 LEU         0.0232
    132 H62       106.1218   67.0541  235.9076 H         1 LEU         0.0232
    133 H63       106.3394   66.0746  234.4176 H         1 LEU         0.0232
    134 H64       103.1278   69.2922  237.2003 H         1 ILE         0.1883
    135 H65       102.5944   72.1996  237.3708 H         1 ILE         0.0803
    136 H66       101.9987   69.9728  239.3701 H         1 ILE         0.0345
    137 H67       100.6153   70.9097  237.0514 H         1 ILE         0.0267
    138 H68        99.6908   71.4473  238.4946 H         1 ILE         0.0267
    139 H69       102.5081   72.1176  240.5281 H         1 ILE         0.0235
    140 H70       100.7805   71.6533  240.6907 H         1 ILE         0.0235
    141 H71       101.2594   72.9407  239.5332 H         1 ILE         0.0235
    142 H72        98.9643   69.3245  237.7022 H         1 ILE         0.0230
    143 H73        99.7044   69.2142  239.3352 H         1 ILE         0.0230
    144 H74       100.6289   68.6766  237.8920 H         1 ILE         0.0230
    145 H75       104.5746   73.0827  237.3397 H         1 LEU         0.1875
    146 H76       106.8844   72.0933  238.6998 H         1 LEU         0.0726
    147 H77       107.9091   74.2175  238.0873 H         1 LEU         0.0308
    148 H78       106.2975   74.9156  237.7103 H         1 LEU         0.0308
    149 H79       106.1453   72.9980  235.9743 H         1 LEU         0.0297
    150 H80       107.2610   74.4055  234.2927 H         1 LEU         0.0232
    151 H81       108.0329   75.3516  235.6102 H         1 LEU         0.0232
    152 H82       106.2463   75.3629  235.4242 H         1 LEU         0.0232
    153 H83       108.1387   71.7695  236.7481 H         1 LEU         0.0232
    154 H84       109.1673   73.1721  236.2997 H         1 LEU         0.0232
    155 H85       108.2714   72.2726  235.0288 H         1 LEU         0.0232
@<TRIPOS>BOND
     1    1    2 1  
     2    2    3 1  
     3    2    5 1  
     4    3    4 2  
     5    3    8 am 
     6    5    6 1  
     7    5    7 1  
     8    8    9 1  
     9    9   10 1  
    10    9   12 1  
    11   10   11 2  
    12   10   16 am 
    13   12   13 1  
    14   13   14 1  
    15   14   15 1  
    16   16   17 1  
    17   17   18 1  
    18   17   20 1  
    19   18   19 2  
    20   18   21 am 
    21   21   22 1  
    22   21   27 1  
    23   22   23 1  
    24   22   25 1  
    25   23   24 2  
    26   23   28 am 
    27   25   26 1  
    28   26   27 1  
    29   28   29 1  
    30   29   30 1  
    31   29   32 1  
    32   30   31 2  
    33   30   39 am 
    34   32   33 1  
    35   33   34 1  
    36   34   35 1  
    37   35   36 ar 
    38   36   37 ar 
    39   36   38 ar 
    40   39   40 1  
    41   40   41 1  
    42   40   43 1  
    43   41   42 2  
    44   41   46 am 
    45   43   44 1  
    46   43   45 1  
    47   46   47 1  
    48   47   48 1  
    49   47   50 1  
    50   48   49 2  
    51   48   54 am 
    52   50   51 1  
    53   51   52 1  
    54   51   53 1  
    55   54   55 1  
    56   55   56 1  
    57   55   58 1  
    58   56   57 2  
    59   56   62 am 
    60   58   59 1  
    61   58   60 1  
    62   59   61 1  
    63   62   63 1  
    64   63   64 1  
    65   63   66 1  
    66   64   65 ar 
    67   64   70 ar 
    68   66   67 1  
    69   67   68 1  
    70   67   69 1  
    71    1   71 1  
    72    1   72 1  
    73    1   73 1  
    74    2   74 1  
    75    5   75 1  
    76    6   76 1  
    77    6   77 1  
    78    6   78 1  
    79    7   79 1  
    80    7   80 1  
    81    7   81 1  
    82    8   82 1  
    83    9   83 1  
    84   12   84 1  
    85   12   85 1  
    86   13   86 1  
    87   13   87 1  
    88   15   88 1  
    89   15   89 1  
    90   15   90 1  
    91   16   91 1  
    92   17   92 1  
    93   20   93 1  
    94   20   94 1  
    95   20   95 1  
    96   22   96 1  
    97   25   97 1  
    98   25   98 1  
    99   26   99 1  
   100   26  100 1  
   101   27  101 1  
   102   27  102 1  
   103   28  103 1  
   104   29  104 1  
   105   32  105 1  
   106   32  106 1  
   107   33  107 1  
   108   33  108 1  
   109   34  109 1  
   110   34  110 1  
   111   35  111 1  
   112   37  112 1  
   113   37  113 1  
   114   38  114 1  
   115   38  115 1  
   116   39  116 1  
   117   40  117 1  
   118   43  118 1  
   119   44  119 1  
   120   45  120 1  
   121   45  121 1  
   122   45  122 1  
   123   46  123 1  
   124   47  124 1  
   125   50  125 1  
   126   50  126 1  
   127   51  127 1  
   128   52  128 1  
   129   52  129 1  
   130   52  130 1  
   131   53  131 1  
   132   53  132 1  
   133   53  133 1  
   134   54  134 1  
   135   55  135 1  
   136   58  136 1  
   137   59  137 1  
   138   59  138 1  
   139   60  139 1  
   140   60  140 1  
   141   60  141 1  
   142   61  142 1  
   143   61  143 1  
   144   61  144 1  
   145   62  145 1  
   146   63  146 1  
   147   66  147 1  
   148   66  148 1  
   149   67  149 1  
   150   68  150 1  
   151   68  151 1  
   152   68  152 1  
   153   69  153 1  
   154   69  154 1  
   155   69  155 1  
@<TRIPOS>SUBSTRUCTURE
     1 VAL         1

