5w1v_ligand
  -I-interpret- 

155155  0  0  0  0  0  0  0  0999 V2000
   98.0080   64.8320  218.2970 N   0  3  0  0  0
   97.3810   65.4280  219.4740 C   0  0  0  0  0
   98.4240   65.8860  220.4820 C   0  0  0  0  0
   99.4140   65.1870  220.6910 O   0  0  0  0  0
   96.3260   64.5100  220.1410 C   0  0  0  0  0
   95.0620   64.4120  219.2970 C   0  0  0  0  0
   96.8950   63.1270  220.4500 C   0  0  0  0  0
   98.2000   67.0560  221.1160 N   0  0  0  0  0
   99.1000   67.5720  222.1430 C   0  0  0  0  0
   98.9650   66.7180  223.4030 C   0  0  0  0  0
   97.9200   66.0840  223.5970 O   0  0  0  0  0
   98.8270   69.0640  222.4350 C   0  0  0  0  0
   97.4890   69.3390  223.1100 C   0  0  0  0  0
   97.4790   70.8830  224.0560 S   0  0  0  0  0
   98.3240   70.3720  225.5170 C   0  0  0  0  0
  100.0310   66.6710  224.2390 N   0  0  0  0  0
  100.0660   65.8810  225.4820 C   0  0  0  0  0
   98.8390   66.1380  226.3780 C   0  0  0  0  0
   98.4480   67.2880  226.5700 O   0  0  0  0  0
  101.3450   66.1620  226.2490 C   0  0  0  0  0
   98.1790   65.0770  226.8810 N   0  0  0  0  0
   96.9690   65.2890  227.6930 C   0  0  0  0  0
   97.2440   65.8420  229.0890 C   0  0  0  0  0
   96.3660   66.4670  229.6810 O   0  0  0  0  0
   96.3320   63.9070  227.7360 C   0  0  0  0  0
   97.4710   62.9620  227.5790 C   0  0  0  0  0
   98.4840   63.6400  226.7160 C   0  0  0  0  0
   98.4630   65.6150  229.6100 N   0  0  0  0  0
   98.9020   66.0910  230.9270 C   0  0  0  0  0
  100.1350   67.0090  230.7780 C   0  0  0  0  0
  100.7300   67.0670  229.6990 O   0  0  0  0  0
   99.2370   64.8970  231.8370 C   0  0  0  0  0
   98.9670   65.1500  233.3150 C   0  0  0  0  0
   99.4790   64.0070  234.1770 C   0  0  0  0  0
   98.5670   63.7070  235.2800 N   0  0  0  0  0
   98.6400   64.2710  236.4800 C   0  0  0  0  0
   99.5780   65.1700  236.7440 N   0  0  0  0  0
   97.7690   63.9500  237.4210 N   0  0  0  0  0
  100.4930   67.7390  231.8530 N   0  0  0  0  0
  101.6600   68.6250  231.8940 C   0  0  0  0  0
  102.3060   68.5960  233.2940 C   0  0  0  0  0
  101.8310   67.8640  234.1650 O   0  0  0  0  0
  101.3100   70.0340  231.3740 C   0  0  0  0  0
  102.5190   70.7060  231.0330 O   0  0  0  0  0
  100.4990   70.8640  232.3770 C   0  0  0  0  0
  103.3880   69.3680  233.5050 N   0  0  0  0  0
  104.0650   69.3920  234.8010 C   0  0  0  0  0
  103.6220   70.5500  235.6840 C   0  0  0  0  0
  103.6690   71.7030  235.2510 O   0  0  0  0  0
  105.5920   69.4380  234.6270 C   0  0  0  0  0
  106.2860   68.1900  234.1020 C   0  0  0  0  0
  107.7770   68.3280  234.2290 C   0  0  0  0  0
  105.8460   66.9590  234.8470 C   0  0  0  0  0
  103.2170   70.2520  236.9340 N   0  0  0  0  0
  102.9040   71.2940  237.9130 C   0  0  0  0  0
  104.2130   71.5810  238.6300 C   0  0  0  0  0
  104.6050   70.8460  239.5480 O   0  0  0  0  0
  101.7400   70.9250  238.8840 C   0  0  0  0  0
  100.4310   70.7250  238.1200 C   0  0  0  0  0
  101.5590   71.9850  239.9880 C   0  0  0  0  0
   99.9020   69.4100  238.2710 C   0  0  0  0  0
  104.9430   72.5820  238.1230 N   0  0  0  0  0
  106.2440   72.9860  238.6450 C   0  0  0  0  0
  106.1230   73.5720  240.0510 C   0  0  0  0  0
  106.9910   73.2620  240.8970 O   0  0  0  0  0
  106.9040   73.9980  237.6980 C   0  0  0  0  0
  107.0520   73.5570  236.2490 C   0  0  0  0  0
  107.1550   74.7500  235.3320 C   0  0  0  0  0
  108.2390   72.6290  236.0690 C   0  0  0  0  0
  105.1350   74.2980  240.3150 O   0  0  0  0  0
   98.6885   65.4849  217.9084 H   0  0  0  0  0
   98.4789   63.9678  218.5650 H   0  0  0  0  0
   97.2930   64.6286  217.5986 H   0  0  0  0  0
   96.8384   66.3024  219.1147 H   0  0  0  0  0
   96.0543   64.9688  221.0917 H   0  0  0  0  0
   95.2929   63.9130  218.3558 H   0  0  0  0  0
   94.3088   63.8393  219.8381 H   0  0  0  0  0
   94.6829   65.4138  219.0951 H   0  0  0  0  0
   96.1546   62.5453  220.9992 H   0  0  0  0  0
   97.1387   62.6190  219.5169 H   0  0  0  0  0
   97.7964   63.2329  221.0537 H   0  0  0  0  0
   97.3726   67.5990  220.8689 H   0  0  0  0  0
  100.1266   67.5096  221.7820 H   0  0  0  0  0
   98.8130   69.5803  221.4751 H   0  0  0  0  0
   99.6055   69.4038  223.1180 H   0  0  0  0  0
   97.2932   68.5223  223.8048 H   0  0  0  0  0
   96.7336   69.4231  222.3287 H   0  0  0  0  0
   97.7693   69.5626  225.9917 H   0  0  0  0  0
   99.3232   70.0244  225.2545 H   0  0  0  0  0
   98.4000   71.2143  226.2047 H   0  0  0  0  0
  100.8580   67.2149  223.9928 H   0  0  0  0  0
  100.0391   64.8300  225.1943 H   0  0  0  0  0
  102.2031   65.8945  225.6324 H   0  0  0  0  0
  101.3919   67.2219  226.4989 H   0  0  0  0  0
  101.3554   65.5707  227.1646 H   0  0  0  0  0
   96.3230   66.0525  227.2597 H   0  0  0  0  0
   95.5855   63.7784  226.9523 H   0  0  0  0  0
   95.7883   63.7382  228.6655 H   0  0  0  0  0
   97.1386   62.0291  227.1238 H   0  0  0  0  0
   97.8983   62.7080  228.5490 H   0  0  0  0  0
   99.5064   63.3960  227.0046 H   0  0  0  0  0
   98.4258   63.3192  225.6759 H   0  0  0  0  0
   99.1263   65.0764  229.0529 H   0  0  0  0  0
   98.0925   66.6625  231.3811 H   0  0  0  0  0
  100.3039   64.6997  231.7322 H   0  0  0  0  0
   98.6007   64.0672  231.5293 H   0  0  0  0  0
   97.8902   65.2369  233.4599 H   0  0  0  0  0
   99.4836   66.0635  233.6095 H   0  0  0  0  0
  100.4408   64.3000  234.5980 H   0  0  0  0  0
   99.5641   63.1182  233.5518 H   0  0  0  0  0
   97.8289   63.0220  235.1176 H   0  0  0  0  0
   99.6219   65.6058  237.6652 H   0  0  0  0  0
  100.2557   65.4259  236.0259 H   0  0  0  0  0
   97.0371   63.2666  237.2268 H   0  0  0  0  0
   99.9154   67.6706  232.6909 H   0  0  0  0  0
  102.4236   68.2580  231.2082 H   0  0  0  0  0
  100.6724   69.9184  230.4975 H   0  0  0  0  0
  102.3140   71.5856  230.7075 H   0  0  0  0  0
   99.5625   70.3517  232.5974 H   0  0  0  0  0
  101.0735   70.9846  233.2954 H   0  0  0  0  0
  100.2867   71.8435  231.9485 H   0  0  0  0  0
  103.7432   69.9484  232.7452 H   0  0  0  0  0
  103.7793   68.4670  235.3019 H   0  0  0  0  0
  105.9936   69.5939  235.6283 H   0  0  0  0  0
  105.7757   70.2088  233.8785 H   0  0  0  0  0
  106.0097   68.0834  233.0530 H   0  0  0  0  0
  108.1112   69.1904  233.6522 H   0  0  0  0  0
  108.0397   68.4668  235.2777 H   0  0  0  0  0
  108.2577   67.4266  233.8489 H   0  0  0  0  0
  106.0877   67.0698  235.9041 H   0  0  0  0  0
  104.7699   66.8306  234.7306 H   0  0  0  0  0
  106.3628   66.0879  234.4442 H   0  0  0  0  0
  103.1260   69.2730  237.2056 H   0  0  0  0  0
  102.5187   72.1837  237.4149 H   0  0  0  0  0
  102.0097   69.9847  239.3649 H   0  0  0  0  0
  100.6335   70.8849  237.0610 H   0  0  0  0  0
   99.6997   71.4280  238.5188 H   0  0  0  0  0
  102.4782   72.0638  240.5685 H   0  0  0  0  0
  101.3325   72.9484  239.5313 H   0  0  0  0  0
  100.7387   71.6899  240.6423 H   0  0  0  0  0
  100.6232   68.6843  237.8952 H   0  0  0  0  0
   99.7067   69.2172  239.3259 H   0  0  0  0  0
   98.9730   69.3265  237.7070 H   0  0  0  0  0
  104.5672   73.0927  237.3241 H   0  0  0  0  0
  106.8719   72.0973  238.7083 H   0  0  0  0  0
  107.9145   74.1560  238.0747 H   0  0  0  0  0
  106.2561   74.8745  237.6867 H   0  0  0  0  0
  106.1553   72.9985  235.9805 H   0  0  0  0  0
  106.2540   75.3565  235.4244 H   0  0  0  0  0
  108.0252   75.3453  235.6087 H   0  0  0  0  0
  107.2600   74.4074  234.3026 H   0  0  0  0  0
  109.1510   73.1456  236.3681 H   0  0  0  0  0
  108.1025   71.7423  236.6880 H   0  0  0  0  0
  108.3131   72.3349  235.0221 H   0  0  0  0  0
  104.5999   74.4077  239.5256 H   0  0  0  0  0
  1  2  1  0  0  0
  2  3  1  0  0  0
  2  5  1  0  0  0
  3  4  2  0  0  0
  3  8  1  0  0  0
  5  6  1  0  0  0
  5  7  1  0  0  0
  8  9  1  0  0  0
  9 10  1  0  0  0
  9 12  1  0  0  0
 10 11  2  0  0  0
 10 16  1  0  0  0
 12 13  1  0  0  0
 13 14  1  0  0  0
 14 15  1  0  0  0
 16 17  1  0  0  0
 17 18  1  0  0  0
 17 20  1  0  0  0
 18 19  2  0  0  0
 18 21  1  0  0  0
 21 22  1  0  0  0
 21 27  1  0  0  0
 22 23  1  0  0  0
 22 25  1  0  0  0
 23 24  2  0  0  0
 23 28  1  0  0  0
 25 26  1  0  0  0
 26 27  1  0  0  0
 28 29  1  0  0  0
 29 30  1  0  0  0
 29 32  1  0  0  0
 30 31  2  0  0  0
 30 39  1  0  0  0
 32 33  1  0  0  0
 33 34  1  0  0  0
 34 35  1  0  0  0
 35 36  1  0  0  0
 36 37  1  0  0  0
 36 38  2  0  0  0
 39 40  1  0  0  0
 40 41  1  0  0  0
 40 43  1  0  0  0
 41 42  2  0  0  0
 41 46  1  0  0  0
 43 44  1  0  0  0
 43 45  1  0  0  0
 46 47  1  0  0  0
 47 48  1  0  0  0
 47 50  1  0  0  0
 48 49  2  0  0  0
 48 54  1  0  0  0
 50 51  1  0  0  0
 51 52  1  0  0  0
 51 53  1  0  0  0
 54 55  1  0  0  0
 55 56  1  0  0  0
 55 58  1  0  0  0
 56 57  2  0  0  0
 56 62  1  0  0  0
 58 59  1  0  0  0
 58 60  1  0  0  0
 59 61  1  0  0  0
 62 63  1  0  0  0
 63 64  1  0  0  0
 63 66  1  0  0  0
 64 65  2  0  0  0
 64 70  1  0  0  0
 66 67  1  0  0  0
 67 68  1  0  0  0
 67 69  1  0  0  0
  1 71  1  0  0  0
  1 72  1  0  0  0
  1 73  1  0  0  0
  2 74  1  0  0  0
  5 75  1  0  0  0
  6 76  1  0  0  0
  6 77  1  0  0  0
  6 78  1  0  0  0
  7 79  1  0  0  0
  7 80  1  0  0  0
  7 81  1  0  0  0
  8 82  1  0  0  0
  9 83  1  0  0  0
 12 84  1  0  0  0
 12 85  1  0  0  0
 13 86  1  0  0  0
 13 87  1  0  0  0
 15 88  1  0  0  0
 15 89  1  0  0  0
 15 90  1  0  0  0
 16 91  1  0  0  0
 17 92  1  0  0  0
 20 93  1  0  0  0
 20 94  1  0  0  0
 20 95  1  0  0  0
 22 96  1  0  0  0
 25 97  1  0  0  0
 25 98  1  0  0  0
 26 99  1  0  0  0
 26100  1  0  0  0
 27101  1  0  0  0
 27102  1  0  0  0
 28103  1  0  0  0
 29104  1  0  0  0
 32105  1  0  0  0
 32106  1  0  0  0
 33107  1  0  0  0
 33108  1  0  0  0
 34109  1  0  0  0
 34110  1  0  0  0
 35111  1  0  0  0
 37112  1  0  0  0
 37113  1  0  0  0
 38114  1  0  0  0
 39115  1  0  0  0
 40116  1  0  0  0
 43117  1  0  0  0
 44118  1  0  0  0
 45119  1  0  0  0
 45120  1  0  0  0
 45121  1  0  0  0
 46122  1  0  0  0
 47123  1  0  0  0
 50124  1  0  0  0
 50125  1  0  0  0
 51126  1  0  0  0
 52127  1  0  0  0
 52128  1  0  0  0
 52129  1  0  0  0
 53130  1  0  0  0
 53131  1  0  0  0
 53132  1  0  0  0
 54133  1  0  0  0
 55134  1  0  0  0
 58135  1  0  0  0
 59136  1  0  0  0
 59137  1  0  0  0
 60138  1  0  0  0
 60139  1  0  0  0
 60140  1  0  0  0
 61141  1  0  0  0
 61142  1  0  0  0
 61143  1  0  0  0
 62144  1  0  0  0
 63145  1  0  0  0
 66146  1  0  0  0
 66147  1  0  0  0
 67148  1  0  0  0
 68149  1  0  0  0
 68150  1  0  0  0
 68151  1  0  0  0
 69152  1  0  0  0
 69153  1  0  0  0
 69154  1  0  0  0
 70155  1  0  0  0
M  END
$$$$
