3bun_ligand
  -I-interpret- 

117118  0  0  0  0  0  0  0  0999 V2000
   57.4230  -40.6920    0.4640 N   0  3  0  0  0
   57.6850  -41.8270   -0.4880 C   0  0  0  0  0
   58.2410  -41.2580   -1.7850 C   0  0  0  0  0
   57.8640  -40.1520   -2.1760 O   0  0  0  0  0
   56.3970  -42.6080   -0.7970 C   0  0  0  0  0
   55.7900  -43.2390    0.4420 C   0  0  0  0  0
   56.5120  -43.8610    1.2350 O   0  0  0  0  0
   54.4620  -43.1010    0.6170 N   0  0  0  0  0
   59.1020  -42.0260   -2.4520 N   0  0  0  0  0
   59.7400  -41.5690   -3.6810 C   0  0  0  0  0
   58.9700  -41.7370   -5.0060 C   0  0  0  0  0
   58.7870  -42.8590   -5.5090 O   0  0  0  0  0
   61.1220  -42.2250   -3.8490 C   0  0  0  0  0
   62.0680  -41.9390   -2.6720 C   0  0  0  0  0
   62.0830  -40.7940   -2.1540 O   0  0  0  0  0
   62.8200  -42.8550   -2.2760 O   0  0  0  0  0
   58.5360  -40.6090   -5.5590 N   0  0  0  0  0
   57.8770  -40.6000   -6.8310 C   0  0  0  0  0
   58.8070  -40.0550   -7.9180 C   0  0  0  0  0
   59.3080  -38.9280   -7.7990 O   0  0  0  0  0
   56.6210  -39.7360   -6.7790 C   0  0  0  0  0
   55.5270  -40.3660   -5.9410 C   0  0  0  0  0
   54.7950  -41.4920   -6.4190 C   0  0  0  0  0
   55.2380  -39.8290   -4.6690 C   0  0  0  0  0
   53.7800  -42.0510   -5.5990 C   0  0  0  0  0
   54.2350  -40.3700   -3.8380 C   0  0  0  0  0
   53.5190  -41.4920   -4.3340 C   0  0  0  0  0
   52.5070  -42.0530   -3.4900 O   0  0  0  0  0
   51.9090  -41.4430   -2.0830 P   0  0  0  0  0
   53.0050  -41.4120   -1.0850 O   0  0  0  0  0
   50.8400  -42.3470   -1.6540 O   0  0  0  0  0
   51.4230  -40.0390   -2.2920 O   0  0  0  0  0
   59.0800  -40.8520   -8.9430 N   0  0  0  0  0
   59.9230  -40.3830  -10.0240 C   0  0  0  0  0
   59.0590  -39.6280  -11.0320 C   0  0  0  0  0
   57.8750  -39.9120  -11.1340 O   0  0  0  0  0
   60.7110  -41.5530  -10.6610 C   0  0  0  0  0
   59.7600  -42.6150  -11.2110 C   0  0  0  0  0
   61.6140  -42.1830   -9.5960 C   0  0  0  0  0
   60.0580  -43.0100  -12.6410 C   0  0  0  0  0
   59.6090  -38.6770  -11.7760 N   0  0  0  0  0
   58.7310  -37.8800  -12.6150 C   0  0  0  0  0
   58.2690  -38.3560  -13.9740 C   0  0  0  0  0
   57.0620  -38.2620  -14.2600 O   0  0  0  0  0
   59.2580  -36.4560  -12.7090 C   0  0  0  0  0
   58.5830  -35.5490  -11.7060 C   0  0  0  0  0
   59.2590  -34.6860  -11.1040 O   0  0  0  0  0
   57.3530  -35.7130  -11.5050 O   0  0  0  0  0
   59.1580  -38.8470  -14.8260 N   0  0  0  0  0
   58.6720  -39.2970  -16.1170 C   0  0  0  0  0
   59.4070  -40.4770  -16.7630 C   0  0  0  0  0
   60.5710  -40.3590  -17.1680 O   0  0  0  0  0
   58.6050  -38.1060  -17.0930 C   0  0  0  0  0
   57.2920  -37.3230  -16.9790 C   0  0  0  0  0
   56.2000  -37.8790  -17.1730 O   0  0  0  0  0
   57.3930  -36.0360  -16.6510 N   0  0  0  0  0
   58.7220  -41.6350  -16.8540 N   0  0  0  0  0
   59.2460  -42.8720  -17.4410 C   0  0  0  0  0
   59.8550  -42.6950  -18.8480 C   0  0  0  0  0
   59.5250  -41.7440  -19.5720 O   0  0  0  0  0
   58.0200  -43.7890  -17.4450 C   0  0  0  0  0
   57.3240  -43.3870  -16.1740 C   0  0  0  0  0
   57.3960  -41.8740  -16.2430 C   0  0  0  0  0
   60.7475  -43.5761  -19.2908 O   0  0  0  0  0
   58.2950  -40.1957    0.6477 H   0  0  0  0  0
   56.7466  -40.0511    0.0491 H   0  0  0  0  0
   57.0504  -41.0623    1.3383 H   0  0  0  0  0
   58.3968  -42.5103   -0.0249 H   0  0  0  0  0
   56.6473  -43.4078   -1.4940 H   0  0  0  0  0
   55.6698  -41.9085   -1.2092 H   0  0  0  0  0
   54.0087  -43.5179    1.4301 H   0  0  0  0  0
   53.9094  -42.5796   -0.0635 H   0  0  0  0  0
   59.3200  -42.9560   -2.0942 H   0  0  0  0  0
   59.7895  -40.4919   -3.5213 H   0  0  0  0  0
   61.5780  -41.8139   -4.7496 H   0  0  0  0  0
   60.9739  -43.3036   -3.9021 H   0  0  0  0  0
   61.4374  -40.2364   -2.5943 H   0  0  0  0  0
   58.6757  -39.7275   -5.0653 H   0  0  0  0  0
   57.6031  -41.6279   -7.0688 H   0  0  0  0  0
   56.2458  -39.6216   -7.7960 H   0  0  0  0  0
   56.8857  -38.7798   -6.3277 H   0  0  0  0  0
   55.0113  -41.9172   -7.3991 H   0  0  0  0  0
   55.8078  -38.9689   -4.3173 H   0  0  0  0  0
   53.2054  -42.9092   -5.9475 H   0  0  0  0  0
   54.0187  -39.9455   -2.8576 H   0  0  0  0  0
   53.6935  -40.8145   -1.3859 H   0  0  0  0  0
   52.1563  -39.4860   -2.5713 H   0  0  0  0  0
   58.6958  -41.7965   -8.9700 H   0  0  0  0  0
   60.6751  -39.6935   -9.6406 H   0  0  0  0  0
   61.3095  -41.1661  -11.4857 H   0  0  0  0  0
   58.7539  -42.1963  -11.1897 H   0  0  0  0  0
   59.8731  -43.5068  -10.5945 H   0  0  0  0  0
   62.3089  -41.4320   -9.2202 H   0  0  0  0  0
   61.0007  -42.5553   -8.7754 H   0  0  0  0  0
   62.1727  -43.0084  -10.0372 H   0  0  0  0  0
   59.9757  -42.1333  -13.2834 H   0  0  0  0  0
   61.0688  -43.4132  -12.7021 H   0  0  0  0  0
   59.3433  -43.7670  -12.9639 H   0  0  0  0  0
   60.6153  -38.5110  -11.7594 H   0  0  0  0  0
   57.7979  -37.9850  -12.0614 H   0  0  0  0  0
   59.0530  -36.0771  -13.7103 H   0  0  0  0  0
   60.3274  -36.4687  -12.4985 H   0  0  0  0  0
   57.0300  -36.4219  -12.0660 H   0  0  0  0  0
   60.1469  -38.9063  -14.5831 H   0  0  0  0  0
   57.6814  -39.6993  -15.9051 H   0  0  0  0  0
   58.6738  -38.4994  -18.1072 H   0  0  0  0  0
   59.4224  -37.4271  -16.8501 H   0  0  0  0  0
   56.5519  -35.4678  -16.5504 H   0  0  0  0  0
   58.3114  -35.6186  -16.5004 H   0  0  0  0  0
   60.0883  -43.2686  -16.8741 H   0  0  0  0  0
   58.2737  -44.8484  -17.4815 H   0  0  0  0  0
   57.3979  -43.6738  -18.3326 H   0  0  0  0  0
   57.7860  -43.8016  -15.2781 H   0  0  0  0  0
   56.3057  -43.7686  -16.0991 H   0  0  0  0  0
   56.5796  -41.4367  -16.8178 H   0  0  0  0  0
   57.2872  -41.3997  -15.2676 H   0  0  0  0  0
   60.8947  -44.2459  -18.6191 H   0  0  0  0  0
  1  2  1  0  0  0
  2  3  1  0  0  0
  2  5  1  0  0  0
  3  4  2  0  0  0
  3  9  1  0  0  0
  5  6  1  0  0  0
  6  7  2  0  0  0
  6  8  1  0  0  0
  9 10  1  0  0  0
 10 11  1  0  0  0
 10 13  1  0  0  0
 11 12  2  0  0  0
 11 17  1  0  0  0
 13 14  1  0  0  0
 14 15  1  0  0  0
 14 16  2  0  0  0
 17 18  1  0  0  0
 18 19  1  0  0  0
 18 21  1  0  0  0
 19 20  2  0  0  0
 19 33  1  0  0  0
 21 22  1  0  0  0
 22 23  4  0  0  0
 22 24  4  0  0  0
 23 25  4  0  0  0
 24 26  4  0  0  0
 25 27  4  0  0  0
 26 27  4  0  0  0
 27 28  1  0  0  0
 28 29  1  0  0  0
 29 30  1  0  0  0
 29 31  2  0  0  0
 29 32  1  0  0  0
 33 34  1  0  0  0
 34 35  1  0  0  0
 34 37  1  0  0  0
 35 36  2  0  0  0
 35 41  1  0  0  0
 37 38  1  0  0  0
 37 39  1  0  0  0
 38 40  1  0  0  0
 41 42  1  0  0  0
 42 43  1  0  0  0
 42 45  1  0  0  0
 43 44  2  0  0  0
 43 49  1  0  0  0
 45 46  1  0  0  0
 46 47  2  0  0  0
 46 48  1  0  0  0
 49 50  1  0  0  0
 50 51  1  0  0  0
 50 53  1  0  0  0
 51 52  2  0  0  0
 51 57  1  0  0  0
 53 54  1  0  0  0
 54 55  2  0  0  0
 54 56  1  0  0  0
 57 58  1  0  0  0
 57 63  1  0  0  0
 58 59  1  0  0  0
 58 61  1  0  0  0
 59 60  2  0  0  0
 61 62  1  0  0  0
 62 63  1  0  0  0
 59 64  1  0  0  0
  1 65  1  0  0  0
  1 66  1  0  0  0
  1 67  1  0  0  0
  2 68  1  0  0  0
  5 69  1  0  0  0
  5 70  1  0  0  0
  8 71  1  0  0  0
  8 72  1  0  0  0
  9 73  1  0  0  0
 10 74  1  0  0  0
 13 75  1  0  0  0
 13 76  1  0  0  0
 15 77  1  0  0  0
 17 78  1  0  0  0
 18 79  1  0  0  0
 21 80  1  0  0  0
 21 81  1  0  0  0
 23 82  1  0  0  0
 24 83  1  0  0  0
 25 84  1  0  0  0
 26 85  1  0  0  0
 30 86  1  0  0  0
 32 87  1  0  0  0
 33 88  1  0  0  0
 34 89  1  0  0  0
 37 90  1  0  0  0
 38 91  1  0  0  0
 38 92  1  0  0  0
 39 93  1  0  0  0
 39 94  1  0  0  0
 39 95  1  0  0  0
 40 96  1  0  0  0
 40 97  1  0  0  0
 40 98  1  0  0  0
 41 99  1  0  0  0
 42100  1  0  0  0
 45101  1  0  0  0
 45102  1  0  0  0
 48103  1  0  0  0
 49104  1  0  0  0
 50105  1  0  0  0
 53106  1  0  0  0
 53107  1  0  0  0
 56108  1  0  0  0
 56109  1  0  0  0
 58110  1  0  0  0
 61111  1  0  0  0
 61112  1  0  0  0
 62113  1  0  0  0
 62114  1  0  0  0
 63115  1  0  0  0
 63116  1  0  0  0
 64117  1  0  0  0
M  END
$$$$
