### 
### Created by X-TOOL on Mon Sep 10 21:12:58 2018
### 

@<TRIPOS>MOLECULE
3bun_ligand
  113   114     1     0     0
SMALL
GAST_HUCK


@<TRIPOS>ATOM
      1 N          57.4230  -40.6920    0.4640 N.4       1 ASN         0.2396
      2 CA         57.6850  -41.8270   -0.4880 C.3       1 ASN         0.0818
      3 C          58.2410  -41.2580   -1.7850 C.2       1 ASN         0.2292
      4 O          57.8640  -40.1520   -2.1760 O.2       1 ASN        -0.3905
      5 CB         56.3970  -42.6080   -0.7970 C.3       1 ASN         0.0972
      6 CG         55.7900  -43.2390    0.4420 C.2       1 ASN         0.1813
      7 OD1        56.5120  -43.8610    1.2350 O.2       1 ASN        -0.3969
      8 ND2        54.4620  -43.1010    0.6170 N.am      1 ASN        -0.3006
      9 N          59.1020  -42.0260   -2.4520 N.am      1 ASP        -0.2593
     10 CA         59.7400  -41.5690   -3.6810 C.3       1 ASP         0.1424
     11 C          58.9700  -41.7370   -5.0060 C.2       1 ASP         0.2058
     12 O          58.7870  -42.8590   -5.5090 O.2       1 ASP        -0.3942
     13 CB         61.1220  -42.2250   -3.8490 C.3       1 ASP         0.0406
     14 CG         62.0680  -41.9390   -2.6720 C.2       1 ASP         0.0393
     15 OD1        62.0830  -40.7940   -2.1540 O.co2     1 ASP        -0.5688
     16 OD2        62.8200  -42.8550   -2.2760 O.co2     1 ASP        -0.5688
     17 N          58.5360  -40.6090   -5.5590 N.am      1 PTR        -0.2606
     18 CA         57.8770  -40.6000   -6.8310 C.3       1 PTR         0.1468
     19 C          58.8070  -40.0550   -7.9180 C.2       1 PTR         0.2074
     20 O          59.3080  -38.9280   -7.7990 O.2       1 PTR        -0.3941
     21 CB         56.6210  -39.7360   -6.7790 C.3       1 PTR         0.0400
     22 CG         55.5270  -40.3660   -5.9410 C.ar      1 PTR        -0.0004
     23 CD1        54.7950  -41.4920   -6.4190 C.ar      1 PTR        -0.0239
     24 CD2        55.2380  -39.8290   -4.6690 C.ar      1 PTR        -0.0239
     25 CE1        53.7800  -42.0510   -5.5990 C.ar      1 PTR         0.0115
     26 CE2        54.2350  -40.3700   -3.8380 C.ar      1 PTR         0.0115
     27 CZ         53.5190  -41.4920   -4.3340 C.ar      1 PTR         0.1728
     28 OH         52.5070  -42.0530   -3.4900 O.3       1 PTR        -0.2040
     29 P          51.9090  -41.4430   -2.0830 P.3       1 PTR         0.1348
     30 O1P        53.0050  -41.4120   -1.0850 O.co2     1 PTR        -0.6653
     31 O2P        50.8400  -42.3470   -1.6540 O.co2     1 PTR        -0.6653
     32 O3P        51.4230  -40.0390   -2.2920 O.co2     1 PTR        -0.6653
     33 N          59.0800  -40.8520   -8.9430 N.am      1 ILE        -0.2632
     34 CA         59.9230  -40.3830  -10.0240 C.3       1 ILE         0.1335
     35 C          59.0590  -39.6280  -11.0320 C.2       1 ILE         0.2042
     36 O          57.8750  -39.9120  -11.1340 O.2       1 ILE        -0.3944
     37 CB         60.7110  -41.5530  -10.6610 C.3       1 ILE        -0.0037
     38 CG1        59.7600  -42.6150  -11.2110 C.3       1 ILE        -0.0491
     39 CG2        61.6140  -42.1830   -9.5960 C.3       1 ILE        -0.0582
     40 CD1        60.0580  -43.0100  -12.6410 C.3       1 ILE        -0.0648
     41 N          59.6090  -38.6770  -11.7760 N.am      1 ASP        -0.2622
     42 CA         58.7310  -37.8800  -12.6150 C.3       1 ASP         0.1423
     43 C          58.2690  -38.3560  -13.9740 C.2       1 ASP         0.2057
     44 O          57.0620  -38.2620  -14.2600 O.2       1 ASP        -0.3943
     45 CB         59.2580  -36.4560  -12.7090 C.3       1 ASP         0.0406
     46 CG         58.5830  -35.5490  -11.7060 C.2       1 ASP         0.0393
     47 OD1        59.2590  -34.6860  -11.1040 O.co2     1 ASP        -0.5688
     48 OD2        57.3530  -35.7130  -11.5050 O.co2     1 ASP        -0.5688
     49 N          59.1580  -38.8470  -14.8260 N.am      1 ASN        -0.2615
     50 CA         58.6720  -39.2970  -16.1170 C.3       1 ASN         0.1478
     51 C          59.4070  -40.4770  -16.7630 C.2       1 ASN         0.2088
     52 O          60.5710  -40.3590  -17.1680 O.2       1 ASN        -0.3940
     53 CB         58.6050  -38.1060  -17.0930 C.3       1 ASN         0.0773
     54 CG         57.2920  -37.3230  -16.9790 C.2       1 ASN         0.1780
     55 OD1        56.2000  -37.8790  -17.1730 O.2       1 ASN        -0.3970
     56 ND2        57.3930  -36.0360  -16.6510 N.am      1 ASN        -0.3007
     57 N          58.7220  -41.6350  -16.8540 N.am      1 PRO        -0.2483
     58 CA         59.2460  -42.8720  -17.4410 C.3       1 PRO         0.1448
     59 C          59.8550  -42.6950  -18.8480 C.2       1 PRO         0.2573
     60 O          59.5250  -41.7440  -19.5720 O.2       1 PRO        -0.3680
     61 CB         58.0200  -43.7890  -17.4450 C.3       1 PRO        -0.0090
     62 CG         57.3240  -43.3870  -16.1740 C.3       1 PRO        -0.0280
     63 CD         57.3960  -41.8740  -16.2430 C.3       1 PRO         0.0371
     64 O          60.7475  -43.5761  -19.2908 O.3       1 PRO        -0.2910
     65 H1         57.0539  -41.0567    1.3282 H         1 ASN         0.2017
     66 H2         56.7552  -40.0575    0.0547 H         1 ASN         0.2017
     67 H3         58.2843  -40.2014    0.6471 H         1 ASN         0.2017
     68 H4         58.4209  -42.5107   -0.0396 H         1 ASN         0.1125
     69 H5         56.6314  -43.4036   -1.5195 H         1 ASN         0.0585
     70 H6         55.6626  -41.9175   -1.2373 H         1 ASN         0.0585
     71 H7         54.0192  -43.5007    1.4196 H         1 ASN         0.1814
     72 H8         53.9185  -42.5988   -0.0557 H         1 ASN         0.1814
     73 H9         59.3157  -42.9377   -2.1012 H         1 ASP         0.1886
     74 H10        59.8959  -40.4878   -3.5515 H         1 ASP         0.0819
     75 H11        61.5830  -41.8408   -4.7709 H         1 ASP         0.0478
     76 H12        60.9859  -43.3133   -3.9331 H         1 ASP         0.0478
     77 H13        58.6729  -39.7447   -5.0749 H         1 PTR         0.1886
     78 H14        57.5923  -41.6312   -7.0871 H         1 PTR         0.0840
     79 H15        56.2456  -39.5947   -7.8032 H         1 PTR         0.0584
     80 H16        56.8808  -38.7589   -6.3456 H         1 PTR         0.0584
     81 H17        55.0102  -41.9149   -7.3937 H         1 PTR         0.0703
     82 H18        55.8046  -38.9736   -4.3192 H         1 PTR         0.0703
     83 H19        53.2086  -42.9045   -5.9455 H         1 PTR         0.0736
     84 H20        54.0199  -39.9478   -2.8630 H         1 PTR         0.0736
     85 H21        58.7033  -41.7780   -8.9695 H         1 ILE         0.1883
     86 H22        60.6567  -39.6761   -9.6094 H         1 ILE         0.0803
     87 H23        61.3303  -41.1652  -11.4832 H         1 ILE         0.0345
     88 H24        58.7341  -42.2209  -11.1653 H         1 ILE         0.0267
     89 H25        59.8367  -43.5120  -10.5789 H         1 ILE         0.0267
     90 H26        62.2996  -41.4201   -9.1986 H         1 ILE         0.0235
     91 H27        62.1964  -43.0005  -10.0460 H         1 ILE         0.0235
     92 H28        60.9946  -42.5807   -8.7786 H         1 ILE         0.0235
     93 H29        59.3374  -43.7740  -12.9681 H         1 ILE         0.0230
     94 H30        61.0779  -43.4172  -12.7040 H         1 ILE         0.0230
     95 H31        59.9753  -42.1261  -13.2904 H         1 ILE         0.0230
     96 H32        60.5955  -38.5143  -11.7597 H         1 ASP         0.1884
     97 H33        57.7999  -37.8205  -12.0324 H         1 ASP         0.0819
     98 H34        59.0699  -36.0713  -13.7222 H         1 ASP         0.0478
     99 H35        60.3406  -36.4617  -12.5140 H         1 ASP         0.0478
    100 H36        60.1275  -38.9051  -14.5878 H         1 ASN         0.1885
    101 H37        57.6406  -39.6406  -15.9494 H         1 ASN         0.0826
    102 H38        58.6998  -38.4869  -18.1206 H         1 ASN         0.0551
    103 H39        59.4411  -37.4251  -16.8757 H         1 ASN         0.0551
    104 H40        56.5690  -35.4764  -16.5624 H         1 ASN         0.1814
    105 H41        58.2929  -35.6293  -16.4933 H         1 ASN         0.1814
    106 H42        60.0262  -43.2899  -16.7878 H         1 PRO         0.0818
    107 H43        58.3136  -44.8488  -17.4217 H         1 PRO         0.0314
    108 H44        57.3852  -43.6036  -18.3240 H         1 PRO         0.0314
    109 H45        57.8520  -43.7727  -15.2895 H         1 PRO         0.0287
    110 H46        56.2815  -43.7377  -16.1606 H         1 PRO         0.0287
    111 H47        56.5908  -41.4676  -16.8727 H         1 PRO         0.0524
    112 H48        57.3366  -41.4286  -15.2390 H         1 PRO         0.0524
    113 H49        61.5648  -43.1299  -19.4791 H         1 PRO         0.2540
@<TRIPOS>BOND
     1    1    2 1  
     2    2    3 1  
     3    2    5 1  
     4    3    4 2  
     5    3    9 am 
     6    5    6 1  
     7    6    7 2  
     8    6    8 am 
     9    9   10 1  
    10   10   11 1  
    11   10   13 1  
    12   11   12 2  
    13   11   17 am 
    14   13   14 1  
    15   14   15 ar 
    16   14   16 ar 
    17   17   18 1  
    18   18   19 1  
    19   18   21 1  
    20   19   20 2  
    21   19   33 am 
    22   21   22 1  
    23   22   23 ar 
    24   22   24 ar 
    25   23   25 ar 
    26   24   26 ar 
    27   25   27 ar 
    28   26   27 ar 
    29   27   28 1  
    30   28   29 1  
    31   29   30 ar 
    32   29   31 ar 
    33   29   32 ar 
    34   33   34 1  
    35   34   35 1  
    36   34   37 1  
    37   35   36 2  
    38   35   41 am 
    39   37   38 1  
    40   37   39 1  
    41   38   40 1  
    42   41   42 1  
    43   42   43 1  
    44   42   45 1  
    45   43   44 2  
    46   43   49 am 
    47   45   46 1  
    48   46   47 ar 
    49   46   48 ar 
    50   49   50 1  
    51   50   51 1  
    52   50   53 1  
    53   51   52 2  
    54   51   57 am 
    55   53   54 1  
    56   54   55 2  
    57   54   56 am 
    58   57   58 1  
    59   57   63 1  
    60   58   59 1  
    61   58   61 1  
    62   59   60 2  
    63   61   62 1  
    64   62   63 1  
    65   59   64 1  
    66    1   65 1  
    67    1   66 1  
    68    1   67 1  
    69    2   68 1  
    70    5   69 1  
    71    5   70 1  
    72    8   71 1  
    73    8   72 1  
    74    9   73 1  
    75   10   74 1  
    76   13   75 1  
    77   13   76 1  
    78   17   77 1  
    79   18   78 1  
    80   21   79 1  
    81   21   80 1  
    82   23   81 1  
    83   24   82 1  
    84   25   83 1  
    85   26   84 1  
    86   33   85 1  
    87   34   86 1  
    88   37   87 1  
    89   38   88 1  
    90   38   89 1  
    91   39   90 1  
    92   39   91 1  
    93   39   92 1  
    94   40   93 1  
    95   40   94 1  
    96   40   95 1  
    97   41   96 1  
    98   42   97 1  
    99   45   98 1  
   100   45   99 1  
   101   49  100 1  
   102   50  101 1  
   103   53  102 1  
   104   53  103 1  
   105   56  104 1  
   106   56  105 1  
   107   58  106 1  
   108   61  107 1  
   109   61  108 1  
   110   62  109 1  
   111   62  110 1  
   112   63  111 1  
   113   63  112 1  
   114   64  113 1  
@<TRIPOS>SUBSTRUCTURE
     1 ASN         1

