6aoy_ligand
  -I-interpret- 

 36 37  0  0  0  0  0  0  0  0999 V2000
   32.6900  -35.8190   12.1690 C   0  0  0  0  0
   32.0400  -34.4780   11.9900 C   0  0  0  0  0
   30.7780  -34.6920   12.4860 O   0  0  0  0  0
   31.9040  -34.2160   10.5520 C   0  0  0  0  0
   31.2230  -33.0140   10.4200 O   0  0  0  0  0
   33.2310  -34.2330    9.8790 C   0  0  0  0  0
   34.0310  -33.2750   10.4610 O   0  0  0  0  0
   33.8750  -35.5670   10.1370 C   0  0  0  0  0
   35.2730  -35.6070    9.5760 C   0  0  0  0  0
   36.2480  -35.4230   10.5250 O   0  0  0  0  0
   33.9390  -35.8100   11.5250 O   0  0  0  0  0
   32.6400  -35.8930   13.5490 O   0  0  0  0  0
   33.3940  -36.7300   14.3530 C   0  0  0  0  0
   33.8410  -36.2130   15.5640 C   0  0  0  0  0
   34.5720  -36.9840   16.4000 C   0  0  0  0  0
   34.8110  -38.2860   16.0440 C   0  0  0  0  0
   34.3410  -38.7970   14.8660 C   0  0  0  0  0
   33.6120  -38.0230   14.0130 C   0  0  0  0  0
   33.6290  -34.8670   15.9190 N   0  0  0  0  0
   33.3510  -33.9300   14.9990 O   0  0  0  0  0
   33.7420  -34.4800   17.0400 O   0  0  0  0  0
   32.2477  -36.7112   11.7258 H   0  0  0  0  0
   32.5846  -33.6588   12.4594 H   0  0  0  0  0
   30.8312  -34.8671   13.4284 H   0  0  0  0  0
   31.3328  -34.9983   10.0521 H   0  0  0  0  0
   30.3801  -33.0734   10.8756 H   0  0  0  0  0
   33.1112  -34.0492    8.8113 H   0  0  0  0  0
   33.6473  -32.4073   10.3146 H   0  0  0  0  0
   33.2703  -36.3311    9.6485 H   0  0  0  0  0
   35.3603  -34.7949    8.8542 H   0  0  0  0  0
   35.4229  -36.5941    9.1386 H   0  0  0  0  0
   37.1112  -35.4591   10.1065 H   0  0  0  0  0
   34.9618  -36.5802   17.3344 H   0  0  0  0  0
   35.3866  -38.9261   16.7126 H   0  0  0  0  0
   34.5515  -39.8344   14.6062 H   0  0  0  0  0
   33.2158  -38.4328   13.0839 H   0  0  0  0  0
  1  2  1  0  0  0
  1 11  1  0  0  0
  1 12  1  0  0  0
  2  3  1  0  0  0
  2  4  1  0  0  0
  4  5  1  0  0  0
  4  6  1  0  0  0
  6  7  1  0  0  0
  6  8  1  0  0  0
  8  9  1  0  0  0
  8 11  1  0  0  0
  9 10  1  0  0  0
 12 13  1  0  0  0
 13 14  4  0  0  0
 13 18  4  0  0  0
 14 15  4  0  0  0
 14 19  1  0  0  0
 15 16  4  0  0  0
 16 17  4  0  0  0
 17 18  4  0  0  0
 19 20  2  0  0  0
 19 21  2  0  0  0
  1 22  1  0  0  0
  2 23  1  0  0  0
  3 24  1  0  0  0
  4 25  1  0  0  0
  5 26  1  0  0  0
  6 27  1  0  0  0
  7 28  1  0  0  0
  8 29  1  0  0  0
  9 30  1  0  0  0
  9 31  1  0  0  0
 10 32  1  0  0  0
 15 33  1  0  0  0
 16 34  1  0  0  0
 17 35  1  0  0  0
 18 36  1  0  0  0
M  END
$$$$
