6g92_ligand
  -I-interpret- 

 28 29  0  0  0  0  0  0  0  0999 V2000
   16.0650   10.4430   41.7340 C   0  0  0  0  0
   14.6790   10.3640   41.1950 C   0  0  0  0  0
   13.7230    9.4200   41.4360 C   0  0  0  0  0
   13.8490    8.3110   42.2170 N   0  0  0  0  0
   12.8870    7.6860   42.9770 C   0  0  0  0  0
   12.2990    5.8630   44.1840 C   0  0  0  0  0
   11.0630    6.4090   44.4870 C   0  0  0  0  0
   10.8500    7.6710   43.9750 C   0  0  0  0  0
   12.6410    9.8660   40.6630 C   0  0  0  0  0
   14.8220   12.4870   39.8270 C   0  0  0  0  0
   13.2270    6.4710   43.4390 N   0  0  0  0  0
   10.0450    5.6920   45.3310 C   0  0  0  0  0
   11.7350    8.3380   43.2210 N   0  0  0  0  0
   12.9170   10.9890   40.0220 N   0  0  0  0  0
   14.1910   11.2860   40.3650 N   0  0  0  0  0
   16.0275   10.5051   42.8216 H   0  0  0  0  0
   16.6197    9.5524   41.4386 H   0  0  0  0  0
   16.5587   11.3291   41.3350 H   0  0  0  0  0
   14.7773    7.8889   42.2417 H   0  0  0  0  0
   12.5299    4.8735   44.5786 H   0  0  0  0  0
    9.9006    8.1580   44.1977 H   0  0  0  0  0
   11.6844    9.3475   40.5983 H   0  0  0  0  0
   15.1105   13.1432   40.6481 H   0  0  0  0  0
   15.7073   12.2062   39.2564 H   0  0  0  0  0
   14.1179   13.0053   39.1761 H   0  0  0  0  0
    9.7780    4.7493   44.8534 H   0  0  0  0  0
   10.4662    5.4949   46.3168 H   0  0  0  0  0
    9.1557    6.3141   45.4322 H   0  0  0  0  0
  2  1  1  0  0  0
  3  2  4  0  0  0
  2 15  4  0  0  0
  4  3  1  0  0  0
  3  9  4  0  0  0
  5  4  1  0  0  0
 11  5  4  0  0  0
  5 13  4  0  0  0
  6  7  4  0  0  0
  6 11  4  0  0  0
  7  8  4  0  0  0
  7 12  1  0  0  0
  8 13  4  0  0  0
  9 14  4  0  0  0
 15 10  1  0  0  0
 14 15  4  0  0  0
  1 16  1  0  0  0
  1 17  1  0  0  0
  1 18  1  0  0  0
  4 19  1  0  0  0
  6 20  1  0  0  0
  8 21  1  0  0  0
  9 22  1  0  0  0
 10 23  1  0  0  0
 10 24  1  0  0  0
 10 25  1  0  0  0
 12 26  1  0  0  0
 12 27  1  0  0  0
 12 28  1  0  0  0
M  END
$$$$
