2q92_ligand
  -I-interpret- 

 24 25  0  0  0  0  0  0  0  0999 V2000
    1.6660    0.2180    9.3240 O   0  0  0  0  0
    0.7180    0.0310    8.5300 C   0  0  0  0  0
    0.8480   -0.0970    7.2940 O   0  0  0  0  0
   -0.7030   -0.0560    9.0910 C   0  0  0  0  0
   -1.8120   -0.2060    8.3130 O   0  0  0  0  0
   -1.0510    0.0070   10.3720 C   0  0  0  0  0
   -2.3760   -0.1010   10.4310 C   0  0  0  0  0
   -2.8570   -0.2300    9.1940 C   0  0  0  0  0
   -4.1530   -0.4550    8.7470 C   0  0  0  0  0
   -4.3120   -1.2870    7.6480 C   0  0  0  0  0
   -5.5850   -1.6340    7.1920 C   0  0  0  0  0
   -6.7020   -1.1390    7.8510 C   0  0  0  0  0
   -6.5440   -0.3030    8.9470 C   0  0  0  0  0
   -5.2740    0.0510    9.3970 C   0  0  0  0  0
   -5.1960    0.9700   10.3600 N   0  0  0  0  0
   -3.9650    1.5750   10.7270 O   0  0  0  0  0
   -6.3890    1.4180   10.9850 O   0  0  0  0  0
    1.3241    0.2855   10.2185 H   0  0  0  0  0
   -0.3751    0.1254   11.2189 H   0  0  0  0  0
   -2.9721   -0.0864   11.3434 H   0  0  0  0  0
   -3.4321   -1.6744    7.1344 H   0  0  0  0  0
   -5.7007   -2.2871    6.3271 H   0  0  0  0  0
   -7.7014   -1.4066    7.5080 H   0  0  0  0  0
   -7.4243    0.0815    9.4622 H   0  0  0  0  0
  1  2  1  0  0  0
  2  3  2  0  0  0
  2  4  1  0  0  0
  4  5  4  0  0  0
  4  6  4  0  0  0
  5  8  4  0  0  0
  6  7  4  0  0  0
  7  8  4  0  0  0
  8  9  1  0  0  0
  9 10  4  0  0  0
  9 14  4  0  0  0
 10 11  4  0  0  0
 11 12  4  0  0  0
 12 13  4  0  0  0
 13 14  4  0  0  0
 14 15  1  0  0  0
 15 16  2  0  0  0
 15 17  2  0  0  0
  1 18  1  0  0  0
  6 19  1  0  0  0
  7 20  1  0  0  0
 10 21  1  0  0  0
 11 22  1  0  0  0
 12 23  1  0  0  0
 13 24  1  0  0  0
M  END
$$$$
