2p7a_ligand
  -I-interpret- 

 16 16  0  0  0  0  0  0  0  0999 V2000
   49.2170  -26.6050  -94.6520 C   0  0  0  0  0
   48.5980  -27.3830  -95.6670 C   0  0  0  0  0
   47.4150  -26.9030  -96.3410 C   0  0  0  0  0
   46.7120  -27.6820  -97.4270 C   0  0  0  0  0
   46.8900  -25.6310  -95.9630 C   0  0  0  0  0
   47.5210  -24.8620  -94.9470 C   0  0  0  0  0
   48.6810  -25.3420  -94.2880 C   0  0  0  0  0
   49.3230  -28.9030  -96.0450 Cl  0  0  0  0  0
   46.9740  -23.6490  -94.6330 O   0  0  0  0  0
   50.1087  -26.9802  -94.1499 H   0  0  0  0  0
   47.4003  -27.8502  -98.2553 H   0  0  0  0  0
   46.3803  -28.6406  -97.0281 H   0  0  0  0  0
   45.8498  -27.1155  -97.7787 H   0  0  0  0  0
   45.9981  -25.2458  -96.4571 H   0  0  0  0  0
   49.1569  -24.7465  -93.5089 H   0  0  0  0  0
   47.4917  -23.2361  -93.9380 H   0  0  0  0  0
  1  2  4  0  0  0
  1  7  4  0  0  0
  2  3  4  0  0  0
  2  8  1  0  0  0
  3  4  1  0  0  0
  3  5  4  0  0  0
  5  6  4  0  0  0
  6  7  4  0  0  0
  6  9  1  0  0  0
  1 10  1  0  0  0
  4 11  1  0  0  0
  4 12  1  0  0  0
  4 13  1  0  0  0
  5 14  1  0  0  0
  7 15  1  0  0  0
  9 16  1  0  0  0
M  END
$$$$
