6g47_ligand
  -I-interpret- 

 77 78  0  0  0  0  0  0  0  0999 V2000
   13.0590  -20.9710  -29.8180 C   0  0  0  0  0
   11.9460  -20.4890  -30.7390 C   0  0  0  0  0
   10.5990  -20.5160  -30.0210 C   0  0  0  0  0
   10.4110  -19.3450  -29.0560 C   0  0  0  0  0
   10.8030  -18.0270  -29.7100 C   0  0  0  0  0
   12.2310  -18.1840  -30.1950 C   0  0  0  0  0
   12.8060  -16.9200  -30.7870 C   0  0  0  0  0
   14.1180  -17.1770  -31.5010 C   0  0  0  0  0
   14.7880  -15.8420  -31.7170 C   0  0  0  0  0
    9.8670  -15.8960  -28.9350 C   0  0  0  0  0
    9.9430  -14.7990  -27.9180 C   0  0  0  0  0
   10.6990  -16.9210  -28.7750 N   0  0  0  0  0
   14.1790  -20.4330  -29.9080 O   0  0  0  0  0
   12.8340  -21.9150  -29.0640 O   0  0  0  0  0
    9.0690  -19.3480  -28.5930 O   0  0  0  0  0
   12.2460  -19.1830  -31.2000 O   0  0  0  0  0
   11.9040  -16.3880  -31.7370 O   0  0  0  0  0
   14.9660  -17.9800  -30.7000 O   0  0  0  0  0
   15.9170  -16.0460  -32.5580 O   0  0  0  0  0
    9.0810  -15.8180  -29.8320 O   0  0  0  0  0
   16.2610  -22.6120  -35.3530 C   0  0  0  0  0
   15.1950  -23.6310  -35.6170 C   0  0  0  0  0
   15.7300  -25.0320  -35.3660 C   0  0  0  0  0
   16.0370  -25.2070  -33.8840 C   0  0  0  0  0
   14.8030  -24.8720  -33.0740 C   0  0  0  0  0
   14.3610  -23.4720  -33.4060 C   0  0  0  0  0
   13.1310  -23.1250  -32.6080 C   0  0  0  0  0
   12.9980  -21.6130  -32.5850 C   0  0  0  0  0
   13.0940  -20.9740  -33.9610 C   0  0  0  0  0
   14.6430  -25.7550  -30.8160 C   0  0  0  0  0
   15.7140  -26.3250  -29.9360 C   0  0  0  0  0
   15.1130  -24.8670  -31.6730 N   0  0  0  0  0
   16.0760  -21.4840  -35.8540 O   0  0  0  0  0
   17.2550  -22.9180  -34.6520 O   0  0  0  0  0
   14.7770  -23.4850  -36.9760 O   0  0  0  0  0
   16.4450  -26.5410  -33.5700 O   0  0  0  0  0
   14.0780  -23.3550  -34.7810 O   0  0  0  0  0
   11.9590  -23.7080  -33.1620 O   0  0  0  0  0
   11.7730  -21.3470  -31.8880 O   0  0  0  0  0
   11.9610  -20.1520  -34.1770 O   0  0  0  0  0
   13.4620  -26.0590  -30.7310 O   0  0  0  0  0
   10.5521  -21.4362  -29.4387 H   0  0  0  0  0
    9.8181  -20.4498  -30.7786 H   0  0  0  0  0
   11.0719  -19.4592  -28.1967 H   0  0  0  0  0
   10.1305  -17.7994  -30.5371 H   0  0  0  0  0
   12.8403  -18.4452  -29.3298 H   0  0  0  0  0
   12.9743  -16.2274  -29.9624 H   0  0  0  0  0
   13.9311  -17.6910  -32.4439 H   0  0  0  0  0
   15.1017  -15.4199  -30.7623 H   0  0  0  0  0
   14.0931  -15.1436  -32.1833 H   0  0  0  0  0
   10.1958  -13.8621  -28.4143 H   0  0  0  0  0
    8.9784  -14.6992  -27.4203 H   0  0  0  0  0
   10.7099  -15.0402  -27.1819 H   0  0  0  0  0
   11.2976  -16.9308  -27.9492 H   0  0  0  0  0
   14.1396  -19.7198  -30.5494 H   0  0  0  0  0
    8.8723  -20.1972  -28.1908 H   0  0  0  0  0
   11.0604  -16.2140  -31.3132 H   0  0  0  0  0
   15.7917  -18.1340  -31.1648 H   0  0  0  0  0
   16.3585  -15.2069  -32.7082 H   0  0  0  0  0
   16.6426  -25.1790  -35.9437 H   0  0  0  0  0
   14.9813  -25.7641  -35.6687 H   0  0  0  0  0
   16.8599  -24.5356  -33.6387 H   0  0  0  0  0
   14.0364  -25.6122  -33.3033 H   0  0  0  0  0
   15.1681  -22.7841  -33.1541 H   0  0  0  0  0
   13.2379  -23.5220  -31.5985 H   0  0  0  0  0
   13.8366  -21.1477  -32.0671 H   0  0  0  0  0
   13.1296  -21.7529  -34.7227 H   0  0  0  0  0
   13.9992  -20.3696  -34.0197 H   0  0  0  0  0
   15.4928  -26.0865  -28.8957 H   0  0  0  0  0
   15.7488  -27.4071  -30.0625 H   0  0  0  0  0
   16.6766  -25.8945  -30.2120 H   0  0  0  0  0
   15.7310  -24.1367  -31.3192 H   0  0  0  0  0
   17.1820  -23.8353  -34.3784 H   0  0  0  0  0
   14.0921  -24.1291  -37.1699 H   0  0  0  0  0
   16.6275  -26.6057  -32.6297 H   0  0  0  0  0
   11.1991  -23.4652  -32.6280 H   0  0  0  0  0
   12.0210  -19.7481  -35.0458 H   0  0  0  0  0
  2  1  1  0  0  0
  1 13  1  0  0  0
  1 14  2  0  0  0
  2  3  1  0  0  0
  2 16  1  0  0  0
 39  2  1  0  0  0
  3  4  1  0  0  0
  4  5  1  0  0  0
  4 15  1  0  0  0
  6  5  1  0  0  0
  5 12  1  0  0  0
  6  7  1  0  0  0
 16  6  1  0  0  0
  7  8  1  0  0  0
  7 17  1  0  0  0
  8  9  1  0  0  0
  8 18  1  0  0  0
  9 19  1  0  0  0
 10 11  1  0  0  0
 12 10  1  0  0  0
 10 20  2  0  0  0
 22 21  1  0  0  0
 21 33  2  0  0  0
 21 34  1  0  0  0
 23 22  1  0  0  0
 22 35  1  0  0  0
 37 22  1  0  0  0
 24 23  1  0  0  0
 25 24  1  0  0  0
 24 36  1  0  0  0
 25 26  1  0  0  0
 32 25  1  0  0  0
 26 27  1  0  0  0
 26 37  1  0  0  0
 27 28  1  0  0  0
 27 38  1  0  0  0
 28 29  1  0  0  0
 28 39  1  0  0  0
 29 40  1  0  0  0
 30 31  1  0  0  0
 30 32  1  0  0  0
 30 41  2  0  0  0
  3 42  1  0  0  0
  3 43  1  0  0  0
  4 44  1  0  0  0
  5 45  1  0  0  0
  6 46  1  0  0  0
  7 47  1  0  0  0
  8 48  1  0  0  0
  9 49  1  0  0  0
  9 50  1  0  0  0
 11 51  1  0  0  0
 11 52  1  0  0  0
 11 53  1  0  0  0
 12 54  1  0  0  0
 13 55  1  0  0  0
 15 56  1  0  0  0
 17 57  1  0  0  0
 18 58  1  0  0  0
 19 59  1  0  0  0
 23 60  1  0  0  0
 23 61  1  0  0  0
 24 62  1  0  0  0
 25 63  1  0  0  0
 26 64  1  0  0  0
 27 65  1  0  0  0
 28 66  1  0  0  0
 29 67  1  0  0  0
 29 68  1  0  0  0
 31 69  1  0  0  0
 31 70  1  0  0  0
 31 71  1  0  0  0
 32 72  1  0  0  0
 34 73  1  0  0  0
 35 74  1  0  0  0
 36 75  1  0  0  0
 38 76  1  0  0  0
 40 77  1  0  0  0
M  END
$$$$
