5lcf_ligand
  -I-interpret- 

 30 32  0  0  0  0  0  0  0  0999 V2000
  -28.3270   91.8350   20.3760 O   0  0  0  0  0
  -29.0340   90.9910   19.7710 C   0  0  0  0  0
  -29.2410   89.8540   20.2680 O   0  0  0  0  0
  -29.6270   91.4240   18.4390 C   0  0  0  0  0
  -28.8010   91.5130   17.3280 C   0  0  0  0  0
  -29.3220   91.9280   16.1000 C   0  0  0  0  0
  -30.6680   92.2500   15.9970 C   0  0  0  0  0
  -31.4970   92.1690   17.1160 C   0  0  0  0  0
  -32.9920   92.4640   17.3010 C   0  0  0  0  0
  -33.3230   92.1810   18.6690 N   0  0  0  0  0
  -32.1170   91.7690   19.3600 C   0  0  0  0  0
  -32.0060   91.4680   20.5040 O   0  0  0  0  0
  -30.9850   91.7580   18.3320 C   0  0  0  0  0
  -34.6310   92.3870   19.2420 C   0  0  0  0  0
  -35.6940   92.7620   18.4330 C   0  0  0  0  0
  -36.9360   93.0100   19.0030 C   0  0  0  0  0
  -37.0930   92.9020   20.3720 C   0  0  0  0  0
  -36.0190   92.5630   21.1770 C   0  0  0  0  0
  -34.7840   92.3140   20.6090 C   0  0  0  0  0
  -29.7975   89.3434   19.6753 H   0  0  0  0  0
  -27.7445   91.2589   17.4133 H   0  0  0  0  0
  -28.6740   91.9986   15.2264 H   0  0  0  0  0
  -31.0788   92.5673   15.0385 H   0  0  0  0  0
  -33.5879   91.8459   16.6294 H   0  0  0  0  0
  -33.2063   93.5064   17.0653 H   0  0  0  0  0
  -35.5552   92.8614   17.3565 H   0  0  0  0  0
  -37.7820   93.2882   18.3744 H   0  0  0  0  0
  -38.0693   93.0850   20.8209 H   0  0  0  0  0
  -36.1472   92.4926   22.2571 H   0  0  0  0  0
  -33.9330   92.0605   21.2412 H   0  0  0  0  0
  1  2  2  0  0  0
  2  3  1  0  0  0
  2  4  1  0  0  0
  4  5  4  0  0  0
  4 13  4  0  0  0
  5  6  4  0  0  0
  6  7  4  0  0  0
  7  8  4  0  0  0
  8  9  1  0  0  0
  8 13  4  0  0  0
  9 10  1  0  0  0
 10 11  1  0  0  0
 10 14  1  0  0  0
 11 12  2  0  0  0
 11 13  1  0  0  0
 14 15  4  0  0  0
 14 19  4  0  0  0
 15 16  4  0  0  0
 16 17  4  0  0  0
 17 18  4  0  0  0
 18 19  4  0  0  0
  3 20  1  0  0  0
  5 21  1  0  0  0
  6 22  1  0  0  0
  7 23  1  0  0  0
  9 24  1  0  0  0
  9 25  1  0  0  0
 15 26  1  0  0  0
 16 27  1  0  0  0
 17 28  1  0  0  0
 18 29  1  0  0  0
 19 30  1  0  0  0
M  END
$$$$
