4q6r_ligand
  -I-interpret- 

 56 60  0  0  0  0  0  0  0  0999 V2000
   34.9880   15.8700   24.2160 C   0  0  0  0  0
   34.4020   14.7010   23.7770 C   0  0  0  0  0
   31.6340    9.1690   24.3870 C   0  0  0  0  0
   30.5100    7.2330   23.7880 C   0  0  0  0  0
   30.9480    6.5970   24.9350 C   0  0  0  0  0
   31.7510    7.2690   25.8310 C   0  0  0  0  0
   32.0870    8.5740   25.5490 C   0  0  0  0  0
   30.5830    5.2410   25.1630 C   0  0  0  0  0
   32.1520   11.9790   25.9070 C   0  0  0  0  0
   36.0290   16.2450   22.1220 C   0  0  0  0  0
   35.7860   16.6380   23.4060 C   0  0  0  0  0
   36.5760   15.4510   19.4350 C   0  0  0  0  0
   37.9830   14.9030   19.6500 C   0  0  0  0  0
   39.0750   15.7440   19.6600 C   0  0  0  0  0
   40.3460   15.2420   19.8690 C   0  0  0  0  0
   40.5370   13.8840   20.0710 C   0  0  0  0  0
   39.4520   13.0350   20.0770 C   0  0  0  0  0
   38.1860   13.5490   19.8670 C   0  0  0  0  0
   33.7790   12.0370   23.9870 C   0  0  0  0  0
   34.7210   16.4460   25.8090 Cl  0  0  0  0  0
   34.6360   14.3050   22.4820 C   0  0  0  0  0
   34.0840   13.1530   21.9480 C   0  0  0  0  0
   34.3670   12.8200   20.7060 N   0  0  0  0  0
   35.1420   13.5660   19.9570 N   0  0  0  0  0
   35.6780   14.6800   20.3820 C   0  0  0  0  0
   35.4450   15.0830   21.6680 C   0  0  0  0  0
   33.3360   12.2980   22.6360 N   0  0  0  0  0
   32.9110   11.1360   24.8710 C   0  0  0  0  0
   31.9350   10.4320   24.0900 N   0  0  0  0  0
   31.2540   11.0980   23.0050 C   0  0  0  0  0
   32.2570   11.6150   21.9820 C   0  0  0  0  0
   30.8630    8.4920   23.5500 N   0  0  0  0  0
   30.3230    4.1380   25.3240 N   0  0  0  0  0
   33.7709   14.1078   24.4388 H   0  0  0  0  0
   29.8751    6.7017   23.0789 H   0  0  0  0  0
   32.1099    6.7811   26.7372 H   0  0  0  0  0
   32.7106    9.1381   26.2426 H   0  0  0  0  0
   32.8669   12.5121   26.5339 H   0  0  0  0  0
   31.5128   12.6962   25.3920 H   0  0  0  0  0
   31.5397   11.3248   26.5276 H   0  0  0  0  0
   36.6710   16.8374   21.4701 H   0  0  0  0  0
   36.2249   17.5600   23.7873 H   0  0  0  0  0
   36.2577   15.3264   18.4000 H   0  0  0  0  0
   36.5345   16.5216   19.6354 H   0  0  0  0  0
   38.9353   16.8134   19.5019 H   0  0  0  0  0
   41.2018   15.9171   19.8750 H   0  0  0  0  0
   41.5414   13.4895   20.2245 H   0  0  0  0  0
   39.5906   11.9671   20.2459 H   0  0  0  0  0
   37.3292   12.8753   19.8722 H   0  0  0  0  0
   33.7823   13.0084   24.4815 H   0  0  0  0  0
   34.7273   11.5099   23.8822 H   0  0  0  0  0
   33.5779   10.4270   25.3616 H   0  0  0  0  0
   30.6904   11.9408   23.4052 H   0  0  0  0  0
   30.5857   10.3880   22.5178 H   0  0  0  0  0
   32.6599   10.7703   21.4232 H   0  0  0  0  0
   31.7522   12.3108   21.3118 H   0  0  0  0  0
  2  1  4  0  0  0
  1 11  4  0  0  0
  1 20  1  0  0  0
 21  2  4  0  0  0
  3  7  4  0  0  0
 29  3  1  0  0  0
  3 32  4  0  0  0
  4  5  4  0  0  0
 32  4  4  0  0  0
  6  5  4  0  0  0
  5  8  1  0  0  0
  7  6  4  0  0  0
  8 33  3  0  0  0
 28  9  1  0  0  0
 10 11  4  0  0  0
 26 10  4  0  0  0
 12 13  1  0  0  0
 25 12  1  0  0  0
 13 14  4  0  0  0
 13 18  4  0  0  0
 14 15  4  0  0  0
 15 16  4  0  0  0
 17 16  4  0  0  0
 18 17  4  0  0  0
 19 27  1  0  0  0
 28 19  1  0  0  0
 22 21  4  0  0  0
 21 26  4  0  0  0
 22 23  4  0  0  0
 27 22  1  0  0  0
 23 24  4  0  0  0
 24 25  4  0  0  0
 26 25  4  0  0  0
 27 31  1  0  0  0
 28 29  1  0  0  0
 29 30  1  0  0  0
 30 31  1  0  0  0
  2 34  1  0  0  0
  4 35  1  0  0  0
  6 36  1  0  0  0
  7 37  1  0  0  0
  9 38  1  0  0  0
  9 39  1  0  0  0
  9 40  1  0  0  0
 10 41  1  0  0  0
 11 42  1  0  0  0
 12 43  1  0  0  0
 12 44  1  0  0  0
 14 45  1  0  0  0
 15 46  1  0  0  0
 16 47  1  0  0  0
 17 48  1  0  0  0
 18 49  1  0  0  0
 19 50  1  0  0  0
 19 51  1  0  0  0
 28 52  1  0  0  0
 30 53  1  0  0  0
 30 54  1  0  0  0
 31 55  1  0  0  0
 31 56  1  0  0  0
M  END
$$$$
