1cim_ligand
  -I-interpret- 

 30 31  0  0  0  0  0  0  0  0999 V2000
   -6.1700    3.6520   15.4750 S   0  0  0  0  0
   -5.3260    2.2020   15.6860 C   0  0  0  0  0
   -3.9990    2.2880   15.2110 C   0  0  0  0  0
   -3.7300    3.5680   14.6270 C   0  0  0  0  0
   -2.4180    3.9510   13.9900 C   0  0  0  0  0
   -2.3160    5.4870   13.7360 C   0  0  0  0  0
   -3.5540    6.0630   13.0530 C   0  0  0  0  0
   -4.8950    6.0150   14.2140 S   0  0  0  0  0
   -4.8820    4.3900   14.6570 C   0  0  0  0  0
   -5.8890    0.9210   16.7120 S   0  0  0  0  0
   -7.3130    0.7920   16.6570 O   0  0  0  0  0
   -5.3050    1.0540   18.0130 O   0  0  0  0  0
   -5.2850   -0.5820   16.0930 N   0  0  0  0  0
   -2.2350    3.2710   12.6770 N   0  3  0  0  0
   -3.4120    7.5370   12.6810 C   0  0  0  0  0
   -6.0970    6.3500   13.4880 O   0  0  0  0  0
   -4.5140    6.8310   15.3300 O   0  0  0  0  0
   -3.2699    1.4807   15.2801 H   0  0  0  0  0
   -1.6458    3.6406   14.6939 H   0  0  0  0  0
   -1.4640    5.6586   13.0781 H   0  0  0  0  0
   -2.2128    5.9772   14.7041 H   0  0  0  0  0
   -3.7099    5.4726   12.1501 H   0  0  0  0  0
   -4.6503   -1.1475   16.6567 H   0  0  0  0  0
   -5.5644   -0.9006   15.1652 H   0  0  0  0  0
   -2.2961    2.2612   12.8070 H   0  0  0  0  0
   -2.9641    3.5768   12.0326 H   0  0  0  0  0
   -1.3199    3.5111   12.2957 H   0  0  0  0  0
   -4.3432    7.8899   12.2379 H   0  0  0  0  0
   -3.1918    8.1170   13.5772 H   0  0  0  0  0
   -2.5999    7.6526   11.9632 H   0  0  0  0  0
  1  9  4  0  0  0
  1  2  4  0  0  0
  2 10  1  0  0  0
  2  3  4  0  0  0
  3  4  4  0  0  0
  4  9  4  0  0  0
  4  5  1  0  0  0
  5 14  1  0  0  0
  5  6  1  0  0  0
  6  7  1  0  0  0
  7 15  1  0  0  0
  7  8  1  0  0  0
  8 17  2  0  0  0
  8 16  2  0  0  0
  8  9  1  0  0  0
 10 13  1  0  0  0
 10 12  2  0  0  0
 10 11  2  0  0  0
  3 18  1  0  0  0
  5 19  1  0  0  0
  6 20  1  0  0  0
  6 21  1  0  0  0
  7 22  1  0  0  0
 13 23  1  0  0  0
 13 24  1  0  0  0
 14 25  1  0  0  0
 14 26  1  0  0  0
 14 27  1  0  0  0
 15 28  1  0  0  0
 15 29  1  0  0  0
 15 30  1  0  0  0
M  END
$$$$
