4att_ligand
  -I-interpret- 

 43 44  0  0  0  0  0  0  0  0999 V2000
  -13.8700    3.3380   -9.3870 O   0  0  0  0  0
  -14.4870    3.2420  -10.6210 C   0  0  0  0  0
  -14.3710    1.9080  -11.2600 C   0  0  0  0  0
  -12.9970    1.6300  -11.3740 O   0  0  0  0  0
  -15.0520    0.7970  -10.4520 C   0  0  0  0  0
  -16.4590    1.0590  -10.3500 O   0  0  0  0  0
  -14.7760   -0.4770  -11.0260 C   0  0  0  0  0
  -15.3580   -1.5630  -10.1910 O   0  0  0  0  0
  -13.3930   -0.7460  -11.2460 C   0  0  0  0  0
  -12.6580   -0.8730  -10.0280 O   0  0  0  0  0
  -12.7300    0.4000  -11.9930 C   0  0  0  0  0
  -13.1160    0.4050  -13.3020 O   0  0  0  0  0
  -12.4850    1.3360  -14.0790 C   0  0  0  0  0
  -13.0820    1.5560  -15.4130 C   0  0  0  0  0
  -13.5460    1.7270  -16.5120 C   0  0  0  0  0
  -14.0920    1.9210  -17.8710 C   0  0  0  0  0
  -15.3740    1.5010  -18.1870 C   0  0  0  0  0
  -15.8660    1.7080  -19.4690 C   0  0  0  0  0
  -15.0570    2.3360  -20.4110 C   0  0  0  0  0
  -15.5080    2.5540  -21.6940 O   0  0  0  0  0
  -16.8310    2.2940  -21.9940 C   0  0  0  0  0
  -13.7810    2.7500  -20.0820 C   0  0  0  0  0
  -13.2880    2.5540  -18.8070 C   0  0  0  0  0
  -13.9880    4.2251   -9.0396 H   0  0  0  0  0
  -13.9966    3.9574  -11.2811 H   0  0  0  0  0
  -15.5489    3.4310  -10.4640 H   0  0  0  0  0
  -14.8727    1.9335  -12.2274 H   0  0  0  0  0
  -14.6481    0.7820   -9.4397 H   0  0  0  0  0
  -16.5945    1.9253   -9.9591 H   0  0  0  0  0
  -15.2439   -0.4480  -12.0100 H   0  0  0  0  0
  -16.2894   -1.3853  -10.0407 H   0  0  0  0  0
  -13.3721   -1.6788  -11.8095 H   0  0  0  0  0
  -11.7366   -1.0529  -10.2288 H   0  0  0  0  0
  -11.6509    0.2496  -11.9616 H   0  0  0  0  0
  -11.4731    0.9675  -14.2472 H   0  0  0  0  0
  -12.5535    2.2846  -13.5465 H   0  0  0  0  0
  -15.9921    1.0114  -17.4344 H   0  0  0  0  0
  -16.8722    1.3830  -19.7337 H   0  0  0  0  0
  -17.0454    1.2423  -21.8040 H   0  0  0  0  0
  -17.4728    2.9155  -21.3695 H   0  0  0  0  0
  -17.0152    2.5197  -23.0443 H   0  0  0  0  0
  -13.1587    3.2349  -20.8341 H   0  0  0  0  0
  -12.2858    2.8905  -18.5413 H   0  0  0  0  0
  1  2  1  0  0  0
  2  3  1  0  0  0
  3  4  1  0  0  0
  3  5  1  0  0  0
  4 11  1  0  0  0
  5  6  1  0  0  0
  5  7  1  0  0  0
  7  8  1  0  0  0
  7  9  1  0  0  0
  9 10  1  0  0  0
  9 11  1  0  0  0
 11 12  1  0  0  0
 12 13  1  0  0  0
 13 14  1  0  0  0
 14 15  3  0  0  0
 15 16  1  0  0  0
 16 17  4  0  0  0
 16 23  4  0  0  0
 17 18  4  0  0  0
 18 19  4  0  0  0
 19 20  1  0  0  0
 19 22  4  0  0  0
 20 21  1  0  0  0
 22 23  4  0  0  0
  1 24  1  0  0  0
  2 25  1  0  0  0
  2 26  1  0  0  0
  3 27  1  0  0  0
  5 28  1  0  0  0
  6 29  1  0  0  0
  7 30  1  0  0  0
  8 31  1  0  0  0
  9 32  1  0  0  0
 10 33  1  0  0  0
 11 34  1  0  0  0
 13 35  1  0  0  0
 13 36  1  0  0  0
 17 37  1  0  0  0
 18 38  1  0  0  0
 21 39  1  0  0  0
 21 40  1  0  0  0
 21 41  1  0  0  0
 22 42  1  0  0  0
 23 43  1  0  0  0
M  END
$$$$
