5e0j_ligand
  -I-interpret- 

 95 98  0  0  0  0  0  0  0  0999 V2000
   59.6680  -53.6360   23.9840 C   0  0  0  0  0
   60.1420  -54.6270   24.4320 O   0  0  0  0  0
   59.2710  -52.5340   24.7760 O   0  0  0  0  0
   59.4020  -52.6630   26.1820 C   0  0  0  0  0
   60.1290  -51.4040   26.7290 C   0  0  0  0  0
   61.3940  -51.5340   27.3480 C   0  0  0  0  0
   62.0510  -50.4040   27.8490 C   0  0  0  0  0
   61.4430  -49.1220   27.7390 C   0  0  0  0  0
   60.1780  -48.9900   27.1250 C   0  0  0  0  0
   59.5220  -50.1200   26.6230 C   0  0  0  0  0
   57.2870  -50.2320   15.6960 N   0  0  0  0  0
   56.2240  -49.2370   15.4140 C   0  0  0  0  0
   55.1670  -49.3100   16.6250 C   0  0  0  0  0
   54.4610  -50.6660   16.6680 C   0  0  0  0  0
   53.9270  -51.0260   18.1440 C   0  0  0  0  0
   55.0250  -51.6320   18.9810 C   0  0  0  0  0
   55.4290  -52.9940   18.4370 C   0  0  0  0  0
   56.2260  -53.6920   19.4370 N   0  0  0  0  0
   57.5100  -54.1740   19.3540 C   0  0  0  0  0
   57.9020  -54.7990   20.5880 C   0  0  0  0  0
   59.2480  -55.4950   21.0030 C   0  0  0  0  0
   60.1850  -54.4760   21.6320 C   0  0  0  0  0
   59.4810  -53.5340   22.5160 N   0  0  0  0  0
   60.8670  -53.6730   20.5520 C   0  0  0  0  0
   60.5840  -52.5590   20.2110 O   0  0  0  0  0
   56.8020  -54.6420   21.3420 N   0  0  0  0  0
   55.8450  -54.0010   20.6660 N   0  0  0  0  0
   61.9490  -54.4000   19.9240 N   0  0  0  0  0
   62.7220  -53.7200   18.8930 C   0  0  0  0  0
   61.9170  -53.4350   17.6930 C   0  0  0  0  0
   61.0720  -54.0900   17.2700 O   0  0  0  0  0
   63.9040  -54.6080   18.4390 C   0  0  0  0  0
   64.9830  -54.8620   19.5610 C   0  0  0  0  0
   65.5220  -53.5600   20.1110 C   0  0  0  0  0
   66.6940  -53.7970   21.0710 C   0  0  0  0  0
   67.8230  -54.6050   20.4130 C   0  0  0  0  0
   67.2820  -55.9220   19.9020 C   0  0  0  0  0
   66.1140  -55.7050   18.9350 C   0  0  0  0  0
   62.3410  -52.1910   17.0390 N   0  0  0  0  0
   61.7510  -51.7400   15.7810 C   0  0  0  0  0
   60.8890  -50.5210   15.9880 C   0  0  0  0  0
   59.5240  -50.9300   16.5530 C   0  0  0  0  0
   58.5310  -49.8330   16.2800 C   0  0  0  0  0
   58.7520  -48.6860   16.5190 O   0  0  0  0  0
   62.9370  -51.4630   14.8700 C   0  0  0  0  0
   63.6970  -52.4990   14.5400 O   0  0  0  0  0
   59.9776  -53.5573   26.4208 H   0  0  0  0  0
   58.4169  -52.7514   26.6402 H   0  0  0  0  0
   61.8584  -52.5163   27.4351 H   0  0  0  0  0
   63.0273  -50.5059   28.3229 H   0  0  0  0  0
   61.9539  -48.2416   28.1288 H   0  0  0  0  0
   59.7124  -48.0079   27.0420 H   0  0  0  0  0
   58.5452  -50.0171   26.1503 H   0  0  0  0  0
   57.1292  -51.2142   15.4706 H   0  0  0  0  0
   55.7351  -49.4575   14.4651 H   0  0  0  0  0
   56.6477  -48.2358   15.3353 H   0  0  0  0  0
   54.4166  -48.5334   16.4769 H   0  0  0  0  0
   55.7046  -49.1696   17.5628 H   0  0  0  0  0
   55.1776  -51.4314   16.3701 H   0  0  0  0  0
   53.6027  -50.6233   15.9975 H   0  0  0  0  0
   53.1146  -51.7474   18.0564 H   0  0  0  0  0
   53.5842  -50.1102   18.6256 H   0  0  0  0  0
   54.6624  -51.7544   20.0016 H   0  0  0  0  0
   55.8919  -50.9718   18.9553 H   0  0  0  0  0
   56.0149  -52.8653   17.5269 H   0  0  0  0  0
   54.5362  -53.5764   18.2091 H   0  0  0  0  0
   58.1454  -54.0934   18.4720 H   0  0  0  0  0
   59.7210  -55.9198   20.1176 H   0  0  0  0  0
   59.0372  -56.2835   21.7254 H   0  0  0  0  0
   60.9057  -55.0393   22.2248 H   0  0  0  0  0
   58.8702  -52.8177   22.1233 H   0  0  0  0  0
   62.1641  -55.3596   20.1949 H   0  0  0  0  0
   63.0670  -52.7853   19.3350 H   0  0  0  0  0
   64.4036  -54.0883   17.6215 H   0  0  0  0  0
   63.4917  -55.5780   18.1612 H   0  0  0  0  0
   64.5319  -55.3916   20.4001 H   0  0  0  0  0
   64.7232  -53.0598   20.6586 H   0  0  0  0  0
   65.8761  -52.9536   19.2773 H   0  0  0  0  0
   66.3246  -54.3621   21.9267 H   0  0  0  0  0
   67.0955  -52.8271   21.3645 H   0  0  0  0  0
   68.6036  -54.7979   21.1489 H   0  0  0  0  0
   68.2332  -54.0364   19.5784 H   0  0  0  0  0
   66.9259  -56.5044   20.7517 H   0  0  0  0  0
   68.0794  -56.4430   19.3721 H   0  0  0  0  0
   66.4917  -55.1698   18.0638 H   0  0  0  0  0
   65.7040  -56.6812   18.6760 H   0  0  0  0  0
   63.0687  -51.6251   17.4756 H   0  0  0  0  0
   61.0839  -52.4838   15.3454 H   0  0  0  0  0
   60.7441  -50.0190   15.0314 H   0  0  0  0  0
   61.3812  -49.8506   16.6926 H   0  0  0  0  0
   59.6052  -51.0926   17.6277 H   0  0  0  0  0
   59.1915  -51.8529   16.0778 H   0  0  0  0  0
   63.5847  -50.7826   15.4228 H   0  0  0  0  0
   62.5148  -51.0936   13.9354 H   0  0  0  0  0
   64.4080  -52.2032   13.9667 H   0  0  0  0  0
  1  2  2  0  0  0
  1  3  1  0  0  0
 23  1  1  0  0  0
  3  4  1  0  0  0
  4  5  1  0  0  0
  5  6  4  0  0  0
  5 10  4  0  0  0
  6  7  4  0  0  0
  7  8  4  0  0  0
  9  8  4  0  0  0
 10  9  4  0  0  0
 12 11  1  0  0  0
 11 43  1  0  0  0
 13 12  1  0  0  0
 14 13  1  0  0  0
 15 14  1  0  0  0
 16 15  1  0  0  0
 17 16  1  0  0  0
 18 17  1  0  0  0
 19 18  4  0  0  0
 18 27  4  0  0  0
 20 19  4  0  0  0
 21 20  1  0  0  0
 20 26  4  0  0  0
 22 21  1  0  0  0
 22 23  1  0  0  0
 22 24  1  0  0  0
 24 25  2  0  0  0
 24 28  1  0  0  0
 26 27  4  0  0  0
 28 29  1  0  0  0
 29 30  1  0  0  0
 29 32  1  0  0  0
 30 31  2  0  0  0
 30 39  1  0  0  0
 32 33  1  0  0  0
 33 34  1  0  0  0
 33 38  1  0  0  0
 34 35  1  0  0  0
 35 36  1  0  0  0
 36 37  1  0  0  0
 37 38  1  0  0  0
 39 40  1  0  0  0
 40 41  1  0  0  0
 40 45  1  0  0  0
 41 42  1  0  0  0
 42 43  1  0  0  0
 43 44  2  0  0  0
 45 46  1  0  0  0
  4 47  1  0  0  0
  4 48  1  0  0  0
  6 49  1  0  0  0
  7 50  1  0  0  0
  8 51  1  0  0  0
  9 52  1  0  0  0
 10 53  1  0  0  0
 11 54  1  0  0  0
 12 55  1  0  0  0
 12 56  1  0  0  0
 13 57  1  0  0  0
 13 58  1  0  0  0
 14 59  1  0  0  0
 14 60  1  0  0  0
 15 61  1  0  0  0
 15 62  1  0  0  0
 16 63  1  0  0  0
 16 64  1  0  0  0
 17 65  1  0  0  0
 17 66  1  0  0  0
 19 67  1  0  0  0
 21 68  1  0  0  0
 21 69  1  0  0  0
 22 70  1  0  0  0
 23 71  1  0  0  0
 28 72  1  0  0  0
 29 73  1  0  0  0
 32 74  1  0  0  0
 32 75  1  0  0  0
 33 76  1  0  0  0
 34 77  1  0  0  0
 34 78  1  0  0  0
 35 79  1  0  0  0
 35 80  1  0  0  0
 36 81  1  0  0  0
 36 82  1  0  0  0
 37 83  1  0  0  0
 37 84  1  0  0  0
 38 85  1  0  0  0
 38 86  1  0  0  0
 39 87  1  0  0  0
 40 88  1  0  0  0
 41 89  1  0  0  0
 41 90  1  0  0  0
 42 91  1  0  0  0
 42 92  1  0  0  0
 45 93  1  0  0  0
 45 94  1  0  0  0
 46 95  1  0  0  0
M  END
$$$$
