5cnj_ligand
  -I-interpret- 

 31 33  0  0  0  0  0  0  0  0999 V2000
    6.6680   33.9290  -28.0320 C   0  0  0  0  0
    7.9760   33.6290  -27.4100 C   0  0  0  0  0
    6.9490   34.5060  -32.6910 C   0  0  0  0  0
    6.4680   35.9020  -26.8020 C   0  0  0  0  0
    5.1380   34.9220  -25.2430 C   0  0  0  0  0
    8.5510   32.3980  -27.7650 C   0  0  0  0  0
    6.6950   35.5260  -30.8240 C   0  0  0  0  0
    6.7490   33.5970  -26.5950 C   0  0  0  0  0
    6.1840   35.2980  -28.1410 C   0  0  0  0  0
    6.5160   34.7950  -25.8020 C   0  0  0  0  0
    5.6980   34.8330  -32.5870 N   0  0  0  0  0
    5.5360   35.4760  -31.4080 N   0  0  0  0  0
    7.6200   34.9300  -31.5990 N   0  0  0  0  0
    7.5750   35.0870  -24.8500 N   0  3  0  0  0
    7.7420   31.3260  -27.8330 O   0  0  0  0  0
    5.0390   35.0320  -23.9030 O   0  0  0  0  0
    9.7600   32.3920  -28.0310 O   0  0  0  0  0
    4.2330   34.9220  -26.0920 O   0  0  0  0  0
    7.1280   36.2240  -29.3250 S   0  0  0  0  0
    6.2383   33.5660  -28.9657 H   0  0  0  0  0
    8.9352   34.1392  -27.3219 H   0  0  0  0  0
    7.3908   33.9708  -33.5315 H   0  0  0  0  0
    5.6894   36.6173  -26.5371 H   0  0  0  0  0
    7.4185   36.4352  -26.8217 H   0  0  0  0  0
    6.3221   32.8579  -25.9170 H   0  0  0  0  0
    5.1365   35.3127  -28.4419 H   0  0  0  0  0
    7.3424   35.9357  -24.3342 H   0  0  0  0  0
    7.6700   34.3074  -24.1992 H   0  0  0  0  0
    8.4532   35.2221  -25.3510 H   0  0  0  0  0
    6.8520   31.5816  -27.5798 H   0  0  0  0  0
    5.9163   34.9986  -23.5146 H   0  0  0  0  0
  1  2  1  0  0  0
  1  8  1  0  0  0
  9  1  1  0  0  0
  2  6  1  0  0  0
  8  2  1  0  0  0
  3 11  4  0  0  0
 13  3  4  0  0  0
  9  4  1  0  0  0
  4 10  1  0  0  0
 10  5  1  0  0  0
  5 16  1  0  0  0
  5 18  2  0  0  0
  6 15  1  0  0  0
  6 17  2  0  0  0
  7 12  4  0  0  0
  7 13  4  0  0  0
 19  7  1  0  0  0
 10  8  1  0  0  0
  9 19  1  0  0  0
 10 14  1  0  0  0
 11 12  4  0  0  0
  1 20  1  0  0  0
  2 21  1  0  0  0
  3 22  1  0  0  0
  4 23  1  0  0  0
  4 24  1  0  0  0
  8 25  1  0  0  0
  9 26  1  0  0  0
 14 27  1  0  0  0
 14 28  1  0  0  0
 14 29  1  0  0  0
 15 30  1  0  0  0
 16 31  1  0  0  0
M  END
$$$$
