### 
### Created by X-TOOL on Mon Sep 10 21:13:17 2018
### 

@<TRIPOS>MOLECULE
4m7x_ligand
   57    56     1     0     0
SMALL
GAST_HUCK


@<TRIPOS>ATOM
      1 OAH        18.9620   16.8180    5.2980 O.co2     1 27Q        -0.5537
      2 PAX        17.8140   16.0280    4.6490 P.3       1 27Q         0.2007
      3 OAI        18.1660   14.5770    3.9020 O.co2     1 27Q        -0.5537
      4 OAF        17.1680   16.9900    3.6730 O.co2     1 27Q        -0.5537
      5 OAS        16.6450   15.7030    5.7560 O.3       1 27Q        -0.2753
      6 CAP        16.8790   15.0510    6.9370 C.3       1 27Q         0.0880
      7 CAW        16.0250   13.7600    7.0140 C.3       1 27Q         0.0360
      8 CAB        14.5270   14.1220    7.1200 C.3       1 27Q        -0.0529
      9 CAC        16.4940   13.0110    8.2530 C.3       1 27Q        -0.0529
     10 CAV        16.3040   12.8500    5.7540 C.3       1 27Q         0.1510
     11 OAG        17.7260   12.6340    5.5610 O.3       1 27Q        -0.3708
     12 CAU        15.6500   11.4870    5.8860 C.2       1 27Q         0.2057
     13 OAE        14.4130   11.3710    5.8460 O.2       1 27Q        -0.3942
     14 NAR        16.4670   10.4460    6.0520 N.am      1 27Q        -0.2826
     15 CAN        15.9970    9.0940    6.1490 C.3       1 27Q         0.0477
     16 CAO        15.4630    8.8520    7.6090 C.3       1 27Q         0.0574
     17 CAT        14.7600    7.5140    7.6740 C.2       1 27Q         0.1779
     18 OAD        13.5880    7.4030    7.3700 O.2       1 27Q        -0.3970
     19 NAQ        15.4940    6.4650    7.9970 N.am      1 27Q        -0.2869
     20 CAM        14.9000    5.1240    8.0000 C.3       1 27Q         0.0309
     21 CAL        15.9150    4.0460    8.2260 C.3       1 27Q        -0.0327
     22 CAK        16.2560    4.1160    9.6600 C.3       1 27Q        -0.0512
     23 CAJ        15.7700    2.8350   10.2840 C.3       1 27Q        -0.0530
     24 CAA        17.0190    2.3660   10.9520 C.3       1 27Q        -0.0533
     25 CAY        16.6180    1.6230   12.1890 C.3       1 27Q        -0.0559
     26 CAZ        17.7000    1.9700   13.2170 C.3       1 27Q        -0.0653
     27 H1         16.6147   15.7120    7.7756 H         1 27Q         0.0620
     28 H2         17.9447   14.7860    7.0008 H         1 27Q         0.0620
     29 H3         13.9299   13.1998    7.1741 H         1 27Q         0.0238
     30 H4         14.2264   14.7020    6.2350 H         1 27Q         0.0238
     31 H5         14.3580   14.7219    8.0264 H         1 27Q         0.0238
     32 H6         17.5616   12.7661    8.1512 H         1 27Q         0.0238
     33 H7         15.9137   12.0829    8.3620 H         1 27Q         0.0238
     34 H8         16.3458   13.6426    9.1413 H         1 27Q         0.0238
     35 H9         15.8952   13.3573    4.8677 H         1 27Q         0.0844
     36 H10        18.1574   13.4704    5.4309 H         1 27Q         0.2133
     37 H11        17.4508   10.6154    6.1115 H         1 27Q         0.1853
     38 H12        16.8223    8.3986    5.9362 H         1 27Q         0.0545
     39 H13        15.1845    8.9312    5.4255 H         1 27Q         0.0545
     40 H14        14.7562    9.6508    7.8780 H         1 27Q         0.0522
     41 H15        16.3075    8.8569    8.3138 H         1 27Q         0.0522
     42 H16        16.4566    6.5851    8.2400 H         1 27Q         0.1850
     43 H17        14.4134    4.9518    7.0286 H         1 27Q         0.0520
     44 H18        14.1478    5.0734    8.8011 H         1 27Q         0.0520
     45 H19        16.8085    4.2246    7.6098 H         1 27Q         0.0285
     46 H20        15.4907    3.0614    7.9799 H         1 27Q         0.0285
     47 H21        15.7568    4.9780   10.1266 H         1 27Q         0.0266
     48 H22        17.3446    4.2100    9.7865 H         1 27Q         0.0266
     49 H23        15.4228    2.1194    9.5241 H         1 27Q         0.0265
     50 H24        14.9648    3.0174   11.0109 H         1 27Q         0.0265
     51 H25        17.6480    3.2279   11.2193 H         1 27Q         0.0265
     52 H26        17.5774    1.6994   10.2783 H         1 27Q         0.0265
     53 H27        16.5947    0.5395   12.0007 H         1 27Q         0.0263
     54 H28        15.6295    1.9558   12.5385 H         1 27Q         0.0263
     55 H29        17.4806    1.4599   14.1666 H         1 27Q         0.0230
     56 H30        17.7155    3.0577   13.3802 H         1 27Q         0.0230
     57 H31        18.6806    1.6414   12.8423 H         1 27Q         0.0230
@<TRIPOS>BOND
     1    1    2 ar 
     2    2    3 ar 
     3    2    4 ar 
     4    2    5 1  
     5    5    6 1  
     6    6    7 1  
     7    7    8 1  
     8    7    9 1  
     9    7   10 1  
    10   10   11 1  
    11   10   12 1  
    12   12   13 2  
    13   12   14 am 
    14   14   15 1  
    15   15   16 1  
    16   16   17 1  
    17   17   18 2  
    18   17   19 am 
    19   19   20 1  
    20   20   21 1  
    21   21   22 1  
    22   22   23 1  
    23   23   24 1  
    24   24   25 1  
    25   25   26 1  
    26    6   27 1  
    27    6   28 1  
    28    8   29 1  
    29    8   30 1  
    30    8   31 1  
    31    9   32 1  
    32    9   33 1  
    33    9   34 1  
    34   10   35 1  
    35   11   36 1  
    36   14   37 1  
    37   15   38 1  
    38   15   39 1  
    39   16   40 1  
    40   16   41 1  
    41   19   42 1  
    42   20   43 1  
    43   20   44 1  
    44   21   45 1  
    45   21   46 1  
    46   22   47 1  
    47   22   48 1  
    48   23   49 1  
    49   23   50 1  
    50   24   51 1  
    51   24   52 1  
    52   25   53 1  
    53   25   54 1  
    54   26   55 1  
    55   26   56 1  
    56   26   57 1  
@<TRIPOS>SUBSTRUCTURE
     1 27Q         1

