4m7x_ligand
  -I-interpret- 

 59 58  0  0  0  0  0  0  0  0999 V2000
   18.9620   16.8180    5.2980 O   0  0  0  0  0
   17.8140   16.0280    4.6490 P   0  0  0  0  0
   18.1660   14.5770    3.9020 O   0  0  0  0  0
   17.1680   16.9900    3.6730 O   0  0  0  0  0
   16.6450   15.7030    5.7560 O   0  0  0  0  0
   16.8790   15.0510    6.9370 C   0  0  0  0  0
   16.0250   13.7600    7.0140 C   0  0  0  0  0
   14.5270   14.1220    7.1200 C   0  0  0  0  0
   16.4940   13.0110    8.2530 C   0  0  0  0  0
   16.3040   12.8500    5.7540 C   0  0  0  0  0
   17.7260   12.6340    5.5610 O   0  0  0  0  0
   15.6500   11.4870    5.8860 C   0  0  0  0  0
   14.4130   11.3710    5.8460 O   0  0  0  0  0
   16.4670   10.4460    6.0520 N   0  0  0  0  0
   15.9970    9.0940    6.1490 C   0  0  0  0  0
   15.4630    8.8520    7.6090 C   0  0  0  0  0
   14.7600    7.5140    7.6740 C   0  0  0  0  0
   13.5880    7.4030    7.3700 O   0  0  0  0  0
   15.4940    6.4650    7.9970 N   0  0  0  0  0
   14.9000    5.1240    8.0000 C   0  0  0  0  0
   15.9150    4.0460    8.2260 C   0  0  0  0  0
   16.2560    4.1160    9.6600 C   0  0  0  0  0
   15.7700    2.8350   10.2840 C   0  0  0  0  0
   17.0190    2.3660   10.9520 C   0  0  0  0  0
   16.6180    1.6230   12.1890 C   0  0  0  0  0
   17.7000    1.9700   13.2170 C   0  0  0  0  0
   19.4153   16.2583    5.9328 H   0  0  0  0  0
   18.5738   13.9826    4.5360 H   0  0  0  0  0
   16.6105   15.7063    7.7656 H   0  0  0  0  0
   17.9344   14.7846    6.9944 H   0  0  0  0  0
   13.9401   13.2090    7.2204 H   0  0  0  0  0
   14.3684   14.7552    7.9929 H   0  0  0  0  0
   14.2192   14.6564    6.2212 H   0  0  0  0  0
   16.3466   13.6378    9.1325 H   0  0  0  0  0
   15.9183   12.0916    8.3599 H   0  0  0  0  0
   17.5519   12.7689    8.1510 H   0  0  0  0  0
   15.8823   13.3833    4.9021 H   0  0  0  0  0
   17.8624   12.0789    4.7897 H   0  0  0  0  0
   17.4704   10.6187    6.1127 H   0  0  0  0  0
   16.8104    8.4017    5.9318 H   0  0  0  0  0
   15.1964    8.9267    5.4284 H   0  0  0  0  0
   14.7626    9.6436    7.8754 H   0  0  0  0  0
   16.3000    8.8568    8.3073 H   0  0  0  0  0
   16.4758    6.5875    8.2449 H   0  0  0  0  0
   14.4440    4.9566    7.0242 H   0  0  0  0  0
   14.1759    5.0793    8.8135 H   0  0  0  0  0
   16.7954    4.1902    7.5997 H   0  0  0  0  0
   15.5214    3.0656    7.9575 H   0  0  0  0  0
   15.7847    4.9796   10.1293 H   0  0  0  0  0
   17.3310    4.2316    9.7981 H   0  0  0  0  0
   15.3516    2.1235    9.5721 H   0  0  0  0  0
   14.9241    2.9616   10.9597 H   0  0  0  0  0
   17.6557    3.2133   11.2065 H   0  0  0  0  0
   17.5865    1.7168   10.2852 H   0  0  0  0  0
   16.5508    0.5490   12.0152 H   0  0  0  0  0
   15.6237    1.9094   12.5318 H   0  0  0  0  0
   18.6711    1.6440   12.8446 H   0  0  0  0  0
   17.7143    3.0480   13.3777 H   0  0  0  0  0
   17.4815    1.4640   14.1574 H   0  0  0  0  0
  1  2  1  0  0  0
  2  3  1  0  0  0
  2  4  2  0  0  0
  2  5  1  0  0  0
  5  6  1  0  0  0
  6  7  1  0  0  0
  7  8  1  0  0  0
  7  9  1  0  0  0
  7 10  1  0  0  0
 10 11  1  0  0  0
 10 12  1  0  0  0
 12 13  2  0  0  0
 12 14  1  0  0  0
 14 15  1  0  0  0
 15 16  1  0  0  0
 16 17  1  0  0  0
 17 18  2  0  0  0
 17 19  1  0  0  0
 19 20  1  0  0  0
 20 21  1  0  0  0
 21 22  1  0  0  0
 22 23  1  0  0  0
 23 24  1  0  0  0
 24 25  1  0  0  0
 25 26  1  0  0  0
  1 27  1  0  0  0
  3 28  1  0  0  0
  6 29  1  0  0  0
  6 30  1  0  0  0
  8 31  1  0  0  0
  8 32  1  0  0  0
  8 33  1  0  0  0
  9 34  1  0  0  0
  9 35  1  0  0  0
  9 36  1  0  0  0
 10 37  1  0  0  0
 11 38  1  0  0  0
 14 39  1  0  0  0
 15 40  1  0  0  0
 15 41  1  0  0  0
 16 42  1  0  0  0
 16 43  1  0  0  0
 19 44  1  0  0  0
 20 45  1  0  0  0
 20 46  1  0  0  0
 21 47  1  0  0  0
 21 48  1  0  0  0
 22 49  1  0  0  0
 22 50  1  0  0  0
 23 51  1  0  0  0
 23 52  1  0  0  0
 24 53  1  0  0  0
 24 54  1  0  0  0
 25 55  1  0  0  0
 25 56  1  0  0  0
 26 57  1  0  0  0
 26 58  1  0  0  0
 26 59  1  0  0  0
M  END
$$$$
