### 
### Created by X-TOOL on Sun Sep  9 21:50:41 2018
### 

@<TRIPOS>MOLECULE
2j4q_ligand
   42    43     1     0     0
SMALL
GAST_HUCK


@<TRIPOS>ATOM
      1 PA         17.6850  -18.9790   62.1450 P.3       1 NON         0.3266
      2 O1A        16.9230  -19.5300   61.0160 O.co2     1 NON        -0.5692
      3 O2A        19.0940  -19.4170   62.3540 O.co2     1 NON        -0.5692
      4 O3A        16.8370  -19.1780   63.5410 O.3       1 NON        -0.1171
      5 PB         15.7330  -20.3360   63.8540 P.3       1 NON         0.3553
      6 O1B        14.4160  -19.8710   63.3460 O.co2     1 NON        -0.5652
      7 O2B        15.8150  -20.7720   65.2600 O.co2     1 NON        -0.5652
      8 O3B        16.3130  -21.6500   63.0770 O.3       1 NON        -0.1546
      9 PG         16.2570  -22.1170   61.5060 P.3       1 NON         0.1879
     10 O1G        17.6390  -21.9820   60.9700 O.co2     1 NON        -0.6091
     11 O2G        15.2560  -21.3130   60.7420 O.co2     1 NON        -0.6091
     12 O3G        15.8560  -23.5490   61.4670 O.co2     1 NON        -0.6091
     13 N1         18.1150  -13.7060   62.4900 N.am      1 NON        -0.1736
     14 C2         18.0750  -12.9140   63.6280 C.2       1 NON         0.3265
     15 O2         17.0400  -12.3320   63.9400 O.2       1 NON        -0.3843
     16 N3         19.1820  -12.7900   64.4450 N.am      1 NON        -0.1859
     17 C4         20.3530  -13.4390   64.1270 C.2       1 NON         0.1930
     18 O4         21.3270  -13.3110   64.8580 O.2       1 NON        -0.4079
     19 C5         20.4290  -14.2300   62.9990 C.2       1 NON         0.0225
     20 C5M        21.7040  -14.9350   62.6340 C.3       1 NON        -0.0437
     21 C6         19.3010  -14.3640   62.1920 C.2       1 NON         0.0524
     22 O5         17.6550  -17.3800   61.8380 O.3       1 NON        -0.2441
     23 C5         16.4200  -17.0990   61.2240 C.3       1 NON         0.1130
     24 C4         16.1570  -15.7860   60.9130 C.3       1 NON         0.1163
     25 O4         16.2380  -14.9790   62.0760 O.3       1 NON        -0.3395
     26 C3         17.1310  -15.3050   60.0320 C.3       1 NON         0.0889
     27 O3         16.8210  -15.5680   58.6770 O.3       1 NON        -0.3890
     28 C2         17.2470  -13.9360   60.3380 C.3       1 NON         0.0308
     29 C1         16.9820  -13.8160   61.7150 C.3       1 NON         0.1757
     30 H1         19.1322  -12.2270   65.2699 H         1 NON         0.2259
     31 H2         21.5536  -15.5084   61.7074 H         1 NON         0.0296
     32 H3         21.9901  -15.6194   63.4463 H         1 NON         0.0296
     33 H4         22.5021  -14.1936   62.4810 H         1 NON         0.0296
     34 H5         19.3506  -14.9986   61.3084 H         1 NON         0.1011
     35 H6         15.6266  -17.4433   61.9037 H         1 NON         0.0648
     36 H7         16.3769  -17.6756   60.2882 H         1 NON         0.0648
     37 H8         15.1573  -15.7060   60.4613 H         1 NON         0.0650
     38 H9         18.0890  -15.7997   60.2500 H         1 NON         0.0622
     39 H10        16.7481  -16.5061   58.5463 H         1 NON         0.2099
     40 H11        16.5173  -13.3526   59.7574 H         1 NON         0.0344
     41 H12        18.2632  -13.5801   60.1132 H         1 NON         0.0344
     42 H13        16.3671  -12.9194   61.8824 H         1 NON         0.0959
@<TRIPOS>BOND
     1    1    2 ar 
     2    1    3 ar 
     3    1    4 1  
     4   22    1 1  
     5    4    5 1  
     6    5    6 ar 
     7    5    7 ar 
     8    5    8 1  
     9    8    9 1  
    10    9   10 ar 
    11    9   11 ar 
    12    9   12 ar 
    13   13   14 am 
    14   13   21 1  
    15   29   13 1  
    16   14   15 2  
    17   14   16 am 
    18   16   17 am 
    19   17   18 2  
    20   19   17 1  
    21   19   20 1  
    22   21   19 2  
    23   23   22 1  
    24   24   23 1  
    25   25   24 1  
    26   24   26 1  
    27   25   29 1  
    28   26   27 1  
    29   26   28 1  
    30   28   29 1  
    31   16   30 1  
    32   20   31 1  
    33   20   32 1  
    34   20   33 1  
    35   21   34 1  
    36   23   35 1  
    37   23   36 1  
    38   24   37 1  
    39   26   38 1  
    40   27   39 1  
    41   28   40 1  
    42   28   41 1  
    43   29   42 1  
@<TRIPOS>SUBSTRUCTURE
     1 NON         1

