2j4q_ligand
  -I-interpret- 

 46 47  0  0  0  0  0  0  0  0999 V2000
   17.6850  -18.9790   62.1450 P   0  0  0  0  0
   16.9230  -19.5300   61.0160 O   0  0  0  0  0
   19.0940  -19.4170   62.3540 O   0  0  0  0  0
   16.8370  -19.1780   63.5410 O   0  0  0  0  0
   15.7330  -20.3360   63.8540 P   0  0  0  0  0
   14.4160  -19.8710   63.3460 O   0  0  0  0  0
   15.8150  -20.7720   65.2600 O   0  0  0  0  0
   16.3130  -21.6500   63.0770 O   0  0  0  0  0
   16.2570  -22.1170   61.5060 P   0  0  0  0  0
   17.6390  -21.9820   60.9700 O   0  0  0  0  0
   15.2560  -21.3130   60.7420 O   0  0  0  0  0
   15.8560  -23.5490   61.4670 O   0  0  0  0  0
   18.1150  -13.7060   62.4900 N   0  0  0  0  0
   18.0750  -12.9140   63.6280 C   0  0  0  0  0
   17.0400  -12.3320   63.9400 O   0  0  0  0  0
   19.1820  -12.7900   64.4450 N   0  0  0  0  0
   20.3530  -13.4390   64.1270 C   0  0  0  0  0
   21.3270  -13.3110   64.8580 O   0  0  0  0  0
   20.4290  -14.2300   62.9990 C   0  0  0  0  0
   21.7040  -14.9350   62.6340 C   0  0  0  0  0
   19.3010  -14.3640   62.1920 C   0  0  0  0  0
   17.6550  -17.3800   61.8380 O   0  0  0  0  0
   16.4200  -17.0990   61.2240 C   0  0  0  0  0
   16.1570  -15.7860   60.9130 C   0  0  0  0  0
   16.2380  -14.9790   62.0760 O   0  0  0  0  0
   17.1310  -15.3050   60.0320 C   0  0  0  0  0
   16.8210  -15.5680   58.6770 O   0  0  0  0  0
   17.2470  -13.9360   60.3380 C   0  0  0  0  0
   16.9820  -13.8160   61.7150 C   0  0  0  0  0
   19.4550  -18.9730   63.1248 H   0  0  0  0  0
   14.5011  -19.6182   62.4238 H   0  0  0  0  0
   17.9014  -21.0589   60.9936 H   0  0  0  0  0
   15.5081  -20.3869   60.7626 H   0  0  0  0  0
   19.1312  -12.2157   65.2864 H   0  0  0  0  0
   21.5275  -16.0102   62.6046 H   0  0  0  0  0
   22.0389  -14.5935   61.6545 H   0  0  0  0  0
   22.4676  -14.7111   63.3789 H   0  0  0  0  0
   19.3506  -14.9991   61.3076 H   0  0  0  0  0
   15.6575  -17.3904   61.9463 H   0  0  0  0  0
   16.4347  -17.6311   60.2728 H   0  0  0  0  0
   15.1605  -15.7417   60.4736 H   0  0  0  0  0
   18.0870  -15.8131   60.1588 H   0  0  0  0  0
   17.5181  -15.2190   58.1168 H   0  0  0  0  0
   16.5469  -13.3420   59.7505 H   0  0  0  0  0
   18.2421  -13.5628   60.0960 H   0  0  0  0  0
   16.4313  -12.8933   61.8979 H   0  0  0  0  0
  1  2  2  0  0  0
  1  3  1  0  0  0
  1  4  1  0  0  0
 22  1  1  0  0  0
  4  5  1  0  0  0
  5  6  1  0  0  0
  5  7  2  0  0  0
  5  8  1  0  0  0
  8  9  1  0  0  0
  9 10  1  0  0  0
  9 11  1  0  0  0
  9 12  2  0  0  0
 13 14  1  0  0  0
 13 21  1  0  0  0
 29 13  1  0  0  0
 14 15  2  0  0  0
 14 16  1  0  0  0
 16 17  1  0  0  0
 17 18  2  0  0  0
 19 17  1  0  0  0
 19 20  1  0  0  0
 21 19  2  0  0  0
 23 22  1  0  0  0
 24 23  1  0  0  0
 25 24  1  0  0  0
 24 26  1  0  0  0
 25 29  1  0  0  0
 26 27  1  0  0  0
 26 28  1  0  0  0
 28 29  1  0  0  0
  3 30  1  0  0  0
  6 31  1  0  0  0
 10 32  1  0  0  0
 11 33  1  0  0  0
 16 34  1  0  0  0
 20 35  1  0  0  0
 20 36  1  0  0  0
 20 37  1  0  0  0
 21 38  1  0  0  0
 23 39  1  0  0  0
 23 40  1  0  0  0
 24 41  1  0  0  0
 26 42  1  0  0  0
 27 43  1  0  0  0
 28 44  1  0  0  0
 28 45  1  0  0  0
 29 46  1  0  0  0
M  END
$$$$
