4mbl_ligand
  -I-interpret- 

 51 55  0  0  0  0  0  0  0  0999 V2000
   39.7570    5.3910    4.8560 N   0  3  0  0  0
   40.3720    4.1270    5.2870 C   0  0  0  0  0
   39.9930    2.9580    4.3780 C   0  0  0  0  0
   40.5250    1.6450    4.9470 C   0  0  0  0  0
   42.0520    1.6970    5.0560 C   0  0  0  0  0
   42.5420    2.9360    5.8480 C   0  0  0  0  0
   41.8880    4.2470    5.3730 C   0  0  0  0  0
   38.6050    2.9470    3.9740 N   0  0  0  0  0
   38.3500    3.0960    2.6320 C   0  0  0  0  0
   37.0690    3.4110    2.2050 C   0  0  0  0  0
   36.7920    3.4670    0.8670 C   0  0  0  0  0
   37.8630    3.2870    0.0070 N   0  0  0  0  0
   39.1270    3.0300    0.5100 C   0  0  0  0  0
   39.3690    2.9170    1.8110 N   0  0  0  0  0
   37.8410    3.4020   -1.3400 N   0  0  0  0  0
   39.1270    3.1090   -1.7280 C   0  0  0  0  0
   39.9880    2.9290   -0.6290 C   0  0  0  0  0
   41.4480    2.6180   -0.6650 C   0  0  0  0  0
   42.1340    2.5810   -1.8830 C   0  0  0  0  0
   43.4620    2.2620   -1.9360 C   0  0  0  0  0
   44.1960    1.9890   -0.7520 C   0  0  0  0  0
   43.5130    2.0340    0.4920 C   0  0  0  0  0
   42.1320    2.3590    0.5040 C   0  0  0  0  0
   45.5990    1.7540   -0.7480 C   0  0  0  0  0
   46.2620    1.5010    0.4230 C   0  0  0  0  0
   45.5910    1.5210    1.6320 C   0  0  0  0  0
   44.2410    1.7580    1.6780 C   0  0  0  0  0
   38.7445    5.2764    4.8090 H   0  0  0  0  0
   39.9865    6.1252    5.5258 H   0  0  0  0  0
   40.1148    5.6452    3.9352 H   0  0  0  0  0
   39.9782    3.9191    6.2819 H   0  0  0  0  0
   40.4981    3.1009    3.4227 H   0  0  0  0  0
   40.2419    0.8276    4.2838 H   0  0  0  0  0
   40.1013    1.4879    5.9389 H   0  0  0  0  0
   42.4617    1.7559    4.0476 H   0  0  0  0  0
   42.3844    0.8038    5.5850 H   0  0  0  0  0
   43.6175    3.0255    5.6947 H   0  0  0  0  0
   42.2740    2.7900    6.8944 H   0  0  0  0  0
   42.1286    5.0293    6.0929 H   0  0  0  0  0
   42.2694    4.4784    4.3785 H   0  0  0  0  0
   37.8515    2.8341    4.6522 H   0  0  0  0  0
   36.2845    3.6135    2.9342 H   0  0  0  0  0
   35.7821    3.6439    0.4969 H   0  0  0  0  0
   39.4436    3.0256   -2.7677 H   0  0  0  0  0
   41.6007    2.8104   -2.8056 H   0  0  0  0  0
   43.9650    2.2165   -2.9019 H   0  0  0  0  0
   41.6017    2.4048    1.4552 H   0  0  0  0  0
   46.1521    1.7756   -1.6870 H   0  0  0  0  0
   47.3295    1.2816    0.4020 H   0  0  0  0  0
   46.1403    1.3467    2.5572 H   0  0  0  0  0
   43.7218    1.7341    2.6361 H   0  0  0  0  0
  1  2  1  0  0  0
  2  3  1  0  0  0
  2  7  1  0  0  0
  3  4  1  0  0  0
  3  8  1  0  0  0
  4  5  1  0  0  0
  5  6  1  0  0  0
  6  7  1  0  0  0
  8  9  1  0  0  0
  9 10  4  0  0  0
  9 14  4  0  0  0
 10 11  4  0  0  0
 11 12  4  0  0  0
 12 13  4  0  0  0
 12 15  4  0  0  0
 13 14  4  0  0  0
 13 17  4  0  0  0
 15 16  4  0  0  0
 16 17  4  0  0  0
 17 18  1  0  0  0
 18 19  4  0  0  0
 18 23  4  0  0  0
 19 20  4  0  0  0
 20 21  4  0  0  0
 21 22  4  0  0  0
 21 24  4  0  0  0
 22 23  4  0  0  0
 22 27  4  0  0  0
 24 25  4  0  0  0
 25 26  4  0  0  0
 26 27  4  0  0  0
  1 28  1  0  0  0
  1 29  1  0  0  0
  1 30  1  0  0  0
  2 31  1  0  0  0
  3 32  1  0  0  0
  4 33  1  0  0  0
  4 34  1  0  0  0
  5 35  1  0  0  0
  5 36  1  0  0  0
  6 37  1  0  0  0
  6 38  1  0  0  0
  7 39  1  0  0  0
  7 40  1  0  0  0
  8 41  1  0  0  0
 10 42  1  0  0  0
 11 43  1  0  0  0
 16 44  1  0  0  0
 19 45  1  0  0  0
 20 46  1  0  0  0
 23 47  1  0  0  0
 24 48  1  0  0  0
 25 49  1  0  0  0
 26 50  1  0  0  0
 27 51  1  0  0  0
M  END
$$$$
