### 
### Created by X-TOOL on Mon Sep 10 21:12:49 2018
### 

@<TRIPOS>MOLECULE
1g9t_ligand
   36    38     1     0     0
SMALL
GAST_HUCK


@<TRIPOS>ATOM
      1 P         -12.6100   60.0160   68.2760 P.3       1 5GP         0.2008
      2 O1P       -13.4690   59.4640   69.3430 O.co2     1 5GP        -0.5537
      3 O2P       -11.1820   59.7300   68.4920 O.co2     1 5GP        -0.5537
      4 O3P       -13.1170   59.6270   66.9510 O.co2     1 5GP        -0.5537
      5 O5        -12.9030   61.5710   68.2460 O.3       1 5GP        -0.2734
      6 C5        -12.3610   62.5600   69.1390 C.3       1 5GP         0.1072
      7 C4        -12.6760   63.9310   68.6280 C.3       1 5GP         0.1182
      8 O4        -14.0930   64.1910   68.5590 O.3       1 5GP        -0.3364
      9 C3        -12.1110   64.9600   69.5520 C.3       1 5GP         0.1149
     10 O3        -10.8520   65.4190   69.0440 O.3       1 5GP        -0.3864
     11 C2        -13.0980   66.0650   69.5290 C.3       1 5GP         0.1387
     12 O2        -12.6680   67.1090   68.6670 O.3       1 5GP        -0.3836
     13 C1        -14.4500   65.4860   69.0770 C.3       1 5GP         0.1992
     14 N9        -15.4130   65.3710   70.2790 N.pl3     1 5GP        -0.2101
     15 C8        -15.9280   64.1980   70.8480 C.2       1 5GP         0.0957
     16 N7        -16.7380   64.3870   71.8790 N.2       1 5GP        -0.3235
     17 C5        -16.7880   65.7810   72.0470 C.2       1 5GP         0.0926
     18 C6        -17.5210   66.5890   73.0160 C.2       1 5GP         0.2135
     19 O6        -18.2530   66.1900   73.9270 O.2       1 5GP        -0.4091
     20 N1        -17.3170   67.9800   72.8550 N.am      1 5GP        -0.1839
     21 C2        -16.5010   68.5570   71.8550 C.2       1 5GP         0.2340
     22 N2        -16.4110   69.8930   71.8240 N.pl3     1 5GP        -0.2807
     23 N3        -15.8060   67.8020   70.9340 N.2       1 5GP        -0.2765
     24 C4        -15.9940   66.4150   71.0690 C.2       1 5GP         0.1159
     25 H1        -11.2699   62.4358   69.2027 H         1 5GP         0.0639
     26 H2        -12.8036   62.4319   70.1378 H         1 5GP         0.0639
     27 H3        -12.2352   64.0427   67.6264 H         1 5GP         0.0650
     28 H4        -11.9872   64.5587   70.5687 H         1 5GP         0.0648
     29 H5        -10.2512   64.6859   68.9804 H         1 5GP         0.2100
     30 H6        -13.2049   66.4738   70.5446 H         1 5GP         0.0676
     31 H7        -11.8352   67.4483   68.9734 H         1 5GP         0.2101
     32 H8        -14.9093   66.1096   68.2959 H         1 5GP         0.0998
     33 H9        -15.6810   63.2066   70.4711 H         1 5GP         0.1179
     34 H10       -17.7812   68.5962   73.4912 H         1 5GP         0.2515
     35 H11       -15.8270   70.3534   71.1113 H         1 5GP         0.1897
     36 H12       -16.9257   70.4600   72.5128 H         1 5GP         0.1897
@<TRIPOS>BOND
     1    1    2 ar 
     2    1    3 ar 
     3    1    4 ar 
     4    1    5 1  
     5    5    6 1  
     6    6    7 1  
     7    7    8 1  
     8    7    9 1  
     9    8   13 1  
    10    9   10 1  
    11    9   11 1  
    12   11   12 1  
    13   11   13 1  
    14   13   14 1  
    15   14   15 1  
    16   14   24 1  
    17   15   16 2  
    18   16   17 1  
    19   17   18 1  
    20   17   24 2  
    21   18   19 2  
    22   18   20 am 
    23   20   21 am 
    24   21   22 1  
    25   21   23 2  
    26   23   24 1  
    27    6   25 1  
    28    6   26 1  
    29    7   27 1  
    30    9   28 1  
    31   10   29 1  
    32   11   30 1  
    33   12   31 1  
    34   13   32 1  
    35   15   33 1  
    36   20   34 1  
    37   22   35 1  
    38   22   36 1  
@<TRIPOS>SUBSTRUCTURE
     1 5GP         1

