1g9t_ligand
  -I-interpret- 

 38 40  0  0  0  0  0  0  0  0999 V2000
  -12.6100   60.0160   68.2760 P   0  0  0  0  0
  -13.4690   59.4640   69.3430 O   0  0  0  0  0
  -11.1820   59.7300   68.4920 O   0  0  0  0  0
  -13.1170   59.6270   66.9510 O   0  0  0  0  0
  -12.9030   61.5710   68.2460 O   0  0  0  0  0
  -12.3610   62.5600   69.1390 C   0  0  0  0  0
  -12.6760   63.9310   68.6280 C   0  0  0  0  0
  -14.0930   64.1910   68.5590 O   0  0  0  0  0
  -12.1110   64.9600   69.5520 C   0  0  0  0  0
  -10.8520   65.4190   69.0440 O   0  0  0  0  0
  -13.0980   66.0650   69.5290 C   0  0  0  0  0
  -12.6680   67.1090   68.6670 O   0  0  0  0  0
  -14.4500   65.4860   69.0770 C   0  0  0  0  0
  -15.4130   65.3710   70.2790 N   0  0  0  0  0
  -15.9280   64.1980   70.8480 C   0  0  0  0  0
  -16.7380   64.3870   71.8790 N   0  0  0  0  0
  -16.7880   65.7810   72.0470 C   0  0  0  0  0
  -17.5210   66.5890   73.0160 C   0  0  0  0  0
  -18.2530   66.1900   73.9270 O   0  0  0  0  0
  -17.3170   67.9800   72.8550 N   0  0  0  0  0
  -16.5010   68.5570   71.8550 C   0  0  0  0  0
  -16.4110   69.8930   71.8240 N   0  0  0  0  0
  -15.8060   67.8020   70.9340 N   0  0  0  0  0
  -15.9940   66.4150   71.0690 C   0  0  0  0  0
  -13.1234   59.7276   70.1990 H   0  0  0  0  0
  -10.9304   60.0115   69.3746 H   0  0  0  0  0
  -11.2796   62.4374   69.1992 H   0  0  0  0  0
  -12.8023   62.4335   70.1276 H   0  0  0  0  0
  -12.2444   63.9825   67.6284 H   0  0  0  0  0
  -11.9423   64.5761   70.5581 H   0  0  0  0  0
  -10.4901   66.0801   69.6386 H   0  0  0  0  0
  -13.1992   66.4999   70.5234 H   0  0  0  0  0
  -13.3212   67.8125   68.6677 H   0  0  0  0  0
  -14.9688   66.1022   68.3426 H   0  0  0  0  0
  -15.6807   63.2057   70.4708 H   0  0  0  0  0
  -17.7904   68.6086   73.5040 H   0  0  0  0  0
  -15.8297   70.3488   71.1206 H   0  0  0  0  0
  -16.9237   70.4546   72.5038 H   0  0  0  0  0
  1  2  1  0  0  0
  1  3  1  0  0  0
  1  4  2  0  0  0
  1  5  1  0  0  0
  5  6  1  0  0  0
  6  7  1  0  0  0
  7  8  1  0  0  0
  7  9  1  0  0  0
  8 13  1  0  0  0
  9 10  1  0  0  0
  9 11  1  0  0  0
 11 12  1  0  0  0
 11 13  1  0  0  0
 13 14  1  0  0  0
 14 15  4  0  0  0
 14 24  4  0  0  0
 15 16  4  0  0  0
 16 17  4  0  0  0
 17 18  1  0  0  0
 17 24  4  0  0  0
 18 19  2  0  0  0
 18 20  1  0  0  0
 20 21  1  0  0  0
 21 22  1  0  0  0
 21 23  2  0  0  0
 23 24  1  0  0  0
  2 25  1  0  0  0
  3 26  1  0  0  0
  6 27  1  0  0  0
  6 28  1  0  0  0
  7 29  1  0  0  0
  9 30  1  0  0  0
 10 31  1  0  0  0
 11 32  1  0  0  0
 12 33  1  0  0  0
 13 34  1  0  0  0
 15 35  1  0  0  0
 20 36  1  0  0  0
 22 37  1  0  0  0
 22 38  1  0  0  0
M  END
$$$$
