6qts_ligand
  -I-interpret- 

117118  0  0  0  0  0  0  0  0999 V2000
    1.8390    2.3000  -27.3390 N   0  3  0  0  0
    0.5530    2.9720  -27.2150 C   0  0  0  0  0
   -0.0670    2.7260  -25.8450 C   0  0  0  0  0
   -0.1110    1.5980  -25.3600 O   0  0  0  0  0
   -0.4080    2.5100  -28.3100 C   0  0  0  0  0
   -0.0660    3.0480  -29.6870 C   0  0  0  0  0
   -1.3130    3.2180  -30.5440 C   0  0  0  0  0
   -1.9160    1.9450  -30.9290 N   0  0  0  0  0
   -3.0590    1.8330  -31.6010 C   0  0  0  0  0
   -3.7310    2.9180  -31.9580 N   0  0  0  0  0
   -3.5320    0.6350  -31.9130 N   0  0  0  0  0
   -0.5520    3.7980  -25.2330 N   0  0  0  0  0
   -1.0720    3.7670  -23.8750 C   0  0  0  0  0
   -2.5720    4.0030  -23.8790 C   0  0  0  0  0
   -3.0880    4.7980  -24.6690 O   0  0  0  0  0
   -0.3730    4.8340  -23.0300 C   0  0  0  0  0
    1.0860    4.5330  -22.7840 C   0  0  0  0  0
    1.4580    3.5380  -21.8930 C   0  0  0  0  0
    2.0840    5.2310  -23.4440 C   0  0  0  0  0
    2.7790    3.2480  -21.6590 C   0  0  0  0  0
    3.4120    4.9470  -23.2180 C   0  0  0  0  0
    3.7530    3.9530  -22.3270 C   0  0  0  0  0
    5.0760    3.6660  -22.0950 O   0  0  0  0  0
   -3.2600    3.2890  -22.9950 N   0  0  0  0  0
   -4.6950    3.4470  -22.8060 C   0  0  0  0  0
   -5.4770    3.1350  -24.0730 C   0  0  0  0  0
   -6.5330    3.7220  -24.3190 O   0  0  0  0  0
   -5.0540    4.8300  -22.2560 C   0  0  0  0  0
   -4.9770    2.2090  -24.8810 N   0  0  0  0  0
   -5.6670    1.7450  -26.0760 C   0  0  0  0  0
   -6.2220    0.3550  -25.7910 C   0  0  0  0  0
   -5.4850   -0.5430  -25.3690 O   0  0  0  0  0
   -4.7440    1.7490  -27.3000 C   0  0  0  0  0
   -5.4600    1.1450  -28.4880 C   0  0  0  0  0
   -4.3030    3.1600  -27.6140 C   0  0  0  0  0
   -7.5190    0.1890  -25.9980 N   0  0  0  0  0
   -8.1850   -1.0820  -25.6920 C   0  0  0  0  0
   -7.7360   -2.1360  -26.6900 C   0  0  0  0  0
   -7.6490   -1.8450  -27.8940 O   0  0  0  0  0
   -9.7030   -0.8890  -25.7320 C   0  0  0  0  0
  -10.4230   -2.1920  -25.4630 C   0  0  0  0  0
  -10.1440    0.1620  -24.7140 C   0  0  0  0  0
   -7.4410   -3.3570  -26.2540 N   0  0  0  0  0
   -7.1560   -4.4280  -27.2200 C   0  0  0  0  0
   -8.3110   -4.5870  -28.2000 C   0  0  0  0  0
   -9.4810   -4.4370  -27.8390 O   0  0  0  0  0
   -7.0060   -5.6720  -26.3390 C   0  0  0  0  0
   -6.7860   -5.1910  -24.9630 C   0  0  0  0  0
   -7.3290   -3.7970  -24.8540 C   0  0  0  0  0
   -7.9830   -4.8980  -29.4470 N   0  0  0  0  0
   -9.0180   -5.1260  -30.4560 C   0  0  0  0  0
  -10.0400   -6.1460  -29.9510 C   0  0  0  0  0
   -9.8110   -7.3570  -30.0100 O   0  0  0  0  0
   -8.4090   -5.6220  -31.7670 C   0  0  0  0  0
   -7.2540   -4.7640  -32.2330 C   0  0  0  0  0
   -6.1370   -4.9350  -31.7000 O   0  0  0  0  0
   -7.4600   -3.9190  -33.1280 O   0  0  0  0  0
  -11.1180   -5.7820  -29.4730 O   0  0  0  0  0
    2.4628    2.6232  -26.5995 H   0  0  0  0  0
    1.7042    1.2924  -27.2556 H   0  0  0  0  0
    2.2475    2.5154  -28.2484 H   0  0  0  0  0
    0.7294    4.0417  -27.3277 H   0  0  0  0  0
   -1.3998    2.8812  -28.0517 H   0  0  0  0  0
   -0.3473    1.4228  -28.3601 H   0  0  0  0  0
    0.5983    2.3383  -30.1802 H   0  0  0  0  0
    0.4081    4.0224  -29.5694 H   0  0  0  0  0
   -1.0213    3.7377  -31.4567 H   0  0  0  0  0
   -2.0472    3.7702  -29.9575 H   0  0  0  0  0
   -1.4303    1.0874  -30.6662 H   0  0  0  0  0
   -3.3723    3.8421  -31.7177 H   0  0  0  0  0
   -4.4097    0.5509  -32.4258 H   0  0  0  0  0
   -3.0183   -0.2030  -31.6404 H   0  0  0  0  0
   -0.5607    4.6844  -25.7376 H   0  0  0  0  0
   -0.8771    2.7851  -23.4436 H   0  0  0  0  0
   -0.8719    4.8686  -22.0615 H   0  0  0  0  0
   -0.4294    5.7768  -23.5742 H   0  0  0  0  0
    0.6863    2.9750  -21.3681 H   0  0  0  0  0
    1.8144    6.0152  -24.1514 H   0  0  0  0  0
    3.0536    2.4665  -20.9506 H   0  0  0  0  0
    4.1888    5.5051  -23.7407 H   0  0  0  0  0
    5.6259    4.2400  -22.6332 H   0  0  0  0  0
   -2.7635    2.6031  -22.4263 H   0  0  0  0  0
   -4.9898    2.7136  -22.0555 H   0  0  0  0  0
   -4.5659    4.9742  -21.2921 H   0  0  0  0  0
   -4.7163    5.5961  -22.9540 H   0  0  0  0  0
   -6.1346    4.9009  -22.1317 H   0  0  0  0  0
   -4.0685    1.8041  -24.6548 H   0  0  0  0  0
   -6.4849    2.4241  -26.3167 H   0  0  0  0  0
   -3.8606    1.1494  -27.0806 H   0  0  0  0  0
   -5.7450    0.1189  -28.2556 H   0  0  0  0  0
   -6.3527    1.7303  -28.7086 H   0  0  0  0  0
   -4.7964    1.1522  -29.3527 H   0  0  0  0  0
   -5.1784    3.7747  -27.8236 H   0  0  0  0  0
   -3.7657    3.5701  -26.7589 H   0  0  0  0  0
   -3.6480    3.1492  -28.4852 H   0  0  0  0  0
   -8.0668    0.9609  -26.3782 H   0  0  0  0  0
   -7.9131   -1.4173  -24.6911 H   0  0  0  0  0
   -9.9642   -0.5444  -26.7326 H   0  0  0  0  0
  -10.1431   -2.9235  -26.2211 H   0  0  0  0  0
  -10.1433   -2.5634  -24.4771 H   0  0  0  0  0
  -11.4995   -2.0247  -25.4977 H   0  0  0  0  0
   -9.8566   -0.1603  -23.7132 H   0  0  0  0  0
   -9.6624    1.1126  -24.9432 H   0  0  0  0  0
  -11.2264    0.2808  -24.7620 H   0  0  0  0  0
   -6.2729   -4.2336  -27.8287 H   0  0  0  0  0
   -6.1710   -6.2874  -26.6740 H   0  0  0  0  0
   -7.8969   -6.2975  -26.3945 H   0  0  0  0  0
   -5.7205   -5.1944  -24.7334 H   0  0  0  0  0
   -7.2943   -5.8449  -24.2544 H   0  0  0  0  0
   -8.2836   -3.7620  -24.3291 H   0  0  0  0  0
   -6.6860   -3.1449  -24.2629 H   0  0  0  0  0
   -6.9996   -4.9790  -29.7052 H   0  0  0  0  0
   -9.5165   -4.1744  -30.6403 H   0  0  0  0  0
   -9.1844   -5.5851  -32.5322 H   0  0  0  0  0
   -8.0317   -6.6310  -31.6010 H   0  0  0  0  0
   -6.2013   -5.6297  -31.0406 H   0  0  0  0  0
  -11.1657   -4.8233  -29.4872 H   0  0  0  0  0
  1  2  1  0  0  0
  2  3  1  0  0  0
  2  5  1  0  0  0
  3  4  2  0  0  0
  3 12  1  0  0  0
  5  6  1  0  0  0
  6  7  1  0  0  0
  7  8  1  0  0  0
  8  9  1  0  0  0
  9 10  2  0  0  0
  9 11  1  0  0  0
 12 13  1  0  0  0
 13 14  1  0  0  0
 13 16  1  0  0  0
 14 15  2  0  0  0
 14 24  1  0  0  0
 16 17  1  0  0  0
 17 18  4  0  0  0
 17 19  4  0  0  0
 18 20  4  0  0  0
 19 21  4  0  0  0
 20 22  4  0  0  0
 21 22  4  0  0  0
 22 23  1  0  0  0
 24 25  1  0  0  0
 25 26  1  0  0  0
 25 28  1  0  0  0
 26 27  2  0  0  0
 26 29  1  0  0  0
 29 30  1  0  0  0
 30 31  1  0  0  0
 30 33  1  0  0  0
 31 32  2  0  0  0
 31 36  1  0  0  0
 33 34  1  0  0  0
 33 35  1  0  0  0
 36 37  1  0  0  0
 37 38  1  0  0  0
 37 40  1  0  0  0
 38 39  2  0  0  0
 38 43  1  0  0  0
 40 41  1  0  0  0
 40 42  1  0  0  0
 43 44  1  0  0  0
 43 49  1  0  0  0
 44 45  1  0  0  0
 44 47  1  0  0  0
 45 46  2  0  0  0
 45 50  1  0  0  0
 47 48  1  0  0  0
 48 49  1  0  0  0
 50 51  1  0  0  0
 51 52  1  0  0  0
 51 54  1  0  0  0
 52 53  2  0  0  0
 52 58  1  0  0  0
 54 55  1  0  0  0
 55 56  1  0  0  0
 55 57  2  0  0  0
  1 59  1  0  0  0
  1 60  1  0  0  0
  1 61  1  0  0  0
  2 62  1  0  0  0
  5 63  1  0  0  0
  5 64  1  0  0  0
  6 65  1  0  0  0
  6 66  1  0  0  0
  7 67  1  0  0  0
  7 68  1  0  0  0
  8 69  1  0  0  0
 10 70  1  0  0  0
 11 71  1  0  0  0
 11 72  1  0  0  0
 12 73  1  0  0  0
 13 74  1  0  0  0
 16 75  1  0  0  0
 16 76  1  0  0  0
 18 77  1  0  0  0
 19 78  1  0  0  0
 20 79  1  0  0  0
 21 80  1  0  0  0
 23 81  1  0  0  0
 24 82  1  0  0  0
 25 83  1  0  0  0
 28 84  1  0  0  0
 28 85  1  0  0  0
 28 86  1  0  0  0
 29 87  1  0  0  0
 30 88  1  0  0  0
 33 89  1  0  0  0
 34 90  1  0  0  0
 34 91  1  0  0  0
 34 92  1  0  0  0
 35 93  1  0  0  0
 35 94  1  0  0  0
 35 95  1  0  0  0
 36 96  1  0  0  0
 37 97  1  0  0  0
 40 98  1  0  0  0
 41 99  1  0  0  0
 41100  1  0  0  0
 41101  1  0  0  0
 42102  1  0  0  0
 42103  1  0  0  0
 42104  1  0  0  0
 44105  1  0  0  0
 47106  1  0  0  0
 47107  1  0  0  0
 48108  1  0  0  0
 48109  1  0  0  0
 49110  1  0  0  0
 49111  1  0  0  0
 50112  1  0  0  0
 51113  1  0  0  0
 54114  1  0  0  0
 54115  1  0  0  0
 56116  1  0  0  0
 58117  1  0  0  0
M  END
$$$$
