### 
### Created by X-TOOL on Mon Aug  2 16:17:07 2021
### 

@<TRIPOS>MOLECULE
6qts_ligand
  116   117     1     0     0
SMALL
GAST_HUCK


@<TRIPOS>ATOM
      1 N           1.8390    2.3000  -27.3390 N.4       1 ARG         0.2379
      2 CA          0.5530    2.9720  -27.2150 C.3       1 ARG         0.0651
      3 C          -0.0670    2.7260  -25.8450 C.2       1 ARG         0.2268
      4 O          -0.1110    1.5980  -25.3600 O.2       1 ARG        -0.3907
      5 CB         -0.4080    2.5100  -28.3100 C.3       1 ARG         0.0110
      6 CG         -0.0660    3.0480  -29.6870 C.3       1 ARG        -0.0125
      7 CD         -1.3130    3.2180  -30.5440 C.3       1 ARG         0.0629
      8 NE         -1.9160    1.9450  -30.9290 N.pl3     1 ARG        -0.2723
      9 CZ         -3.0590    1.8330  -31.6010 C.cat     1 ARG         0.2882
     10 NH1        -3.7310    2.9180  -31.9580 N.pl3     1 ARG        -0.2849
     11 NH2        -3.5320    0.6350  -31.9130 N.pl3     1 ARG        -0.2849
     12 N          -0.5520    3.7980  -25.2330 N.am      1 ARG        -0.2594
     13 CA         -1.0720    3.7670  -23.8750 C.3       1 ARG         0.1391
     14 C          -2.5720    4.0030  -23.8790 C.2       1 ARG         0.2057
     15 O          -3.0880    4.7980  -24.6690 O.2       1 ARG        -0.3942
     16 CB         -0.3730    4.8340  -23.0300 C.3       1 ARG         0.0164
     17 CG          1.0860    4.5330  -22.7840 C.ar      1 ARG        -0.0493
     18 CD1         1.4580    3.5380  -21.8930 C.ar      1 ARG        -0.0685
     19 CD2         2.0840    5.2310  -23.4440 C.ar      1 ARG        -0.0685
     20 CE1         2.7790    3.2480  -21.6590 C.ar      1 ARG        -0.0398
     21 CE2         3.4120    4.9470  -23.2180 C.ar      1 ARG        -0.0398
     22 CZ          3.7530    3.9530  -22.3270 C.ar      1 ARG         0.0805
     23 OH          5.0760    3.6660  -22.0950 O.3       1 ARG        -0.3376
     24 N          -3.2600    3.2890  -22.9950 N.am      1 ARG        -0.2639
     25 CA         -4.6950    3.4470  -22.8060 C.3       1 ARG         0.1282
     26 C          -5.4770    3.1350  -24.0730 C.2       1 ARG         0.2036
     27 O          -6.5330    3.7220  -24.3190 O.2       1 ARG        -0.3944
     28 CB         -5.0540    4.8300  -22.2560 C.3       1 ARG        -0.0244
     29 N          -4.9770    2.2090  -24.8810 N.am      1 ARG        -0.2635
     30 CA         -5.6670    1.7450  -26.0760 C.3       1 ARG         0.1332
     31 C          -6.2220    0.3550  -25.7910 C.2       1 ARG         0.2042
     32 O          -5.4850   -0.5430  -25.3690 O.2       1 ARG        -0.3944
     33 CB         -4.7440    1.7490  -27.3000 C.3       1 ARG        -0.0063
     34 CG1        -5.4600    1.1450  -28.4880 C.3       1 ARG        -0.0584
     35 CG2        -4.3030    3.1600  -27.6140 C.3       1 ARG        -0.0584
     36 N          -7.5190    0.1890  -25.9980 N.am      1 ARG        -0.2635
     37 CA         -8.1850   -1.0820  -25.6920 C.3       1 ARG         0.1334
     38 C          -7.7360   -2.1360  -26.6900 C.2       1 ARG         0.2066
     39 O          -7.6490   -1.8450  -27.8940 O.2       1 ARG        -0.3942
     40 CB         -9.7030   -0.8890  -25.7320 C.3       1 ARG        -0.0062
     41 CG1       -10.4230   -2.1920  -25.4630 C.3       1 ARG        -0.0584
     42 CG2       -10.1440    0.1620  -24.7140 C.3       1 ARG        -0.0584
     43 N          -7.4410   -3.3570  -26.2540 N.am      1 ARG        -0.2498
     44 CA         -7.1560   -4.4280  -27.2200 C.3       1 ARG         0.1337
     45 C          -8.3110   -4.5870  -28.2000 C.2       1 ARG         0.2036
     46 O          -9.4810   -4.4370  -27.8390 O.2       1 ARG        -0.3944
     47 CB         -7.0060   -5.6720  -26.3390 C.3       1 ARG        -0.0104
     48 CG         -6.7860   -5.1910  -24.9630 C.3       1 ARG        -0.0281
     49 CD         -7.3290   -3.7970  -24.8540 C.3       1 ARG         0.0369
     50 N          -7.9830   -4.8980  -29.4470 N.am      1 ARG        -0.2679
     51 CA         -9.0180   -5.1260  -30.4560 C.3       1 ARG         0.1057
     52 C         -10.0400   -6.1460  -29.9510 C.2       1 ARG         0.0618
     53 O          -9.8110   -7.3570  -30.0100 O.co2     1 ARG        -0.5665
     54 CB         -8.4090   -5.6220  -31.7670 C.3       1 ARG         0.0351
     55 CG         -7.2540   -4.7640  -32.2330 C.2       1 ARG         0.0387
     56 OD1        -6.1370   -4.9350  -31.7000 O.co2     1 ARG        -0.5688
     57 OD2        -7.4600   -3.9190  -33.1280 O.co2     1 ARG        -0.5688
     58 OXT       -11.1180   -5.7820  -29.4730 O.co2     1 ARG        -0.5665
     59 H1          2.2251    2.4795  -28.2526 H         1 ARG         0.2015
     60 H2          1.7127    1.3075  -27.2167 H         1 ARG         0.2015
     61 H3          2.4694    2.6479  -26.6336 H         1 ARG         0.2015
     62 H4          0.7185    4.0533  -27.3311 H         1 ARG         0.1098
     63 H5         -1.4217    2.8466  -28.0474 H         1 ARG         0.0347
     64 H6         -0.3857    1.4110  -28.3510 H         1 ARG         0.0347
     65 H7          0.6177    2.3454  -30.1859 H         1 ARG         0.0302
     66 H8          0.4281    4.0246  -29.5769 H         1 ARG         0.0302
     67 H9         -1.0392    3.7670  -31.4570 H         1 ARG         0.0689
     68 H10        -2.0535    3.7991  -29.9748 H         1 ARG         0.0689
     69 H11        -1.4255    1.0790  -30.6636 H         1 ARG         0.2642
     70 H12        -4.6155    2.8281  -32.4781 H         1 ARG         0.2615
     71 H13        -3.3688    3.8512  -31.7154 H         1 ARG         0.2615
     72 H14        -3.0133   -0.2112  -31.6377 H         1 ARG         0.2615
     73 H15        -4.4183    0.5501  -32.4308 H         1 ARG         0.2615
     74 H16        -0.5606    4.6670  -25.7277 H         1 ARG         0.1886
     75 H17        -0.8699    2.7776  -23.4388 H         1 ARG         0.0821
     76 H18        -0.8849    4.9022  -22.0588 H         1 ARG         0.0453
     77 H19        -0.4480    5.7990  -23.5526 H         1 ARG         0.0453
     78 H20         0.6905    2.9781  -21.3709 H         1 ARG         0.0530
     79 H21         1.8159    6.0109  -24.1475 H         1 ARG         0.0530
     80 H22         3.0521    2.4708  -20.9545 H         1 ARG         0.0525
     81 H23         4.1845    5.5020  -23.7378 H         1 ARG         0.0525
     82 H24         5.1396    2.9621  -21.4603 H         1 ARG         0.2458
     83 H25        -2.7732    2.6166  -22.4374 H         1 ARG         0.1883
     84 H26        -5.0007    2.7098  -22.0489 H         1 ARG         0.0797
     85 H27        -6.1443    4.9028  -22.1301 H         1 ARG         0.0277
     86 H28        -4.7137    5.6041  -22.9596 H         1 ARG         0.0277
     87 H29        -4.5620    4.9768  -21.2832 H         1 ARG         0.0277
     88 H30        -4.0864    1.8120  -24.6592 H         1 ARG         0.1883
     89 H31        -6.5075    2.4237  -26.2833 H         1 ARG         0.0802
     90 H32        -3.8544    1.1419  -27.0761 H         1 ARG         0.0343
     91 H33        -4.7913    1.1517  -29.3613 H         1 ARG         0.0234
     92 H34        -6.3611    1.7348  -28.7117 H         1 ARG         0.0234
     93 H35        -5.7481    0.1094  -28.2548 H         1 ARG         0.0234
     94 H36        -3.7848    3.5848  -26.7417 H         1 ARG         0.0234
     95 H37        -5.1834    3.7748  -27.8527 H         1 ARG         0.0234
     96 H38        -3.6199    3.1474  -28.4760 H         1 ARG         0.0234
     97 H39        -8.0560    0.9458  -26.3707 H         1 ARG         0.1883
     98 H40        -7.8968   -1.4058  -24.6810 H         1 ARG         0.0803
     99 H41        -9.9794   -0.5390  -26.7375 H         1 ARG         0.0343
    100 H42       -11.5096   -2.0244  -25.4977 H         1 ARG         0.0234
    101 H43       -10.1416   -2.5679  -24.4683 H         1 ARG         0.0234
    102 H44       -10.1414   -2.9311  -26.2274 H         1 ARG         0.0234
    103 H45        -9.6187    1.1078  -24.9125 H         1 ARG         0.0234
    104 H46        -9.9015   -0.1861  -23.6991 H         1 ARG         0.0234
    105 H47       -11.2292    0.3208  -24.7976 H         1 ARG         0.0234
    106 H48        -6.2281   -4.2240  -27.7743 H         1 ARG         0.0802
    107 H49        -6.1467   -6.2720  -26.6730 H         1 ARG         0.0313
    108 H50        -7.9199   -6.2825  -26.3858 H         1 ARG         0.0313
    109 H51        -5.7092   -5.1884  -24.7385 H         1 ARG         0.0287
    110 H52        -7.3072   -5.8489  -24.2521 H         1 ARG         0.0287
    111 H53        -8.3131   -3.7965  -24.3625 H         1 ARG         0.0524
    112 H54        -6.6387   -3.1497  -24.2932 H         1 ARG         0.0524
    113 H55        -7.0188   -4.9774  -29.7001 H         1 ARG         0.1876
    114 H56        -9.5336   -4.1733  -30.6467 H         1 ARG         0.0745
    115 H57        -9.1888   -5.6146  -32.5428 H         1 ARG         0.0471
    116 H58        -8.0472   -6.6504  -31.6206 H         1 ARG         0.0471
@<TRIPOS>BOND
     1    1    2 1  
     2    2    3 1  
     3    2    5 1  
     4    3    4 2  
     5    3   12 am 
     6    5    6 1  
     7    6    7 1  
     8    7    8 1  
     9    8    9 ar 
    10    9   10 ar 
    11    9   11 ar 
    12   12   13 1  
    13   13   14 1  
    14   13   16 1  
    15   14   15 2  
    16   14   24 am 
    17   16   17 1  
    18   17   18 ar 
    19   17   19 ar 
    20   18   20 ar 
    21   19   21 ar 
    22   20   22 ar 
    23   21   22 ar 
    24   22   23 1  
    25   24   25 1  
    26   25   26 1  
    27   25   28 1  
    28   26   27 2  
    29   26   29 am 
    30   29   30 1  
    31   30   31 1  
    32   30   33 1  
    33   31   32 2  
    34   31   36 am 
    35   33   34 1  
    36   33   35 1  
    37   36   37 1  
    38   37   38 1  
    39   37   40 1  
    40   38   39 2  
    41   38   43 am 
    42   40   41 1  
    43   40   42 1  
    44   43   44 1  
    45   43   49 1  
    46   44   45 1  
    47   44   47 1  
    48   45   46 2  
    49   45   50 am 
    50   47   48 1  
    51   48   49 1  
    52   50   51 1  
    53   51   52 1  
    54   51   54 1  
    55   52   53 ar 
    56   52   58 ar 
    57   54   55 1  
    58   55   56 ar 
    59   55   57 ar 
    60    1   59 1  
    61    1   60 1  
    62    1   61 1  
    63    2   62 1  
    64    5   63 1  
    65    5   64 1  
    66    6   65 1  
    67    6   66 1  
    68    7   67 1  
    69    7   68 1  
    70    8   69 1  
    71   10   70 1  
    72   10   71 1  
    73   11   72 1  
    74   11   73 1  
    75   12   74 1  
    76   13   75 1  
    77   16   76 1  
    78   16   77 1  
    79   18   78 1  
    80   19   79 1  
    81   20   80 1  
    82   21   81 1  
    83   23   82 1  
    84   24   83 1  
    85   25   84 1  
    86   28   85 1  
    87   28   86 1  
    88   28   87 1  
    89   29   88 1  
    90   30   89 1  
    91   33   90 1  
    92   34   91 1  
    93   34   92 1  
    94   34   93 1  
    95   35   94 1  
    96   35   95 1  
    97   35   96 1  
    98   36   97 1  
    99   37   98 1  
   100   40   99 1  
   101   41  100 1  
   102   41  101 1  
   103   41  102 1  
   104   42  103 1  
   105   42  104 1  
   106   42  105 1  
   107   44  106 1  
   108   47  107 1  
   109   47  108 1  
   110   48  109 1  
   111   48  110 1  
   112   49  111 1  
   113   49  112 1  
   114   50  113 1  
   115   51  114 1  
   116   54  115 1  
   117   54  116 1  
@<TRIPOS>SUBSTRUCTURE
     1 ARG         1

