3cwk_ligand
  -I-interpret- 

 50 50  0  0  0  0  0  0  0  0999 V2000
   22.0920   27.8830   16.4930 C   0  0  0  0  0
   20.9680   28.5570   15.6480 C   0  0  0  0  0
   20.2340   27.6050   14.6950 C   0  0  0  0  0
   19.5760   26.4760   15.4410 C   0  0  0  0  0
   20.4920   25.9110   16.5100 C   0  0  0  0  0
   21.6070   26.5590   17.0100 C   0  0  0  0  0
   22.4990   25.9570   18.0310 C   0  0  0  0  0
   22.0180   25.3630   19.2100 C   0  0  0  0  0
   22.8780   24.6790   20.1590 C   0  0  0  0  0
   22.1580   24.0250   21.2330 C   0  0  0  0  0
   22.8650   23.3470   22.2870 C   0  0  0  0  0
   21.9490   22.7730   23.2670 C   0  0  0  0  0
   22.4290   21.9920   24.3450 C   0  0  0  0  0
   21.4150   21.6930   25.2830 C   0  0  0  0  0
   21.6120   20.8450   26.4310 C   0  0  0  0  0
   22.4820   28.7450   17.6950 C   0  0  0  0  0
   23.3800   27.6340   15.6920 C   0  0  0  0  0
   20.0660   24.5640   16.9830 C   0  0  0  0  0
   24.3620   24.6900   20.0420 C   0  0  0  0  0
   23.8480   21.6100   24.3900 C   0  0  0  0  0
   22.4980   19.9380   26.3950 O   0  0  0  0  0
   20.8260   21.0520   27.4230 O   0  0  0  0  0
   21.4445   29.3205   15.0330 H   0  0  0  0  0
   20.2274   28.9411   16.3495 H   0  0  0  0  0
   20.9611   27.1828   14.0013 H   0  0  0  0  0
   19.4620   28.1686   14.1711 H   0  0  0  0  0
   19.3413   25.6825   14.7315 H   0  0  0  0  0
   18.6758   26.8576   15.9228 H   0  0  0  0  0
   23.5752   25.9763   17.8590 H   0  0  0  0  0
   20.9502   25.4182   19.4219 H   0  0  0  0  0
   21.0683   24.0469   21.2426 H   0  0  0  0  0
   23.9508   23.2715   22.3460 H   0  0  0  0  0
   20.8779   22.9486   23.1672 H   0  0  0  0  0
   20.4278   22.1287   25.1292 H   0  0  0  0  0
   23.2179   28.2134   18.2982 H   0  0  0  0  0
   22.9087   29.6845   17.3436 H   0  0  0  0  0
   21.5963   28.9492   18.2967 H   0  0  0  0  0
   23.7947   28.5883   15.3674 H   0  0  0  0  0
   24.1040   27.1173   16.3220 H   0  0  0  0  0
   23.1515   27.0204   14.8205 H   0  0  0  0  0
   20.8633   23.8451   16.7942 H   0  0  0  0  0
   19.8576   24.6049   18.0521 H   0  0  0  0  0
   19.1666   24.2600   16.4476 H   0  0  0  0  0
   24.7912   25.1661   20.9236 H   0  0  0  0  0
   24.7269   23.6656   19.9668 H   0  0  0  0  0
   24.6508   25.2463   19.1502 H   0  0  0  0  0
   24.3057   22.0227   25.2891 H   0  0  0  0  0
   23.9301   20.5232   24.4050 H   0  0  0  0  0
   24.3566   22.0019   23.5092 H   0  0  0  0  0
   20.2442   21.7883   27.2206 H   0  0  0  0  0
  1  2  1  0  0  0
  1  6  1  0  0  0
  1 16  1  0  0  0
  1 17  1  0  0  0
  2  3  1  0  0  0
  3  4  1  0  0  0
  4  5  1  0  0  0
  5  6  2  0  0  0
  5 18  1  0  0  0
  6  7  1  0  0  0
  7  8  2  0  0  0
  8  9  1  0  0  0
  9 10  2  0  0  0
  9 19  1  0  0  0
 10 11  1  0  0  0
 11 12  2  0  0  0
 12 13  1  0  0  0
 13 14  2  0  0  0
 13 20  1  0  0  0
 14 15  1  0  0  0
 15 21  2  0  0  0
 15 22  1  0  0  0
  2 23  1  0  0  0
  2 24  1  0  0  0
  3 25  1  0  0  0
  3 26  1  0  0  0
  4 27  1  0  0  0
  4 28  1  0  0  0
  7 29  1  0  0  0
  8 30  1  0  0  0
 10 31  1  0  0  0
 11 32  1  0  0  0
 12 33  1  0  0  0
 14 34  1  0  0  0
 16 35  1  0  0  0
 16 36  1  0  0  0
 16 37  1  0  0  0
 17 38  1  0  0  0
 17 39  1  0  0  0
 17 40  1  0  0  0
 18 41  1  0  0  0
 18 42  1  0  0  0
 18 43  1  0  0  0
 19 44  1  0  0  0
 19 45  1  0  0  0
 19 46  1  0  0  0
 20 47  1  0  0  0
 20 48  1  0  0  0
 20 49  1  0  0  0
 22 50  1  0  0  0
M  END
$$$$
