3kf7_ligand
  -I-interpret- 

 47 50  0  0  0  0  0  0  0  0999 V2000
   35.0480   39.4460   19.7000 C   0  0  0  0  0
   34.7890   39.7550   21.1720 C   0  0  0  0  0
   34.6380   38.7990   22.0790 N   0  0  0  0  0
   34.7200   37.3760   21.7200 C   0  0  0  0  0
   34.9520   37.0970   20.3870 C   0  0  0  0  0
   35.0990   38.0870   19.4320 C   0  0  0  0  0
   34.4230   39.3940   23.3060 C   0  0  0  0  0
   34.6670   40.9230   21.7970 N   0  0  0  0  0
   34.4320   40.6640   23.1190 N   0  0  0  0  0
   35.0330   35.6420   20.0030 C   0  0  0  0  0
   36.4500   35.1530   19.7320 C   0  0  0  0  0
   37.0580   35.7980   18.5220 C   0  0  0  0  0
   38.2210   36.5360   18.6370 C   0  0  0  0  0
   38.8080   37.1310   17.5570 C   0  0  0  0  0
   38.2190   36.9920   16.3270 C   0  0  0  0  0
   37.0600   36.2650   16.1730 C   0  0  0  0  0
   36.4830   35.6550   17.2710 C   0  0  0  0  0
   38.8320   36.6900   19.8110 F   0  0  0  0  0
   38.8070   37.5970   15.2980 F   0  0  0  0  0
   34.1820   38.8190   24.6610 C   0  0  0  0  0
   35.0790   39.1970   25.6360 C   0  0  0  0  0
   34.8940   38.7980   26.9410 C   0  0  0  0  0
   33.8240   38.0130   27.3040 C   0  0  0  0  0
   32.9300   37.6150   26.3140 C   0  0  0  0  0
   33.1000   38.0240   24.9990 C   0  0  0  0  0
   35.9200   39.2670   27.9010 C   0  0  0  0  0
   35.8070   38.7430   29.1580 N   0  0  0  0  0
   36.7690   40.0650   27.5170 O   0  0  0  0  0
   32.0820   37.6070   23.9750 C   0  0  0  0  0
   35.1793   40.2145   18.9383 H   0  0  0  0  0
   34.6044   36.5865   22.4626 H   0  0  0  0  0
   35.2660   37.7778   18.4002 H   0  0  0  0  0
   34.4654   35.5181   19.0807 H   0  0  0  0  0
   34.6452   35.0634   20.8414 H   0  0  0  0  0
   36.4070   34.0784   19.5547 H   0  0  0  0  0
   37.0651   35.4090   20.5947 H   0  0  0  0  0
   39.7273   37.7055   17.6708 H   0  0  0  0  0
   36.5995   36.1709   15.1896 H   0  0  0  0  0
   35.5762   35.0620   17.1519 H   0  0  0  0  0
   35.9383   39.8141   25.3735 H   0  0  0  0  0
   33.6799   37.7102   28.3411 H   0  0  0  0  0
   32.0871   36.9750   26.5747 H   0  0  0  0  0
   36.4711   39.0116   29.8841 H   0  0  0  0  0
   35.0585   38.0833   29.3701 H   0  0  0  0  0
   31.6154   38.4939   23.5463 H   0  0  0  0  0
   32.5738   37.0367   23.1869 H   0  0  0  0  0
   31.3211   36.9890   24.4517 H   0  0  0  0  0
  1  2  4  0  0  0
  1  6  4  0  0  0
  2  3  4  0  0  0
  2  8  4  0  0  0
  3  4  4  0  0  0
  3  7  4  0  0  0
  4  5  4  0  0  0
  5  6  4  0  0  0
  5 10  1  0  0  0
  7  9  4  0  0  0
  7 20  1  0  0  0
  8  9  4  0  0  0
 10 11  1  0  0  0
 11 12  1  0  0  0
 12 13  4  0  0  0
 12 17  4  0  0  0
 13 14  4  0  0  0
 13 18  1  0  0  0
 14 15  4  0  0  0
 15 16  4  0  0  0
 15 19  1  0  0  0
 16 17  4  0  0  0
 20 21  4  0  0  0
 20 25  4  0  0  0
 21 22  4  0  0  0
 22 23  4  0  0  0
 22 26  1  0  0  0
 23 24  4  0  0  0
 24 25  4  0  0  0
 25 29  1  0  0  0
 26 27  1  0  0  0
 26 28  2  0  0  0
  1 30  1  0  0  0
  4 31  1  0  0  0
  6 32  1  0  0  0
 10 33  1  0  0  0
 10 34  1  0  0  0
 11 35  1  0  0  0
 11 36  1  0  0  0
 14 37  1  0  0  0
 16 38  1  0  0  0
 17 39  1  0  0  0
 21 40  1  0  0  0
 23 41  1  0  0  0
 24 42  1  0  0  0
 27 43  1  0  0  0
 27 44  1  0  0  0
 29 45  1  0  0  0
 29 46  1  0  0  0
 29 47  1  0  0  0
M  END
$$$$
