3cd0_ligand
  -I-interpret- 

 68 70  0  0  0  0  0  0  0  0999 V2000
  -16.1280    8.7000   46.7900 N   0  0  0  0  0
  -14.4560    4.5470   46.1250 C   0  0  0  0  0
  -14.9230    8.8700   46.2630 C   0  0  0  0  0
  -15.6270    5.3170   45.5060 C   0  0  0  0  0
  -13.1780    7.3070   44.8950 C   0  0  0  0  0
  -13.2060    8.0730   43.5600 C   0  0  0  0  0
  -12.8690    8.0730   41.0680 C   0  0  0  0  0
  -15.7680    5.1400   43.9920 C   0  0  0  0  0
  -12.0780   11.3160   46.7780 C   0  0  0  0  0
  -18.8260    5.1000   49.7920 C   0  0  0  0  0
  -19.0940    3.8760   50.4150 C   0  0  0  0  0
  -14.6660   11.2620   45.7490 C   0  0  0  0  0
  -13.9340   12.4470   45.7380 C   0  0  0  0  0
  -21.1790    5.4110   49.3880 C   0  0  0  0  0
  -20.6970    2.2490   51.1220 F   0  0  0  0  0
  -20.4110    3.4230   50.5250 C   0  0  0  0  0
  -21.4510    4.1920   50.0100 C   0  0  0  0  0
  -19.8740    5.8710   49.2730 C   0  0  0  0  0
  -19.6540    7.2060   48.5850 C   0  0  0  0  0
  -18.2730    7.3900   48.1680 N   0  0  0  0  0
  -17.7930    6.8960   47.0300 C   0  0  0  0  0
  -18.4980    6.2750   46.2410 O   0  0  0  0  0
  -16.4820    7.4220   46.5630 C   0  0  0  0  0
  -15.5140    6.7560   45.8830 N   0  0  0  0  0
  -14.4760    7.5920   45.6440 C   0  0  0  0  0
  -14.0980   10.1000   46.2500 C   0  0  0  0  0
  -12.6430   12.4790   46.2530 C   0  0  0  0  0
  -11.9460   13.6340   46.2380 F   0  0  0  0  0
  -12.8130   10.1290   46.7880 C   0  0  0  0  0
  -12.3110    7.5730   42.4030 C   0  0  0  0  0
  -12.2300    6.1510   42.3100 O   0  0  0  0  0
  -12.9330    9.5980   40.9680 C   0  0  0  0  0
  -11.6480   10.1290   41.2900 O   0  0  0  0  0
  -13.3870   10.0030   39.5590 C   0  0  0  0  0
  -13.8450   11.4480   39.4660 C   0  0  0  0  0
  -13.1210   12.3030   38.9630 O   0  0  0  0  0
  -15.0490   11.8200   39.9100 O   0  0  0  0  0
  -14.5850    3.4808   45.9388 H   0  0  0  0  0
  -13.5223    4.8853   45.6756 H   0  0  0  0  0
  -14.4305    4.7290   47.1994 H   0  0  0  0  0
  -16.5444    4.8922   45.9135 H   0  0  0  0  0
  -12.3253    7.6307   45.4918 H   0  0  0  0  0
  -13.0834    6.2373   44.7082 H   0  0  0  0  0
  -12.8352    9.0704   43.7962 H   0  0  0  0  0
  -14.2277    7.9705   43.1943 H   0  0  0  0  0
  -13.8872    7.6951   40.9757 H   0  0  0  0  0
  -12.2025    7.7202   40.2810 H   0  0  0  0  0
  -16.6639    5.6574   43.6489 H   0  0  0  0  0
  -14.8925    5.5585   43.4955 H   0  0  0  0  0
  -15.8476    4.0785   43.7574 H   0  0  0  0  0
  -11.0648   11.3343   47.1795 H   0  0  0  0  0
  -17.7985    5.4546   49.7103 H   0  0  0  0  0
  -18.2759    3.2765   50.8141 H   0  0  0  0  0
  -15.6856   11.2478   45.3638 H   0  0  0  0  0
  -14.3754   13.3534   45.3237 H   0  0  0  0  0
  -21.9989    6.0079   48.9885 H   0  0  0  0  0
  -22.4797    3.8411   50.0928 H   0  0  0  0  0
  -19.9020    7.9967   49.2931 H   0  0  0  0  0
  -20.2831    7.2361   47.6954 H   0  0  0  0  0
  -17.6462    7.9200   48.7735 H   0  0  0  0  0
  -12.3814    9.2246   47.2168 H   0  0  0  0  0
  -11.3150    7.9619   42.6150 H   0  0  0  0  0
  -11.8826    5.7970   43.1319 H   0  0  0  0  0
  -13.6592   10.0036   41.6725 H   0  0  0  0  0
  -11.6748   11.0868   41.2308 H   0  0  0  0  0
  -14.2345    9.3715   39.2923 H   0  0  0  0  0
  -12.5332    9.8850   38.8917 H   0  0  0  0  0
  -15.5037   11.0575   40.2753 H   0  0  0  0  0
  1  3  4  0  0  0
 23  1  4  0  0  0
  4  2  1  0  0  0
  3 25  4  0  0  0
  3 26  1  0  0  0
  4  8  1  0  0  0
 24  4  1  0  0  0
  5  6  1  0  0  0
 25  5  1  0  0  0
  6 30  1  0  0  0
 30  7  1  0  0  0
  7 32  1  0  0  0
 27  9  4  0  0  0
  9 29  4  0  0  0
 10 11  4  0  0  0
 18 10  4  0  0  0
 11 16  4  0  0  0
 12 13  4  0  0  0
 26 12  4  0  0  0
 13 27  4  0  0  0
 14 17  4  0  0  0
 18 14  4  0  0  0
 16 15  1  0  0  0
 17 16  4  0  0  0
 19 18  1  0  0  0
 20 19  1  0  0  0
 21 20  1  0  0  0
 21 22  2  0  0  0
 23 21  1  0  0  0
 23 24  4  0  0  0
 24 25  4  0  0  0
 26 29  4  0  0  0
 27 28  1  0  0  0
 30 31  1  0  0  0
 32 33  1  0  0  0
 32 34  1  0  0  0
 34 35  1  0  0  0
 35 36  2  0  0  0
 35 37  1  0  0  0
  2 38  1  0  0  0
  2 39  1  0  0  0
  2 40  1  0  0  0
  4 41  1  0  0  0
  5 42  1  0  0  0
  5 43  1  0  0  0
  6 44  1  0  0  0
  6 45  1  0  0  0
  7 46  1  0  0  0
  7 47  1  0  0  0
  8 48  1  0  0  0
  8 49  1  0  0  0
  8 50  1  0  0  0
  9 51  1  0  0  0
 10 52  1  0  0  0
 11 53  1  0  0  0
 12 54  1  0  0  0
 13 55  1  0  0  0
 14 56  1  0  0  0
 17 57  1  0  0  0
 19 58  1  0  0  0
 19 59  1  0  0  0
 20 60  1  0  0  0
 29 61  1  0  0  0
 30 62  1  0  0  0
 31 63  1  0  0  0
 32 64  1  0  0  0
 33 65  1  0  0  0
 34 66  1  0  0  0
 34 67  1  0  0  0
 37 68  1  0  0  0
M  END
$$$$
