5orz_ligand
  -I-interpret- 

 24 25  0  0  0  0  0  0  0  0999 V2000
  -11.0350   16.3500  -18.4700 C   0  0  0  0  0
  -11.8340   16.4880  -17.3440 C   0  0  0  0  0
  -11.8150   15.3600  -16.5070 C   0  0  0  0  0
  -11.0120   14.3180  -16.9450 C   0  0  0  0  0
   -9.9290   10.9180  -15.9900 C   0  0  0  0  0
   -9.9540   12.0460  -16.8250 C   0  0  0  0  0
  -10.7620   13.0760  -16.3730 C   0  0  0  0  0
  -10.7280   11.0380  -14.8490 C   0  0  0  0  0
  -10.9700   10.1060  -13.7500 C   0  0  0  0  0
  -10.4670    7.9860  -12.8560 C   0  0  0  0  0
  -10.2930    8.9680  -13.9020 O   0  0  0  0  0
  -11.6970   10.3440  -12.8150 O   0  0  0  0  0
  -11.4800   12.5840  -14.8820 S   0  0  0  0  0
  -10.2940   14.8160  -18.4330 S   0  0  0  0  0
   -9.1710    9.7970  -16.2950 N   0  0  0  0  0
  -10.9030   17.0997  -19.2501 H   0  0  0  0  0
  -12.4184   17.3829  -17.1301 H   0  0  0  0  0
  -12.3890   15.3078  -15.5818 H   0  0  0  0  0
   -9.3846   12.1063  -17.7525 H   0  0  0  0  0
  -10.1426    8.4086  -11.9051 H   0  0  0  0  0
  -11.5190    7.7082  -12.7916 H   0  0  0  0  0
   -9.8701    7.1032  -13.0852 H   0  0  0  0  0
   -8.6105    9.7767  -17.1469 H   0  0  0  0  0
   -9.1742    8.9930  -15.6673 H   0  0  0  0  0
  1  2  4  0  0  0
 14  1  4  0  0  0
  3  2  4  0  0  0
  4  3  4  0  0  0
  7  4  1  0  0  0
  4 14  4  0  0  0
  6  5  4  0  0  0
  5  8  4  0  0  0
  5 15  1  0  0  0
  6  7  4  0  0  0
  7 13  4  0  0  0
  8  9  1  0  0  0
  8 13  4  0  0  0
  9 11  1  0  0  0
  9 12  2  0  0  0
 11 10  1  0  0  0
  1 16  1  0  0  0
  2 17  1  0  0  0
  3 18  1  0  0  0
  6 19  1  0  0  0
 10 20  1  0  0  0
 10 21  1  0  0  0
 10 22  1  0  0  0
 15 23  1  0  0  0
 15 24  1  0  0  0
M  END
$$$$
