4mu7_ligand
  -I-interpret- 

 89 94  0  0  0  0  0  0  0  0999 V2000
   21.1780   -7.4570  -11.6630 C   0  0  0  0  0
   22.2530   -6.4700  -11.2070 C   0  0  0  0  0
   23.6290   -7.1350  -11.3000 C   0  0  0  0  0
   24.6210   -6.1870  -10.7490 N   0  3  0  0  0
   25.9820   -6.7730  -10.5920 C   0  0  0  0  0
   23.9330   -7.4680  -12.7270 C   0  0  0  0  0
   24.3830   -6.6060  -13.4440 O   0  0  0  0  0
   23.6920   -8.7040  -13.1720 N   0  0  0  0  0
   23.9680   -9.1880  -14.5150 C   0  0  0  0  0
   25.1540  -10.0870  -14.0860 C   0  0  0  0  0
   25.0410  -11.5640  -14.4760 C   0  0  0  0  0
   26.2260  -12.3830  -13.9210 C   0  0  0  0  0
   27.3180  -11.5190  -13.2540 C   0  0  0  0  0
   27.6930  -10.3160  -14.1360 C   0  0  0  0  0
   26.4810   -9.4360  -14.4880 C   0  0  0  0  0
   22.7930   -9.9280  -15.1080 C   0  0  0  0  0
   21.9810  -10.3970  -14.3310 O   0  0  0  0  0
   22.6320  -10.1000  -16.4560 N   0  0  0  0  0
   23.6310   -9.5550  -17.4260 C   0  0  0  0  0
   23.5950  -10.4270  -18.6850 C   0  0  0  0  0
   24.5280   -9.8970  -19.8060 C   0  0  0  0  0
   23.5970   -9.6040  -20.9720 C   0  0  0  0  0
   23.8930   -9.2240  -22.2720 C   0  0  0  0  0
   22.8170   -9.0100  -23.1430 C   0  0  0  0  0
   21.5000   -9.1590  -22.7340 C   0  0  0  0  0
   21.1850   -9.5400  -21.4320 C   0  0  0  0  0
   22.2550   -9.7880  -20.5500 C   0  0  0  0  0
   22.2450  -10.1100  -19.2040 N   0  0  0  0  0
   21.0950  -10.5840  -18.4610 C   0  0  0  0  0
   21.4700  -10.8400  -16.9600 C   0  0  0  0  0
   21.7270  -12.3150  -16.7610 C   0  0  0  0  0
   22.8750  -12.7380  -16.6340 O   0  0  0  0  0
   20.6560  -13.1350  -16.7420 N   0  0  0  0  0
   20.7660  -14.5860  -16.5360 C   0  0  0  0  0
   20.9850  -15.2850  -17.8860 C   0  0  0  0  0
   19.6500  -15.6730  -18.5300 C   0  0  0  0  0
   18.9890  -16.5530  -17.6240 O   0  0  0  0  0
   18.7150  -16.0660  -16.3820 C   0  0  0  0  0
   17.5910  -16.5420  -15.7020 C   0  0  0  0  0
   17.3030  -16.0450  -14.4360 C   0  0  0  0  0
   18.1200  -15.0790  -13.8710 C   0  0  0  0  0
   19.2400  -14.6130  -14.5490 C   0  0  0  0  0
   19.5370  -15.1000  -15.8130 C   0  0  0  0  0
   21.3710   -7.7514  -12.6946 H   0  0  0  0  0
   21.2004   -8.3383  -11.0220 H   0  0  0  0  0
   20.1990   -6.9824  -11.5963 H   0  0  0  0  0
   22.0611   -6.1748  -10.1754 H   0  0  0  0  0
   22.2317   -5.5881  -11.8473 H   0  0  0  0  0
   23.6559   -8.0653  -10.7327 H   0  0  0  0  0
   24.2980   -5.9105   -9.8218 H   0  0  0  0  0
   24.6967   -5.4084  -11.4035 H   0  0  0  0  0
   25.9333   -7.6251   -9.9141 H   0  0  0  0  0
   26.3493   -7.1012  -11.5644 H   0  0  0  0  0
   26.6555   -6.0198  -10.1831 H   0  0  0  0  0
   23.2792   -9.3647  -12.5136 H   0  0  0  0  0
   24.1662   -8.4653  -15.3065 H   0  0  0  0  0
   25.1173  -10.1435  -12.9981 H   0  0  0  0  0
   25.0478  -11.6372  -15.5635 H   0  0  0  0  0
   24.1171  -11.9635  -14.0579 H   0  0  0  0  0
   26.6876  -12.9001  -14.7622 H   0  0  0  0  0
   25.8302  -13.0542  -13.1588 H   0  0  0  0  0
   28.2065  -12.1334  -13.1083 H   0  0  0  0  0
   26.9347  -11.1471  -12.3038 H   0  0  0  0  0
   28.1085  -10.7008  -15.0673 H   0  0  0  0  0
   28.4018   -9.7021  -13.5804 H   0  0  0  0  0
   26.5756   -8.4965  -13.9435 H   0  0  0  0  0
   26.4721   -9.2888  -15.5680 H   0  0  0  0  0
   24.6285   -9.5697  -16.9867 H   0  0  0  0  0
   23.3874   -8.5225  -17.6765 H   0  0  0  0  0
   23.8584  -11.4593  -18.4546 H   0  0  0  0  0
   25.2987  -10.6207  -20.0713 H   0  0  0  0  0
   25.0800   -9.0110  -19.4923 H   0  0  0  0  0
   24.9235   -9.0966  -22.6036 H   0  0  0  0  0
   23.0208   -8.7176  -24.1731 H   0  0  0  0  0
   20.6955   -8.9742  -23.4459 H   0  0  0  0  0
   20.1494   -9.6424  -21.1076 H   0  0  0  0  0
   20.7522  -11.5198  -18.9025 H   0  0  0  0  0
   20.3120   -9.8269  -18.5038 H   0  0  0  0  0
   20.6153  -10.4749  -16.3905 H   0  0  0  0  0
   19.7294  -12.7303  -16.8765 H   0  0  0  0  0
   21.6278  -14.8099  -15.9073 H   0  0  0  0  0
   21.5677  -16.1909  -17.7190 H   0  0  0  0  0
   21.5074  -14.5992  -18.5529 H   0  0  0  0  0
   19.8133  -16.1609  -19.4909 H   0  0  0  0  0
   19.0424  -14.7882  -18.7200 H   0  0  0  0  0
   16.9476  -17.2941  -16.1587 H   0  0  0  0  0
   16.4359  -16.4147  -13.8887 H   0  0  0  0  0
   17.8818  -14.6806  -12.8848 H   0  0  0  0  0
   19.8847  -13.8651  -14.0875 H   0  0  0  0  0
  1  2  1  0  0  0
  2  3  1  0  0  0
  3  4  1  0  0  0
  3  6  1  0  0  0
  4  5  1  0  0  0
  6  7  2  0  0  0
  6  8  1  0  0  0
  8  9  1  0  0  0
  9 10  1  0  0  0
  9 16  1  0  0  0
 10 11  1  0  0  0
 10 15  1  0  0  0
 11 12  1  0  0  0
 12 13  1  0  0  0
 13 14  1  0  0  0
 14 15  1  0  0  0
 16 17  2  0  0  0
 16 18  1  0  0  0
 18 19  1  0  0  0
 18 30  1  0  0  0
 19 20  1  0  0  0
 20 21  1  0  0  0
 20 28  1  0  0  0
 21 22  1  0  0  0
 22 23  4  0  0  0
 22 27  4  0  0  0
 23 24  4  0  0  0
 24 25  4  0  0  0
 25 26  4  0  0  0
 26 27  4  0  0  0
 27 28  1  0  0  0
 28 29  1  0  0  0
 29 30  1  0  0  0
 30 31  1  0  0  0
 31 32  2  0  0  0
 31 33  1  0  0  0
 33 34  1  0  0  0
 34 35  1  0  0  0
 34 43  1  0  0  0
 35 36  1  0  0  0
 36 37  1  0  0  0
 37 38  1  0  0  0
 38 39  4  0  0  0
 38 43  4  0  0  0
 39 40  4  0  0  0
 40 41  4  0  0  0
 41 42  4  0  0  0
 42 43  4  0  0  0
  1 44  1  0  0  0
  1 45  1  0  0  0
  1 46  1  0  0  0
  2 47  1  0  0  0
  2 48  1  0  0  0
  3 49  1  0  0  0
  4 50  1  0  0  0
  4 51  1  0  0  0
  5 52  1  0  0  0
  5 53  1  0  0  0
  5 54  1  0  0  0
  8 55  1  0  0  0
  9 56  1  0  0  0
 10 57  1  0  0  0
 11 58  1  0  0  0
 11 59  1  0  0  0
 12 60  1  0  0  0
 12 61  1  0  0  0
 13 62  1  0  0  0
 13 63  1  0  0  0
 14 64  1  0  0  0
 14 65  1  0  0  0
 15 66  1  0  0  0
 15 67  1  0  0  0
 19 68  1  0  0  0
 19 69  1  0  0  0
 20 70  1  0  0  0
 21 71  1  0  0  0
 21 72  1  0  0  0
 23 73  1  0  0  0
 24 74  1  0  0  0
 25 75  1  0  0  0
 26 76  1  0  0  0
 29 77  1  0  0  0
 29 78  1  0  0  0
 30 79  1  0  0  0
 33 80  1  0  0  0
 34 81  1  0  0  0
 35 82  1  0  0  0
 35 83  1  0  0  0
 36 84  1  0  0  0
 36 85  1  0  0  0
 39 86  1  0  0  0
 40 87  1  0  0  0
 41 88  1  0  0  0
 42 89  1  0  0  0
M  END
$$$$
