6d50_ligand
  -I-interpret- 

 21 21  0  0  0  0  0  0  0  0999 V2000
   19.0270   -9.5620  -22.6980 C   0  0  0  0  0
   17.7060   -8.7100  -22.7750 C   0  0  0  0  0
   16.6050   -9.3740  -23.4280 C   0  0  0  0  0
   16.9540   -9.7970  -24.7790 C   0  0  0  0  0
   18.0920  -10.7690  -24.6900 C   0  0  0  0  0
   18.5690  -11.1940  -26.0310 C   0  0  0  0  0
   19.7400   -9.6550  -21.7550 O   0  0  0  0  0
   17.2750   -8.3550  -21.4220 O   0  0  0  0  0
   15.4400   -8.4970  -23.5280 O   0  0  0  0  0
   15.9580  -10.4430  -25.4580 O   0  0  0  0  0
   19.3090  -10.2700  -23.9760 O   0  0  0  0  0
   18.2250  -12.3240  -26.4420 O   0  0  0  0  0
   19.3040  -10.4490  -26.7230 O   0  0  0  0  0
   17.9578   -7.8353  -23.3746 H   0  0  0  0  0
   16.3724  -10.2448  -22.8151 H   0  0  0  0  0
   17.1845   -8.8792  -25.3199 H   0  0  0  0  0
   17.6509  -11.5866  -24.1199 H   0  0  0  0  0
   17.9927   -7.9102  -20.9651 H   0  0  0  0  0
   15.1867   -8.2019  -22.6503 H   0  0  0  0  0
   15.2001   -9.8600  -25.5431 H   0  0  0  0  0
   19.4618   -9.6285  -26.2502 H   0  0  0  0  0
  1  2  1  0  0  0
  1  7  2  0  0  0
  1 11  1  0  0  0
  2  3  1  0  0  0
  2  8  1  0  0  0
  3  4  1  0  0  0
  3  9  1  0  0  0
  4  5  1  0  0  0
  4 10  1  0  0  0
  5  6  1  0  0  0
  5 11  1  0  0  0
  6 12  2  0  0  0
  6 13  1  0  0  0
  2 14  1  0  0  0
  3 15  1  0  0  0
  4 16  1  0  0  0
  5 17  1  0  0  0
  8 18  1  0  0  0
  9 19  1  0  0  0
 10 20  1  0  0  0
 13 21  1  0  0  0
M  END
$$$$
