2hw2_ligand
  -I-interpret- 

118122  0  0  0  0  0  0  0  0999 V2000
  -12.1940    6.9340  -21.1300 C   0  0  0  0  0
  -12.8050    8.1620  -20.8790 C   0  0  0  0  0
  -12.2590    9.0140  -19.9250 C   0  0  0  0  0
  -11.0880    8.6600  -19.2330 C   0  0  0  0  0
   -9.3150    6.9290  -18.7860 C   0  0  0  0  0
   -8.8380    5.6690  -19.0140 C   0  0  0  0  0
   -9.3670    4.8420  -19.9820 C   0  0  0  0  0
  -10.4520    5.2850  -20.6760 C   0  0  0  0  0
  -11.0440    6.5450  -20.4220 C   0  0  0  0  0
  -10.4720    7.4000  -19.4610 C   0  0  0  0  0
   -8.4910    7.4830  -17.6630 C   0  0  0  0  0
   -7.6110    6.3680  -17.1450 C   0  0  0  0  0
   -6.1490    6.7430  -16.9490 C   0  0  0  0  0
   -8.7420    3.4960  -20.2600 C   0  0  0  0  0
  -14.3110    9.4600  -22.3070 C   0  0  0  0  0
  -15.6550    9.5430  -22.9080 C   0  0  0  0  0
  -16.8190    9.2210  -22.3160 C   0  0  0  0  0
  -17.0060    8.7910  -20.9050 C   0  0  0  0  0
  -18.2380    8.3880  -20.5380 C   0  0  0  0  0
  -18.7320    7.8740  -19.1590 C   0  0  0  0  0
  -17.5470    7.2460  -18.3740 C   0  0  0  0  0
  -17.9370    6.7560  -16.9610 C   0  0  0  0  0
  -16.7700    6.0870  -16.2320 C   0  0  0  0  0
  -15.4590    6.9540  -16.1950 C   0  0  0  0  0
  -14.3400    6.2000  -15.3880 C   0  0  0  0  0
  -12.9340    6.8190  -15.3980 C   0  0  0  0  0
  -11.9150    5.8640  -14.7040 C   0  0  0  0  0
  -10.4410    6.3590  -14.7020 C   0  0  0  0  0
   -9.5800    5.7490  -15.5680 C   0  0  0  0  0
  -15.7220   10.0130  -24.3360 C   0  0  0  0  0
  -19.3160    9.0730  -18.4000 C   0  0  0  0  0
  -19.1470    5.7750  -17.0110 C   0  0  0  0  0
  -15.7860    8.3230  -15.5620 C   0  0  0  0  0
  -12.5520    6.9920  -16.8660 C   0  0  0  0  0
  -15.0960    5.0240  -13.3270 C   0  0  0  0  0
  -15.5220    5.2060  -11.8920 C   0  0  0  0  0
  -11.7220    3.4930  -14.5420 C   0  0  0  0  0
  -10.2210   13.4480  -18.1840 C   0  0  0  0  0
  -11.8600   14.6910  -19.6840 C   0  0  0  0  0
  -12.7320   13.7460  -20.5030 C   0  0  0  0  0
  -13.6410   12.8200  -18.3450 C   0  0  0  0  0
  -12.6690   13.6910  -17.5340 C   0  0  0  0  0
  -12.9700   10.2750  -19.7100 C   0  0  0  0  0
  -13.9840    8.4070  -21.5590 N   0  0  0  0  0
  -12.2780   11.3570  -19.8200 N   0  0  0  0  0
  -12.8970   12.6200  -19.5880 N   0  0  0  0  0
  -11.5750   13.9460  -18.4580 N   0  3  0  0  0
  -12.8320    6.1350  -22.0730 O   0  0  0  0  0
  -10.9630    4.4690  -21.6260 O   0  0  0  0  0
   -7.7450    5.3560  -18.2420 O   0  0  0  0  0
   -8.6210    8.5800  -17.0980 O   0  0  0  0  0
   -8.1440    6.0860  -15.7630 O   0  0  0  0  0
  -12.0400    4.5930  -15.3720 O   0  0  0  0  0
  -14.7360    6.2190  -13.9850 O   0  0  0  0  0
  -14.9760    3.9590  -13.9580 O   0  0  0  0  0
  -16.4830    4.7980  -16.8590 O   0  0  0  0  0
  -16.9930    6.1430  -19.0830 O   0  0  0  0  0
  -13.4460   10.2650  -22.5220 O   0  0  0  0  0
  -10.5540    9.5300  -18.3270 O   0  0  0  0  0
   -5.7255    7.0596  -17.9022 H   0  0  0  0  0
   -6.0778    7.5587  -16.2295 H   0  0  0  0  0
   -5.6004    5.8784  -16.5755 H   0  0  0  0  0
   -7.7072    3.6350  -20.5729 H   0  0  0  0  0
   -8.7708    2.8895  -19.3548 H   0  0  0  0  0
   -9.2984    2.9952  -21.0523 H   0  0  0  0  0
  -17.7157    9.2814  -22.9328 H   0  0  0  0  0
  -16.1787    8.8014  -20.1954 H   0  0  0  0  0
  -18.9956    8.4286  -21.3206 H   0  0  0  0  0
  -19.4935    7.1036  -19.2802 H   0  0  0  0  0
  -16.8168    8.0486  -18.2701 H   0  0  0  0  0
  -18.2209    7.6477  -16.4021 H   0  0  0  0  0
  -17.0842    5.9613  -15.1959 H   0  0  0  0  0
  -15.0839    7.1157  -17.2056 H   0  0  0  0  0
  -14.2658    5.2251  -15.8698 H   0  0  0  0  0
  -12.9218    7.7678  -14.8615 H   0  0  0  0  0
  -12.1581    5.8068  -13.6430 H   0  0  0  0  0
  -10.1098    7.1578  -14.0384 H   0  0  0  0  0
   -9.9829    4.9378  -16.1744 H   0  0  0  0  0
  -16.1594    9.2296  -24.9549 H   0  0  0  0  0
  -16.3387   10.9099  -24.3934 H   0  0  0  0  0
  -14.7163   10.2387  -24.6904 H   0  0  0  0  0
  -18.5430    9.8303  -18.2695 H   0  0  0  0  0
  -20.1453    9.4928  -18.9693 H   0  0  0  0  0
  -19.6731    8.7446  -17.4239 H   0  0  0  0  0
  -20.0061    6.2818  -17.4506 H   0  0  0  0  0
  -18.8854    4.9080  -17.6177 H   0  0  0  0  0
  -19.3928    5.4515  -15.9996 H   0  0  0  0  0
  -16.5457    8.8263  -16.1601 H   0  0  0  0  0
  -16.1595    8.1735  -14.5489 H   0  0  0  0  0
  -14.8830    8.9327  -15.5314 H   0  0  0  0  0
  -12.5552    6.0194  -17.3580 H   0  0  0  0  0
  -13.2727    7.6492  -17.3526 H   0  0  0  0  0
  -11.5563    7.4306  -16.9318 H   0  0  0  0  0
  -16.5240    4.7986  -11.7573 H   0  0  0  0  0
  -14.8246    4.6824  -11.2381 H   0  0  0  0  0
  -15.5243    6.2681  -11.6469 H   0  0  0  0  0
  -10.6917    3.5848  -14.1982 H   0  0  0  0  0
  -12.3932    3.4814  -13.6833 H   0  0  0  0  0
  -11.8368    2.5680  -15.1070 H   0  0  0  0  0
   -9.9191   12.7646  -18.9777 H   0  0  0  0  0
   -9.5277   14.2881  -18.1429 H   0  0  0  0  0
  -10.2147   12.9230  -17.2288 H   0  0  0  0  0
  -12.3585   15.6391  -19.4822 H   0  0  0  0  0
  -10.9504   14.9738  -20.2139 H   0  0  0  0  0
  -12.2879   13.4659  -21.4582 H   0  0  0  0  0
  -13.6764   14.1909  -20.8164 H   0  0  0  0  0
  -14.6169   13.2822  -18.4933 H   0  0  0  0  0
  -13.9091   11.8890  -17.8455 H   0  0  0  0  0
  -12.3340   13.1982  -16.6213 H   0  0  0  0  0
  -13.1343   14.6106  -17.1790 H   0  0  0  0  0
  -14.0327   10.2981  -19.4687 H   0  0  0  0  0
  -14.6993    7.6845  -21.4769 H   0  0  0  0  0
  -10.7343   14.1177  -17.9065 H   0  0  0  0  0
  -12.3434    5.3155  -22.1796 H   0  0  0  0  0
  -11.7186    4.8939  -22.0385 H   0  0  0  0  0
  -15.7508    4.3773  -16.4024 H   0  0  0  0  0
  -16.2645    5.7732  -18.5788 H   0  0  0  0  0
   -9.7629    9.1449  -17.9431 H   0  0  0  0  0
  2  1  4  0  0  0
  1  9  4  0  0  0
  1 48  1  0  0  0
  3  2  4  0  0  0
  2 44  1  0  0  0
  3  4  4  0  0  0
 43  3  1  0  0  0
  4 10  4  0  0  0
  4 59  1  0  0  0
  5  6  4  0  0  0
 10  5  4  0  0  0
  5 11  1  0  0  0
  6  7  4  0  0  0
  6 50  1  0  0  0
  8  7  4  0  0  0
  7 14  1  0  0  0
  9  8  4  0  0  0
  8 49  1  0  0  0
 10  9  4  0  0  0
 11 12  1  0  0  0
 11 51  2  0  0  0
 12 13  1  0  0  0
 12 50  1  0  0  0
 12 52  1  0  0  0
 15 16  1  0  0  0
 44 15  1  0  0  0
 15 58  2  0  0  0
 16 17  2  0  0  0
 16 30  1  0  0  0
 17 18  1  0  0  0
 18 19  2  0  0  0
 19 20  1  0  0  0
 20 21  1  0  0  0
 20 31  1  0  0  0
 21 22  1  0  0  0
 21 57  1  0  0  0
 22 23  1  0  0  0
 22 32  1  0  0  0
 23 24  1  0  0  0
 23 56  1  0  0  0
 25 24  1  0  0  0
 24 33  1  0  0  0
 26 25  1  0  0  0
 25 54  1  0  0  0
 27 26  1  0  0  0
 26 34  1  0  0  0
 28 27  1  0  0  0
 27 53  1  0  0  0
 29 28  2  0  0  0
 52 29  1  0  0  0
 35 36  1  0  0  0
 54 35  1  0  0  0
 35 55  2  0  0  0
 53 37  1  0  0  0
 47 38  1  0  0  0
 40 39  1  0  0  0
 39 47  1  0  0  0
 46 40  1  0  0  0
 41 42  1  0  0  0
 46 41  1  0  0  0
 42 47  1  0  0  0
 45 43  2  0  0  0
 45 46  1  0  0  0
 13 60  1  0  0  0
 13 61  1  0  0  0
 13 62  1  0  0  0
 14 63  1  0  0  0
 14 64  1  0  0  0
 14 65  1  0  0  0
 17 66  1  0  0  0
 18 67  1  0  0  0
 19 68  1  0  0  0
 20 69  1  0  0  0
 21 70  1  0  0  0
 22 71  1  0  0  0
 23 72  1  0  0  0
 24 73  1  0  0  0
 25 74  1  0  0  0
 26 75  1  0  0  0
 27 76  1  0  0  0
 28 77  1  0  0  0
 29 78  1  0  0  0
 30 79  1  0  0  0
 30 80  1  0  0  0
 30 81  1  0  0  0
 31 82  1  0  0  0
 31 83  1  0  0  0
 31 84  1  0  0  0
 32 85  1  0  0  0
 32 86  1  0  0  0
 32 87  1  0  0  0
 33 88  1  0  0  0
 33 89  1  0  0  0
 33 90  1  0  0  0
 34 91  1  0  0  0
 34 92  1  0  0  0
 34 93  1  0  0  0
 36 94  1  0  0  0
 36 95  1  0  0  0
 36 96  1  0  0  0
 37 97  1  0  0  0
 37 98  1  0  0  0
 37 99  1  0  0  0
 38100  1  0  0  0
 38101  1  0  0  0
 38102  1  0  0  0
 39103  1  0  0  0
 39104  1  0  0  0
 40105  1  0  0  0
 40106  1  0  0  0
 41107  1  0  0  0
 41108  1  0  0  0
 42109  1  0  0  0
 42110  1  0  0  0
 43111  1  0  0  0
 44112  1  0  0  0
 47113  1  0  0  0
 48114  1  0  0  0
 49115  1  0  0  0
 56116  1  0  0  0
 57117  1  0  0  0
 59118  1  0  0  0
M  END
$$$$
