5lz8_ligand
  -I-interpret- 

 43 44  0  0  0  0  0  0  0  0999 V2000
   25.9900   -0.4430   -2.6410 C   0  0  0  0  0
   27.3860    0.1030   -2.2740 C   0  0  0  0  0
   27.6450   -0.1440   -0.7760 C   0  0  0  0  0
   27.4500    1.6290   -2.6000 C   0  0  0  0  0
   26.3900    2.5040   -1.9220 C   0  0  0  0  0
   25.6600    5.7070   -2.5500 C   0  0  0  0  0
   24.1280    7.5310   -2.9050 C   0  0  0  0  0
   24.0600    7.2960   -4.2770 C   0  0  0  0  0
   23.2650    8.0880   -5.0810 C   0  0  0  0  0
   22.5430    9.1060   -4.5140 C   0  0  0  0  0
   28.3590    3.7700   -2.0620 C   0  0  0  0  0
   28.7730    2.3440   -2.3010 C   0  0  0  0  0
   28.4460   -0.6480   -3.1030 C   0  0  0  0  0
   27.0390    3.8040   -1.8200 N   0  0  0  0  0
   26.3230    4.9980   -1.4050 C   0  0  0  0  0
   24.8900    6.7970   -2.0290 O   0  0  0  0  0
   21.7580    9.8890   -5.2950 F   0  0  0  0  0
   22.5940    9.3590   -3.1510 C   0  0  0  0  0
   21.8090   10.4520   -2.5930 C   0  0  0  0  0
   21.2070   11.2910   -2.1660 N   0  0  0  0  0
   23.3920    8.5650   -2.3420 C   0  0  0  0  0
   29.0930    4.7480   -2.0800 O   0  0  0  0  0
   25.8079   -0.2861   -3.7042 H   0  0  0  0  0
   25.9479   -1.5090   -2.4173 H   0  0  0  0  0
   25.2317    0.0818   -2.0598 H   0  0  0  0  0
   27.5822   -1.2123   -0.5691 H   0  0  0  0  0
   28.6389    0.2200   -0.5156 H   0  0  0  0  0
   26.8966    0.3861   -0.1870 H   0  0  0  0  0
   27.2846    1.5526   -3.6747 H   0  0  0  0  0
   26.0824    2.1127   -0.9523 H   0  0  0  0  0
   25.4581    2.5447   -2.4859 H   0  0  0  0  0
   25.0096    5.0167   -3.0871 H   0  0  0  0  0
   26.4149    6.0828   -3.2407 H   0  0  0  0  0
   24.6373    6.4830   -4.7173 H   0  0  0  0  0
   23.2120    7.9060   -6.1544 H   0  0  0  0  0
   29.4909    2.2496   -3.1157 H   0  0  0  0  0
   29.2956    1.9132   -1.4470 H   0  0  0  0  0
   28.2504   -0.4954   -4.1644 H   0  0  0  0  0
   29.4364   -0.2656   -2.8561 H   0  0  0  0  0
   28.3983   -1.7124   -2.8728 H   0  0  0  0  0
   25.5445    4.6938   -0.7053 H   0  0  0  0  0
   27.0457    5.6832   -0.9619 H   0  0  0  0  0
   23.4414    8.7515   -1.2692 H   0  0  0  0  0
  2  1  1  0  0  0
  2  3  1  0  0  0
  4  2  1  0  0  0
  2 13  1  0  0  0
  5  4  1  0  0  0
 12  4  1  0  0  0
 14  5  1  0  0  0
 15  6  1  0  0  0
  6 16  1  0  0  0
  7  8  4  0  0  0
 16  7  1  0  0  0
  7 21  4  0  0  0
  8  9  4  0  0  0
  9 10  4  0  0  0
 10 17  1  0  0  0
 10 18  4  0  0  0
 11 12  1  0  0  0
 14 11  1  0  0  0
 11 22  2  0  0  0
 14 15  1  0  0  0
 18 19  1  0  0  0
 18 21  4  0  0  0
 19 20  3  0  0  0
  1 23  1  0  0  0
  1 24  1  0  0  0
  1 25  1  0  0  0
  3 26  1  0  0  0
  3 27  1  0  0  0
  3 28  1  0  0  0
  4 29  1  0  0  0
  5 30  1  0  0  0
  5 31  1  0  0  0
  6 32  1  0  0  0
  6 33  1  0  0  0
  8 34  1  0  0  0
  9 35  1  0  0  0
 12 36  1  0  0  0
 12 37  1  0  0  0
 13 38  1  0  0  0
 13 39  1  0  0  0
 13 40  1  0  0  0
 15 41  1  0  0  0
 15 42  1  0  0  0
 21 43  1  0  0  0
M  END
$$$$
