3isw_ligand
  -I-interpret- 

292297  0  0  0  0  0  0  0  0999 V2000
  -23.9650   33.9760   31.2390 N   0  3  0  0  0
  -24.4620   32.6190   30.8770 C   0  0  0  0  0
  -23.7650   32.0330   29.6150 C   0  0  0  0  0
  -24.0400   32.5010   28.4890 O   0  0  0  0  0
  -25.9790   32.8350   30.6380 C   0  0  0  0  0
  -26.1590   34.3720   30.4010 C   0  0  0  0  0
  -24.8310   35.0730   30.7500 C   0  0  0  0  0
  -22.9030   31.0190   29.8020 N   0  0  0  0  0
  -21.9350   30.6130   28.7510 C   0  0  0  0  0
  -22.0110   29.1980   28.1630 C   0  0  0  0  0
  -21.1780   28.8250   27.3230 O   0  0  0  0  0
  -20.5050   30.8220   29.2530 C   0  0  0  0  0
  -20.0080   32.2050   29.6470 C   0  0  0  0  0
  -18.5650   32.0680   30.1160 C   0  0  0  0  0
  -20.1380   33.2180   28.4870 C   0  0  0  0  0
  -22.9750   28.4100   28.6170 N   0  0  0  0  0
  -23.1610   27.0260   28.1530 C   0  0  0  0  0
  -23.7440   26.9060   26.7530 C   0  0  0  0  0
  -24.5260   27.7800   26.3330 O   0  0  0  0  0
  -24.0720   26.2310   29.1120 C   0  0  0  0  0
  -24.7430   27.0280   30.2330 C   0  0  0  0  0
  -25.8350   27.9750   29.7750 C   0  0  0  0  0
  -26.4880   27.6900   28.7450 O   0  0  0  0  0
  -26.0420   29.0140   30.4540 O   0  0  0  0  0
  -23.3600   25.8190   26.0560 N   0  0  0  0  0
  -24.0580   25.3120   24.8470 C   0  0  0  0  0
  -25.0010   24.1660   25.2500 C   0  0  0  0  0
  -24.5720   23.1660   25.8200 O   0  0  0  0  0
  -23.0630   24.8040   23.7810 C   0  0  0  0  0
  -22.5330   23.3570   24.0530 C   0  0  0  0  0
  -21.6560   22.7140   22.9330 C   0  0  0  0  0
  -20.1630   22.6820   23.3540 C   0  0  0  0  0
  -19.2520   21.6600   22.7140 N   0  3  0  0  0
  -26.2850   24.3190   24.9760 N   0  0  0  0  0
  -27.2060   23.2040   25.1310 C   0  0  0  0  0
  -27.7190   22.7710   23.7540 C   0  0  0  0  0
  -28.0660   23.6190   22.9200 O   0  0  0  0  0
  -28.3570   23.5870   26.0170 C   0  0  0  0  0
  -27.7570   21.4580   23.5160 N   0  0  0  0  0
  -28.3490   20.9120   22.2950 C   0  0  0  0  0
  -29.0530   19.6070   22.5880 C   0  0  0  0  0
  -28.7270   18.9310   23.5620 O   0  0  0  0  0
  -27.2630   20.6940   21.2270 C   0  0  0  0  0
  -26.1400   20.0000   21.7510 O   0  0  0  0  0
  -30.0040   19.2410   21.7330 N   0  0  0  0  0
  -30.6760   17.9520   21.8390 C   0  0  0  0  0
  -29.8950   16.8580   21.1260 C   0  0  0  0  0
  -29.3920   17.0630   20.0310 O   0  0  0  0  0
  -32.0560   17.9930   21.2650 C   0  0  0  0  0
  -32.8240   16.7910   21.7800 C   0  0  0  0  0
  -32.7620   19.2990   21.6590 C   0  0  0  0  0
  -29.7790   15.7060   21.7780 N   0  0  0  0  0
  -29.0780   14.5450   21.2330 C   0  0  0  0  0
  -29.9980   13.3210   21.2380 C   0  0  0  0  0
  -30.4180   12.8510   22.2980 O   0  0  0  0  0
  -27.8320   14.2100   22.0270 C   0  0  0  0  0
  -27.0570   13.1220   21.3290 C   0  0  0  0  0
  -26.9750   15.4240   22.1730 C   0  0  0  0  0
  -30.3010   12.8260   20.0380 N   0  0  0  0  0
  -31.2540   11.7510   19.8100 C   0  0  0  0  0
  -30.5000   10.5390   19.3350 C   0  0  0  0  0
  -29.7790   10.6350   18.3590 O   0  0  0  0  0
  -32.2400   12.1640   18.7270 C   0  0  0  0  0
  -32.9490   13.3580   19.0590 O   0  0  0  0  0
  -30.6500    9.3960   20.0020 N   0  0  0  0  0
  -29.9410    8.1980   19.5480 C   0  0  0  0  0
  -30.8250    6.9680   19.2760 C   0  0  0  0  0
  -31.8950    6.7990   19.8820 O   0  0  0  0  0
  -28.8510    7.8250   20.5170 C   0  0  0  0  0
  -27.8790    8.9070   20.7990 C   0  0  0  0  0
  -26.7230    8.3090   21.5280 C   0  0  0  0  0
  -25.8600    9.3710   22.1630 C   0  0  0  0  0
  -25.0040    8.7250   23.2110 N   0  3  0  0  0
  -30.3550    6.1530   18.3220 N   0  0  0  0  0
  -30.8740    4.8300   18.0110 C   0  0  0  0  0
  -29.6720    3.9390   17.7300 C   0  0  0  0  0
  -28.6450    4.4130   17.2700 O   0  0  0  0  0
  -31.7440    4.8690   16.7770 C   0  0  0  0  0
  -32.9950    3.9740   16.6840 C   0  0  0  0  0
  -33.3780    3.7770   15.2280 C   0  0  0  0  0
  -32.8430    2.6220   17.3320 C   0  0  0  0  0
  -29.7850    2.6510   18.0310 N   0  0  0  0  0
  -28.6670    1.7300   17.8540 C   0  0  0  0  0
  -29.1730    0.4900   17.1470 C   0  0  0  0  0
  -30.3550    0.1550   17.2480 O   0  0  0  0  0
  -28.0870    1.3160   19.2010 C   0  0  0  0  0
  -27.4970    2.4540   20.0010 C   0  0  0  0  0
  -28.3070    3.4200   20.5660 C   0  0  0  0  0
  -26.1040    2.5300   20.2120 C   0  0  0  0  0
  -27.7650    4.4440   21.2910 C   0  0  0  0  0
  -25.5540    3.5510   20.9290 C   0  0  0  0  0
  -26.3930    4.5170   21.4640 C   0  0  0  0  0
  -28.2770   -0.2100   16.4580 N   0  0  0  0  0
  -28.6830   -1.4220   15.7930 C   0  0  0  0  0
  -27.5650   -2.4000   15.7910 C   0  0  0  0  0
  -26.6320   -2.2400   15.0310 O   0  0  0  0  0
  -29.0820   -1.1240   14.3400 C   0  0  0  0  0
  -29.6390   -2.3120   13.6140 C   0  0  0  0  0
  -28.7970   -3.1700   12.8970 C   0  0  0  0  0
  -30.9970   -2.5800   13.6440 C   0  0  0  0  0
  -29.3030   -4.2910   12.2250 C   0  0  0  0  0
  -31.5110   -3.6870   12.9710 C   0  0  0  0  0
  -30.6520   -4.5410   12.2640 C   0  0  0  0  0
  -27.6730   -3.4350   16.6040 N   0  0  0  0  0
  -26.6220   -4.4340   16.6820 C   0  0  0  0  0
  -27.1770   -5.7380   16.1510 C   0  0  0  0  0
  -28.3560   -6.0290   16.3620 O   0  0  0  0  0
  -26.1750   -4.6210   18.1350 C   0  0  0  0  0
  -26.3680   -3.4480   18.9090 O   0  0  0  0  0
  -26.3280   -6.5210   15.4810 N   0  0  0  0  0
  -26.7500   -7.7250   14.7710 C   0  0  0  0  0
  -25.5860   -8.6740   14.7620 C   0  0  0  0  0
  -24.5520   -8.3560   15.2960 O   0  0  0  0  0
  -27.2010   -7.4210   13.3320 C   0  0  0  0  0
  -26.0560   -7.0900   12.4420 C   0  0  0  0  0
  -25.3100   -7.9600   11.6690 C   0  0  0  0  0
  -25.4940   -5.8100   12.2500 C   0  0  0  0  0
  -24.2970   -7.2770   11.0210 N   0  0  0  0  0
  -24.4050   -5.9510   11.3500 C   0  0  0  0  0
  -25.7960   -4.5500   12.7480 C   0  0  0  0  0
  -23.6300   -4.8740   10.9530 C   0  0  0  0  0
  -25.0270   -3.4970   12.3630 C   0  0  0  0  0
  -23.9510   -3.6620   11.4660 C   0  0  0  0  0
  -25.7440   -9.8100   14.0900 N   0  0  0  0  0
  -24.9620  -11.0060   14.3620 C   0  0  0  0  0
  -24.4480  -11.6960   13.1050 C   0  0  0  0  0
  -24.9240  -11.4160   12.0020 O   0  0  0  0  0
  -25.8460  -11.9880   15.1250 C   0  0  0  0  0
  -25.0670  -12.6160   16.1400 O   0  0  0  0  0
  -26.4630  -13.0230   14.1950 C   0  0  0  0  0
  -23.5140  -12.6310   13.2920 N   0  0  0  0  0
  -22.7870  -13.2960   12.1910 C   0  0  0  0  0
  -23.6340  -14.0320   11.1330 C   0  0  0  0  0
  -24.0710  -13.3960   10.1830 O   0  0  0  0  0
  -21.6160  -14.1870   12.7260 C   0  0  0  0  0
  -23.9180  -15.3500   11.3100 N   0  0  0  0  0
  -24.0170  -16.2200   10.0840 C   0  0  0  0  0
  -25.2480  -15.9640    9.2320 C   0  0  0  0  0
  -25.3990  -14.8670    8.6970 O   0  0  0  0  0
  -24.0680  -17.6540   10.6430 C   0  0  0  0  0
  -24.7210  -17.4980   12.0160 C   0  0  0  0  0
  -24.2620  -16.0900   12.5470 C   0  0  0  0  0
  -26.1093  -16.8700    9.0743 O   0  0  0  0  0
  -23.0491   34.0924   30.8055 H   0  0  0  0  0
  -23.9441   34.0330   32.2572 H   0  0  0  0  0
  -24.2491   31.8898   31.6587 H   0  0  0  0  0
  -26.5671   32.4937   31.4899 H   0  0  0  0  0
  -26.3318   32.2580   29.7832 H   0  0  0  0  0
  -26.9618   34.7563   31.0302 H   0  0  0  0  0
  -26.4204   34.5622   29.3600 H   0  0  0  0  0
  -24.3989   35.5900   29.8932 H   0  0  0  0  0
  -24.9616   35.8592   31.4936 H   0  0  0  0  0
  -22.9138   30.5151   30.6888 H   0  0  0  0  0
  -22.2303   31.2611   27.9258 H   0  0  0  0  0
  -19.8828   30.5502   28.4003 H   0  0  0  0  0
  -20.4644   30.2519   30.1811 H   0  0  0  0  0
  -20.6250   32.6001   30.4541 H   0  0  0  0  0
  -18.5249   31.3941   30.9717 H   0  0  0  0  0
  -17.9576   31.6649   29.3056 H   0  0  0  0  0
  -18.1837   33.0474   30.4050 H   0  0  0  0  0
  -19.5490   32.8729   27.6372 H   0  0  0  0  0
  -21.1848   33.3018   28.1951 H   0  0  0  0  0
  -19.7715   34.1912   28.8134 H   0  0  0  0  0
  -23.6163   28.7791   29.3190 H   0  0  0  0  0
  -22.1523   26.6134   28.1334 H   0  0  0  0  0
  -23.4291   25.5008   29.6036 H   0  0  0  0  0
  -24.8804   25.8320   28.4994 H   0  0  0  0  0
  -23.9674   27.6392   30.6944 H   0  0  0  0  0
  -25.2115   26.3036   30.8993 H   0  0  0  0  0
  -25.4339   29.0361   31.1965 H   0  0  0  0  0
  -22.5366   25.3113   26.3795 H   0  0  0  0  0
  -24.6223   26.1372   24.4126 H   0  0  0  0  0
  -22.2029   25.4735   23.7930 H   0  0  0  0  0
  -23.5899   24.7839   22.8270 H   0  0  0  0  0
  -23.4160   22.7246   24.1451 H   0  0  0  0  0
  -21.8932   23.4304   24.9324 H   0  0  0  0  0
  -21.7529   23.3092   22.0250 H   0  0  0  0  0
  -21.9957   21.6923   22.7632 H   0  0  0  0  0
  -20.1724   22.4295   24.4143 H   0  0  0  0  0
  -19.7618   23.6491   23.0510 H   0  0  0  0  0
  -18.3096   21.7634   23.0903 H   0  0  0  0  0
  -19.5993   20.7226   22.9165 H   0  0  0  0  0
  -19.2344   21.8067   21.7048 H   0  0  0  0  0
  -26.6314   25.2229   24.6545 H   0  0  0  0  0
  -26.6793   22.3722   25.5988 H   0  0  0  0  0
  -27.9789   23.8721   26.9988 H   0  0  0  0  0
  -28.8910   24.4275   25.5737 H   0  0  0  0  0
  -29.0333   22.7383   26.1191 H   0  0  0  0  0
  -27.3622   20.8177   24.2048 H   0  0  0  0  0
  -29.0790   21.6273   21.9162 H   0  0  0  0  0
  -26.9288   21.6696   20.8740 H   0  0  0  0  0
  -27.6897   20.0966   20.4213 H   0  0  0  0  0
  -25.4858   19.8829   21.0582 H   0  0  0  0  0
  -30.2700   19.8794   20.9833 H   0  0  0  0  0
  -30.7352   17.7300   22.9045 H   0  0  0  0  0
  -32.0081   17.9594   20.1766 H   0  0  0  0  0
  -32.3171   15.8773   21.4695 H   0  0  0  0  0
  -32.8706   16.8303   22.8683 H   0  0  0  0  0
  -33.8343   16.8045   21.3710 H   0  0  0  0  0
  -32.8269   19.3620   22.7452 H   0  0  0  0  0
  -32.1933   20.1472   21.2779 H   0  0  0  0  0
  -33.7650   19.3113   21.2324 H   0  0  0  0  0
  -30.1997   15.6281   22.7040 H   0  0  0  0  0
  -28.7861   14.8009   20.2145 H   0  0  0  0  0
  -28.1277   13.8625   23.0169 H   0  0  0  0  0
  -27.6800   12.2317   21.2433 H   0  0  0  0  0
  -26.7697   13.4631   20.3344 H   0  0  0  0  0
  -26.1628   12.8871   21.9063 H   0  0  0  0  0
  -26.6850   15.7833   21.1856 H   0  0  0  0  0
  -27.5339   16.2012   22.6942 H   0  0  0  0  0
  -26.0827   15.1706   22.7454 H   0  0  0  0  0
  -29.8334   13.2279   19.2254 H   0  0  0  0  0
  -31.7926   11.5340   20.7324 H   0  0  0  0  0
  -32.9685   11.3614   18.6119 H   0  0  0  0  0
  -31.6765   12.3509   17.8129 H   0  0  0  0  0
  -33.5560   13.5765   18.3481 H   0  0  0  0  0
  -31.2542    9.3555   20.8228 H   0  0  0  0  0
  -29.5249    8.4826   18.5816 H   0  0  0  0  0
  -28.2920    7.0049   20.0664 H   0  0  0  0  0
  -29.3359    7.5790   21.4617 H   0  0  0  0  0
  -28.3453    9.6840   21.4048 H   0  0  0  0  0
  -27.5422    9.3630   19.8680 H   0  0  0  0  0
  -26.1158    7.7520   20.8144 H   0  0  0  0  0
  -27.1091    7.6617   22.3154 H   0  0  0  0  0
  -26.4876   10.1383   22.6163 H   0  0  0  0  0
  -25.2311    9.8406   21.4066 H   0  0  0  0  0
  -24.4141    9.4320   23.6497 H   0  0  0  0  0
  -25.6005    8.2927   23.9165 H   0  0  0  0  0
  -24.4172    8.0124   22.7772 H   0  0  0  0  0
  -29.5674    6.4882   17.7674 H   0  0  0  0  0
  -31.4754    4.4609   18.8418 H   0  0  0  0  0
  -31.0956    4.5132   15.9764 H   0  0  0  0  0
  -32.1354    5.8860   16.7529 H   0  0  0  0  0
  -33.7736    4.5000   17.2364 H   0  0  0  0  0
  -33.5920    4.7454   14.7757 H   0  0  0  0  0
  -32.5530    3.3012   14.6978 H   0  0  0  0  0
  -34.2630    3.1435   15.1690 H   0  0  0  0  0
  -32.0275    2.0804   16.8526 H   0  0  0  0  0
  -32.6218    2.7511   18.3915 H   0  0  0  0  0
  -33.7701    2.0600   17.2189 H   0  0  0  0  0
  -30.6708    2.2981   18.3932 H   0  0  0  0  0
  -27.8898    2.2261   17.2726 H   0  0  0  0  0
  -27.2787    0.6131   18.9994 H   0  0  0  0  0
  -28.9061    0.9018   19.7889 H   0  0  0  0  0
  -29.3874    3.3651   20.4325 H   0  0  0  0  0
  -25.4563    1.7591   19.7946 H   0  0  0  0  0
  -28.4118    5.2022   21.7324 H   0  0  0  0  0
  -24.4758    3.6069   21.0788 H   0  0  0  0  0
  -25.9663    5.3458   22.0289 H   0  0  0  0  0
  -27.3097    0.1085   16.4006 H   0  0  0  0  0
  -29.5368   -1.8373   16.3284 H   0  0  0  0  0
  -28.1814   -0.8111   13.8116 H   0  0  0  0  0
  -29.8609   -0.3619   14.3650 H   0  0  0  0  0
  -27.7276   -2.9624   12.8606 H   0  0  0  0  0
  -31.6675   -1.9220   14.1967 H   0  0  0  0  0
  -28.6339   -4.9556   11.6785 H   0  0  0  0  0
  -32.5818   -3.8893   12.9942 H   0  0  0  0  0
  -31.0579   -5.4079   11.7427 H   0  0  0  0  0
  -28.5056   -3.5340   17.1848 H   0  0  0  0  0
  -25.7606   -4.1150   16.0952 H   0  0  0  0  0
  -25.1108   -4.8567   18.1352 H   0  0  0  0  0
  -26.7728   -5.4197   18.5741 H   0  0  0  0  0
  -26.0759   -3.6084   19.8093 H   0  0  0  0  0
  -25.3404   -6.2666   15.4644 H   0  0  0  0  0
  -27.6104   -8.1607   15.2790 H   0  0  0  0  0
  -27.8682   -6.5595   13.3607 H   0  0  0  0  0
  -27.6924   -8.3096   12.9359 H   0  0  0  0  0
  -25.4939   -9.0309   11.5826 H   0  0  0  0  0
  -26.6318   -4.4078   13.4331 H   0  0  0  0  0
  -22.7987   -4.9962   10.2586 H   0  0  0  0  0
  -25.2466   -2.5042   12.7558 H   0  0  0  0  0
  -23.3621   -2.7912   11.1779 H   0  0  0  0  0
  -26.4453   -9.8446   13.3502 H   0  0  0  0  0
  -24.0880  -10.6984   14.9361 H   0  0  0  0  0
  -26.6712  -11.4418   15.5819 H   0  0  0  0  0
  -25.6160  -13.2361   16.6254 H   0  0  0  0  0
  -27.0737  -12.5186   13.4462 H   0  0  0  0  0
  -25.6699  -13.5843   13.7009 H   0  0  0  0  0
  -27.0857  -13.7047   14.7743 H   0  0  0  0  0
  -23.2894  -12.9018   14.2494 H   0  0  0  0  0
  -22.3750  -12.4586   11.6279 H   0  0  0  0  0
  -20.9108  -13.5652   13.2776 H   0  0  0  0  0
  -22.0182  -14.9555   13.3861 H   0  0  0  0  0
  -21.1066  -14.6584   11.8855 H   0  0  0  0  0
  -23.1769  -16.0200    9.4189 H   0  0  0  0  0
  -23.0782  -18.1059   10.7072 H   0  0  0  0  0
  -24.6282  -18.3283    9.9953 H   0  0  0  0  0
  -24.4187  -18.2966   12.6934 H   0  0  0  0  0
  -25.8070  -17.5636   11.9499 H   0  0  0  0  0
  -25.0352  -15.5911   13.1313 H   0  0  0  0  0
  -23.4238  -16.1576   13.2405 H   0  0  0  0  0
  -25.8384  -17.6549    9.5561 H   0  0  0  0  0
  1  2  1  0  0  0
  1  7  1  0  0  0
  2  3  1  0  0  0
  2  5  1  0  0  0
  3  4  2  0  0  0
  3  8  1  0  0  0
  5  6  1  0  0  0
  6  7  1  0  0  0
  8  9  1  0  0  0
  9 10  1  0  0  0
  9 12  1  0  0  0
 10 11  2  0  0  0
 10 16  1  0  0  0
 12 13  1  0  0  0
 13 14  1  0  0  0
 13 15  1  0  0  0
 16 17  1  0  0  0
 17 18  1  0  0  0
 17 20  1  0  0  0
 18 19  2  0  0  0
 18 25  1  0  0  0
 20 21  1  0  0  0
 21 22  1  0  0  0
 22 23  2  0  0  0
 22 24  1  0  0  0
 25 26  1  0  0  0
 26 27  1  0  0  0
 26 29  1  0  0  0
 27 28  2  0  0  0
 27 34  1  0  0  0
 29 30  1  0  0  0
 30 31  1  0  0  0
 31 32  1  0  0  0
 32 33  1  0  0  0
 34 35  1  0  0  0
 35 36  1  0  0  0
 35 38  1  0  0  0
 36 37  2  0  0  0
 36 39  1  0  0  0
 39 40  1  0  0  0
 40 41  1  0  0  0
 40 43  1  0  0  0
 41 42  2  0  0  0
 41 45  1  0  0  0
 43 44  1  0  0  0
 45 46  1  0  0  0
 46 47  1  0  0  0
 46 49  1  0  0  0
 47 48  2  0  0  0
 47 52  1  0  0  0
 49 50  1  0  0  0
 49 51  1  0  0  0
 52 53  1  0  0  0
 53 54  1  0  0  0
 53 56  1  0  0  0
 54 55  2  0  0  0
 54 59  1  0  0  0
 56 57  1  0  0  0
 56 58  1  0  0  0
 59 60  1  0  0  0
 60 61  1  0  0  0
 60 63  1  0  0  0
 61 62  2  0  0  0
 61 65  1  0  0  0
 63 64  1  0  0  0
 65 66  1  0  0  0
 66 67  1  0  0  0
 66 69  1  0  0  0
 67 68  2  0  0  0
 67 74  1  0  0  0
 69 70  1  0  0  0
 70 71  1  0  0  0
 71 72  1  0  0  0
 72 73  1  0  0  0
 74 75  1  0  0  0
 75 76  1  0  0  0
 75 78  1  0  0  0
 76 77  2  0  0  0
 76 82  1  0  0  0
 78 79  1  0  0  0
 79 80  1  0  0  0
 79 81  1  0  0  0
 82 83  1  0  0  0
 83 84  1  0  0  0
 83 86  1  0  0  0
 84 85  2  0  0  0
 84 93  1  0  0  0
 86 87  1  0  0  0
 87 88  4  0  0  0
 87 89  4  0  0  0
 88 90  4  0  0  0
 89 91  4  0  0  0
 90 92  4  0  0  0
 91 92  4  0  0  0
 93 94  1  0  0  0
 94 95  1  0  0  0
 94 97  1  0  0  0
 95 96  2  0  0  0
 95104  1  0  0  0
 97 98  1  0  0  0
 98 99  4  0  0  0
 98100  4  0  0  0
 99101  4  0  0  0
100102  4  0  0  0
101103  4  0  0  0
102103  4  0  0  0
104105  1  0  0  0
105106  1  0  0  0
105108  1  0  0  0
106107  2  0  0  0
106110  1  0  0  0
108109  1  0  0  0
110111  1  0  0  0
111112  1  0  0  0
111114  1  0  0  0
112113  2  0  0  0
112124  1  0  0  0
114115  1  0  0  0
115116  4  0  0  0
115117  4  0  0  0
116118  4  0  0  0
117119  4  0  0  0
117120  4  0  0  0
118119  4  0  0  0
119121  4  0  0  0
120122  4  0  0  0
121123  4  0  0  0
122123  4  0  0  0
124125  1  0  0  0
125126  1  0  0  0
125128  1  0  0  0
126127  2  0  0  0
126131  1  0  0  0
128129  1  0  0  0
128130  1  0  0  0
131132  1  0  0  0
132133  1  0  0  0
132135  1  0  0  0
133134  2  0  0  0
133136  1  0  0  0
136137  1  0  0  0
136142  1  0  0  0
137138  1  0  0  0
137140  1  0  0  0
138139  2  0  0  0
140141  1  0  0  0
141142  1  0  0  0
138143  1  0  0  0
  1144  1  0  0  0
  1145  1  0  0  0
  2146  1  0  0  0
  5147  1  0  0  0
  5148  1  0  0  0
  6149  1  0  0  0
  6150  1  0  0  0
  7151  1  0  0  0
  7152  1  0  0  0
  8153  1  0  0  0
  9154  1  0  0  0
 12155  1  0  0  0
 12156  1  0  0  0
 13157  1  0  0  0
 14158  1  0  0  0
 14159  1  0  0  0
 14160  1  0  0  0
 15161  1  0  0  0
 15162  1  0  0  0
 15163  1  0  0  0
 16164  1  0  0  0
 17165  1  0  0  0
 20166  1  0  0  0
 20167  1  0  0  0
 21168  1  0  0  0
 21169  1  0  0  0
 24170  1  0  0  0
 25171  1  0  0  0
 26172  1  0  0  0
 29173  1  0  0  0
 29174  1  0  0  0
 30175  1  0  0  0
 30176  1  0  0  0
 31177  1  0  0  0
 31178  1  0  0  0
 32179  1  0  0  0
 32180  1  0  0  0
 33181  1  0  0  0
 33182  1  0  0  0
 33183  1  0  0  0
 34184  1  0  0  0
 35185  1  0  0  0
 38186  1  0  0  0
 38187  1  0  0  0
 38188  1  0  0  0
 39189  1  0  0  0
 40190  1  0  0  0
 43191  1  0  0  0
 43192  1  0  0  0
 44193  1  0  0  0
 45194  1  0  0  0
 46195  1  0  0  0
 49196  1  0  0  0
 50197  1  0  0  0
 50198  1  0  0  0
 50199  1  0  0  0
 51200  1  0  0  0
 51201  1  0  0  0
 51202  1  0  0  0
 52203  1  0  0  0
 53204  1  0  0  0
 56205  1  0  0  0
 57206  1  0  0  0
 57207  1  0  0  0
 57208  1  0  0  0
 58209  1  0  0  0
 58210  1  0  0  0
 58211  1  0  0  0
 59212  1  0  0  0
 60213  1  0  0  0
 63214  1  0  0  0
 63215  1  0  0  0
 64216  1  0  0  0
 65217  1  0  0  0
 66218  1  0  0  0
 69219  1  0  0  0
 69220  1  0  0  0
 70221  1  0  0  0
 70222  1  0  0  0
 71223  1  0  0  0
 71224  1  0  0  0
 72225  1  0  0  0
 72226  1  0  0  0
 73227  1  0  0  0
 73228  1  0  0  0
 73229  1  0  0  0
 74230  1  0  0  0
 75231  1  0  0  0
 78232  1  0  0  0
 78233  1  0  0  0
 79234  1  0  0  0
 80235  1  0  0  0
 80236  1  0  0  0
 80237  1  0  0  0
 81238  1  0  0  0
 81239  1  0  0  0
 81240  1  0  0  0
 82241  1  0  0  0
 83242  1  0  0  0
 86243  1  0  0  0
 86244  1  0  0  0
 88245  1  0  0  0
 89246  1  0  0  0
 90247  1  0  0  0
 91248  1  0  0  0
 92249  1  0  0  0
 93250  1  0  0  0
 94251  1  0  0  0
 97252  1  0  0  0
 97253  1  0  0  0
 99254  1  0  0  0
100255  1  0  0  0
101256  1  0  0  0
102257  1  0  0  0
103258  1  0  0  0
104259  1  0  0  0
105260  1  0  0  0
108261  1  0  0  0
108262  1  0  0  0
109263  1  0  0  0
110264  1  0  0  0
111265  1  0  0  0
114266  1  0  0  0
114267  1  0  0  0
116268  1  0  0  0
120269  1  0  0  0
121270  1  0  0  0
122271  1  0  0  0
123272  1  0  0  0
124273  1  0  0  0
125274  1  0  0  0
128275  1  0  0  0
129276  1  0  0  0
130277  1  0  0  0
130278  1  0  0  0
130279  1  0  0  0
131280  1  0  0  0
132281  1  0  0  0
135282  1  0  0  0
135283  1  0  0  0
135284  1  0  0  0
137285  1  0  0  0
140286  1  0  0  0
140287  1  0  0  0
141288  1  0  0  0
141289  1  0  0  0
142290  1  0  0  0
142291  1  0  0  0
143292  1  0  0  0
M  END
$$$$
