### 
### Created by X-TOOL on Mon Sep 10 21:13:04 2018
### 

@<TRIPOS>MOLECULE
3isw_ligand
  291   296     1     0     0
SMALL
GAST_HUCK


@<TRIPOS>ATOM
      1 N         -23.9650   33.9760   31.2390 N.4       1 PRO         0.2461
      2 CA        -24.4620   32.6190   30.8770 C.3       1 PRO         0.0670
      3 C         -23.7650   32.0330   29.6150 C.2       1 PRO         0.2268
      4 O         -24.0400   32.5010   28.4890 O.2       1 PRO        -0.3907
      5 CB        -25.9790   32.8350   30.6380 C.3       1 PRO         0.0127
      6 CG        -26.1590   34.3720   30.4010 C.3       1 PRO        -0.0053
      7 CD        -24.8310   35.0730   30.7500 C.3       1 PRO        -0.0313
      8 N         -22.9030   31.0190   29.8020 N.am      1 LEU        -0.2610
      9 CA        -21.9350   30.6130   28.7510 C.3       1 LEU         0.1313
     10 C         -22.0110   29.1980   28.1630 C.2       1 LEU         0.2039
     11 O         -21.1780   28.8250   27.3230 O.2       1 LEU        -0.3944
     12 CB        -20.5050   30.8220   29.2530 C.3       1 LEU        -0.0101
     13 CG        -20.0080   32.2050   29.6470 C.3       1 LEU        -0.0425
     14 CD1       -18.5650   32.0680   30.1160 C.3       1 LEU        -0.0625
     15 CD2       -20.1380   33.2180   28.4870 C.3       1 LEU        -0.0625
     16 N         -22.9750   28.4100   28.6170 N.am      1 GLU        -0.2636
     17 CA        -23.1610   27.0260   28.1530 C.3       1 GLU         0.1325
     18 C         -23.7440   26.9060   26.7530 C.2       1 GLU         0.2040
     19 O         -24.5260   27.7800   26.3330 O.2       1 GLU        -0.3944
     20 CB        -24.0720   26.2310   29.1120 C.3       1 GLU        -0.0008
     21 CG        -24.7430   27.0280   30.2330 C.3       1 GLU         0.0044
     22 CD        -25.8350   27.9750   29.7750 C.2       1 GLU         0.0350
     23 OE1       -26.4880   27.6900   28.7450 O.co2     1 GLU        -0.5690
     24 OE2       -26.0420   29.0140   30.4540 O.co2     1 GLU        -0.5690
     25 N         -23.3600   25.8190   26.0560 N.am      1 LYS        -0.2637
     26 CA        -24.0580   25.3120   24.8470 C.3       1 LYS         0.1310
     27 C         -25.0010   24.1660   25.2500 C.2       1 LYS         0.2039
     28 O         -24.5720   23.1660   25.8200 O.2       1 LYS        -0.3944
     29 CB        -23.0630   24.8040   23.7810 C.3       1 LYS        -0.0122
     30 CG        -22.5330   23.3570   24.0530 C.3       1 LYS        -0.0440
     31 CD        -21.6560   22.7140   22.9330 C.3       1 LYS        -0.0124
     32 CE        -20.1630   22.6820   23.3540 C.3       1 LYS        -0.0354
     33 NZ        -19.2520   21.6600   22.7140 N.4       1 LYS         0.2185
     34 N         -26.2850   24.3190   24.9760 N.am      1 ALA        -0.2640
     35 CA        -27.2060   23.2040   25.1310 C.3       1 ALA         0.1282
     36 C         -27.7190   22.7710   23.7540 C.2       1 ALA         0.2037
     37 O         -28.0660   23.6190   22.9200 O.2       1 ALA        -0.3944
     38 CB        -28.3570   23.5870   26.0170 C.3       1 ALA        -0.0244
     39 N         -27.7570   21.4580   23.5160 N.am      1 SER        -0.2616
     40 CA        -28.3490   20.9120   22.2950 C.3       1 SER         0.1539
     41 C         -29.0530   19.6070   22.5880 C.2       1 SER         0.2062
     42 O         -28.7270   18.9310   23.5620 O.2       1 SER        -0.3943
     43 CB        -27.2630   20.6940   21.2270 C.3       1 SER         0.0843
     44 OG        -26.1400   20.0000   21.7510 O.3       1 SER        -0.3903
     45 N         -30.0040   19.2410   21.7330 N.am      1 VAL        -0.2634
     46 CA        -30.6760   17.9520   21.8390 C.3       1 VAL         0.1333
     47 C         -29.8950   16.8580   21.1260 C.2       1 VAL         0.2042
     48 O         -29.3920   17.0630   20.0310 O.2       1 VAL        -0.3944
     49 CB        -32.0560   17.9930   21.2650 C.3       1 VAL        -0.0063
     50 CG1       -32.8240   16.7910   21.7800 C.3       1 VAL        -0.0584
     51 CG2       -32.7620   19.2990   21.6590 C.3       1 VAL        -0.0584
     52 N         -29.7790   15.7060   21.7780 N.am      1 VAL        -0.2635
     53 CA        -29.0780   14.5450   21.2330 C.3       1 VAL         0.1333
     54 C         -29.9980   13.3210   21.2380 C.2       1 VAL         0.2042
     55 O         -30.4180   12.8510   22.2980 O.2       1 VAL        -0.3944
     56 CB        -27.8320   14.2100   22.0270 C.3       1 VAL        -0.0063
     57 CG1       -27.0570   13.1220   21.3290 C.3       1 VAL        -0.0584
     58 CG2       -26.9750   15.4240   22.1730 C.3       1 VAL        -0.0584
     59 N         -30.3010   12.8260   20.0380 N.am      1 SER        -0.2616
     60 CA        -31.2540   11.7510   19.8100 C.3       1 SER         0.1539
     61 C         -30.5000   10.5390   19.3350 C.2       1 SER         0.2062
     62 O         -29.7790   10.6350   18.3590 O.2       1 SER        -0.3943
     63 CB        -32.2400   12.1640   18.7270 C.3       1 SER         0.0843
     64 OG        -32.9490   13.3580   19.0590 O.3       1 SER        -0.3903
     65 N         -30.6500    9.3960   20.0020 N.am      1 LYS        -0.2637
     66 CA        -29.9410    8.1980   19.5480 C.3       1 LYS         0.1310
     67 C         -30.8250    6.9680   19.2760 C.2       1 LYS         0.2039
     68 O         -31.8950    6.7990   19.8820 O.2       1 LYS        -0.3944
     69 CB        -28.8510    7.8250   20.5170 C.3       1 LYS        -0.0122
     70 CG        -27.8790    8.9070   20.7990 C.3       1 LYS        -0.0440
     71 CD        -26.7230    8.3090   21.5280 C.3       1 LYS        -0.0124
     72 CE        -25.8600    9.3710   22.1630 C.3       1 LYS        -0.0354
     73 NZ        -25.0040    8.7250   23.2110 N.4       1 LYS         0.2185
     74 N         -30.3550    6.1530   18.3220 N.am      1 LEU        -0.2637
     75 CA        -30.8740    4.8300   18.0110 C.3       1 LEU         0.1312
     76 C         -29.6720    3.9390   17.7300 C.2       1 LEU         0.2040
     77 O         -28.6450    4.4130   17.2700 O.2       1 LEU        -0.3944
     78 CB        -31.7440    4.8690   16.7770 C.3       1 LEU        -0.0101
     79 CG        -32.9950    3.9740   16.6840 C.3       1 LEU        -0.0425
     80 CD1       -33.3780    3.7770   15.2280 C.3       1 LEU        -0.0625
     81 CD2       -32.8430    2.6220   17.3320 C.3       1 LEU        -0.0625
     82 N         -29.7850    2.6510   18.0310 N.am      1 PHE        -0.2619
     83 CA        -28.6670    1.7300   17.8540 C.3       1 PHE         0.1404
     84 C         -29.1730    0.4900   17.1470 C.2       1 PHE         0.2061
     85 O         -30.3550    0.1550   17.2480 O.2       1 PHE        -0.3942
     86 CB        -28.0870    1.3160   19.2010 C.3       1 PHE         0.0214
     87 CG        -27.4970    2.4540   20.0010 C.ar      1 PHE        -0.0386
     88 CD1       -28.3070    3.4200   20.5660 C.ar      1 PHE        -0.0601
     89 CD2       -26.1040    2.5300   20.2120 C.ar      1 PHE        -0.0601
     90 CE1       -27.7650    4.4440   21.2910 C.ar      1 PHE        -0.0686
     91 CE2       -25.5540    3.5510   20.9290 C.ar      1 PHE        -0.0686
     92 CZ        -26.3930    4.5170   21.4640 C.ar      1 PHE        -0.0687
     93 N         -28.2770   -0.2100   16.4580 N.am      1 PHE        -0.2618
     94 CA        -28.6830   -1.4220   15.7930 C.3       1 PHE         0.1404
     95 C         -27.5650   -2.4000   15.7910 C.2       1 PHE         0.2060
     96 O         -26.6320   -2.2400   15.0310 O.2       1 PHE        -0.3942
     97 CB        -29.0820   -1.1240   14.3400 C.3       1 PHE         0.0214
     98 CG        -29.6390   -2.3120   13.6140 C.ar      1 PHE        -0.0386
     99 CD1       -28.7970   -3.1700   12.8970 C.ar      1 PHE        -0.0601
    100 CD2       -30.9970   -2.5800   13.6440 C.ar      1 PHE        -0.0601
    101 CE1       -29.3030   -4.2910   12.2250 C.ar      1 PHE        -0.0686
    102 CE2       -31.5110   -3.6870   12.9710 C.ar      1 PHE        -0.0686
    103 CZ        -30.6520   -4.5410   12.2640 C.ar      1 PHE        -0.0687
    104 N         -27.6730   -3.4350   16.6040 N.am      1 SER        -0.2614
    105 CA        -26.6220   -4.4340   16.6820 C.3       1 SER         0.1539
    106 C         -27.1770   -5.7380   16.1510 C.2       1 SER         0.2063
    107 O         -28.3560   -6.0290   16.3620 O.2       1 SER        -0.3943
    108 CB        -26.1750   -4.6210   18.1350 C.3       1 SER         0.0843
    109 OG        -26.3680   -3.4480   18.9090 O.3       1 SER        -0.3903
    110 N         -26.3280   -6.5210   15.4810 N.am      1 TRP        -0.2626
    111 CA        -26.7500   -7.7250   14.7710 C.3       1 TRP         0.1352
    112 C         -25.5860   -8.6740   14.7620 C.2       1 TRP         0.2052
    113 O         -24.5520   -8.3560   15.2960 O.2       1 TRP        -0.3942
    114 CB        -27.2010   -7.4210   13.3320 C.3       1 TRP         0.0042
    115 CG        -26.0560   -7.0900   12.4420 C.2       1 TRP        -0.0418
    116 CD1       -25.3100   -7.9600   11.6690 C.2       1 TRP         0.0167
    117 CD2       -25.4940   -5.8100   12.2500 C.ar      1 TRP        -0.0214
    118 NE1       -24.2970   -7.2770   11.0210 N.pl3     1 TRP        -0.2890
    119 CE2       -24.4050   -5.9510   11.3500 C.ar      1 TRP         0.0603
    120 CE3       -25.7960   -4.5500   12.7480 C.ar      1 TRP        -0.0747
    121 CZ2       -23.6300   -4.8740   10.9530 C.ar      1 TRP        -0.0443
    122 CZ3       -25.0270   -3.4970   12.3630 C.ar      1 TRP        -0.0792
    123 CH2       -23.9510   -3.6620   11.4660 C.ar      1 TRP        -0.0768
    124 N         -25.7440   -9.8100   14.0900 N.am      1 THR        -0.2612
    125 CA        -24.9620  -11.0060   14.3620 C.3       1 THR         0.1565
    126 C         -24.4480  -11.6960   13.1050 C.2       1 THR         0.2065
    127 O         -24.9240  -11.4160   12.0020 O.2       1 THR        -0.3943
    128 CB        -25.8460  -11.9880   15.1250 C.3       1 THR         0.0924
    129 OG1       -25.0670  -12.6160   16.1400 O.3       1 THR        -0.3874
    130 CG2       -26.4630  -13.0230   14.1950 C.3       1 THR        -0.0346
    131 N         -23.5140  -12.6310   13.2920 N.am      1 ALA        -0.2639
    132 CA        -22.7870  -13.2960   12.1910 C.3       1 ALA         0.1283
    133 C         -23.6340  -14.0320   11.1330 C.2       1 ALA         0.2056
    134 O         -24.0710  -13.3960   10.1830 O.2       1 ALA        -0.3942
    135 CB        -21.6160  -14.1870   12.7260 C.3       1 ALA        -0.0244
    136 N         -23.9180  -15.3500   11.3100 N.am      1 PRO        -0.2556
    137 CA        -24.0170  -16.2200   10.0840 C.3       1 PRO         0.0972
    138 C         -25.2480  -15.9640    9.2320 C.2       1 PRO         0.0603
    139 O         -25.3990  -14.8670    8.6970 O.co2     1 PRO        -0.5666
    140 CB        -24.0680  -17.6540   10.6430 C.3       1 PRO        -0.0159
    141 CG        -24.7210  -17.4980   12.0160 C.3       1 PRO        -0.0288
    142 CD        -24.2620  -16.0900   12.5470 C.3       1 PRO         0.0362
    143 H         -23.0491   34.0924   30.8055 H         1 PRO         0.2035
    144 H         -23.9441   34.0330   32.2572 H         1 PRO         0.2035
    145 H         -24.2491   31.8898   31.6587 H         1 PRO         0.1099
    146 H         -26.5671   32.4937   31.4899 H         1 PRO         0.0347
    147 H         -26.3318   32.2580   29.7832 H         1 PRO         0.0347
    148 H         -26.9618   34.7563   31.0302 H         1 PRO         0.0320
    149 H         -26.4204   34.5622   29.3600 H         1 PRO         0.0320
    150 H         -24.3989   35.5900   29.8932 H         1 PRO         0.0814
    151 H         -24.9616   35.8592   31.4936 H         1 PRO         0.0814
    152 H         -22.9138   30.5151   30.6888 H         1 LEU         0.1884
    153 H         -22.2303   31.2611   27.9258 H         1 LEU         0.0800
    154 H         -19.8828   30.5502   28.4003 H         1 LEU         0.0315
    155 H         -20.4644   30.2519   30.1811 H         1 LEU         0.0315
    156 H         -20.6250   32.6001   30.4541 H         1 LEU         0.0298
    157 H         -18.5249   31.3941   30.9717 H         1 LEU         0.0232
    158 H         -17.9576   31.6649   29.3056 H         1 LEU         0.0232
    159 H         -18.1837   33.0474   30.4050 H         1 LEU         0.0232
    160 H         -19.5490   32.8729   27.6372 H         1 LEU         0.0232
    161 H         -21.1848   33.3018   28.1951 H         1 LEU         0.0232
    162 H         -19.7715   34.1912   28.8134 H         1 LEU         0.0232
    163 H         -23.6163   28.7791   29.3190 H         1 GLU         0.1883
    164 H         -22.1523   26.6134   28.1334 H         1 GLU         0.0801
    165 H         -23.4291   25.5008   29.6036 H         1 GLU         0.0330
    166 H         -24.8804   25.8320   28.4994 H         1 GLU         0.0330
    167 H         -23.9674   27.6392   30.6944 H         1 GLU         0.0433
    168 H         -25.2115   26.3036   30.8993 H         1 GLU         0.0433
    169 H         -22.5366   25.3113   26.3795 H         1 LYS         0.1883
    170 H         -24.6223   26.1372   24.4126 H         1 LYS         0.0800
    171 H         -22.2029   25.4735   23.7930 H         1 LYS         0.0312
    172 H         -23.5899   24.7839   22.8270 H         1 LYS         0.0312
    173 H         -23.4160   22.7246   24.1451 H         1 LYS         0.0269
    174 H         -21.8932   23.4304   24.9324 H         1 LYS         0.0269
    175 H         -21.7529   23.3092   22.0250 H         1 LYS         0.0317
    176 H         -21.9957   21.6923   22.7632 H         1 LYS         0.0317
    177 H         -20.1724   22.4295   24.4143 H         1 LYS         0.0813
    178 H         -19.7618   23.6491   23.0510 H         1 LYS         0.0813
    179 H         -18.3096   21.7634   23.0903 H         1 LYS         0.1994
    180 H         -19.5993   20.7226   22.9165 H         1 LYS         0.1994
    181 H         -19.2344   21.8067   21.7048 H         1 LYS         0.1994
    182 H         -26.6314   25.2229   24.6545 H         1 ALA         0.1883
    183 H         -26.6793   22.3722   25.5988 H         1 ALA         0.0797
    184 H         -27.9789   23.8721   26.9988 H         1 ALA         0.0277
    185 H         -28.8910   24.4275   25.5737 H         1 ALA         0.0277
    186 H         -29.0333   22.7383   26.1191 H         1 ALA         0.0277
    187 H         -27.3622   20.8177   24.2048 H         1 SER         0.1884
    188 H         -29.0790   21.6273   21.9162 H         1 SER         0.0823
    189 H         -26.9288   21.6696   20.8740 H         1 SER         0.0606
    190 H         -27.6897   20.0966   20.4213 H         1 SER         0.0606
    191 H         -25.4858   19.8829   21.0582 H         1 SER         0.2097
    192 H         -30.2700   19.8794   20.9833 H         1 VAL         0.1883
    193 H         -30.7352   17.7300   22.9045 H         1 VAL         0.0802
    194 H         -32.0081   17.9594   20.1766 H         1 VAL         0.0343
    195 H         -32.3171   15.8773   21.4695 H         1 VAL         0.0234
    196 H         -32.8706   16.8303   22.8683 H         1 VAL         0.0234
    197 H         -33.8343   16.8045   21.3710 H         1 VAL         0.0234
    198 H         -32.8269   19.3620   22.7452 H         1 VAL         0.0234
    199 H         -32.1933   20.1472   21.2779 H         1 VAL         0.0234
    200 H         -33.7650   19.3113   21.2324 H         1 VAL         0.0234
    201 H         -30.1997   15.6281   22.7040 H         1 VAL         0.1883
    202 H         -28.7861   14.8009   20.2145 H         1 VAL         0.0802
    203 H         -28.1277   13.8625   23.0169 H         1 VAL         0.0343
    204 H         -27.6800   12.2317   21.2433 H         1 VAL         0.0234
    205 H         -26.7697   13.4631   20.3344 H         1 VAL         0.0234
    206 H         -26.1628   12.8871   21.9063 H         1 VAL         0.0234
    207 H         -26.6850   15.7833   21.1856 H         1 VAL         0.0234
    208 H         -27.5339   16.2012   22.6942 H         1 VAL         0.0234
    209 H         -26.0827   15.1706   22.7454 H         1 VAL         0.0234
    210 H         -29.8334   13.2279   19.2254 H         1 SER         0.1884
    211 H         -31.7926   11.5340   20.7324 H         1 SER         0.0823
    212 H         -32.9685   11.3614   18.6119 H         1 SER         0.0606
    213 H         -31.6765   12.3509   17.8129 H         1 SER         0.0606
    214 H         -32.3242   14.0767   19.1801 H         1 SER         0.2097
    215 H         -31.2542    9.3555   20.8228 H         1 LYS         0.1883
    216 H         -29.5249    8.4826   18.5816 H         1 LYS         0.0800
    217 H         -28.2920    7.0049   20.0664 H         1 LYS         0.0312
    218 H         -29.3359    7.5790   21.4617 H         1 LYS         0.0312
    219 H         -28.3453    9.6840   21.4048 H         1 LYS         0.0269
    220 H         -27.5422    9.3630   19.8680 H         1 LYS         0.0269
    221 H         -26.1158    7.7520   20.8144 H         1 LYS         0.0317
    222 H         -27.1091    7.6617   22.3154 H         1 LYS         0.0317
    223 H         -26.4876   10.1383   22.6163 H         1 LYS         0.0813
    224 H         -25.2311    9.8406   21.4066 H         1 LYS         0.0813
    225 H         -24.4141    9.4320   23.6497 H         1 LYS         0.1994
    226 H         -25.6005    8.2927   23.9165 H         1 LYS         0.1994
    227 H         -24.4172    8.0124   22.7772 H         1 LYS         0.1994
    228 H         -29.5674    6.4882   17.7674 H         1 LEU         0.1883
    229 H         -31.4754    4.4609   18.8418 H         1 LEU         0.0800
    230 H         -31.0956    4.5132   15.9764 H         1 LEU         0.0315
    231 H         -32.1354    5.8860   16.7529 H         1 LEU         0.0315
    232 H         -33.7736    4.5000   17.2364 H         1 LEU         0.0298
    233 H         -33.5920    4.7454   14.7757 H         1 LEU         0.0232
    234 H         -32.5530    3.3012   14.6978 H         1 LEU         0.0232
    235 H         -34.2630    3.1435   15.1690 H         1 LEU         0.0232
    236 H         -32.0275    2.0804   16.8526 H         1 LEU         0.0232
    237 H         -32.6218    2.7511   18.3915 H         1 LEU         0.0232
    238 H         -33.7701    2.0600   17.2189 H         1 LEU         0.0232
    239 H         -30.6708    2.2981   18.3932 H         1 PHE         0.1885
    240 H         -27.8898    2.2261   17.2726 H         1 PHE         0.0823
    241 H         -27.2787    0.6131   18.9994 H         1 PHE         0.0474
    242 H         -28.9061    0.9018   19.7889 H         1 PHE         0.0474
    243 H         -29.3874    3.3651   20.4325 H         1 PHE         0.0557
    244 H         -25.4563    1.7591   19.7946 H         1 PHE         0.0557
    245 H         -28.4118    5.2022   21.7324 H         1 PHE         0.0599
    246 H         -24.4758    3.6069   21.0788 H         1 PHE         0.0599
    247 H         -25.9663    5.3458   22.0289 H         1 PHE         0.0559
    248 H         -27.3097    0.1085   16.4006 H         1 PHE         0.1885
    249 H         -29.5368   -1.8373   16.3284 H         1 PHE         0.0823
    250 H         -28.1814   -0.8111   13.8116 H         1 PHE         0.0474
    251 H         -29.8609   -0.3619   14.3650 H         1 PHE         0.0474
    252 H         -27.7276   -2.9624   12.8606 H         1 PHE         0.0557
    253 H         -31.6675   -1.9220   14.1967 H         1 PHE         0.0557
    254 H         -28.6339   -4.9556   11.6785 H         1 PHE         0.0599
    255 H         -32.5818   -3.8893   12.9942 H         1 PHE         0.0599
    256 H         -31.0579   -5.4079   11.7427 H         1 PHE         0.0559
    257 H         -28.5056   -3.5340   17.1848 H         1 SER         0.1884
    258 H         -25.7606   -4.1150   16.0952 H         1 SER         0.0823
    259 H         -25.1108   -4.8567   18.1352 H         1 SER         0.0606
    260 H         -26.7728   -5.4197   18.5741 H         1 SER         0.0606
    261 H         -27.2996   -3.2164   18.9101 H         1 SER         0.2097
    262 H         -25.3404   -6.2666   15.4644 H         1 TRP         0.1884
    263 H         -27.6104   -8.1607   15.2790 H         1 TRP         0.0815
    264 H         -27.8682   -6.5595   13.3607 H         1 TRP         0.0397
    265 H         -27.6924   -8.3096   12.9359 H         1 TRP         0.0397
    266 H         -25.4939   -9.0309   11.5826 H         1 TRP         0.0795
    267 H         -23.5938   -7.6876   10.4068 H         1 TRP         0.2216
    268 H         -26.6318   -4.4078   13.4331 H         1 TRP         0.0540
    269 H         -22.7987   -4.9962   10.2586 H         1 TRP         0.0541
    270 H         -25.2466   -2.5042   12.7558 H         1 TRP         0.0510
    271 H         -23.3621   -2.7912   11.1779 H         1 TRP         0.0530
    272 H         -26.4453   -9.8446   13.3502 H         1 THR         0.1884
    273 H         -24.0880  -10.6984   14.9361 H         1 THR         0.0826
    274 H         -26.6712  -11.4418   15.5819 H         1 THR         0.0639
    275 H         -25.6160  -13.2361   16.6254 H         1 THR         0.2101
    276 H         -27.0737  -12.5186   13.4462 H         1 THR         0.0257
    277 H         -25.6699  -13.5843   13.7009 H         1 THR         0.0257
    278 H         -27.0857  -13.7047   14.7743 H         1 THR         0.0257
    279 H         -23.2894  -12.9018   14.2494 H         1 ALA         0.1883
    280 H         -22.3750  -12.4586   11.6279 H         1 ALA         0.0797
    281 H         -20.9108  -13.5652   13.2776 H         1 ALA         0.0277
    282 H         -22.0182  -14.9555   13.3861 H         1 ALA         0.0277
    283 H         -21.1066  -14.6584   11.8855 H         1 ALA         0.0277
    284 H         -23.1769  -16.0200    9.4189 H         1 PRO         0.0728
    285 O1        -26.1093  -16.8700    9.0743 O.co2     1 PRO        -0.5666
    286 H         -23.0782  -18.1059   10.7072 H         1 PRO         0.0306
    287 H         -24.6282  -18.3283    9.9953 H         1 PRO         0.0306
    288 H         -24.4187  -18.2966   12.6934 H         1 PRO         0.0286
    289 H         -25.8070  -17.5636   11.9499 H         1 PRO         0.0286
    290 H         -25.0352  -15.5911   13.1313 H         1 PRO         0.0524
    291 H         -23.4238  -16.1576   13.2405 H         1 PRO         0.0524
@<TRIPOS>BOND
     1    1    2 1  
     2    1    7 1  
     3    2    3 1  
     4    2    5 1  
     5    3    4 2  
     6    3    8 am 
     7    5    6 1  
     8    6    7 1  
     9    8    9 1  
    10    9   10 1  
    11    9   12 1  
    12   10   11 2  
    13   10   16 am 
    14   12   13 1  
    15   13   14 1  
    16   13   15 1  
    17   16   17 1  
    18   17   18 1  
    19   17   20 1  
    20   18   19 2  
    21   18   25 am 
    22   20   21 1  
    23   21   22 1  
    24   22   23 ar 
    25   22   24 ar 
    26   25   26 1  
    27   26   27 1  
    28   26   29 1  
    29   27   28 2  
    30   27   34 am 
    31   29   30 1  
    32   30   31 1  
    33   31   32 1  
    34   32   33 1  
    35   34   35 1  
    36   35   36 1  
    37   35   38 1  
    38   36   37 2  
    39   36   39 am 
    40   39   40 1  
    41   40   41 1  
    42   40   43 1  
    43   41   42 2  
    44   41   45 am 
    45   43   44 1  
    46   45   46 1  
    47   46   47 1  
    48   46   49 1  
    49   47   48 2  
    50   47   52 am 
    51   49   50 1  
    52   49   51 1  
    53   52   53 1  
    54   53   54 1  
    55   53   56 1  
    56   54   55 2  
    57   54   59 am 
    58   56   57 1  
    59   56   58 1  
    60   59   60 1  
    61   60   61 1  
    62   60   63 1  
    63   61   62 2  
    64   61   65 am 
    65   63   64 1  
    66   65   66 1  
    67   66   67 1  
    68   66   69 1  
    69   67   68 2  
    70   67   74 am 
    71   69   70 1  
    72   70   71 1  
    73   71   72 1  
    74   72   73 1  
    75   74   75 1  
    76   75   76 1  
    77   75   78 1  
    78   76   77 2  
    79   76   82 am 
    80   78   79 1  
    81   79   80 1  
    82   79   81 1  
    83   82   83 1  
    84   83   84 1  
    85   83   86 1  
    86   84   85 2  
    87   84   93 am 
    88   86   87 1  
    89   87   88 ar 
    90   87   89 ar 
    91   88   90 ar 
    92   89   91 ar 
    93   90   92 ar 
    94   91   92 ar 
    95   93   94 1  
    96   94   95 1  
    97   94   97 1  
    98   95   96 2  
    99   95  104 am 
   100   97   98 1  
   101   98   99 ar 
   102   98  100 ar 
   103   99  101 ar 
   104  100  102 ar 
   105  101  103 ar 
   106  102  103 ar 
   107  104  105 1  
   108  105  106 1  
   109  105  108 1  
   110  106  107 2  
   111  106  110 am 
   112  108  109 1  
   113  110  111 1  
   114  111  112 1  
   115  111  114 1  
   116  112  113 2  
   117  112  124 am 
   118  114  115 1  
   119  115  116 2  
   120  115  117 1  
   121  116  118 1  
   122  117  119 ar 
   123  117  120 ar 
   124  118  119 1  
   125  119  121 ar 
   126  120  122 ar 
   127  121  123 ar 
   128  122  123 ar 
   129  124  125 1  
   130  125  126 1  
   131  125  128 1  
   132  126  127 2  
   133  126  131 am 
   134  128  129 1  
   135  128  130 1  
   136  131  132 1  
   137  132  133 1  
   138  132  135 1  
   139  133  134 2  
   140  133  136 am 
   141  136  137 1  
   142  136  142 1  
   143  137  138 1  
   144  137  140 1  
   145  138  139 ar 
   146  140  141 1  
   147  141  142 1  
   148    1  143 1  
   149    1  144 1  
   150    2  145 1  
   151    5  146 1  
   152    5  147 1  
   153    6  148 1  
   154    6  149 1  
   155    7  150 1  
   156    7  151 1  
   157    8  152 1  
   158    9  153 1  
   159   12  154 1  
   160   12  155 1  
   161   13  156 1  
   162   14  157 1  
   163   14  158 1  
   164   14  159 1  
   165   15  160 1  
   166   15  161 1  
   167   15  162 1  
   168   16  163 1  
   169   17  164 1  
   170   20  165 1  
   171   20  166 1  
   172   21  167 1  
   173   21  168 1  
   174   25  169 1  
   175   26  170 1  
   176   29  171 1  
   177   29  172 1  
   178   30  173 1  
   179   30  174 1  
   180   31  175 1  
   181   31  176 1  
   182   32  177 1  
   183   32  178 1  
   184   33  179 1  
   185   33  180 1  
   186   33  181 1  
   187   34  182 1  
   188   35  183 1  
   189   38  184 1  
   190   38  185 1  
   191   38  186 1  
   192   39  187 1  
   193   40  188 1  
   194   43  189 1  
   195   43  190 1  
   196   44  191 1  
   197   45  192 1  
   198   46  193 1  
   199   49  194 1  
   200   50  195 1  
   201   50  196 1  
   202   50  197 1  
   203   51  198 1  
   204   51  199 1  
   205   51  200 1  
   206   52  201 1  
   207   53  202 1  
   208   56  203 1  
   209   57  204 1  
   210   57  205 1  
   211   57  206 1  
   212   58  207 1  
   213   58  208 1  
   214   58  209 1  
   215   59  210 1  
   216   60  211 1  
   217   63  212 1  
   218   63  213 1  
   219   64  214 1  
   220   65  215 1  
   221   66  216 1  
   222   69  217 1  
   223   69  218 1  
   224   70  219 1  
   225   70  220 1  
   226   71  221 1  
   227   71  222 1  
   228   72  223 1  
   229   72  224 1  
   230   73  225 1  
   231   73  226 1  
   232   73  227 1  
   233   74  228 1  
   234   75  229 1  
   235   78  230 1  
   236   78  231 1  
   237   79  232 1  
   238   80  233 1  
   239   80  234 1  
   240   80  235 1  
   241   81  236 1  
   242   81  237 1  
   243   81  238 1  
   244   82  239 1  
   245   83  240 1  
   246   86  241 1  
   247   86  242 1  
   248   88  243 1  
   249   89  244 1  
   250   90  245 1  
   251   91  246 1  
   252   92  247 1  
   253   93  248 1  
   254   94  249 1  
   255   97  250 1  
   256   97  251 1  
   257   99  252 1  
   258  100  253 1  
   259  101  254 1  
   260  102  255 1  
   261  103  256 1  
   262  104  257 1  
   263  105  258 1  
   264  108  259 1  
   265  108  260 1  
   266  109  261 1  
   267  110  262 1  
   268  111  263 1  
   269  114  264 1  
   270  114  265 1  
   271  116  266 1  
   272  118  267 1  
   273  120  268 1  
   274  121  269 1  
   275  122  270 1  
   276  123  271 1  
   277  124  272 1  
   278  125  273 1  
   279  128  274 1  
   280  129  275 1  
   281  130  276 1  
   282  130  277 1  
   283  130  278 1  
   284  131  279 1  
   285  132  280 1  
   286  135  281 1  
   287  135  282 1  
   288  135  283 1  
   289  137  284 1  
   290  138  285 ar 
   291  140  286 1  
   292  140  287 1  
   293  141  288 1  
   294  141  289 1  
   295  142  290 1  
   296  142  291 1  
@<TRIPOS>SUBSTRUCTURE
     1 PRO         1

