### 
### Created by X-TOOL on Mon Sep 10 21:12:44 2018
### 

@<TRIPOS>MOLECULE
8lpr_ligand
   59    60     1     0     0
SMALL
GAST_HUCK


@<TRIPOS>ATOM
      1 N          13.6250   41.9040   18.8670 N.4       1 ALA         0.2377
      2 CA         14.1880   40.5770   18.5250 C.3       1 ALA         0.0621
      3 C          13.2840   39.3680   18.7490 C.2       1 ALA         0.2264
      4 O          12.6410   39.3080   19.8140 O.2       1 ALA        -0.3907
      5 CB         15.3180   40.2620   19.5300 C.3       1 ALA        -0.0040
      6 N          13.3250   38.4620   17.7960 N.am      1 ALA        -0.2613
      7 CA         12.5500   37.2080   17.9690 C.3       1 ALA         0.1285
      8 C          13.5320   36.0850   17.6020 C.2       1 ALA         0.2061
      9 O          14.3880   36.3650   16.7350 O.2       1 ALA        -0.3942
     10 CB         11.4140   37.1210   16.9420 C.3       1 ALA        -0.0244
     11 N          13.2570   34.9240   18.1510 N.am      1 PRO        -0.2498
     12 CA         14.0380   33.7180   17.7940 C.3       1 PRO         0.1336
     13 C          13.7470   33.3160   16.3340 C.2       1 PRO         0.2011
     14 O          12.6110   33.4760   15.8150 O.2       1 PRO        -0.3946
     15 CB         13.5420   32.6480   18.7990 C.3       1 PRO        -0.0104
     16 CG         12.7040   33.3740   19.8020 C.3       1 PRO        -0.0281
     17 CD         12.1330   34.6260   19.0900 C.3       1 PRO         0.0369
     18 N          14.7590   32.7570   15.6540 N.am      1 B2F        -0.2899
     19 CA         14.6920   32.2700   14.2990 C.3       1 B2F         0.0628
     20 CB         15.6420   32.9590   13.3050 C.3       1 B2F        -0.0049
     21 CG         15.4950   34.4080   13.0090 C.ar      1 B2F        -0.0421
     22 CD1        16.4250   35.0230   12.1730 C.ar      1 B2F        -0.0603
     23 CD2        14.4850   35.1820   13.5960 C.ar      1 B2F        -0.0603
     24 CE1        16.3360   36.3910   11.9020 C.ar      1 B2F        -0.0686
     25 CE2        14.3580   36.5530   13.3060 C.ar      1 B2F        -0.0686
     26 CZ         15.2970   37.1470   12.4420 C.ar      1 B2F        -0.0687
     27 B          14.8350   30.7120   14.1610 B         1 B2F         0.7185
     28 O1         14.8530   30.1950   12.7560 O.3       1 B2F        -0.4966
     29 O2         14.0410   29.9520   15.1450 O.3       1 B2F        -0.4966
     30 H1         14.3102   42.6186   18.6776 H         1 ALA         0.2015
     31 H2         13.3807   41.9235   19.8447 H         1 ALA         0.2015
     32 H3         12.8011   42.0728   18.3114 H         1 ALA         0.2015
     33 H4         14.5483   40.5994   17.4859 H         1 ALA         0.1095
     34 H5         15.7530   39.2791   19.2963 H         1 ALA         0.0310
     35 H6         14.9078   40.2481   20.5505 H         1 ALA         0.0310
     36 H7         16.0979   41.0344   19.4588 H         1 ALA         0.0310
     37 H8         13.8682   38.6153   16.9705 H         1 ALA         0.1884
     38 H9         12.1665   37.1118   18.9955 H         1 ALA         0.0797
     39 H10        10.8560   36.1848   17.0909 H         1 ALA         0.0277
     40 H11        11.8358   37.1388   15.9262 H         1 ALA         0.0277
     41 H12        10.7355   37.9769   17.0723 H         1 ALA         0.0277
     42 H13        15.1167   33.8949   17.9167 H         1 PRO         0.0802
     43 H14        14.3970   32.1651   19.2947 H         1 PRO         0.0313
     44 H15        12.9412   31.8867   18.2798 H         1 PRO         0.0313
     45 H16        13.3200   33.6759   20.6619 H         1 PRO         0.0287
     46 H17        11.8833   32.7282   20.1475 H         1 PRO         0.0287
     47 H18        11.2004   34.4002   18.5522 H         1 PRO         0.0524
     48 H19        11.9591   35.4527   19.7945 H         1 PRO         0.0524
     49 H20        15.6354   32.6707   16.1278 H         1 B2F         0.1842
     50 H21        13.6740   32.5133   13.9607 H         1 B2F         0.0454
     51 H22        15.5365   32.4284   12.3472 H         1 B2F         0.0436
     52 H23        16.6618   32.8174   13.6923 H         1 B2F         0.0436
     53 H24        17.2221   34.4368   11.7303 H         1 B2F         0.0557
     54 H25        13.7897   34.7166   14.2852 H         1 B2F         0.0557
     55 H26        17.0775   36.8658   11.2697 H         1 B2F         0.0599
     56 H27        13.5548   37.1387   13.7384 H         1 B2F         0.0599
     57 H28        15.2116   38.1990   12.1950 H         1 B2F         0.0559
     58 H29        15.3928   30.7622   12.2179 H         1 B2F         0.1667
     59 H30        14.1052   30.3724   15.9945 H         1 B2F         0.1667
@<TRIPOS>BOND
     1    1    2 1  
     2    2    3 1  
     3    2    5 1  
     4    3    4 2  
     5    3    6 am 
     6    6    7 1  
     7    7    8 1  
     8    7   10 1  
     9    8    9 2  
    10    8   11 am 
    11   11   12 1  
    12   11   17 1  
    13   12   13 1  
    14   12   15 1  
    15   13   14 2  
    16   13   18 am 
    17   15   16 1  
    18   16   17 1  
    19   18   19 1  
    20   19   20 1  
    21   19   27 1  
    22   20   21 1  
    23   21   22 ar 
    24   21   23 ar 
    25   22   24 ar 
    26   23   25 ar 
    27   24   26 ar 
    28   25   26 ar 
    29   27   28 1  
    30   27   29 1  
    31    1   30 1  
    32    1   31 1  
    33    1   32 1  
    34    2   33 1  
    35    5   34 1  
    36    5   35 1  
    37    5   36 1  
    38    6   37 1  
    39    7   38 1  
    40   10   39 1  
    41   10   40 1  
    42   10   41 1  
    43   12   42 1  
    44   15   43 1  
    45   15   44 1  
    46   16   45 1  
    47   16   46 1  
    48   17   47 1  
    49   17   48 1  
    50   18   49 1  
    51   19   50 1  
    52   20   51 1  
    53   20   52 1  
    54   22   53 1  
    55   23   54 1  
    56   24   55 1  
    57   25   56 1  
    58   26   57 1  
    59   28   58 1  
    60   29   59 1  
@<TRIPOS>SUBSTRUCTURE
     1 ALA         1

