8lpr_ligand
  -I-interpret- 

 59 60  0  0  0  0  0  0  0  0999 V2000
   13.6250   41.9040   18.8670 N   0  3  0  0  0
   14.1880   40.5770   18.5250 C   0  0  0  0  0
   13.2840   39.3680   18.7490 C   0  0  0  0  0
   12.6410   39.3080   19.8140 O   0  0  0  0  0
   15.3180   40.2620   19.5300 C   0  0  0  0  0
   13.3250   38.4620   17.7960 N   0  0  0  0  0
   12.5500   37.2080   17.9690 C   0  0  0  0  0
   13.5320   36.0850   17.6020 C   0  0  0  0  0
   14.3880   36.3650   16.7350 O   0  0  0  0  0
   11.4140   37.1210   16.9420 C   0  0  0  0  0
   13.2570   34.9240   18.1510 N   0  0  0  0  0
   14.0380   33.7180   17.7940 C   0  0  0  0  0
   13.7470   33.3160   16.3340 C   0  0  0  0  0
   12.6110   33.4760   15.8150 O   0  0  0  0  0
   13.5420   32.6480   18.7990 C   0  0  0  0  0
   12.7040   33.3740   19.8020 C   0  0  0  0  0
   12.1330   34.6260   19.0900 C   0  0  0  0  0
   14.7590   32.7570   15.6540 N   0  0  0  0  0
   14.6920   32.2700   14.2990 C   0  0  0  0  0
   15.6420   32.9590   13.3050 C   0  0  0  0  0
   15.4950   34.4080   13.0090 C   0  0  0  0  0
   16.4250   35.0230   12.1730 C   0  0  0  0  0
   14.4850   35.1820   13.5960 C   0  0  0  0  0
   16.3360   36.3910   11.9020 C   0  0  0  0  0
   14.3580   36.5530   13.3060 C   0  0  0  0  0
   15.2970   37.1470   12.4420 C   0  0  0  0  0
   14.8350   30.7120   14.1610 B   0  0  0  0  0
   14.8530   30.1950   12.7560 O   0  0  0  0  0
   14.0410   29.9520   15.1450 O   0  0  0  0  0
   12.8753   42.1324   18.2142 H   0  0  0  0  0
   13.2547   41.8803   19.8171 H   0  0  0  0  0
   14.3588   42.6097   18.8043 H   0  0  0  0  0
   14.4355   40.6802   17.4685 H   0  0  0  0  0
   14.9017   40.2014   20.5356 H   0  0  0  0  0
   15.7800   39.3100   19.2686 H   0  0  0  0  0
   16.0669   41.0531   19.4925 H   0  0  0  0  0
   13.8790   38.6184   16.9540 H   0  0  0  0  0
   12.1366   37.1519   18.9760 H   0  0  0  0  0
   11.8200   37.2614   15.9402 H   0  0  0  0  0
   10.9394   36.1420   17.0091 H   0  0  0  0  0
   10.6782   37.8979   17.1494 H   0  0  0  0  0
   15.1170   33.8603   17.8534 H   0  0  0  0  0
   14.3795   32.1421   19.2794 H   0  0  0  0  0
   12.9665   31.8719   18.2944 H   0  0  0  0  0
   13.2997   33.6602   20.6688 H   0  0  0  0  0
   11.8991   32.7363   20.1674 H   0  0  0  0  0
   11.1697   34.4687   18.6047 H   0  0  0  0  0
   11.8748   35.4468   19.7592 H   0  0  0  0  0
   15.6529   32.6689   16.1373 H   0  0  0  0  0
   13.6750   32.5475   14.0218 H   0  0  0  0  0
   15.4403   32.4671   12.3534 H   0  0  0  0  0
   16.6248   32.8765   13.7692 H   0  0  0  0  0
   17.2265   34.4335   11.7279 H   0  0  0  0  0
   13.7859   34.7140   14.2890 H   0  0  0  0  0
   17.0816   36.8684   11.2662 H   0  0  0  0  0
   13.5504   37.1419   13.7408 H   0  0  0  0  0
   15.2111   38.2048   12.1936 H   0  0  0  0  0
   14.9428   29.2393   12.7690 H   0  0  0  0  0
   14.1743   29.0118   15.0045 H   0  0  0  0  0
  1  2  1  0  0  0
  2  3  1  0  0  0
  2  5  1  0  0  0
  3  4  2  0  0  0
  3  6  1  0  0  0
  6  7  1  0  0  0
  7  8  1  0  0  0
  7 10  1  0  0  0
  8  9  2  0  0  0
  8 11  1  0  0  0
 11 12  1  0  0  0
 11 17  1  0  0  0
 12 13  1  0  0  0
 12 15  1  0  0  0
 13 14  2  0  0  0
 13 18  1  0  0  0
 15 16  1  0  0  0
 16 17  1  0  0  0
 18 19  1  0  0  0
 19 20  1  0  0  0
 19 27  1  0  0  0
 20 21  1  0  0  0
 21 22  4  0  0  0
 21 23  4  0  0  0
 22 24  4  0  0  0
 23 25  4  0  0  0
 24 26  4  0  0  0
 25 26  4  0  0  0
 27 28  1  0  0  0
 27 29  1  0  0  0
  1 30  1  0  0  0
  1 31  1  0  0  0
  1 32  1  0  0  0
  2 33  1  0  0  0
  5 34  1  0  0  0
  5 35  1  0  0  0
  5 36  1  0  0  0
  6 37  1  0  0  0
  7 38  1  0  0  0
 10 39  1  0  0  0
 10 40  1  0  0  0
 10 41  1  0  0  0
 12 42  1  0  0  0
 15 43  1  0  0  0
 15 44  1  0  0  0
 16 45  1  0  0  0
 16 46  1  0  0  0
 17 47  1  0  0  0
 17 48  1  0  0  0
 18 49  1  0  0  0
 19 50  1  0  0  0
 20 51  1  0  0  0
 20 52  1  0  0  0
 22 53  1  0  0  0
 23 54  1  0  0  0
 24 55  1  0  0  0
 25 56  1  0  0  0
 26 57  1  0  0  0
 28 58  1  0  0  0
 29 59  1  0  0  0
M  END
$$$$
