1nhu_ligand
  -I-interpret- 

 51 53  0  0  0  0  0  0  0  0999 V2000
    7.3180   33.2600   77.8600 N   0  0  0  0  0
    7.1460   32.8210   76.3930 C   0  0  0  0  0
    5.6810   32.9860   75.8330 C   0  0  0  0  0
    5.4030   32.5250   74.6950 O   0  0  0  0  0
    4.8390   33.5880   76.5270 O   0  0  0  0  0
    7.2500   34.6300   78.2460 C   0  0  0  0  0
    6.8810   34.9810   79.3550 O   0  0  0  0  0
    7.6660   35.7540   77.3020 C   0  0  0  0  0
    6.6330   36.4720   76.6380 C   0  0  0  0  0
    6.9640   37.5310   75.7610 C   0  0  0  0  0
    8.3290   37.8700   75.5480 C   0  0  0  0  0
    9.3600   37.1560   76.2120 C   0  0  0  0  0
    9.0400   36.1000   77.0890 C   0  0  0  0  0
    8.7340   39.1510   74.4800 Cl  0  0  0  0  0
   10.3320   35.2670   77.8840 Cl  0  0  0  0  0
    7.6790   31.3640   76.1200 C   0  0  0  0  0
    9.1880   31.1640   76.0270 C   0  0  0  0  0
    9.7150   29.8360   75.8460 C   0  0  0  0  0
   11.1140   29.6040   75.7620 C   0  0  0  0  0
   12.0130   30.7040   75.8610 C   0  0  0  0  0
   11.5100   32.0260   76.0400 C   0  0  0  0  0
   10.1100   32.2520   76.1210 C   0  0  0  0  0
    7.5490   32.1750   78.9240 C   0  0  0  0  0
    8.9060   32.2070   79.6980 C   0  0  0  0  0
    9.3060   33.3470   80.4750 C   0  0  0  0  0
   10.5410   33.3880   81.1820 C   0  0  0  0  0
   11.4390   32.3020   81.1550 C   0  0  0  0  0
   11.0680   31.1560   80.4000 C   0  0  0  0  0
    9.8160   31.1020   79.6760 C   0  0  0  0  0
   11.9980   29.9280   80.3290 C   0  0  0  0  0
   12.9640   30.1320   79.4200 F   0  0  0  0  0
   11.3230   28.8130   79.9770 F   0  0  0  0  0
   12.5800   29.6930   81.5150 F   0  0  0  0  0
    7.7720   33.5207   75.8393 H   0  0  0  0  0
    6.1800   32.0998   74.3247 H   0  0  0  0  0
    5.5890   36.2067   76.8047 H   0  0  0  0  0
    6.1764   38.0851   75.2504 H   0  0  0  0  0
   10.4027   37.4250   76.0433 H   0  0  0  0  0
    7.2886   31.0906   75.1397 H   0  0  0  0  0
    7.3597   30.7722   76.9778 H   0  0  0  0  0
    9.0277   28.9933   75.7721 H   0  0  0  0  0
   11.4961   28.5927   75.6230 H   0  0  0  0  0
   13.0881   30.5349   75.7998 H   0  0  0  0  0
   12.2014   32.8653   76.1149 H   0  0  0  0  0
    9.7347   33.2664   76.2563 H   0  0  0  0  0
    7.5388   31.2272   78.3857 H   0  0  0  0  0
    6.7764   32.3310   79.6769 H   0  0  0  0  0
    8.6416   34.2097   80.5250 H   0  0  0  0  0
   10.7975   34.2782   81.7564 H   0  0  0  0  0
   12.3854   32.3395   81.6945 H   0  0  0  0  0
    9.5625   30.2080   79.1063 H   0  0  0  0  0
  1  2  1  0  0  0
  1  6  1  0  0  0
  1 23  1  0  0  0
  2  3  1  0  0  0
  2 16  1  0  0  0
  3  4  1  0  0  0
  3  5  2  0  0  0
  6  7  2  0  0  0
  6  8  1  0  0  0
  8  9  4  0  0  0
  8 13  4  0  0  0
  9 10  4  0  0  0
 10 11  4  0  0  0
 11 12  4  0  0  0
 11 14  1  0  0  0
 12 13  4  0  0  0
 13 15  1  0  0  0
 16 17  1  0  0  0
 17 18  4  0  0  0
 17 22  4  0  0  0
 18 19  4  0  0  0
 19 20  4  0  0  0
 20 21  4  0  0  0
 21 22  4  0  0  0
 23 24  1  0  0  0
 24 25  4  0  0  0
 24 29  4  0  0  0
 25 26  4  0  0  0
 26 27  4  0  0  0
 27 28  4  0  0  0
 28 29  4  0  0  0
 28 30  1  0  0  0
 30 31  1  0  0  0
 30 32  1  0  0  0
 30 33  1  0  0  0
  2 34  1  0  0  0
  4 35  1  0  0  0
  9 36  1  0  0  0
 10 37  1  0  0  0
 12 38  1  0  0  0
 16 39  1  0  0  0
 16 40  1  0  0  0
 18 41  1  0  0  0
 19 42  1  0  0  0
 20 43  1  0  0  0
 21 44  1  0  0  0
 22 45  1  0  0  0
 23 46  1  0  0  0
 23 47  1  0  0  0
 25 48  1  0  0  0
 26 49  1  0  0  0
 27 50  1  0  0  0
 29 51  1  0  0  0
M  END
$$$$
