3hp9_ligand
  -I-interpret- 

 34 35  0  0  0  0  0  0  0  0999 V2000
   36.0090    0.7760   52.1580 O   0  0  0  0  0
   35.6480   -0.3810   51.8600 C   0  0  0  0  0
   36.1170   -0.9500   50.8520 O   0  0  0  0  0
   34.6360   -1.0940   52.7300 C   0  0  0  0  0
   34.2310   -2.3910   52.4010 C   0  0  0  0  0
   33.2980   -3.0590   53.2000 C   0  0  0  0  0
   32.8960   -4.3360   52.8800 O   0  0  0  0  0
   33.7800   -5.4530   53.0460 C   0  0  0  0  0
   32.7610   -2.4300   54.3220 C   0  0  0  0  0
   33.1620   -1.1380   54.6580 C   0  0  0  0  0
   34.0830   -0.4600   53.8540 C   0  0  0  0  0
   34.4330    0.8240   54.1250 N   0  0  0  0  0
   33.6120    1.8410   54.5250 C   0  0  0  0  0
   34.2200    3.0370   54.8730 C   0  0  0  0  0
   35.9870    3.1570   54.7830 Cl  0  0  0  0  0
   33.4820    4.1400   55.2820 C   0  0  0  0  0
   32.1030    4.0500   55.3560 C   0  0  0  0  0
   32.2160    1.7470   54.5840 C   0  0  0  0  0
   31.4670    2.8550   55.0010 C   0  0  0  0  0
   29.9730    2.7990   55.0930 C   0  0  0  0  0
   29.6200    3.1560   56.3070 F   0  0  0  0  0
   29.4610    3.6410   54.2250 F   0  0  0  0  0
   29.5110    1.5880   54.8330 F   0  0  0  0  0
   35.7333   -1.8264   50.7731 H   0  0  0  0  0
   34.6434   -2.8825   51.5198 H   0  0  0  0  0
   34.6688   -5.3056   52.4326 H   0  0  0  0  0
   34.0693   -5.5331   54.0938 H   0  0  0  0  0
   33.2713   -6.3663   52.7373 H   0  0  0  0  0
   32.0264   -2.9492   54.9376 H   0  0  0  0  0
   32.7573   -0.6561   55.5480 H   0  0  0  0  0
   35.4205    1.0557   54.0179 H   0  0  0  0  0
   33.9857    5.0707   55.5431 H   0  0  0  0  0
   31.5153    4.9054   55.6891 H   0  0  0  0  0
   31.7160    0.8187   54.3076 H   0  0  0  0  0
  1  2  2  0  0  0
  2  3  1  0  0  0
  2  4  1  0  0  0
  4  5  4  0  0  0
  4 11  4  0  0  0
  5  6  4  0  0  0
  6  7  1  0  0  0
  6  9  4  0  0  0
  7  8  1  0  0  0
  9 10  4  0  0  0
 10 11  4  0  0  0
 11 12  1  0  0  0
 12 13  1  0  0  0
 13 14  4  0  0  0
 13 18  4  0  0  0
 14 15  1  0  0  0
 14 16  4  0  0  0
 16 17  4  0  0  0
 17 19  4  0  0  0
 18 19  4  0  0  0
 19 20  1  0  0  0
 20 21  1  0  0  0
 20 22  1  0  0  0
 20 23  1  0  0  0
  3 24  1  0  0  0
  5 25  1  0  0  0
  8 26  1  0  0  0
  8 27  1  0  0  0
  8 28  1  0  0  0
  9 29  1  0  0  0
 10 30  1  0  0  0
 12 31  1  0  0  0
 16 32  1  0  0  0
 17 33  1  0  0  0
 18 34  1  0  0  0
M  END
$$$$
