3s3i_ligand
  -I-interpret- 

 50 53  0  0  0  0  0  0  0  0999 V2000
    6.9830   29.5440   31.0730 C   0  0  0  0  0
    5.7790   30.1950   31.3990 C   0  0  0  0  0
    4.6760   30.0220   30.5650 C   0  0  0  0  0
    4.7900   29.1620   29.4490 C   0  0  0  0  0
    5.9750   28.5320   29.0960 C   0  0  0  0  0
    7.0960   28.7560   29.9230 C   0  0  0  0  0
    3.3750   30.5370   30.7200 C   0  0  0  0  0
    2.9530   31.6830   30.0050 C   0  0  0  0  0
    1.6500   32.1350   30.1510 C   0  0  0  0  0
    0.7880   31.4550   31.0080 N   0  0  0  0  0
    1.1850   30.2370   31.7010 C   0  0  0  0  0
    2.4980   29.8150   31.5450 C   0  0  0  0  0
    0.9610   33.1870   29.6460 N   0  0  0  0  0
   -0.2490   33.1940   30.0380 N   0  0  0  0  0
   -0.4660   32.1710   30.9040 C   0  0  0  0  0
   -1.8340   31.7700   31.5840 C   0  0  0  0  0
    5.6810   31.0640   32.6390 C   0  0  0  0  0
    5.9630   27.6530   27.8240 C   0  0  0  0  0
    6.8520   26.6460   27.7280 N   0  0  0  0  0
    6.9360   25.7480   26.5820 C   0  0  0  0  0
    7.1770   26.4590   25.2880 C   0  0  0  0  0
    8.3000   25.6460   25.9180 C   0  0  0  0  0
    5.1540   27.8980   26.9440 O   0  0  0  0  0
   -2.9280   32.7050   31.1570 C   0  0  0  0  0
   -1.7000   31.7690   33.1000 C   0  0  0  0  0
   -2.2800   30.3590   31.0450 C   0  0  0  0  0
    7.8454   29.6561   31.7302 H   0  0  0  0  0
    3.9055   28.9854   28.8369 H   0  0  0  0  0
    8.0570   28.3117   29.6638 H   0  0  0  0  0
    3.6458   32.2057   29.3455 H   0  0  0  0  0
    0.4796   29.6795   32.3172 H   0  0  0  0  0
    2.8485   28.9225   32.0633 H   0  0  0  0  0
    5.8952   30.4611   33.5215 H   0  0  0  0  0
    6.4032   31.8774   32.5690 H   0  0  0  0  0
    4.6745   31.4755   32.7141 H   0  0  0  0  0
    7.5031   26.5034   28.5001 H   0  0  0  0  0
    6.2193   25.0146   26.9515 H   0  0  0  0  0
    7.0302   27.4534   24.8665 H   0  0  0  0  0
    6.6956   26.5646   24.3158 H   0  0  0  0  0
    9.0275   24.8847   25.6367 H   0  0  0  0  0
    9.3541   25.7523   26.1742 H   0  0  0  0  0
   -2.6704   33.7223   31.4518 H   0  0  0  0  0
   -3.0430   32.6572   30.0741 H   0  0  0  0  0
   -3.8622   32.4120   31.6361 H   0  0  0  0  0
   -0.9348   31.0511   33.3954 H   0  0  0  0  0
   -1.4156   32.7651   33.4390 H   0  0  0  0  0
   -2.6539   31.4901   33.5476 H   0  0  0  0  0
   -2.4068   30.4081   29.9635 H   0  0  0  0  0
   -1.5167   29.6202   31.2895 H   0  0  0  0  0
   -3.2241   30.0756   31.5103 H   0  0  0  0  0
  1  2  4  0  0  0
  1  6  4  0  0  0
  2  3  4  0  0  0
  2 17  1  0  0  0
  3  4  4  0  0  0
  3  7  1  0  0  0
  4  5  4  0  0  0
  5  6  4  0  0  0
  5 18  1  0  0  0
  7  8  4  0  0  0
  7 12  4  0  0  0
  8  9  4  0  0  0
  9 10  4  0  0  0
  9 13  4  0  0  0
 10 11  4  0  0  0
 10 15  4  0  0  0
 11 12  4  0  0  0
 13 14  4  0  0  0
 14 15  4  0  0  0
 15 16  1  0  0  0
 16 24  1  0  0  0
 16 25  1  0  0  0
 16 26  1  0  0  0
 18 19  1  0  0  0
 18 23  2  0  0  0
 19 20  1  0  0  0
 20 21  1  0  0  0
 20 22  1  0  0  0
 21 22  1  0  0  0
  1 27  1  0  0  0
  4 28  1  0  0  0
  6 29  1  0  0  0
  8 30  1  0  0  0
 11 31  1  0  0  0
 12 32  1  0  0  0
 17 33  1  0  0  0
 17 34  1  0  0  0
 17 35  1  0  0  0
 19 36  1  0  0  0
 20 37  1  0  0  0
 21 38  1  0  0  0
 21 39  1  0  0  0
 22 40  1  0  0  0
 22 41  1  0  0  0
 24 42  1  0  0  0
 24 43  1  0  0  0
 24 44  1  0  0  0
 25 45  1  0  0  0
 25 46  1  0  0  0
 25 47  1  0  0  0
 26 48  1  0  0  0
 26 49  1  0  0  0
 26 50  1  0  0  0
M  END
$$$$
