1ugw_ligand
  -I-interpret- 

 24 24  0  0  0  0  0  0  0  0999 V2000
   51.6000   54.8790   66.4450 C   0  0  0  0  0
   52.3290   56.2270   66.1850 C   0  0  0  0  0
   52.2690   57.1440   67.4150 C   0  0  0  0  0
   50.8020   57.2860   67.8870 C   0  0  0  0  0
   50.2500   55.8880   68.1320 C   0  0  0  0  0
   48.8390   55.8830   68.6790 C   0  0  0  0  0
   51.4950   54.1580   65.2640 O   0  0  0  0  0
   53.6850   55.9710   65.8490 O   0  0  0  0  0
   52.7810   58.4100   67.0500 O   0  0  0  0  0
   50.0350   57.9420   66.8770 O   0  0  0  0  0
   50.2660   55.1280   66.9050 O   0  0  0  0  0
   47.8880   56.1630   67.6700 O   0  0  0  0  0
   52.1727   54.3236   67.1877 H   0  0  0  0  0
   51.8262   56.7338   65.3613 H   0  0  0  0  0
   52.8590   56.7230   68.2291 H   0  0  0  0  0
   50.7502   57.8770   68.8014 H   0  0  0  0  0
   50.8976   55.4382   68.8846 H   0  0  0  0  0
   48.7644   56.6540   69.4459 H   0  0  0  0  0
   48.6302   54.8927   69.0836 H   0  0  0  0  0
   52.3736   53.9720   64.9248 H   0  0  0  0  0
   53.7202   55.3976   65.0799 H   0  0  0  0  0
   53.6906   58.3141   66.7585 H   0  0  0  0  0
   50.3892   58.8219   66.7287 H   0  0  0  0  0
   47.0067   56.1519   68.0505 H   0  0  0  0  0
  1  2  1  0  0  0
  1  7  1  0  0  0
  1 11  1  0  0  0
  2  3  1  0  0  0
  2  8  1  0  0  0
  3  4  1  0  0  0
  3  9  1  0  0  0
  4  5  1  0  0  0
  4 10  1  0  0  0
  5  6  1  0  0  0
  5 11  1  0  0  0
  6 12  1  0  0  0
  1 13  1  0  0  0
  2 14  1  0  0  0
  3 15  1  0  0  0
  4 16  1  0  0  0
  5 17  1  0  0  0
  6 18  1  0  0  0
  6 19  1  0  0  0
  7 20  1  0  0  0
  8 21  1  0  0  0
  9 22  1  0  0  0
 10 23  1  0  0  0
 12 24  1  0  0  0
M  END
$$$$
