3lbj_ligand
  -I-interpret- 

 83 88  0  0  0  0  0  0  0  0999 V2000
   15.4330   -6.5810    4.9840 C   0  0  0  0  0
   16.4450   -6.3180    5.9000 C   0  0  0  0  0
   16.9210   -7.5330    7.0300 Cl  0  0  0  0  0
   17.0910   -5.0870    5.8940 C   0  0  0  0  0
   16.7210   -4.0870    4.9890 C   0  0  0  0  0
   15.7130   -4.3590    4.0730 C   0  0  0  0  0
   15.0650   -5.5890    4.0970 C   0  0  0  0  0
   14.1750   -5.6050    3.1360 N   0  0  0  0  0
   14.1750   -4.4420    2.5120 C   0  0  0  0  0
   13.2140   -4.2420    1.3740 C   0  0  0  0  0
   12.9040   -5.2480    0.7270 O   0  0  0  0  0
   12.6710   -3.0850    1.0600 N   0  0  0  0  0
   12.8390   -1.8290    1.8120 C   0  0  0  0  0
   11.5690   -1.0950    1.4220 C   0  0  0  0  0
   11.6450    0.3280    1.7340 N   0  3  0  0  0
   12.0730    0.7380    3.0620 C   0  0  0  0  0
   12.7070    2.1190    3.1440 C   0  0  0  0  0
   13.0530    2.2500    4.6170 C   0  0  0  0  0
   13.2080    3.6120    5.0680 N   0  3  0  0  0
   13.4130    4.0040    6.4330 C   0  0  0  0  0
   14.5030    4.0160    4.5180 C   0  0  0  0  0
   10.8070    1.2150    0.9420 C   0  0  0  0  0
   11.3520   -1.4460   -0.0600 C   0  0  0  0  0
   11.7160   -2.9390   -0.0660 C   0  0  0  0  0
   15.1110   -3.5930    3.0880 C   0  0  0  0  0
   15.5830   -2.3260    2.7040 C   0  0  0  0  0
   15.7760   -1.1580    3.4410 C   0  0  0  0  0
   15.3500   -0.8220    4.7210 C   0  0  0  0  0
   16.0340    0.1950    5.3760 C   0  0  0  0  0
   15.6210    0.6210    6.6400 C   0  0  0  0  0
   14.5210    0.0060    7.2570 C   0  0  0  0  0
   13.8580   -1.0160    6.5800 C   0  0  0  0  0
   14.2740   -1.4480    5.3270 C   0  0  0  0  0
   16.3590   -0.2480    2.6450 N   0  0  0  0  0
   16.6040   -0.8210    1.4760 C   0  0  0  0  0
   16.1620   -2.0590    1.5200 N   0  0  0  0  0
   16.2950   -2.9700    0.3860 C   0  0  0  0  0
   17.3100   -4.0810    0.7390 C   0  0  0  0  0
   16.9410   -5.4090    0.6070 C   0  0  0  0  0
   17.8310   -6.4330    0.9180 C   0  0  0  0  0
   19.1030   -6.1490    1.3930 C   0  0  0  0  0
   20.2250   -7.4080    1.7940 Cl  0  0  0  0  0
   19.4720   -4.8300    1.5460 C   0  0  0  0  0
   18.5750   -3.7920    1.2360 C   0  0  0  0  0
   14.9391   -7.5525    4.9663 H   0  0  0  0  0
   17.8964   -4.8988    6.6039 H   0  0  0  0  0
   17.2133   -3.1146    5.0022 H   0  0  0  0  0
   13.7550   -1.2883    1.5739 H   0  0  0  0  0
   12.9593   -1.9677    2.8864 H   0  0  0  0  0
   10.6958   -1.4030    1.9971 H   0  0  0  0  0
   12.5472    0.5545    1.3155 H   0  0  0  0  0
   12.8351    0.0256    3.3779 H   0  0  0  0  0
   11.1775    0.7685    3.6828 H   0  0  0  0  0
   12.0432    2.9097    2.7944 H   0  0  0  0  0
   13.5766    2.2235    2.4952 H   0  0  0  0  0
   14.0093    1.7496    4.7690 H   0  0  0  0  0
   12.2279    1.8157    5.1815 H   0  0  0  0  0
   12.3013    4.0009    4.8088 H   0  0  0  0  0
   12.5677    3.6721    7.0359 H   0  0  0  0  0
   14.3293    3.5474    6.8071 H   0  0  0  0  0
   13.4972    5.0893    6.4893 H   0  0  0  0  0
   15.2821    3.3607    4.9075 H   0  0  0  0  0
   14.4738    3.9416    3.4309 H   0  0  0  0  0
   14.7140    5.0454    4.8075 H   0  0  0  0  0
   11.0788    1.1264   -0.1098 H   0  0  0  0  0
    9.7611    0.9375    1.0729 H   0  0  0  0  0
   10.9554    2.2433    1.2716 H   0  0  0  0  0
   11.9478   -0.8447   -0.7467 H   0  0  0  0  0
   10.3443   -1.2370   -0.4191 H   0  0  0  0  0
   10.8399   -3.5766    0.0523 H   0  0  0  0  0
   12.1487   -3.2532   -1.0158 H   0  0  0  0  0
   16.8967    0.6622    4.9010 H   0  0  0  0  0
   16.1511    1.4282    7.1455 H   0  0  0  0  0
   14.1913    0.3215    8.2469 H   0  0  0  0  0
   12.9922   -1.4877    7.0449 H   0  0  0  0  0
   13.7600   -2.2691    4.8274 H   0  0  0  0  0
   17.0893   -0.3471    0.6228 H   0  0  0  0  0
   16.6467   -2.4183   -0.4858 H   0  0  0  0  0
   15.3268   -3.4181    0.1626 H   0  0  0  0  0
   15.9395   -5.6560    0.2546 H   0  0  0  0  0
   17.5247   -7.4708    0.7867 H   0  0  0  0  0
   20.4702   -4.5885    1.9113 H   0  0  0  0  0
   18.8739   -2.7547    1.3865 H   0  0  0  0  0
  1  2  4  0  0  0
  1  7  4  0  0  0
  2  3  1  0  0  0
  2  4  4  0  0  0
  4  5  4  0  0  0
  5  6  4  0  0  0
  6  7  4  0  0  0
  6 25  4  0  0  0
  7  8  4  0  0  0
  8  9  4  0  0  0
  9 10  1  0  0  0
  9 25  4  0  0  0
 10 11  2  0  0  0
 10 12  1  0  0  0
 12 13  1  0  0  0
 12 24  1  0  0  0
 13 14  1  0  0  0
 14 15  1  0  0  0
 14 23  1  0  0  0
 15 16  1  0  0  0
 15 22  1  0  0  0
 16 17  1  0  0  0
 17 18  1  0  0  0
 18 19  1  0  0  0
 19 20  1  0  0  0
 19 21  1  0  0  0
 23 24  1  0  0  0
 25 26  1  0  0  0
 26 27  4  0  0  0
 26 36  4  0  0  0
 27 28  1  0  0  0
 27 34  4  0  0  0
 28 29  4  0  0  0
 28 33  4  0  0  0
 29 30  4  0  0  0
 30 31  4  0  0  0
 31 32  4  0  0  0
 32 33  4  0  0  0
 34 35  4  0  0  0
 35 36  4  0  0  0
 36 37  1  0  0  0
 37 38  1  0  0  0
 38 39  4  0  0  0
 38 44  4  0  0  0
 39 40  4  0  0  0
 40 41  4  0  0  0
 41 42  1  0  0  0
 41 43  4  0  0  0
 43 44  4  0  0  0
  1 45  1  0  0  0
  4 46  1  0  0  0
  5 47  1  0  0  0
 13 48  1  0  0  0
 13 49  1  0  0  0
 14 50  1  0  0  0
 15 51  1  0  0  0
 16 52  1  0  0  0
 16 53  1  0  0  0
 17 54  1  0  0  0
 17 55  1  0  0  0
 18 56  1  0  0  0
 18 57  1  0  0  0
 19 58  1  0  0  0
 20 59  1  0  0  0
 20 60  1  0  0  0
 20 61  1  0  0  0
 21 62  1  0  0  0
 21 63  1  0  0  0
 21 64  1  0  0  0
 22 65  1  0  0  0
 22 66  1  0  0  0
 22 67  1  0  0  0
 23 68  1  0  0  0
 23 69  1  0  0  0
 24 70  1  0  0  0
 24 71  1  0  0  0
 29 72  1  0  0  0
 30 73  1  0  0  0
 31 74  1  0  0  0
 32 75  1  0  0  0
 33 76  1  0  0  0
 35 77  1  0  0  0
 37 78  1  0  0  0
 37 79  1  0  0  0
 39 80  1  0  0  0
 40 81  1  0  0  0
 43 82  1  0  0  0
 44 83  1  0  0  0
M  END
$$$$
