4dus_ligand
  -I-interpret- 

 74 77  0  0  0  0  0  0  0  0999 V2000
   61.0590   45.4090    9.3810 C   0  0  0  0  0
   60.7700   43.9410    9.0450 C   0  0  0  0  0
   62.2680   43.6110    9.1040 C   0  0  0  0  0
   62.5710   45.1050    9.3310 C   0  0  0  0  0
   63.3010   45.7280    8.1240 C   0  0  0  0  0
   63.2430   45.3710   10.5610 O   0  0  0  0  0
   63.4680   46.7020   10.8150 C   0  0  0  0  0
   63.6200   47.0760   12.1050 N   0  0  0  0  0
   63.8590   48.3380   12.4470 C   0  0  0  0  0
   63.9540   49.3280   11.4670 C   0  0  0  0  0
   64.2250   50.7730   11.8800 C   0  0  0  0  0
   62.9740   51.5320   12.3000 C   0  0  0  0  0
   62.2020   50.6880   13.3150 C   0  0  0  0  0
   62.0810   51.8760   11.0900 C   0  0  0  0  0
   63.4210   52.8470   12.9560 C   0  0  0  0  0
   63.8060   48.9850   10.1160 C   0  0  0  0  0
   63.5700   47.6550    9.7860 C   0  0  0  0  0
   63.3910   47.2520    8.3060 C   0  0  0  0  0
   64.4460   47.8080    7.4400 N   0  3  0  0  0
   65.8280   47.4400    7.7990 C   0  0  0  0  0
   66.7610   48.4800    7.1570 C   0  0  0  0  0
   66.3080   49.7980    7.4780 O   0  0  0  0  0
   68.2040   48.3230    7.6240 C   0  0  0  0  0
   68.7530   47.0330    7.1570 N   0  0  0  0  0
   68.8890   46.0150    8.0050 C   0  0  0  0  0
   69.4430   44.7150    7.4030 C   0  0  0  0  0
   68.5640   46.0780    9.1900 O   0  0  0  0  0
   69.0620   49.5030    7.1410 C   0  0  0  0  0
   70.5520   49.2200    7.3590 C   0  0  0  0  0
   71.3970   49.0440    6.2770 C   0  0  0  0  0
   72.7410   48.7720    6.5020 C   0  0  0  0  0
   73.2280   48.6870    7.8030 C   0  0  0  0  0
   74.5290   48.4340    8.0340 F   0  0  0  0  0
   72.3830   48.8490    8.8800 C   0  0  0  0  0
   71.0400   49.1130    8.6480 C   0  0  0  0  0
   60.6184   45.8689   10.2656 H   0  0  0  0  0
   60.6370   46.2074    8.7706 H   0  0  0  0  0
   60.2005   43.6967    8.1483 H   0  0  0  0  0
   60.0703   43.3761    9.6610 H   0  0  0  0  0
   62.7455   43.0699    8.2871 H   0  0  0  0  0
   62.6399   42.8611    9.8022 H   0  0  0  0  0
   62.7483   45.5043    7.2116 H   0  0  0  0  0
   64.3059   45.3116    8.0542 H   0  0  0  0  0
   63.9814   48.6013   13.4976 H   0  0  0  0  0
   64.6439   51.2870   11.0149 H   0  0  0  0  0
   64.8952   50.7470   12.7392 H   0  0  0  0  0
   61.9225   49.7385   12.8584 H   0  0  0  0  0
   62.8316   50.5027   14.1853 H   0  0  0  0  0
   61.3036   51.2233   13.6223 H   0  0  0  0  0
   62.6414   52.4975   10.3915 H   0  0  0  0  0
   61.7737   50.9556   10.5935 H   0  0  0  0  0
   61.1992   52.4172   11.4330 H   0  0  0  0  0
   64.0398   52.6257   13.8256 H   0  0  0  0  0
   63.9963   53.4322   12.2386 H   0  0  0  0  0
   62.5431   53.4129   13.2676 H   0  0  0  0  0
   63.8746   49.7463    9.3389 H   0  0  0  0  0
   62.4405   47.6860    7.9957 H   0  0  0  0  0
   64.3856   48.8225    7.5263 H   0  0  0  0  0
   64.2806   47.4328    6.5060 H   0  0  0  0  0
   66.0637   46.4394    7.4367 H   0  0  0  0  0
   65.9525   47.4313    8.8818 H   0  0  0  0  0
   66.7351   48.3184    6.0794 H   0  0  0  0  0
   66.8935   50.4434    7.0751 H   0  0  0  0  0
   68.2233   48.3256    8.7138 H   0  0  0  0  0
   69.0289   46.9217    6.1813 H   0  0  0  0  0
   70.3532   44.4306    7.9309 H   0  0  0  0  0
   68.7003   43.9237    7.5045 H   0  0  0  0  0
   69.6672   44.8714    6.3478 H   0  0  0  0  0
   68.7871   50.3920    7.7086 H   0  0  0  0  0
   68.8855   49.6522    6.0758 H   0  0  0  0  0
   71.0125   49.1179    5.2598 H   0  0  0  0  0
   73.4150   48.6250    5.6581 H   0  0  0  0  0
   72.7636   48.7710    9.8984 H   0  0  0  0  0
   70.3621   49.2374    9.4924 H   0  0  0  0  0
  1  2  1  0  0  0
  1  4  1  0  0  0
  2  3  1  0  0  0
  3  4  1  0  0  0
  4  5  1  0  0  0
  4  6  1  0  0  0
  5 18  1  0  0  0
  6  7  1  0  0  0
  7  8  4  0  0  0
  7 17  4  0  0  0
  8  9  4  0  0  0
  9 10  4  0  0  0
 10 11  1  0  0  0
 10 16  4  0  0  0
 11 12  1  0  0  0
 12 13  1  0  0  0
 12 14  1  0  0  0
 12 15  1  0  0  0
 16 17  4  0  0  0
 17 18  1  0  0  0
 18 19  1  0  0  0
 19 20  1  0  0  0
 20 21  1  0  0  0
 21 22  1  0  0  0
 21 23  1  0  0  0
 23 24  1  0  0  0
 23 28  1  0  0  0
 24 25  1  0  0  0
 25 26  1  0  0  0
 25 27  2  0  0  0
 28 29  1  0  0  0
 29 30  4  0  0  0
 29 35  4  0  0  0
 30 31  4  0  0  0
 31 32  4  0  0  0
 32 33  1  0  0  0
 32 34  4  0  0  0
 34 35  4  0  0  0
  1 36  1  0  0  0
  1 37  1  0  0  0
  2 38  1  0  0  0
  2 39  1  0  0  0
  3 40  1  0  0  0
  3 41  1  0  0  0
  5 42  1  0  0  0
  5 43  1  0  0  0
  9 44  1  0  0  0
 11 45  1  0  0  0
 11 46  1  0  0  0
 13 47  1  0  0  0
 13 48  1  0  0  0
 13 49  1  0  0  0
 14 50  1  0  0  0
 14 51  1  0  0  0
 14 52  1  0  0  0
 15 53  1  0  0  0
 15 54  1  0  0  0
 15 55  1  0  0  0
 16 56  1  0  0  0
 18 57  1  0  0  0
 19 58  1  0  0  0
 19 59  1  0  0  0
 20 60  1  0  0  0
 20 61  1  0  0  0
 21 62  1  0  0  0
 22 63  1  0  0  0
 23 64  1  0  0  0
 24 65  1  0  0  0
 26 66  1  0  0  0
 26 67  1  0  0  0
 26 68  1  0  0  0
 28 69  1  0  0  0
 28 70  1  0  0  0
 30 71  1  0  0  0
 31 72  1  0  0  0
 34 73  1  0  0  0
 35 74  1  0  0  0
M  END
$$$$
