3t9t_ligand
  -I-interpret- 

 58 61  0  0  0  0  0  0  0  0999 V2000
   -1.9210    7.1390    8.4490 C   0  0  0  0  0
   -1.0540    6.9140    9.5170 C   0  0  0  0  0
   -1.1050    5.7200   10.2300 C   0  0  0  0  0
   -3.7870    6.4000    6.9330 C   0  0  0  0  0
   -8.5800    2.6600   10.9270 C   0  0  0  0  0
   -8.2370    4.4370   12.5330 C   0  0  0  0  0
   -7.4530    1.2600    8.4700 C   0  0  0  0  0
  -11.4350    3.1850   11.8580 C   0  0  0  0  0
   -9.0120    2.1240   14.5890 C   0  0  0  0  0
   -8.5850    2.6970   15.7210 C   0  0  0  0  0
  -11.2890    2.3770   14.5550 O   0  0  0  0  0
  -10.2510    2.5520   13.9160 C   0  0  0  0  0
   -9.1980    3.8920   16.3970 C   0  0  0  0  0
   -8.9740    3.9130   17.8350 N   0  3  0  0  0
  -10.1560    3.4450   18.5460 C   0  0  0  0  0
   -8.6320    5.2620   18.2690 C   0  0  0  0  0
  -10.2270    3.0390   12.6660 N   0  0  0  0  0
   -9.0070    3.3830   12.0540 C   0  0  0  0  0
   -8.6120    5.1550   13.6080 F   0  0  0  0  0
   -7.0300    4.7490   11.9010 C   0  0  0  0  0
   -6.5970    4.0290   10.7900 C   0  0  0  0  0
   -5.4090    4.3760   10.2090 N   0  0  0  0  0
   -7.3780    2.9840   10.2850 C   0  0  0  0  0
   -6.8980    2.2770    9.1550 N   0  0  0  0  0
   -6.6370    0.9180    7.4420 N   0  0  0  0  0
   -5.5540    1.7250    7.4650 C   0  0  0  0  0
   -5.7420    2.6040    8.5770 C   0  0  0  0  0
   -4.9450    3.7200    9.1260 C   0  0  0  0  0
   -3.7930    3.9970    8.4800 N   0  0  0  0  0
   -2.9030    4.9640    8.8230 C   0  0  0  0  0
   -2.8460    6.1500    8.0920 C   0  0  0  0  0
   -2.0330    4.7330    9.8930 C   0  0  0  0  0
   -1.8793    8.0774    7.8960 H   0  0  0  0  0
   -0.3301    7.6796    9.7960 H   0  0  0  0  0
   -0.4153    5.5542   11.0576 H   0  0  0  0  0
   -4.3970    7.2781    7.1448 H   0  0  0  0  0
   -3.2070    6.5691    6.0257 H   0  0  0  0  0
   -4.4322    5.5321    6.7968 H   0  0  0  0  0
   -9.1899    1.8395   10.5490 H   0  0  0  0  0
   -8.4065    0.7866    8.7041 H   0  0  0  0  0
  -11.9022    2.2091   11.7257 H   0  0  0  0  0
  -12.1295    3.8563   12.3631 H   0  0  0  0  0
  -11.1716    3.5981   10.8843 H   0  0  0  0  0
   -8.4252    1.3162   14.1518 H   0  0  0  0  0
   -7.7100    2.2554   16.1979 H   0  0  0  0  0
  -10.2744    3.8504   16.2304 H   0  0  0  0  0
   -8.7337    4.7842   15.9768 H   0  0  0  0  0
   -8.1980    3.2868   18.0497 H   0  0  0  0  0
  -11.0004    4.0928   18.3105 H   0  0  0  0  0
  -10.3828    2.4241   18.2386 H   0  0  0  0  0
   -9.9662    3.4690   19.6191 H   0  0  0  0  0
   -7.7245    5.5869   17.7602 H   0  0  0  0  0
   -9.4499    5.9395   18.0238 H   0  0  0  0  0
   -8.4668    5.2648   19.3464 H   0  0  0  0  0
   -6.4191    5.5670   12.2828 H   0  0  0  0  0
   -4.7092    1.7093    6.7764 H   0  0  0  0  0
   -3.5710    3.4300    7.6617 H   0  0  0  0  0
   -2.0785    3.7994   10.4537 H   0  0  0  0  0
  1  2  4  0  0  0
 31  1  4  0  0  0
  2  3  4  0  0  0
  3 32  4  0  0  0
 31  4  1  0  0  0
  5 18  4  0  0  0
 23  5  4  0  0  0
  6 18  4  0  0  0
  6 19  1  0  0  0
 20  6  4  0  0  0
 24  7  4  0  0  0
 25  7  4  0  0  0
 17  8  1  0  0  0
  9 10  2  0  0  0
 12  9  1  0  0  0
 10 13  1  0  0  0
 12 11  2  0  0  0
 17 12  1  0  0  0
 13 14  1  0  0  0
 14 15  1  0  0  0
 14 16  1  0  0  0
 18 17  1  0  0  0
 21 20  4  0  0  0
 22 21  4  0  0  0
 21 23  4  0  0  0
 28 22  4  0  0  0
 24 23  4  0  0  0
 27 24  4  0  0  0
 26 25  4  0  0  0
 27 26  4  0  0  0
 28 27  4  0  0  0
 29 28  1  0  0  0
 30 29  1  0  0  0
 30 31  4  0  0  0
 30 32  4  0  0  0
  1 33  1  0  0  0
  2 34  1  0  0  0
  3 35  1  0  0  0
  4 36  1  0  0  0
  4 37  1  0  0  0
  4 38  1  0  0  0
  5 39  1  0  0  0
  7 40  1  0  0  0
  8 41  1  0  0  0
  8 42  1  0  0  0
  8 43  1  0  0  0
  9 44  1  0  0  0
 10 45  1  0  0  0
 13 46  1  0  0  0
 13 47  1  0  0  0
 14 48  1  0  0  0
 15 49  1  0  0  0
 15 50  1  0  0  0
 15 51  1  0  0  0
 16 52  1  0  0  0
 16 53  1  0  0  0
 16 54  1  0  0  0
 20 55  1  0  0  0
 26 56  1  0  0  0
 29 57  1  0  0  0
 32 58  1  0  0  0
M  END
$$$$
