### 
### Created by X-TOOL on Mon Sep 10 21:13:05 2018
### 

@<TRIPOS>MOLECULE
3t9t_ligand
   57    60     1     0     0
SMALL
GAST_HUCK


@<TRIPOS>ATOM
      1 C4         -1.9210    7.1390    8.4490 C.ar      1 IAQ        -0.0696
      2 C5         -1.0540    6.9140    9.5170 C.ar      1 IAQ        -0.0800
      3 C6         -1.1050    5.7200   10.2300 C.ar      1 IAQ        -0.0783
      4 C7         -3.7870    6.4000    6.9330 C.3       1 IAQ        -0.0333
      5 C13        -8.5800    2.6600   10.9270 C.ar      1 IAQ        -0.0087
      6 C15        -8.2370    4.4370   12.5330 C.ar      1 IAQ         0.1443
      7 C21        -7.4530    1.2600    8.4700 C.2       1 IAQ         0.1166
      8 C24       -11.4350    3.1850   11.8580 C.3       1 IAQ         0.0421
      9 C26        -9.0120    2.1240   14.5890 C.2       1 IAQ         0.0012
     10 C28        -8.5850    2.6970   15.7210 C.2       1 IAQ        -0.0793
     11 O27       -11.2890    2.3770   14.5550 O.2       1 IAQ        -0.3903
     12 C25       -10.2510    2.5520   13.9160 C.2       1 IAQ         0.2042
     13 C29        -9.1980    3.8920   16.3970 C.3       1 IAQ        -0.0717
     14 N30        -8.9740    3.9130   17.8350 N.4       1 IAQ         0.4057
     15 C32       -10.1560    3.4450   18.5460 C.3       1 IAQ        -0.1222
     16 C31        -8.6320    5.2620   18.2690 C.3       1 IAQ        -0.1222
     17 N23       -10.2270    3.0390   12.6660 N.am      1 IAQ        -0.2298
     18 C14        -9.0070    3.3830   12.0540 C.ar      1 IAQ         0.0958
     19 F22        -8.6120    5.1550   13.6080 F         1 IAQ        -0.1972
     20 C16        -7.0300    4.7490   11.9010 C.ar      1 IAQ        -0.0312
     21 C11        -6.5970    4.0290   10.7900 C.ar      1 IAQ         0.0321
     22 N10        -5.4090    4.3760   10.2090 N.2       1 IAQ        -0.3074
     23 C12        -7.3780    2.9840   10.2850 C.ar      1 IAQ         0.0994
     24 N17        -6.8980    2.2770    9.1550 N.pl3     1 IAQ        -0.1993
     25 N20        -6.6370    0.9180    7.4420 N.2       1 IAQ        -0.3180
     26 C19        -5.5540    1.7250    7.4650 C.2       1 IAQ         0.0028
     27 C18        -5.7420    2.6040    8.5770 C.2       1 IAQ         0.1477
     28 C9         -4.9450    3.7200    9.1260 C.2       1 IAQ         0.1592
     29 N8         -3.7930    3.9970    8.4800 N.pl3     1 IAQ        -0.2536
     30 C2         -2.9030    4.9640    8.8230 C.ar      1 IAQ         0.0674
     31 C3         -2.8460    6.1500    8.0920 C.ar      1 IAQ        -0.0212
     32 C1         -2.0330    4.7330    9.8930 C.ar      1 IAQ        -0.0443
     33 H          -1.8793    8.0774    7.8960 H         1 IAQ         0.0524
     34 H          -0.3301    7.6796    9.7960 H         1 IAQ         0.0503
     35 H          -0.4153    5.5542   11.0576 H         1 IAQ         0.0530
     36 H          -3.6422    5.6290    6.1763 H         1 IAQ         0.0369
     37 H          -4.8165    6.3718    7.2899 H         1 IAQ         0.0369
     38 H          -3.5775    7.3786    6.5011 H         1 IAQ         0.0369
     39 H          -9.1899    1.8395   10.5490 H         1 IAQ         0.0440
     40 H          -8.4065    0.7866    8.7041 H         1 IAQ         0.1236
     41 H         -11.9022    2.2091   11.7257 H         1 IAQ         0.0547
     42 H         -12.1295    3.8563   12.3631 H         1 IAQ         0.0547
     43 H         -11.1716    3.5981   10.8843 H         1 IAQ         0.0547
     44 H          -8.4252    1.3162   14.1518 H         1 IAQ         0.0477
     45 H          -7.7100    2.2554   16.1979 H         1 IAQ         0.0824
     46 H         -10.2744    3.8504   16.2304 H         1 IAQ         0.0246
     47 H          -8.7337    4.7842   15.9768 H         1 IAQ         0.0246
     48 H         -11.0004    4.0928   18.3105 H         1 IAQ        -0.0015
     49 H         -10.3828    2.4241   18.2386 H         1 IAQ        -0.0015
     50 H          -9.9662    3.4690   19.6191 H         1 IAQ        -0.0015
     51 H          -7.7245    5.5869   17.7602 H         1 IAQ        -0.0015
     52 H          -9.4499    5.9395   18.0238 H         1 IAQ        -0.0015
     53 H          -8.4668    5.2648   19.3464 H         1 IAQ        -0.0015
     54 H          -6.4191    5.5670   12.2828 H         1 IAQ         0.0508
     55 H          -4.7092    1.7093    6.7764 H         1 IAQ         0.0523
     56 H          -3.5710    3.4300    7.6617 H         1 IAQ         0.2158
     57 H          -2.0785    3.7994   10.4537 H         1 IAQ         0.0516
@<TRIPOS>BOND
     1    1    2 ar 
     2   31    1 ar 
     3    2    3 ar 
     4    3   32 ar 
     5   31    4 1  
     6    5   18 ar 
     7   23    5 ar 
     8    6   18 ar 
     9    6   19 1  
    10   20    6 ar 
    11   24    7 1  
    12   25    7 2  
    13   17    8 1  
    14    9   10 2  
    15   12    9 1  
    16   10   13 1  
    17   12   11 2  
    18   17   12 am 
    19   13   14 1  
    20   14   15 1  
    21   14   16 1  
    22   18   17 1  
    23   21   20 ar 
    24   22   21 1  
    25   21   23 ar 
    26   28   22 2  
    27   24   23 1  
    28   27   24 1  
    29   26   25 1  
    30   27   26 2  
    31   28   27 1  
    32   29   28 1  
    33   30   29 1  
    34   30   31 ar 
    35   30   32 ar 
    36    1   33 1  
    37    2   34 1  
    38    3   35 1  
    39    4   36 1  
    40    4   37 1  
    41    4   38 1  
    42    5   39 1  
    43    7   40 1  
    44    8   41 1  
    45    8   42 1  
    46    8   43 1  
    47    9   44 1  
    48   10   45 1  
    49   13   46 1  
    50   13   47 1  
    51   15   48 1  
    52   15   49 1  
    53   15   50 1  
    54   16   51 1  
    55   16   52 1  
    56   16   53 1  
    57   20   54 1  
    58   26   55 1  
    59   29   56 1  
    60   32   57 1  
@<TRIPOS>SUBSTRUCTURE
     1 IAQ         1

