1dbk_ligand
  -I-interpret- 

 49 52  0  0  0  0  0  0  0  0999 V2000
  -19.0460   42.4230  -11.7190 C   0  0  0  0  0
  -19.5520   40.9680  -11.6830 C   0  0  0  0  0
  -20.3890   40.3850  -12.8350 C   0  0  0  0  0
  -20.6990   39.1910  -12.9790 O   0  0  0  0  0
  -20.9200   41.5200  -13.7240 C   0  0  0  0  0
  -20.1610   42.8400  -13.8500 C   0  0  0  0  0
  -21.0280   43.7030  -14.6890 C   0  0  0  0  0
  -22.2800   44.2190  -14.0010 C   0  0  0  0  0
  -22.0410   44.7990  -12.6250 C   0  0  0  0  0
  -21.3010   43.7300  -11.7720 C   0  0  0  0  0
  -19.9280   43.4280  -12.4310 C   0  0  0  0  0
  -21.1190   44.2020  -10.3150 C   0  0  0  0  0
  -22.4600   44.4940   -9.6440 C   0  0  0  0  0
  -23.1580   45.5110  -10.4710 C   0  0  0  0  0
  -23.3970   45.1320  -11.9540 C   0  0  0  0  0
  -24.3860   46.1920  -12.4980 C   0  0  0  0  0
  -25.3630   46.3020  -11.3180 C   0  0  0  0  0
  -24.6340   45.6440  -10.1270 C   0  0  0  0  0
  -25.1770   45.2560   -9.0850 O   0  0  0  0  0
  -22.4890   46.8500  -10.2010 C   0  0  0  0  0
  -19.1510   44.7480  -12.4620 C   0  0  0  0  0
  -18.1061   42.4021  -12.2706 H   0  0  0  0  0
  -18.9933   42.7500  -10.6805 H   0  0  0  0  0
  -20.2299   40.9472  -10.8297 H   0  0  0  0  0
  -18.6391   40.3726  -11.6947 H   0  0  0  0  0
  -21.8646   41.8012  -13.2583 H   0  0  0  0  0
  -20.8936   41.1024  -14.7305 H   0  0  0  0  0
  -19.1758   42.7381  -14.3051 H   0  0  0  0  0
  -21.3598   43.0931  -15.5293 H   0  0  0  0  0
  -20.4349   44.5767  -14.9589 H   0  0  0  0  0
  -22.9515   43.3692  -13.8783 H   0  0  0  0  0
  -22.6793   45.0210  -14.6218 H   0  0  0  0  0
  -21.4476   45.7101  -12.7014 H   0  0  0  0  0
  -21.9004   42.8202  -11.7397 H   0  0  0  0  0
  -20.5315   45.1201  -10.3223 H   0  0  0  0  0
  -20.6211   43.4092   -9.7568 H   0  0  0  0  0
  -22.3074   44.8649   -8.6305 H   0  0  0  0  0
  -23.0571   43.5850   -9.5718 H   0  0  0  0  0
  -23.9089   44.1967  -12.1803 H   0  0  0  0  0
  -24.8580   45.9162  -13.4410 H   0  0  0  0  0
  -23.9168   47.1359  -12.7754 H   0  0  0  0  0
  -26.3104   45.8076  -11.5327 H   0  0  0  0  0
  -25.6237   47.3391  -11.1069 H   0  0  0  0  0
  -22.5768   47.0916   -9.1417 H   0  0  0  0  0
  -21.4358   46.7903  -10.4752 H   0  0  0  0  0
  -22.9767   47.6243  -10.7932 H   0  0  0  0  0
  -19.7073   45.4820  -13.0450 H   0  0  0  0  0
  -19.0196   45.1148  -11.4440 H   0  0  0  0  0
  -18.1752   44.5831  -12.9189 H   0  0  0  0  0
  1  2  1  0  0  0
  1 11  1  0  0  0
  2  3  1  0  0  0
  3  4  2  0  0  0
  3  5  1  0  0  0
  5  6  1  0  0  0
  6  7  1  0  0  0
  6 11  1  0  0  0
  7  8  1  0  0  0
  8  9  1  0  0  0
  9 10  1  0  0  0
  9 15  1  0  0  0
 10 11  1  0  0  0
 10 12  1  0  0  0
 11 21  1  0  0  0
 12 13  1  0  0  0
 13 14  1  0  0  0
 14 15  1  0  0  0
 14 18  1  0  0  0
 14 20  1  0  0  0
 15 16  1  0  0  0
 16 17  1  0  0  0
 17 18  1  0  0  0
 18 19  2  0  0  0
  1 22  1  0  0  0
  1 23  1  0  0  0
  2 24  1  0  0  0
  2 25  1  0  0  0
  5 26  1  0  0  0
  5 27  1  0  0  0
  6 28  1  0  0  0
  7 29  1  0  0  0
  7 30  1  0  0  0
  8 31  1  0  0  0
  8 32  1  0  0  0
  9 33  1  0  0  0
 10 34  1  0  0  0
 12 35  1  0  0  0
 12 36  1  0  0  0
 13 37  1  0  0  0
 13 38  1  0  0  0
 15 39  1  0  0  0
 16 40  1  0  0  0
 16 41  1  0  0  0
 17 42  1  0  0  0
 17 43  1  0  0  0
 20 44  1  0  0  0
 20 45  1  0  0  0
 20 46  1  0  0  0
 21 47  1  0  0  0
 21 48  1  0  0  0
 21 49  1  0  0  0
M  END
$$$$
