5mxv_ligand
  -I-interpret- 

 30 32  0  0  0  0  0  0  0  0999 V2000
   -8.7990  -26.5060    2.8380 C   0  0  0  0  0
   -6.7530  -26.1390    3.9290 C   0  0  0  0  0
   -7.2490  -26.7240    5.0690 C   0  0  0  0  0
   -8.5190  -27.2020    5.0700 C   0  0  0  0  0
   -9.3020  -27.0950    3.9330 C   0  0  0  0  0
  -10.6120  -27.5540    3.8520 C   0  0  0  0  0
  -11.2960  -27.2980    2.6920 C   0  0  0  0  0
  -12.6550  -27.7470    2.1690 C   0  0  0  0  0
  -13.8090  -28.3870    2.8590 N   0  0  0  0  0
  -15.0190  -28.9380    2.2050 C   0  0  0  0  0
  -15.1600  -28.8470    0.7160 N   0  3  0  0  0
  -17.0740  -30.4100    1.3540 C   0  0  0  0  0
  -16.4350  -29.6930    2.5850 S   0  0  0  0  0
  -12.6290  -27.6250    1.0260 O   0  0  0  0  0
  -10.0640  -26.5900    1.7230 S   0  0  0  0  0
   -7.5280  -26.0110    2.8160 C   0  0  0  0  0
   -5.5160  -25.6450    3.8750 F   0  0  0  0  0
  -11.3050  -28.3780    5.2430 Cl  0  0  0  0  0
  -16.5810  -29.5400    0.1500 C   0  0  0  0  0
   -6.6295  -26.8032    5.9623 H   0  0  0  0  0
   -8.9233  -27.6708    5.9671 H   0  0  0  0  0
  -13.7622  -28.4521    3.8758 H   0  0  0  0  0
  -14.5956  -28.8595    3.2063 H   0  0  0  0  0
  -14.3790  -29.3525    0.2978 H   0  0  0  0  0
  -15.1739  -27.8586    0.4644 H   0  0  0  0  0
  -18.1605  -30.4710    1.4160 H   0  0  0  0  0
  -16.7769  -31.4555    1.2712 H   0  0  0  0  0
   -7.1392  -25.5214    1.9231 H   0  0  0  0  0
  -16.4252  -30.1299   -0.7532 H   0  0  0  0  0
  -17.3159  -28.7940   -0.1527 H   0  0  0  0  0
  1  5  4  0  0  0
  1 15  4  0  0  0
 16  1  4  0  0  0
  2  3  4  0  0  0
  2 16  4  0  0  0
  2 17  1  0  0  0
  3  4  4  0  0  0
  4  5  4  0  0  0
  5  6  4  0  0  0
  6  7  4  0  0  0
  6 18  1  0  0  0
  7  8  1  0  0  0
  7 15  4  0  0  0
  8  9  1  0  0  0
  8 14  2  0  0  0
  9 10  1  0  0  0
 10 11  1  0  0  0
 10 13  1  0  0  0
 11 19  1  0  0  0
 13 12  1  0  0  0
 12 19  1  0  0  0
  3 20  1  0  0  0
  4 21  1  0  0  0
  9 22  1  0  0  0
 10 23  1  0  0  0
 11 24  1  0  0  0
 11 25  1  0  0  0
 12 26  1  0  0  0
 12 27  1  0  0  0
 16 28  1  0  0  0
 19 29  1  0  0  0
 19 30  1  0  0  0
M  END
$$$$
