### 
### Created by X-TOOL on Mon Sep 10 21:13:31 2018
### 

@<TRIPOS>MOLECULE
5mxv_ligand
   29    31     1     0     0
SMALL
GAST_HUCK


@<TRIPOS>ATOM
      1 C15        -8.7990  -26.5060    2.8380 C.ar      1 K3T         0.0406
      2 C17        -6.7530  -26.1390    3.9290 C.ar      1 K3T         0.1272
      3 C01        -7.2490  -26.7240    5.0690 C.ar      1 K3T        -0.0341
      4 C02        -8.5190  -27.2020    5.0700 C.ar      1 K3T        -0.0625
      5 C03        -9.3020  -27.0950    3.9330 C.ar      1 K3T        -0.0040
      6 C04       -10.6120  -27.5540    3.8520 C.2       1 K3T         0.0629
      7 C05       -11.2960  -27.2980    2.6920 C.2       1 K3T         0.1171
      8 C06       -12.6550  -27.7470    2.1690 C.2       1 K3T         0.2183
      9 N07       -13.8090  -28.3870    2.8590 N.am      1 K3T        -0.2334
     10 C08       -15.0190  -28.9380    2.2050 C.3       1 K3T         0.1245
     11 N09       -15.1600  -28.8470    0.7160 N.4       1 K3T         0.2681
     12 C11       -17.0740  -30.4100    1.3540 C.2       1 K3T        -0.0107
     13 S12       -16.4350  -29.6930    2.5850 S.3       1 K3T        -0.0500
     14 O13       -12.6290  -27.6250    1.0260 O.2       1 K3T        -0.3867
     15 S14       -10.0640  -26.5900    1.7230 S.3       1 K3T        -0.0247
     16 C16        -7.5280  -26.0110    2.8160 C.ar      1 K3T        -0.0133
     17 F18        -5.5160  -25.6450    3.8750 F         1 K3T        -0.1855
     18 CL1       -11.3050  -28.3780    5.2430 Cl        1 K3T        -0.0778
     19 C10       -16.5810  -29.5400    0.1500 C.3       1 K3T        -0.0121
     20 H1         -6.6329  -26.8028    5.9574 H         1 K3T         0.0559
     21 H2         -8.9211  -27.6683    5.9622 H         1 K3T         0.0588
     22 H3        -13.7631  -28.4508    3.8559 H         1 K3T         0.1905
     23 H4        -14.4976  -29.9065    2.1928 H         1 K3T         0.1306
     24 H5        -14.3792  -29.3208    0.2895 H         1 K3T         0.2065
     25 H6        -15.1487  -27.8746    0.4508 H         1 K3T         0.2065
     26 H7        -17.7064  -31.2964    1.3373 H         1 K3T         0.0394
     27 H8         -7.1413  -25.5241    1.9280 H         1 K3T         0.0559
     28 H9        -16.3874  -30.1663   -0.7333 H         1 K3T         0.0961
     29 H10       -17.3207  -28.7665   -0.1040 H         1 K3T         0.0961
@<TRIPOS>BOND
     1    1    5 ar 
     2    1   15 1  
     3   16    1 ar 
     4    2    3 ar 
     5    2   16 ar 
     6    2   17 1  
     7    3    4 ar 
     8    4    5 ar 
     9    5    6 1  
    10    6    7 2  
    11    6   18 1  
    12    7    8 1  
    13    7   15 1  
    14    8    9 am 
    15    8   14 2  
    16    9   10 1  
    17   10   11 1  
    18   10   13 1  
    19   11   19 1  
    20   13   12 1  
    21   12   19 1  
    22    3   20 1  
    23    4   21 1  
    24    9   22 1  
    25   10   23 1  
    26   11   24 1  
    27   11   25 1  
    28   12   26 1  
    29   16   27 1  
    30   19   28 1  
    31   19   29 1  
@<TRIPOS>SUBSTRUCTURE
     1 K3T         1

