5t37_ligand
  -I-interpret- 

 41 42  0  0  0  0  0  0  0  0999 V2000
   10.7730   14.4190   33.0060 C   0  0  0  0  0
   13.1420   14.8620   33.2050 C   0  0  0  0  0
   10.8950   13.3470   33.8920 C   0  0  0  0  0
   17.1880   17.9510   30.5540 C   0  0  0  0  0
   16.6700   17.6160   29.3250 C   0  0  0  0  0
   11.8950   15.1750   32.6640 C   0  0  0  0  0
   12.1420   13.0330   34.4350 C   0  0  0  0  0
   13.2640   13.7910   34.0940 C   0  0  0  0  0
   15.4250   16.6410   30.7530 C   0  0  0  0  0
   14.2710   15.7000   32.8100 C   0  0  0  0  0
    8.9740   15.6990   30.1740 C   0  0  0  0  0
   10.4490   15.0120   28.2320 C   0  0  0  0  0
    8.0450   14.3210   28.2830 C   0  0  0  0  0
    8.6220   16.7110   27.8890 C   0  0  0  0  0
    9.4360   14.7590   32.4140 C   0  0  0  0  0
    9.0340   15.4410   28.6510 C   0  0  0  0  0
   15.5720   16.7990   29.4550 N   0  0  0  0  0
   16.3810   17.3220   31.4590 N   0  0  0  0  0
   14.4340   15.8810   31.4280 N   0  0  0  0  0
    9.4340   14.6600   30.9700 N   0  0  0  0  0
   15.0140   16.2200   33.6520 O   0  0  0  0  0
    8.5440   16.7530   30.6350 O   0  0  0  0  0
   14.7830   13.3550   34.7960 Cl  0  0  0  0  0
   10.0185   12.7566   34.1591 H   0  0  0  0  0
   18.0533   18.5807   30.7608 H   0  0  0  0  0
   17.0769   17.9541   28.3720 H   0  0  0  0  0
   11.7967   16.0119   31.9726 H   0  0  0  0  0
   12.2400   12.1955   35.1257 H   0  0  0  0  0
   11.1567   15.8012   28.4858 H   0  0  0  0  0
   10.7202   14.0963   28.7574 H   0  0  0  0  0
   10.4702   14.8352   27.1566 H   0  0  0  0  0
    8.3140   13.4102   28.8180 H   0  0  0  0  0
    7.0356   14.6232   28.5621 H   0  0  0  0  0
    8.0873   14.1391   27.2091 H   0  0  0  0  0
    7.6050   16.9867   28.1679 H   0  0  0  0  0
    9.3029   17.5231   28.1440 H   0  0  0  0  0
    8.6670   16.5205   26.8167 H   0  0  0  0  0
    9.1988   15.7883   32.6829 H   0  0  0  0  0
    8.7040   14.0511   32.8027 H   0  0  0  0  0
   13.7546   15.4065   30.8333 H   0  0  0  0  0
    9.7783   13.8077   30.5279 H   0  0  0  0  0
  1  3  4  0  0  0
  1  6  4  0  0  0
 15  1  1  0  0  0
  6  2  4  0  0  0
  2  8  4  0  0  0
  2 10  1  0  0  0
  3  7  4  0  0  0
  4  5  4  0  0  0
 18  4  4  0  0  0
 17  5  4  0  0  0
  7  8  4  0  0  0
  8 23  1  0  0  0
  9 17  4  0  0  0
  9 18  4  0  0  0
 19  9  1  0  0  0
 10 19  1  0  0  0
 10 21  2  0  0  0
 11 16  1  0  0  0
 20 11  1  0  0  0
 11 22  2  0  0  0
 16 12  1  0  0  0
 16 13  1  0  0  0
 16 14  1  0  0  0
 15 20  1  0  0  0
  3 24  1  0  0  0
  4 25  1  0  0  0
  5 26  1  0  0  0
  6 27  1  0  0  0
  7 28  1  0  0  0
 12 29  1  0  0  0
 12 30  1  0  0  0
 12 31  1  0  0  0
 13 32  1  0  0  0
 13 33  1  0  0  0
 13 34  1  0  0  0
 14 35  1  0  0  0
 14 36  1  0  0  0
 14 37  1  0  0  0
 15 38  1  0  0  0
 15 39  1  0  0  0
 19 40  1  0  0  0
 20 41  1  0  0  0
M  END
$$$$
