3iiy_ligand
  -I-interpret- 

115114  0  0  0  0  0  0  0  0999 V2000
   20.9730    5.8700   19.0550 N   0  3  0  0  0
   19.7750    6.6830   19.4210 C   0  0  0  0  0
   19.9990    8.1490   19.0810 C   0  0  0  0  0
   20.7590    8.8340   19.7500 O   0  0  0  0  0
   19.4400    6.5220   20.8970 C   0  0  0  0  0
   19.3270    8.6170   18.0330 N   0  0  0  0  0
   19.4660    9.9870   17.5380 C   0  0  0  0  0
   18.2440   10.8470   17.8650 C   0  0  0  0  0
   17.1410   10.3240   18.0320 O   0  0  0  0  0
   19.7110    9.9670   16.0280 C   0  0  0  0  0
   20.8950    9.0960   15.6100 C   0  0  0  0  0
   22.2420    9.7050   16.0480 C   0  0  0  0  0
   23.1720    8.6930   16.5550 N   0  0  0  0  0
   23.9130    7.8860   15.7940 C   0  0  0  0  0
   23.8480    7.9450   14.4640 N   0  0  0  0  0
   24.7200    7.0070   16.3680 N   0  0  0  0  0
   18.4450   12.1580   17.9710 N   0  0  0  0  0
   17.3440   13.0900   18.2330 C   0  0  0  0  0
   17.8540   14.4380   18.7420 C   0  0  0  0  0
   16.8340   15.1060   19.6590 C   0  0  0  0  0
   17.3700   16.3890   20.2800 C   0  0  0  0  0
   16.3350   17.0470   21.1980 C   0  0  0  0  0
   16.7180   18.3780   21.7330 N   0  3  0  0  0
   16.4820   13.2570   17.0100 C   0  0  0  0  0
   15.2780   13.5060   17.1250 O   0  0  0  0  0
   15.4980   19.1340   22.0140 C   0  0  0  0  0
   17.5070   19.1560   20.7730 C   0  0  0  0  0
   17.4700   18.2540   22.9920 C   0  0  0  0  0
   17.1070   13.1200   15.8350 N   0  0  0  0  0
   16.4320   13.1280   14.5240 C   0  0  0  0  0
   17.1950   12.2850   13.4900 C   0  0  0  0  0
   18.3360   11.8770   13.7320 O   0  0  0  0  0
   16.2580   14.5610   14.0030 C   0  0  0  0  0
   17.5010   15.2340   13.9520 O   0  0  0  0  0
   16.5570   12.0460   12.3420 N   0  0  0  0  0
   17.1040   11.2220   11.2440 C   0  0  0  0  0
   18.6050   11.4140   10.9750 C   0  0  0  0  0
   19.0020   12.3750   10.2990 O   0  0  0  0  0
   16.2900   11.4470    9.9490 C   0  0  0  0  0
   19.4230   10.4930   11.4980 N   0  0  0  0  0
   20.8890   10.5700   11.3880 C   0  0  0  0  0
   21.4820   11.8470   11.9790 C   0  0  0  0  0
   21.7690   12.8000   11.2500 O   0  0  0  0  0
   21.6630   11.8720   13.2990 N   0  0  0  0  0
   22.1590   13.0740   13.9850 C   0  0  0  0  0
   23.5790   12.8830   14.5540 C   0  0  0  0  0
   24.5430   12.8080   13.7840 O   0  0  0  0  0
   21.1560   13.5530   15.0640 C   0  0  0  0  0
   23.7070   12.8120   15.8830 N   0  0  0  0  0
   25.0050   12.6320   16.5540 C   0  0  0  0  0
   24.8290   12.1560   17.9970 C   0  0  0  0  0
   24.0620   12.7420   18.7690 O   0  0  0  0  0
   25.8340   13.9300   16.5090 C   0  0  0  0  0
   21.1768    5.9944   18.0633 H   0  0  0  0  0
   21.7727    6.1768   19.6088 H   0  0  0  0  0
   20.7848    4.8854   19.2437 H   0  0  0  0  0
   18.9282    6.3192   18.8391 H   0  0  0  0  0
   20.2647    6.9033   21.4991 H   0  0  0  0  0
   18.5327    7.0813   21.1254 H   0  0  0  0  0
   19.2835    5.4665   21.1197 H   0  0  0  0  0
   18.6831    7.9901   17.5506 H   0  0  0  0  0
   20.3198   10.4374   18.0441 H   0  0  0  0  0
   19.9329   10.9888   15.7200 H   0  0  0  0  0
   18.8191    9.5523   15.5583 H   0  0  0  0  0
   20.8936    9.0173   14.5228 H   0  0  0  0  0
   20.7886    8.1229   16.0894 H   0  0  0  0  0
   22.0462   10.4162   16.8505 H   0  0  0  0  0
   22.6981   10.1773   15.1779 H   0  0  0  0  0
   23.2596    8.5982   17.5668 H   0  0  0  0  0
   24.4170    7.3163   13.8972 H   0  0  0  0  0
   23.2292    8.6189   14.0130 H   0  0  0  0  0
   24.7718    6.9505   17.3851 H   0  0  0  0  0
   19.3911   12.5247   17.8671 H   0  0  0  0  0
   16.7286   12.6608   19.0237 H   0  0  0  0  0
   18.0291   15.0888   17.8853 H   0  0  0  0  0
   18.7714   14.2713   19.3065 H   0  0  0  0  0
   16.5984   14.4120   20.4658 H   0  0  0  0  0
   15.9572   15.3589   19.0629 H   0  0  0  0  0
   17.6103   17.0858   19.4770 H   0  0  0  0  0
   18.2498   16.1423   20.8743 H   0  0  0  0  0
   16.2155   16.3874   22.0575 H   0  0  0  0  0
   15.4369   17.1977   20.5989 H   0  0  0  0  0
   14.9258   19.2529   21.0939 H   0  0  0  0  0
   14.8994   18.5954   22.7486 H   0  0  0  0  0
   15.7628   20.1152   22.4081 H   0  0  0  0  0
   18.4204   18.6128   20.5305 H   0  0  0  0  0
   16.9231   19.3109   19.8657 H   0  0  0  0  0
   17.7621   20.1207   21.2115 H   0  0  0  0  0
   16.8531   17.7466   23.7337 H   0  0  0  0  0
   18.3777   17.6767   22.8162 H   0  0  0  0  0
   17.7342   19.2472   23.3553 H   0  0  0  0  0
   18.1201   13.0019   15.8469 H   0  0  0  0  0
   15.4474   12.6832   14.6683 H   0  0  0  0  0
   15.5944   15.1012   14.6782 H   0  0  0  0  0
   15.8401   14.5199   12.9971 H   0  0  0  0  0
   17.3673   16.1262   13.6239 H   0  0  0  0  0
   15.6329   12.4585   12.2146 H   0  0  0  0  0
   17.0044   10.1899   11.5801 H   0  0  0  0  0
   15.2507   11.1673   10.1214 H   0  0  0  0  0
   16.3425   12.4984    9.6664 H   0  0  0  0  0
   16.7049   10.8334    9.1494 H   0  0  0  0  0
   19.0125    9.7025   11.9950 H   0  0  0  0  0
   21.1376   10.5556   10.3268 H   0  0  0  0  0
   21.3025    9.7298   11.9458 H   0  0  0  0  0
   21.4524   11.0375   13.8464 H   0  0  0  0  0
   22.2386   13.8632   13.2373 H   0  0  0  0  0
   20.2019   13.7883   14.5924 H   0  0  0  0  0
   21.0132   12.7633   15.8017 H   0  0  0  0  0
   21.5496   14.4433   15.5545 H   0  0  0  0  0
   22.8676   12.8859   16.4578 H   0  0  0  0  0
   25.5481   11.8583   16.0113 H   0  0  0  0  0
   25.3873   11.2886   18.3491 H   0  0  0  0  0
   26.0122   14.2100   15.4708 H   0  0  0  0  0
   25.2867   14.7268   17.0127 H   0  0  0  0  0
   26.7875   13.7682   17.0118 H   0  0  0  0  0
  1  2  1  0  0  0
  2  3  1  0  0  0
  2  5  1  0  0  0
  3  4  2  0  0  0
  3  6  1  0  0  0
  6  7  1  0  0  0
  7  8  1  0  0  0
  7 10  1  0  0  0
  8  9  2  0  0  0
  8 17  1  0  0  0
 10 11  1  0  0  0
 11 12  1  0  0  0
 12 13  1  0  0  0
 13 14  1  0  0  0
 14 15  1  0  0  0
 14 16  2  0  0  0
 17 18  1  0  0  0
 18 19  1  0  0  0
 18 24  1  0  0  0
 19 20  1  0  0  0
 20 21  1  0  0  0
 21 22  1  0  0  0
 22 23  1  0  0  0
 23 26  1  0  0  0
 23 27  1  0  0  0
 23 28  1  0  0  0
 24 25  2  0  0  0
 24 29  1  0  0  0
 29 30  1  0  0  0
 30 31  1  0  0  0
 30 33  1  0  0  0
 31 32  2  0  0  0
 31 35  1  0  0  0
 33 34  1  0  0  0
 35 36  1  0  0  0
 36 37  1  0  0  0
 36 39  1  0  0  0
 37 38  2  0  0  0
 37 40  1  0  0  0
 40 41  1  0  0  0
 41 42  1  0  0  0
 42 43  2  0  0  0
 42 44  1  0  0  0
 44 45  1  0  0  0
 45 46  1  0  0  0
 45 48  1  0  0  0
 46 47  2  0  0  0
 46 49  1  0  0  0
 49 50  1  0  0  0
 50 51  1  0  0  0
 50 53  1  0  0  0
 51 52  2  0  0  0
  1 54  1  0  0  0
  1 55  1  0  0  0
  1 56  1  0  0  0
  2 57  1  0  0  0
  5 58  1  0  0  0
  5 59  1  0  0  0
  5 60  1  0  0  0
  6 61  1  0  0  0
  7 62  1  0  0  0
 10 63  1  0  0  0
 10 64  1  0  0  0
 11 65  1  0  0  0
 11 66  1  0  0  0
 12 67  1  0  0  0
 12 68  1  0  0  0
 13 69  1  0  0  0
 15 70  1  0  0  0
 15 71  1  0  0  0
 16 72  1  0  0  0
 17 73  1  0  0  0
 18 74  1  0  0  0
 19 75  1  0  0  0
 19 76  1  0  0  0
 20 77  1  0  0  0
 20 78  1  0  0  0
 21 79  1  0  0  0
 21 80  1  0  0  0
 22 81  1  0  0  0
 22 82  1  0  0  0
 26 83  1  0  0  0
 26 84  1  0  0  0
 26 85  1  0  0  0
 27 86  1  0  0  0
 27 87  1  0  0  0
 27 88  1  0  0  0
 28 89  1  0  0  0
 28 90  1  0  0  0
 28 91  1  0  0  0
 29 92  1  0  0  0
 30 93  1  0  0  0
 33 94  1  0  0  0
 33 95  1  0  0  0
 34 96  1  0  0  0
 35 97  1  0  0  0
 36 98  1  0  0  0
 39 99  1  0  0  0
 39100  1  0  0  0
 39101  1  0  0  0
 40102  1  0  0  0
 41103  1  0  0  0
 41104  1  0  0  0
 44105  1  0  0  0
 45106  1  0  0  0
 48107  1  0  0  0
 48108  1  0  0  0
 48109  1  0  0  0
 49110  1  0  0  0
 50111  1  0  0  0
 51112  1  0  0  0
 53113  1  0  0  0
 53114  1  0  0  0
 53115  1  0  0  0
M  END
$$$$
