### 
### Created by X-TOOL on Mon Sep 10 21:13:00 2018
### 

@<TRIPOS>MOLECULE
3iiy_ligand
  116   115     1     0     0
SMALL
GAST_HUCK


@<TRIPOS>ATOM
      1 N          20.9730    5.8700   19.0550 N.4       1 ALA         0.2377
      2 CA         19.7750    6.6830   19.4210 C.3       1 ALA         0.0621
      3 C          19.9990    8.1490   19.0810 C.2       1 ALA         0.2264
      4 O          20.7590    8.8340   19.7500 O.2       1 ALA        -0.3907
      5 CB         19.4400    6.5220   20.8970 C.3       1 ALA        -0.0040
      6 N          19.3270    8.6170   18.0330 N.am      1 ARG        -0.2610
      7 CA         19.4660    9.9870   17.5380 C.3       1 ARG         0.1312
      8 C          18.2440   10.8470   17.8650 C.2       1 ARG         0.2039
      9 O          17.1410   10.3240   18.0320 O.2       1 ARG        -0.3944
     10 CB         19.7110    9.9670   16.0280 C.3       1 ARG        -0.0092
     11 CG         20.8950    9.0960   15.6100 C.3       1 ARG        -0.0156
     12 CD         22.2420    9.7050   16.0480 C.3       1 ARG         0.0627
     13 NE         23.1720    8.6930   16.5550 N.pl3     1 ARG        -0.2723
     14 CZ         23.9130    7.8860   15.7940 C.cat     1 ARG         0.2882
     15 NH1        23.8480    7.9450   14.4640 N.pl3     1 ARG        -0.2849
     16 NH2        24.7200    7.0070   16.3680 N.pl3     1 ARG        -0.2849
     17 N          18.4450   12.1580   17.9710 N.am      1 M3L        -0.2637
     18 CA         17.3440   13.0900   18.2330 C.3       1 M3L         0.1310
     19 CB         17.8540   14.4380   18.7420 C.3       1 M3L        -0.0122
     20 CG         16.8340   15.1060   19.6590 C.3       1 M3L        -0.0440
     21 CD         17.3700   16.3890   20.2800 C.3       1 M3L        -0.0123
     22 CE         16.3350   17.0470   21.1980 C.3       1 M3L        -0.0309
     23 NZ         16.7180   18.3780   21.7330 N.4       1 M3L         0.2369
     24 C          16.4820   13.2570   17.0100 C.2       1 M3L         0.2040
     25 O          15.2780   13.5060   17.1250 O.2       1 M3L        -0.3944
     26 CM1        15.4980   19.1340   22.0140 C.3       1 M3L        -0.0418
     27 CM2        17.5070   19.1560   20.7730 C.3       1 M3L        -0.0418
     28 CM3        17.4700   18.2540   22.9920 C.3       1 M3L        -0.0418
     29 N          17.1070   13.1200   15.8350 N.am      1 SER        -0.2616
     30 CA         16.4320   13.1280   14.5240 C.3       1 SER         0.1539
     31 C          17.1950   12.2850   13.4900 C.2       1 SER         0.2062
     32 O          18.3360   11.8770   13.7320 O.2       1 SER        -0.3943
     33 CB         16.2580   14.5610   14.0030 C.3       1 SER         0.0843
     34 OG         17.5010   15.2340   13.9520 O.3       1 SER        -0.3903
     35 N          16.5570   12.0460   12.3420 N.am      1 ALA        -0.2639
     36 CA         17.1040   11.2220   11.2440 C.3       1 ALA         0.1282
     37 C          18.6050   11.4140   10.9750 C.2       1 ALA         0.2034
     38 O          19.0020   12.3750   10.2990 O.2       1 ALA        -0.3944
     39 CB         16.2900   11.4470    9.9490 C.3       1 ALA        -0.0244
     40 N          19.4230   10.4930   11.4980 N.am      1 GLY        -0.2664
     41 CA         20.8890   10.5700   11.3880 C.3       1 GLY         0.1201
     42 C          21.4820   11.8470   11.9790 C.2       1 GLY         0.2007
     43 O          21.7690   12.8000   11.2500 O.2       1 GLY        -0.3947
     44 N          21.6630   11.8720   13.2990 N.am      1 ALA        -0.2642
     45 CA         22.1590   13.0740   13.9850 C.3       1 ALA         0.1282
     46 C          23.5790   12.8830   14.5540 C.2       1 ALA         0.2037
     47 O          24.5430   12.8080   13.7840 O.2       1 ALA        -0.3944
     48 CB         21.1560   13.5530   15.0640 C.3       1 ALA        -0.0244
     49 N          23.7070   12.8120   15.8830 N.am      1 ALA        -0.2653
     50 CA         25.0050   12.6320   16.5540 C.3       1 ALA         0.1100
     51 C          24.8290   12.1560   17.9970 C.2       1 ALA         0.1242
     52 O          24.0620   12.7420   18.7690 O.2       1 ALA        -0.3725
     53 CB         25.8340   13.9300   16.5090 C.3       1 ALA        -0.0257
     54 H1         20.8066    4.9033   19.2870 H         1 ALA         0.2015
     55 H2         21.7751    6.2048   19.5655 H         1 ALA         0.2015
     56 H3         21.1459    5.9530   18.0654 H         1 ALA         0.2015
     57 H4         18.9198    6.3191   18.8326 H         1 ALA         0.1095
     58 H5         18.5559    7.1294   21.1407 H         1 ALA         0.0310
     59 H6         20.2934    6.8562   21.5053 H         1 ALA         0.0310
     60 H7         19.2285    5.4641   21.1117 H         1 ALA         0.0310
     61 H8         18.6957    8.0024   17.5600 H         1 ARG         0.1884
     62 H9         20.3409   10.4400   18.0273 H         1 ARG         0.0800
     63 H10        19.9024   10.9972   15.6934 H         1 ARG         0.0313
     64 H11        18.8061    9.5833   15.5342 H         1 ARG         0.0313
     65 H12        20.8911    8.9929   14.5149 H         1 ARG         0.0301
     66 H13        20.7868    8.1037   16.0721 H         1 ARG         0.0301
     67 H14        22.0550   10.4427   16.8422 H         1 ARG         0.0689
     68 H15        22.7016   10.2058   15.1831 H         1 ARG         0.0689
     69 H16        23.2604    8.5973   17.5767 H         1 ARG         0.2642
     70 H17        24.4272    7.3143   13.8916 H         1 ARG         0.2615
     71 H18        23.2185    8.6212   14.0086 H         1 ARG         0.2615
     72 H19        24.7769    6.9541   17.3951 H         1 ARG         0.2615
     73 H20        25.2908    6.3762   15.7874 H         1 ARG         0.2615
     74 H21        19.3726   12.5175   17.8692 H         1 M3L         0.1883
     75 H22        16.7188   12.6522   19.0251 H         1 M3L         0.0800
     76 H23        18.0476   15.0959   17.8819 H         1 M3L         0.0312
     77 H24        18.7884   14.2800   19.3004 H         1 M3L         0.0312
     78 H25        16.5707   14.4056   20.4653 H         1 M3L         0.0269
     79 H26        15.9344   15.3454   19.0730 H         1 M3L         0.0269
     80 H27        17.6321   17.0923   19.4759 H         1 M3L         0.0317
     81 H28        18.2692   16.1525   20.8678 H         1 M3L         0.0317
     82 H29        16.1611   16.3748   22.0512 H         1 M3L         0.0815
     83 H30        15.4016   17.1654   20.6282 H         1 M3L         0.0815
     84 H31        15.7639   20.1245   22.4118 H         1 M3L         0.0778
     85 H32        14.8930   18.5915   22.7554 H         1 M3L         0.0778
     86 H33        14.9196   19.2548   21.0862 H         1 M3L         0.0778
     87 H34        18.4355   18.6151   20.5379 H         1 M3L         0.0778
     88 H35        17.7535   20.1353   21.2092 H         1 M3L         0.0778
     89 H36        16.9240   19.3013   19.8516 H         1 M3L         0.0778
     90 H37        16.8809   17.6707   23.7150 H         1 M3L         0.0778
     91 H38        17.6661   19.2556   23.4022 H         1 M3L         0.0778
     92 H39        18.4249   17.7430   22.7999 H         1 M3L         0.0778
     93 H40        18.1002   13.0042   15.8466 H         1 SER         0.1884
     94 H41        15.4333   12.6862   14.6555 H         1 SER         0.0823
     95 H42        15.5795   15.1082   14.6739 H         1 SER         0.0606
     96 H43        15.8254   14.5267   12.9922 H         1 SER         0.0606
     97 H44        17.3687   16.1169   13.6273 H         1 SER         0.2097
     98 H45        15.6510   12.4504   12.2171 H         1 ALA         0.1883
     99 H46        16.9698   10.1715   11.5415 H         1 ALA         0.0797
    100 H47        16.7078   10.8282    9.1412 H         1 ALA         0.0277
    101 H48        16.3423   12.5078    9.6627 H         1 ALA         0.0277
    102 H49        15.2409   11.1650   10.1217 H         1 ALA         0.0277
    103 H50        19.0205    9.7180   11.9852 H         1 GLY         0.1881
    104 H51        21.1605   10.5214   10.3232 H         1 GLY         0.0763
    105 H52        21.3228    9.7085   11.9168 H         1 GLY         0.0763
    106 H53        21.4566   11.0538   13.8356 H         1 ALA         0.1883
    107 H54        22.2245   13.8710   13.2297 H         1 ALA         0.0797
    108 H55        21.5522   14.4515   15.5597 H         1 ALA         0.0277
    109 H56        21.0111   12.7569   15.8091 H         1 ALA         0.0277
    110 H57        20.1926   13.7908   14.5893 H         1 ALA         0.0277
    111 H58        22.8841   12.8844   16.4465 H         1 ALA         0.1884
    112 H59        25.5607   11.8555   16.0080 H         1 ALA         0.0787
    113 H60        25.3868   11.2894   18.3488 H         1 ALA         0.1373
    114 H61        26.7966   13.7680   17.0162 H         1 ALA         0.0278
    115 H62        25.2828   14.7350   17.0171 H         1 ALA         0.0278
    116 H63        26.0146   14.2137   15.4617 H         1 ALA         0.0278
@<TRIPOS>BOND
     1    1    2 1  
     2    2    3 1  
     3    2    5 1  
     4    3    4 2  
     5    3    6 am 
     6    6    7 1  
     7    7    8 1  
     8    7   10 1  
     9    8    9 2  
    10    8   17 am 
    11   10   11 1  
    12   11   12 1  
    13   12   13 1  
    14   13   14 ar 
    15   14   15 ar 
    16   14   16 ar 
    17   17   18 1  
    18   18   19 1  
    19   18   24 1  
    20   19   20 1  
    21   20   21 1  
    22   21   22 1  
    23   22   23 1  
    24   23   26 1  
    25   23   27 1  
    26   23   28 1  
    27   24   25 2  
    28   24   29 am 
    29   29   30 1  
    30   30   31 1  
    31   30   33 1  
    32   31   32 2  
    33   31   35 am 
    34   33   34 1  
    35   35   36 1  
    36   36   37 1  
    37   36   39 1  
    38   37   38 2  
    39   37   40 am 
    40   40   41 1  
    41   41   42 1  
    42   42   43 2  
    43   42   44 am 
    44   44   45 1  
    45   45   46 1  
    46   45   48 1  
    47   46   47 2  
    48   46   49 am 
    49   49   50 1  
    50   50   51 1  
    51   50   53 1  
    52   51   52 2  
    53    1   54 1  
    54    1   55 1  
    55    1   56 1  
    56    2   57 1  
    57    5   58 1  
    58    5   59 1  
    59    5   60 1  
    60    6   61 1  
    61    7   62 1  
    62   10   63 1  
    63   10   64 1  
    64   11   65 1  
    65   11   66 1  
    66   12   67 1  
    67   12   68 1  
    68   13   69 1  
    69   15   70 1  
    70   15   71 1  
    71   16   72 1  
    72   16   73 1  
    73   17   74 1  
    74   18   75 1  
    75   19   76 1  
    76   19   77 1  
    77   20   78 1  
    78   20   79 1  
    79   21   80 1  
    80   21   81 1  
    81   22   82 1  
    82   22   83 1  
    83   26   84 1  
    84   26   85 1  
    85   26   86 1  
    86   27   87 1  
    87   27   88 1  
    88   27   89 1  
    89   28   90 1  
    90   28   91 1  
    91   28   92 1  
    92   29   93 1  
    93   30   94 1  
    94   33   95 1  
    95   33   96 1  
    96   34   97 1  
    97   35   98 1  
    98   36   99 1  
    99   39  100 1  
   100   39  101 1  
   101   39  102 1  
   102   40  103 1  
   103   41  104 1  
   104   41  105 1  
   105   44  106 1  
   106   45  107 1  
   107   48  108 1  
   108   48  109 1  
   109   48  110 1  
   110   49  111 1  
   111   50  112 1  
   112   51  113 1  
   113   53  114 1  
   114   53  115 1  
   115   53  116 1  
@<TRIPOS>SUBSTRUCTURE
     1 ALA         1

