5exn_ligand
  -I-interpret- 

 68 72  0  0  0  0  0  0  0  0999 V2000
   -3.0100   10.0650  -18.2730 C   0  0  0  0  0
   -0.0830    6.2040  -17.5340 C   0  0  0  0  0
   -0.6790    7.2120  -18.5010 C   0  0  0  0  0
    0.9860    5.3810  -17.9520 C   0  0  0  0  0
    1.5470    4.4360  -17.0800 C   0  0  0  0  0
    1.0580    4.3190  -15.7670 C   0  0  0  0  0
    0.0200    5.1320  -15.3460 C   0  0  0  0  0
   -0.5620    6.0500  -16.2220 C   0  0  0  0  0
    1.8000   10.8320  -11.2620 C   0  0  0  0  0
    2.3790   11.7090  -12.1910 C   0  0  0  0  0
   -6.4000   13.1190  -22.9240 C   0  0  0  0  0
   -5.0730   13.5220  -22.9290 C   0  0  0  0  0
    0.0140    9.3170  -17.3410 C   0  0  0  0  0
    0.9040    9.7570  -18.2450 N   0  0  0  0  0
    1.9670   10.4310  -17.7770 C   0  0  0  0  0
    2.1980   10.6620  -16.4340 C   0  0  0  0  0
    1.2630   10.2040  -15.4980 C   0  0  0  0  0
    0.1490    9.5260  -15.9970 C   0  0  0  0  0
    1.4170   10.4500  -14.0360 C   0  0  0  0  0
    2.1690   11.5280  -13.5500 C   0  0  0  0  0
    1.0110    9.7790  -11.7320 C   0  0  0  0  0
    0.8450    9.5840  -13.0940 C   0  0  0  0  0
    1.9630   10.8970   -9.8570 N   0  0  0  0  0
   -1.1410    8.5320  -17.8730 C   0  0  0  0  0
   -1.9810    9.2900  -18.7990 N   0  0  0  0  0
   -3.1470   10.2530  -17.0520 O   0  0  0  0  0
    2.7300   11.7840   -9.1700 C   0  0  0  0  0
    3.3260   12.7350   -9.6470 O   0  0  0  0  0
    2.7090   11.4660   -7.8700 O   0  0  0  0  0
    3.3760   12.4250   -6.9630 C   0  0  0  0  0
   -3.8570   10.7860  -19.2180 C   0  0  0  0  0
   -3.6080   11.0260  -20.4780 C   0  0  0  0  0
   -4.5180   11.7580  -21.3550 C   0  0  0  0  0
   -4.1220   12.8430  -22.1570 C   0  0  0  0  0
   -6.7730   12.0460  -22.1480 C   0  0  0  0  0
   -5.8660   11.3690  -21.3640 C   0  0  0  0  0
   -2.7420   13.2260  -22.2520 N   0  0  0  0  0
   -1.9220   13.3610  -23.2980 C   0  0  0  0  0
   -0.7340   13.7120  -22.8870 N   0  0  0  0  0
   -0.8270   13.7960  -21.5380 N   0  0  0  0  0
   -2.0300   13.5160  -21.1330 N   0  0  0  0  0
   -8.4290   11.5180  -22.1790 Cl  0  0  0  0  0
   -1.5651    6.7448  -18.9306 H   0  0  0  0  0
    0.1078    7.4642  -19.2119 H   0  0  0  0  0
    1.3796    5.4812  -18.9635 H   0  0  0  0  0
    2.3599    3.7941  -17.4195 H   0  0  0  0  0
    1.4946    3.5909  -15.0834 H   0  0  0  0  0
   -0.3460    5.0549  -14.3222 H   0  0  0  0  0
   -1.4014    6.6570  -15.8828 H   0  0  0  0  0
    2.9970   12.5368  -11.8432 H   0  0  0  0  0
   -7.1387   13.6462  -23.5278 H   0  0  0  0  0
   -4.7681   14.3731  -23.5380 H   0  0  0  0  0
    2.6884   10.8177  -18.4968 H   0  0  0  0  0
    3.0933   11.1920  -16.1090 H   0  0  0  0  0
   -0.6164    9.1618  -15.3117 H   0  0  0  0  0
    2.5982   12.2397  -14.2553 H   0  0  0  0  0
    0.5240    9.1080  -11.0244 H   0  0  0  0  0
    0.2549    8.7360  -13.4413 H   0  0  0  0  0
    1.4529   10.2080   -9.3043 H   0  0  0  0  0
   -1.7678    8.3028  -17.0112 H   0  0  0  0  0
   -1.8169    9.2517  -19.8050 H   0  0  0  0  0
    4.4267   12.5136   -7.2391 H   0  0  0  0  0
    2.8935   13.3987   -7.0473 H   0  0  0  0  0
    3.2977   12.0669   -5.9365 H   0  0  0  0  0
   -4.8018   11.1663  -18.8296 H   0  0  0  0  0
   -2.6707   10.6602  -20.8972 H   0  0  0  0  0
   -6.1953   10.5306  -20.7502 H   0  0  0  0  0
   -2.2031   13.2018  -24.3390 H   0  0  0  0  0
  1 25  1  0  0  0
  1 26  2  0  0  0
 31  1  1  0  0  0
  3  2  1  0  0  0
  2  4  4  0  0  0
  2  8  4  0  0  0
 24  3  1  0  0  0
  4  5  4  0  0  0
  5  6  4  0  0  0
  7  6  4  0  0  0
  8  7  4  0  0  0
 10  9  4  0  0  0
 21  9  4  0  0  0
  9 23  1  0  0  0
 20 10  4  0  0  0
 12 11  4  0  0  0
 11 35  4  0  0  0
 34 12  4  0  0  0
 13 14  4  0  0  0
 13 18  4  0  0  0
 24 13  1  0  0  0
 14 15  4  0  0  0
 15 16  4  0  0  0
 17 16  4  0  0  0
 18 17  4  0  0  0
 17 19  1  0  0  0
 19 20  4  0  0  0
 19 22  4  0  0  0
 22 21  4  0  0  0
 23 27  1  0  0  0
 25 24  1  0  0  0
 27 28  2  0  0  0
 27 29  1  0  0  0
 29 30  1  0  0  0
 32 31  2  0  0  0
 33 32  1  0  0  0
 33 34  4  0  0  0
 33 36  4  0  0  0
 34 37  1  0  0  0
 35 36  4  0  0  0
 35 42  1  0  0  0
 37 38  4  0  0  0
 37 41  4  0  0  0
 38 39  4  0  0  0
 39 40  4  0  0  0
 40 41  4  0  0  0
  3 43  1  0  0  0
  3 44  1  0  0  0
  4 45  1  0  0  0
  5 46  1  0  0  0
  6 47  1  0  0  0
  7 48  1  0  0  0
  8 49  1  0  0  0
 10 50  1  0  0  0
 11 51  1  0  0  0
 12 52  1  0  0  0
 15 53  1  0  0  0
 16 54  1  0  0  0
 18 55  1  0  0  0
 20 56  1  0  0  0
 21 57  1  0  0  0
 22 58  1  0  0  0
 23 59  1  0  0  0
 24 60  1  0  0  0
 25 61  1  0  0  0
 30 62  1  0  0  0
 30 63  1  0  0  0
 30 64  1  0  0  0
 31 65  1  0  0  0
 32 66  1  0  0  0
 36 67  1  0  0  0
 38 68  1  0  0  0
M  END
$$$$
