4nh8_ligand
  -I-interpret- 

 55 58  0  0  0  0  0  0  0  0999 V2000
    7.4470   -9.6830  -23.1330 C   0  0  0  0  0
    6.3280  -10.6220  -23.5090 C   0  0  0  0  0
    5.0080  -10.3310  -23.4230 C   0  0  0  0  0
    4.2540  -11.4000  -23.8810 N   0  0  0  0  0
    5.1330  -12.4000  -24.2770 C   0  0  0  0  0
    6.4200  -11.9530  -24.0430 C   0  0  0  0  0
    7.5400  -12.8590  -24.3470 C   0  0  0  0  0
    8.7060  -12.4950  -24.2430 O   0  0  0  0  0
    7.2050  -14.2510  -24.8360 C   0  0  0  0  0
    5.9300  -14.3570  -25.6890 C   0  0  0  0  0
    6.1340  -13.6410  -27.0270 C   0  0  0  0  0
    5.5980  -15.8210  -25.9640 C   0  0  0  0  0
    4.7770  -13.7120  -24.9110 C   0  0  0  0  0
    2.8290  -11.3650  -24.0850 C   0  0  0  0  0
    2.2450  -10.2000  -24.5790 C   0  0  0  0  0
    0.8640  -10.1470  -24.7980 C   0  0  0  0  0
    0.2810   -8.9720  -25.2250 N   0  0  0  0  0
    0.9560   -7.7370  -25.6140 C   0  0  0  0  0
    1.4950   -7.8480  -27.0460 C   0  0  0  0  0
    0.2750   -7.5190  -27.8950 C   0  0  0  0  0
   -0.6060   -6.7610  -27.0440 O   0  0  0  0  0
   -0.0390   -6.6070  -25.7430 C   0  0  0  0  0
    0.0690  -11.3080  -24.5330 C   0  0  0  0  0
   -1.4170  -11.3160  -24.8180 C   0  0  0  0  0
   -1.7940  -10.6550  -25.8860 N   0  0  0  0  0
   -2.2230  -11.9490  -24.1040 O   0  0  0  0  0
    0.7170  -12.4430  -24.0570 C   0  0  0  0  0
   -0.0210  -13.5650  -23.8740 F   0  0  0  0  0
    2.0610  -12.4990  -23.8000 C   0  0  0  0  0
    7.3862   -8.7836  -23.7458 H   0  0  0  0  0
    7.3557   -9.4140  -22.0807 H   0  0  0  0  0
    8.4048  -10.1752  -23.3018 H   0  0  0  0  0
    4.5984   -9.3930  -23.0483 H   0  0  0  0  0
    7.0395  -14.8626  -23.9490 H   0  0  0  0  0
    8.0329  -14.5671  -25.4706 H   0  0  0  0  0
    6.3579  -12.5899  -26.8447 H   0  0  0  0  0
    6.9636  -14.1031  -27.5621 H   0  0  0  0  0
    5.2252  -13.7221  -27.6233 H   0  0  0  0  0
    6.4256  -16.2854  -26.5002 H   0  0  0  0  0
    5.4390  -16.3399  -25.0187 H   0  0  0  0  0
    4.6931  -15.8796  -26.5688 H   0  0  0  0  0
    3.9722  -13.5219  -25.6211 H   0  0  0  0  0
    4.5034  -14.3970  -24.1085 H   0  0  0  0  0
    2.8645   -9.3295  -24.7949 H   0  0  0  0  0
   -0.7378   -8.9651  -25.2747 H   0  0  0  0  0
    1.7257   -7.5666  -24.8613 H   0  0  0  0  0
    1.9115   -8.8309  -27.2665 H   0  0  0  0  0
    2.3350   -7.1796  -27.2351 H   0  0  0  0  0
   -0.2095   -8.4250  -28.2589 H   0  0  0  0  0
    0.5526   -6.9510  -28.7829 H   0  0  0  0  0
    0.4369   -5.6338  -25.6223 H   0  0  0  0  0
   -0.7997   -6.6475  -24.9634 H   0  0  0  0  0
   -2.7766  -10.6457  -26.1596 H   0  0  0  0  0
   -1.1047  -10.1502  -26.4431 H   0  0  0  0  0
    2.5177  -13.3983  -23.3867 H   0  0  0  0  0
  1  2  1  0  0  0
  2  3  4  0  0  0
  2  6  4  0  0  0
  3  4  4  0  0  0
  4  5  4  0  0  0
  4 14  1  0  0  0
  5  6  4  0  0  0
  5 13  1  0  0  0
  6  7  1  0  0  0
  7  8  2  0  0  0
  7  9  1  0  0  0
  9 10  1  0  0  0
 10 11  1  0  0  0
 10 12  1  0  0  0
 10 13  1  0  0  0
 14 15  4  0  0  0
 14 29  4  0  0  0
 15 16  4  0  0  0
 16 17  1  0  0  0
 16 23  4  0  0  0
 17 18  1  0  0  0
 18 19  1  0  0  0
 18 22  1  0  0  0
 19 20  1  0  0  0
 20 21  1  0  0  0
 21 22  1  0  0  0
 23 24  1  0  0  0
 23 27  4  0  0  0
 24 25  1  0  0  0
 24 26  2  0  0  0
 27 28  1  0  0  0
 27 29  4  0  0  0
  1 30  1  0  0  0
  1 31  1  0  0  0
  1 32  1  0  0  0
  3 33  1  0  0  0
  9 34  1  0  0  0
  9 35  1  0  0  0
 11 36  1  0  0  0
 11 37  1  0  0  0
 11 38  1  0  0  0
 12 39  1  0  0  0
 12 40  1  0  0  0
 12 41  1  0  0  0
 13 42  1  0  0  0
 13 43  1  0  0  0
 15 44  1  0  0  0
 17 45  1  0  0  0
 18 46  1  0  0  0
 19 47  1  0  0  0
 19 48  1  0  0  0
 20 49  1  0  0  0
 20 50  1  0  0  0
 22 51  1  0  0  0
 22 52  1  0  0  0
 25 53  1  0  0  0
 25 54  1  0  0  0
 29 55  1  0  0  0
M  END
$$$$
